@<TRIPOS>MOLECULE
NONAME
53 55 1 0 0 
SMALL
USER_CHARGES


@<TRIPOS>ATOM
  1 CL      -0.7340    -1.4710    -0.6600 Cl    1 <1>  -0.1770 
  2 C       -1.5410    -2.7220     0.2650 C.ar  1 <1>   0.1770 
  3 C       -2.9340    -2.7670     0.2770 C.ar  1 <1>   0.1170 
  4 C       -0.7690    -3.6310     0.9630 C.ar  1 <1>  -0.1500 
  5 N       -3.6670    -1.8080    -0.4480 N.am  1 <1>  -0.5470 
  6 C       -3.5350    -3.7650     1.0370 C.ar  1 <1>  -0.1500 
  7 C       -1.3880    -4.6200     1.7070 C.ar  1 <1>  -0.1500 
  8 C       -4.9320    -1.8510    -0.9400 C.2   1 <1>   0.6900 
  9 C       -2.7800    -4.6850     1.7460 C.ar  1 <1>   0.0820 
 10 O       -5.6080    -2.8590    -0.9080 O.2   1 <1>  -0.5700 
 11 N       -5.4680    -0.7150    -1.4530 N.am  1 <1>  -0.7300 
 12 O       -3.4700    -5.6140     2.4530 O.3   1 <1>  -0.3630 
 13 C       -6.7180    -0.6320    -2.2700 C.3   1 <1>   0.1400 
 14 C       -2.8080    -6.6250     3.1800 C.3   1 <1>   0.0400 
 15 C       -7.9970    -0.6190    -1.4030 C.3   1 <1>   0.3430 
 16 N       -8.1330    -1.8680    -0.5990 N.4   1 <1>  -0.9590 
 17 C       -8.6850    -3.0280    -1.3870 C.3   1 <1>   0.3430 
 18 C       -8.8750    -1.6740     0.6970 C.3   1 <1>   0.3430 
 19 C       -8.7080    -4.3320    -0.5640 C.3   1 <1>   0.2090 
 20 C       -8.9470    -2.9650     1.5440 C.3   1 <1>   0.2090 
 21 N       -9.4190    -4.1280     0.7340 N.pl3 1 <1>  -0.8380 
 22 C      -10.7190    -4.6150     0.8600 C.ar  1 <1>   0.1000 
 23 C      -11.8190    -3.7720     0.9980 C.ar  1 <1>  -0.1500 
 24 C      -10.9380    -5.9880     0.8390 C.ar  1 <1>  -0.1500 
 25 C      -13.0980    -4.2880     1.1040 C.ar  1 <1>  -0.1500 
 26 C      -12.2150    -6.5080     0.9430 C.ar  1 <1>  -0.1500 
 27 C      -13.2990    -5.6570     1.0750 C.ar  1 <1>  -0.1500 
 28 H        0.3040    -3.5630     0.9240 H     1 <1>   0.1500 
 29 H       -3.1000    -1.0270    -0.7780 H     1 <1>   0.3700 
 30 H       -4.6030    -3.8430     1.0940 H     1 <1>   0.1500 
 31 H       -0.7790    -5.3220     2.2460 H     1 <1>   0.1500 
 32 H       -4.8710     0.1160    -1.4770 H     1 <1>   0.3700 
 33 H       -6.7520    -1.4630    -2.9550 H     1 <1>   0.0800 
 34 H       -6.6850     0.2690    -2.8580 H     1 <1>   0.0800 
 35 H       -3.5540    -7.2470     3.6410 H     1 <1>   0.0800 
 36 H       -2.1970    -6.1670     3.9370 H     1 <1>   0.0800 
 37 H       -2.2130    -7.2110     2.5030 H     1 <1>   0.0800 
 38 H       -8.8620    -0.4970    -2.0330 H     1 <1>   0.0800 
 39 H       -7.9450     0.2320    -0.7450 H     1 <1>   0.0800 
 40 H       -7.1620    -2.1670    -0.3660 H     1 <1>   0.4500 
 41 H       -8.0820    -3.1910    -2.2650 H     1 <1>   0.0800 
 42 H       -9.6910    -2.8100    -1.7030 H     1 <1>   0.0800 
 43 H       -9.8820    -1.3560     0.4870 H     1 <1>   0.0800 
 44 H       -8.3980    -0.9040     1.2790 H     1 <1>   0.0800 
 45 H       -7.7010    -4.6590    -0.3720 H     1 <1>   0.0800 
 46 H       -9.2010    -5.1010    -1.1320 H     1 <1>   0.0800 
 47 H       -9.6060    -2.8150     2.3820 H     1 <1>   0.0800 
 48 H       -7.9710    -3.1900     1.9380 H     1 <1>   0.0800 
 49 H      -11.6830    -2.7100     1.0180 H     1 <1>   0.1500 
 50 H      -10.0960    -6.6480     0.7470 H     1 <1>   0.1500 
 51 H      -13.9410    -3.6280     1.2100 H     1 <1>   0.1500 
 52 H      -12.3660    -7.5730     0.9250 H     1 <1>   0.1500 
 53 H      -14.2930    -6.0600     1.1580 H     1 <1>   0.1500 
@<TRIPOS>BOND
  1   1   2  1   
  2   2   3  ar  
  3   2   4  ar  
  4   3   5  1   
  5   3   6  ar  
  6   4   7  ar  
  7   4  28  1   
  8   5   8  am  
  9   5  29  1   
 10   6   9  ar  
 11   6  30  1   
 12   7   9  ar  
 13   7  31  1   
 14   8  10  2   
 15   8  11  am  
 16   9  12  1   
 17  11  13  1   
 18  11  32  1   
 19  12  14  1   
 20  13  15  1   
 21  13  33  1   
 22  13  34  1   
 23  14  35  1   
 24  14  36  1   
 25  14  37  1   
 26  15  16  1   
 27  15  38  1   
 28  15  39  1   
 29  16  17  1   
 30  16  18  1   
 31  16  40  1   
 32  17  19  1   
 33  17  41  1   
 34  17  42  1   
 35  18  20  1   
 36  18  43  1   
 37  18  44  1   
 38  19  21  1   
 39  19  45  1   
 40  19  46  1   
 41  20  21  1   
 42  20  47  1   
 43  20  48  1   
 44  21  22  1   
 45  22  23  ar  
 46  22  24  ar  
 47  23  25  ar  
 48  23  49  1   
 49  24  26  ar  
 50  24  50  1   
 51  25  27  ar  
 52  25  51  1   
 53  26  27  ar  
 54  26  52  1   
 55  27  53  1   
@<TRIPOS>SUBSTRUCTURE
  1 ****  10 GROUP 4 **** **** 0

# MOE 2024.06 (io_trps.svl 2023.06)
