@<TRIPOS>MOLECULE
NONAME
49 50 1 0 0 
SMALL
USER_CHARGES


@<TRIPOS>ATOM
  1 O       -1.0350    -0.1480     0.2620 O.2   1 <1>  -0.5700 
  2 C       -0.9190     1.0350     0.0460 C.2   1 <1>   0.5690 
  3 N       -1.9790     1.8640    -0.2040 N.am  1 <1>  -0.5470 
  4 C        0.4830     1.6540     0.0340 C.3   1 <1>  -0.0190 
  5 C       -3.3610     1.6130    -0.2450 C.ar  1 <1>   0.1170 
  6 C        1.3330     1.0940    -1.1190 C.3   1 <1>  -0.2400 
  7 C        1.2090     1.4410     1.3730 C.3   1 <1>  -0.2400 
  8 C       -4.1800     2.5010    -0.9320 C.ar  1 <1>  -0.1500 
  9 C       -3.9590     0.5250     0.3840 C.ar  1 <1>  -0.1500 
 10 C       -5.5480     2.3090    -0.9940 C.ar  1 <1>  -0.1500 
 11 C       -5.3270     0.3330     0.3210 C.ar  1 <1>  -0.1500 
 12 C       -6.1450     1.2210    -0.3650 C.ar  1 <1>   0.1170 
 13 N       -7.5270     0.9710    -0.4010 N.am  1 <1>  -0.5470 
 14 C       -8.6000     1.7540    -0.7310 C.2   1 <1>   0.5690 
 15 O       -8.5140     2.9070    -1.0780 O.2   1 <1>  -0.5700 
 16 C       -9.9890     1.1330    -0.6490 C.3   1 <1>   0.1810 
 17 O       -9.9210    -0.2130    -0.1930 O.3   1 <1>  -0.3630 
 18 C      -11.0380    -0.9750    -0.0540 C.ar  1 <1>   0.0820 
 19 C      -10.8720    -2.2920     0.3640 C.ar  1 <1>  -0.1440 
 20 C      -12.3190    -0.4920    -0.3110 C.ar  1 <1>  -0.1500 
 21 C      -11.9830    -3.1060     0.5190 C.ar  1 <1>  -0.1500 
 22 C       -9.4850    -2.8490     0.6540 C.3   1 <1>  -0.0970 
 23 C      -13.4190    -1.3160    -0.1530 C.ar  1 <1>  -0.1500 
 24 C      -13.2570    -2.6270     0.2610 C.ar  1 <1>  -0.1440 
 25 C      -14.4620    -3.5320     0.4380 C.3   1 <1>  -0.0970 
 26 H       -1.7250     2.8200    -0.4360 H     1 <1>   0.3700 
 27 H        0.3850     2.7140    -0.1170 H     1 <1>   0.0800 
 28 H        1.4700     0.0330    -0.9970 H     1 <1>   0.0800 
 29 H        2.2990     1.5660    -1.1420 H     1 <1>   0.0800 
 30 H        0.8420     1.2660    -2.0600 H     1 <1>   0.0800 
 31 H        1.3480     0.3900     1.5580 H     1 <1>   0.0800 
 32 H        0.6270     1.8530     2.1790 H     1 <1>   0.0800 
 33 H        2.1710     1.9210     1.3630 H     1 <1>   0.0800 
 34 H       -3.7490     3.3500    -1.4290 H     1 <1>   0.1500 
 35 H       -3.3570    -0.1770     0.9300 H     1 <1>   0.1500 
 36 H       -6.1500     3.0120    -1.5390 H     1 <1>   0.1500 
 37 H       -5.7590    -0.5170     0.8170 H     1 <1>   0.1500 
 38 H       -7.8070     0.0360    -0.0980 H     1 <1>   0.3700 
 39 H      -10.4400     1.1410    -1.6240 H     1 <1>   0.0800 
 40 H      -10.5880     1.6970     0.0420 H     1 <1>   0.0800 
 41 H      -12.4880     0.5170    -0.6340 H     1 <1>   0.1500 
 42 H      -11.8600    -4.1240     0.8430 H     1 <1>   0.1500 
 43 H       -8.8760    -2.7870    -0.2300 H     1 <1>   0.0800 
 44 H       -9.5370    -3.8780     0.9610 H     1 <1>   0.0800 
 45 H       -9.0210    -2.2800     1.4390 H     1 <1>   0.0800 
 46 H      -14.4040    -0.9320    -0.3520 H     1 <1>   0.1500 
 47 H      -14.7810    -3.5170     1.4640 H     1 <1>   0.0800 
 48 H      -14.2140    -4.5430     0.1650 H     1 <1>   0.0800 
 49 H      -15.2760    -3.2050    -0.1840 H     1 <1>   0.0800 
@<TRIPOS>BOND
  1   1   2  2   
  2   2   3  am  
  3   2   4  1   
  4   3   5  1   
  5   3  26  1   
  6   4   6  1   
  7   4   7  1   
  8   4  27  1   
  9   5   8  ar  
 10   5   9  ar  
 11   6  28  1   
 12   6  29  1   
 13   6  30  1   
 14   7  31  1   
 15   7  32  1   
 16   7  33  1   
 17   8  10  ar  
 18   8  34  1   
 19   9  11  ar  
 20   9  35  1   
 21  10  12  ar  
 22  10  36  1   
 23  11  12  ar  
 24  11  37  1   
 25  12  13  1   
 26  13  14  am  
 27  13  38  1   
 28  14  15  2   
 29  14  16  1   
 30  16  17  1   
 31  16  39  1   
 32  16  40  1   
 33  17  18  1   
 34  18  19  ar  
 35  18  20  ar  
 36  19  21  ar  
 37  19  22  1   
 38  20  23  ar  
 39  20  41  1   
 40  21  24  ar  
 41  21  42  1   
 42  22  43  1   
 43  22  44  1   
 44  22  45  1   
 45  23  24  ar  
 46  23  46  1   
 47  24  25  1   
 48  25  47  1   
 49  25  48  1   
 50  25  49  1   
@<TRIPOS>SUBSTRUCTURE
  1 ****  13 GROUP 4 **** **** 0

# MOE 2024.06 (io_trps.svl 2023.06)
