@<TRIPOS>MOLECULE
NONAME
51 53 1 0 0 
SMALL
USER_CHARGES


@<TRIPOS>ATOM
  1 O       -0.3670    -1.2270    -1.5900 O.3   1 <1>  -0.3630 
  2 C       -1.2860    -1.2190    -0.5720 C.ar  1 <1>   0.0830 
  3 C       -0.5060    -0.3710    -2.7050 C.3   1 <1>   0.0400 
  4 C       -1.0690    -2.0650     0.5320 C.ar  1 <1>   0.1000 
  5 C       -2.4170    -0.4070    -0.6020 C.ar  1 <1>  -0.1500 
  6 N        0.0350    -2.9210     0.6570 N.pl3 1 <1>  -0.8380 
  7 C       -1.9930    -2.0640     1.5660 C.ar  1 <1>  -0.1500 
  8 C       -3.3240    -0.4250     0.4430 C.ar  1 <1>  -0.1500 
  9 C        1.3440    -2.2190     0.8140 C.3   1 <1>   0.2090 
 10 C        0.0640    -4.0370    -0.3330 C.3   1 <1>   0.2090 
 11 C       -3.1120    -1.2540     1.5290 C.ar  1 <1>  -0.1500 
 12 C        2.4760    -3.2200     1.1200 C.3   1 <1>   0.3430 
 13 C        1.2020    -5.0280    -0.0160 C.3   1 <1>   0.3430 
 14 N        2.5390    -4.3440     0.1120 N.4   1 <1>  -0.9590 
 15 C        3.6310    -5.3030     0.4220 C.3   1 <1>   0.4860 
 16 C        4.9520    -4.5640     0.3500 C.ar  1 <1>  -0.1430 
 17 C        5.4680    -4.1720    -0.8780 C.ar  1 <1>  -0.1500 
 18 C        5.6520    -4.2660     1.5090 C.ar  1 <1>  -0.1500 
 19 C        6.6620    -3.4750    -0.9520 C.ar  1 <1>  -0.1430 
 20 C        6.8460    -3.5720     1.4440 C.ar  1 <1>  -0.1500 
 21 C        7.3580    -3.1690     0.2140 C.ar  1 <1>   0.0830 
 22 C        7.2120    -3.0520    -2.3080 C.3   1 <1>  -0.0970 
 23 O        8.5240    -2.4830     0.0900 O.3   1 <1>  -0.3620 
 24 C        9.3580    -2.2180     1.1960 C.3   1 <1>   0.0400 
 25 H        0.3310    -0.5330    -3.3600 H     1 <1>   0.0800 
 26 H       -0.5100     0.6490    -2.3650 H     1 <1>   0.0800 
 27 H       -1.4210    -0.6110    -3.2180 H     1 <1>   0.0800 
 28 H       -2.6180     0.2500    -1.4260 H     1 <1>   0.1500 
 29 H       -1.8290    -2.7090     2.4100 H     1 <1>   0.1500 
 30 H       -4.1950     0.2070     0.4120 H     1 <1>   0.1500 
 31 H        1.2670    -1.5100     1.6210 H     1 <1>   0.0800 
 32 H        1.5790    -1.6730    -0.0820 H     1 <1>   0.0800 
 33 H        0.1930    -3.6450    -1.3260 H     1 <1>   0.0800 
 34 H       -0.8800    -4.5550    -0.3040 H     1 <1>   0.0800 
 35 H       -3.8170    -1.2680     2.3420 H     1 <1>   0.1500 
 36 H        2.3070    -3.6250     2.1040 H     1 <1>   0.0800 
 37 H        3.4130    -2.6880     1.1370 H     1 <1>   0.0800 
 38 H        1.2420    -5.7730    -0.7930 H     1 <1>   0.0800 
 39 H        0.9610    -5.5240     0.9090 H     1 <1>   0.0800 
 40 H        2.7670    -3.9060    -0.7890 H     1 <1>   0.4500 
 41 H        3.6360    -6.1080    -0.2950 H     1 <1>   0.0800 
 42 H        3.4950    -5.7210     1.4060 H     1 <1>   0.0800 
 43 H        4.9480    -4.4100    -1.7890 H     1 <1>   0.1500 
 44 H        5.2810    -4.5690     2.4740 H     1 <1>   0.1500 
 45 H        7.3660    -3.3530     2.3570 H     1 <1>   0.1500 
 46 H        6.5690    -3.3610    -3.1110 H     1 <1>   0.0800 
 47 H        8.1820    -3.4920    -2.4590 H     1 <1>   0.0800 
 48 H        7.3160    -1.9820    -2.3420 H     1 <1>   0.0800 
 49 H       10.2320    -1.7040     0.8380 H     1 <1>   0.0800 
 50 H        9.6440    -3.1510     1.6490 H     1 <1>   0.0800 
 51 H        8.8280    -1.5940     1.8930 H     1 <1>   0.0800 
@<TRIPOS>BOND
  1   1   2  1   
  2   1   3  1   
  3   2   4  ar  
  4   2   5  ar  
  5   3  25  1   
  6   3  26  1   
  7   3  27  1   
  8   4   6  1   
  9   4   7  ar  
 10   5   8  ar  
 11   5  28  1   
 12   6   9  1   
 13   6  10  1   
 14   7  11  ar  
 15   7  29  1   
 16   8  11  ar  
 17   8  30  1   
 18   9  12  1   
 19   9  31  1   
 20   9  32  1   
 21  10  13  1   
 22  10  33  1   
 23  10  34  1   
 24  11  35  1   
 25  12  14  1   
 26  12  36  1   
 27  12  37  1   
 28  13  14  1   
 29  13  38  1   
 30  13  39  1   
 31  14  15  1   
 32  14  40  1   
 33  15  16  1   
 34  15  41  1   
 35  15  42  1   
 36  16  17  ar  
 37  16  18  ar  
 38  17  19  ar  
 39  17  43  1   
 40  18  20  ar  
 41  18  44  1   
 42  19  21  ar  
 43  19  22  1   
 44  20  21  ar  
 45  20  45  1   
 46  21  23  1   
 47  22  46  1   
 48  22  47  1   
 49  22  48  1   
 50  23  24  1   
 51  24  49  1   
 52  24  50  1   
 53  24  51  1   
@<TRIPOS>SUBSTRUCTURE
  1 ****  12 GROUP 4 **** **** 0

# MOE 2024.06 (io_trps.svl 2023.06)
