@<TRIPOS>MOLECULE
NONAME
45 46 1 0 0 
SMALL
USER_CHARGES


@<TRIPOS>ATOM
  1 CL       0.2580     3.2480     2.6730 Cl    1 <1>  -0.1770 
  2 C       -0.6770     2.4060     1.4590 C.ar  1 <1>   0.1770 
  3 C       -0.8330     2.9420     0.1870 C.ar  1 <1>  -0.1440 
  4 C       -1.2410     1.1910     1.8050 C.ar  1 <1>  -0.1500 
  5 C       -1.5700     2.2250    -0.7450 C.ar  1 <1>  -0.1500 
  6 C       -0.2210     4.2780    -0.2070 C.3   1 <1>   0.2140 
  7 C       -1.9750     0.4890     0.8660 C.ar  1 <1>  -0.1500 
  8 C       -2.1370     1.0070    -0.4080 C.ar  1 <1>  -0.1500 
  9 S        1.1510     3.9790    -1.3590 S.3   1 <1>  -0.4600 
 10 C        2.1630     2.7090    -0.5090 C.3   1 <1>   0.1310 
 11 C        3.4570     2.4130    -1.2620 C.2   1 <1>   0.5690 
 12 O        3.5510     1.3190    -1.7710 O.2   1 <1>  -0.5700 
 13 N        4.4840     3.3290    -1.3320 N.am  1 <1>  -0.6600 
 14 C        4.4380     4.7040    -0.7610 C.3   1 <1>   0.1400 
 15 C        5.7340     3.0220    -2.0810 C.3   1 <1>   0.1400 
 16 C        5.6380     4.9180     0.1650 C.3   1 <1>  -0.1600 
 17 C        6.9450     3.2210    -1.1660 C.3   1 <1>  -0.1600 
 18 C        6.9710     4.6360    -0.5540 C.3   1 <1>  -0.0190 
 19 C        8.1580     4.8590     0.3820 C.2   1 <1>   0.6590 
 20 O        8.8340     3.9570     0.8080 O.2   1 <1>  -0.5700 
 21 O        8.3980     6.1250     0.7000 O.3   1 <1>  -0.4300 
 22 C        9.4580     6.4770     1.5590 C.3   1 <1>   0.1200 
 23 C        9.4450     7.9930     1.7270 C.3   1 <1>  -0.2400 
 24 H       -1.1030     0.8020     2.7970 H     1 <1>   0.1500 
 25 H       -1.6980     2.6120    -1.7420 H     1 <1>   0.1500 
 26 H        0.1770     4.8240     0.6280 H     1 <1>   0.0800 
 27 H       -0.9360     4.8920    -0.7250 H     1 <1>   0.0800 
 28 H       -2.4180    -0.4580     1.1230 H     1 <1>   0.1500 
 29 H       -2.7050     0.4600    -1.1420 H     1 <1>   0.1500 
 30 H        1.5670     1.8170    -0.4540 H     1 <1>   0.0800 
 31 H        2.3740     3.0620     0.4820 H     1 <1>   0.0800 
 32 H        3.5320     4.8690    -0.2070 H     1 <1>   0.0800 
 33 H        4.4640     5.4150    -1.5690 H     1 <1>   0.0800 
 34 H        5.8010     3.6770    -2.9330 H     1 <1>   0.0800 
 35 H        5.7240     2.0080    -2.4440 H     1 <1>   0.0800 
 36 H        5.5410     4.2690     1.0190 H     1 <1>   0.0800 
 37 H        5.6270     5.9330     0.5220 H     1 <1>   0.0800 
 38 H        7.8450     3.0530    -1.7300 H     1 <1>   0.0800 
 39 H        6.9100     2.4810    -0.3840 H     1 <1>   0.0800 
 40 H        7.0750     5.3410    -1.3590 H     1 <1>   0.0800 
 41 H       10.3810     6.1440     1.1160 H     1 <1>   0.0800 
 42 H        9.3110     5.9810     2.5040 H     1 <1>   0.0800 
 43 H        9.5830     8.4740     0.7750 H     1 <1>   0.0800 
 44 H       10.2460     8.2910     2.3800 H     1 <1>   0.0800 
 45 H        8.5140     8.3110     2.1610 H     1 <1>   0.0800 
@<TRIPOS>BOND
  1   1   2  1   
  2   2   3  ar  
  3   2   4  ar  
  4   3   5  ar  
  5   3   6  1   
  6   4   7  ar  
  7   4  24  1   
  8   5   8  ar  
  9   5  25  1   
 10   6   9  1   
 11   6  26  1   
 12   6  27  1   
 13   7   8  ar  
 14   7  28  1   
 15   8  29  1   
 16   9  10  1   
 17  10  11  1   
 18  10  30  1   
 19  10  31  1   
 20  11  12  2   
 21  11  13  am  
 22  13  14  1   
 23  13  15  1   
 24  14  16  1   
 25  14  32  1   
 26  14  33  1   
 27  15  17  1   
 28  15  34  1   
 29  15  35  1   
 30  16  18  1   
 31  16  36  1   
 32  16  37  1   
 33  17  18  1   
 34  17  38  1   
 35  17  39  1   
 36  18  19  1   
 37  18  40  1   
 38  19  20  2   
 39  19  21  1   
 40  21  22  1   
 41  22  23  1   
 42  22  41  1   
 43  22  42  1   
 44  23  43  1   
 45  23  44  1   
 46  23  45  1   
@<TRIPOS>SUBSTRUCTURE
  1 ****  10 GROUP 4 **** **** 0

# MOE 2024.06 (io_trps.svl 2023.06)
