@<TRIPOS>MOLECULE
NONAME
42 43 1 0 0 
SMALL
USER_CHARGES


@<TRIPOS>ATOM
  1 BR      -0.0390     0.4720    -0.5140 Br    1 <1>  -0.1110 
  2 C        1.6780     0.9970     0.1780 C.ar  1 <1>   0.1110 
  3 C        2.6470     1.4250    -0.7060 C.ar  1 <1>  -0.1500 
  4 C        1.8930     0.9290     1.5420 C.ar  1 <1>  -0.1500 
  5 C        3.8880     1.7990    -0.2100 C.ar  1 <1>   0.1170 
  6 C        3.1310     1.3090     2.0340 C.ar  1 <1>  -0.1500 
  7 N        4.8890     2.2340    -1.0800 N.am  1 <1>  -0.5470 
  8 C        4.1170     1.7420     1.1620 C.ar  1 <1>  -0.1500 
  9 C        6.0880     1.6720    -1.3880 C.2   1 <1>   0.5690 
 10 O        6.8530     2.3000    -2.0760 O.2   1 <1>  -0.5700 
 11 C        6.4450     0.2660    -0.8830 C.3   1 <1>  -0.0190 
 12 C        7.9580     0.0740    -0.5990 C.3   1 <1>  -0.0190 
 13 C        5.8900    -0.8280    -1.8180 C.3   1 <1>  -0.0220 
 14 C        8.4750     1.1150     0.3920 C.2   1 <1>   0.6590 
 15 C        8.8090     0.0040    -1.8880 C.3   1 <1>  -0.0220 
 16 C        6.8530    -1.1960    -2.9320 C.2   1 <1>  -0.2880 
 17 O        7.7570     1.5820     1.2420 O.2   1 <1>  -0.5700 
 18 O        9.7570     1.4470     0.2960 O.3   1 <1>  -0.4300 
 19 C        8.1340    -0.8240    -2.9670 C.2   1 <1>  -0.2880 
 20 C       10.3680     2.3910     1.1400 C.3   1 <1>   0.2000 
 21 C       11.5280     3.0050     0.3630 C.3   1 <1>  -0.2400 
 22 C       10.8520     1.6710     2.3980 C.3   1 <1>  -0.2400 
 23 H        2.4430     1.4650    -1.7600 H     1 <1>   0.1500 
 24 H        1.1120     0.5890     2.2000 H     1 <1>   0.1500 
 25 H        3.3270     1.2700     3.0920 H     1 <1>   0.1500 
 26 H        4.7550     3.1440    -1.5230 H     1 <1>   0.3700 
 27 H        5.0780     2.0410     1.5480 H     1 <1>   0.1500 
 28 H        5.9450     0.1360     0.0570 H     1 <1>   0.0800 
 29 H        8.0630    -0.8780    -0.1120 H     1 <1>   0.0800 
 30 H        4.9570    -0.4990    -2.2420 H     1 <1>   0.0800 
 31 H        5.6890    -1.7160    -1.2440 H     1 <1>   0.0800 
 32 H        9.7640    -0.4330    -1.6530 H     1 <1>   0.0800 
 33 H        8.9940     0.9910    -2.2770 H     1 <1>   0.0800 
 34 H        6.3990    -1.7940    -3.7050 H     1 <1>   0.1500 
 35 H        8.7950    -1.0810    -3.7780 H     1 <1>   0.1500 
 36 H        9.6490     3.1560     1.3880 H     1 <1>   0.0800 
 37 H       12.2390     2.2480     0.0850 H     1 <1>   0.0800 
 38 H       12.0260     3.7400     0.9680 H     1 <1>   0.0800 
 39 H       11.1580     3.4900    -0.5230 H     1 <1>   0.0800 
 40 H       11.5400     0.8850     2.1420 H     1 <1>   0.0800 
 41 H       10.0150     1.2570     2.9310 H     1 <1>   0.0800 
 42 H       11.3500     2.3670     3.0480 H     1 <1>   0.0800 
@<TRIPOS>BOND
  1   1   2  1   
  2   2   3  ar  
  3   2   4  ar  
  4   3   5  ar  
  5   3  23  1   
  6   4   6  ar  
  7   4  24  1   
  8   5   7  1   
  9   5   8  ar  
 10   6   8  ar  
 11   6  25  1   
 12   7   9  am  
 13   7  26  1   
 14   8  27  1   
 15   9  10  2   
 16   9  11  1   
 17  11  12  1   
 18  11  13  1   
 19  11  28  1   
 20  12  14  1   
 21  12  15  1   
 22  12  29  1   
 23  13  16  1   
 24  13  30  1   
 25  13  31  1   
 26  14  17  2   
 27  14  18  1   
 28  15  19  1   
 29  15  32  1   
 30  15  33  1   
 31  16  19  2   
 32  16  34  1   
 33  18  20  1   
 34  19  35  1   
 35  20  21  1   
 36  20  22  1   
 37  20  36  1   
 38  21  37  1   
 39  21  38  1   
 40  21  39  1   
 41  22  40  1   
 42  22  41  1   
 43  22  42  1   
@<TRIPOS>SUBSTRUCTURE
  1 ****  11 GROUP 4 **** **** 0

# MOE 2024.06 (io_trps.svl 2023.06)
