@<TRIPOS>MOLECULE
NONAME
45 46 1 0 0 
SMALL
USER_CHARGES


@<TRIPOS>ATOM
  1 O        0.0090     0.3640     0.0810 O.2   1 <1>  -0.5700 
  2 C       -0.1100     1.5550    -0.1240 C.2   1 <1>   0.5440 
  3 N        0.9450     2.2470    -0.6480 N.am  1 <1>  -0.7300 
  4 C       -1.3550     2.2320     0.1970 C.ar  1 <1>   0.0860 
  5 C        2.2720     1.6780    -0.9820 C.3   1 <1>   0.1400 
  6 C       -2.1520     1.7930     1.2530 C.ar  1 <1>  -0.1500 
  7 C       -1.8100     3.3350    -0.5270 C.ar  1 <1>  -0.1500 
  8 C        3.3780     2.3850    -0.1820 C.3   1 <1>  -0.0800 
  9 C       -3.3420     2.4190     1.5750 C.ar  1 <1>  -0.1500 
 10 C       -2.9990     3.9690    -0.2120 C.ar  1 <1>  -0.1500 
 11 C        3.4400     3.8940    -0.4740 C.3   1 <1>  -0.2400 
 12 C        4.7380     1.7470    -0.4950 C.3   1 <1>  -0.2400 
 13 C       -3.7780     3.5100     0.8400 C.ar  1 <1>  -0.1430 
 14 C       -5.0970     4.1810     1.1790 C.3   1 <1>   0.4860 
 15 N       -6.1050     3.8120     0.1490 N.4   1 <1>  -0.9590 
 16 C       -7.4200     4.5170     0.3130 C.3   1 <1>   0.3430 
 17 C       -6.3060     2.3300    -0.0030 C.3   1 <1>   0.3430 
 18 C       -8.4560     4.0410    -0.7330 C.3   1 <1>   0.1200 
 19 C       -7.3180     2.0160    -1.1290 C.3   1 <1>   0.1200 
 20 O       -7.8630     3.1890    -1.6750 O.3   1 <1>  -0.5600 
 21 H        0.8960     3.2630    -0.7100 H     1 <1>   0.3700 
 22 H        2.4490     1.7940    -2.0380 H     1 <1>   0.0800 
 23 H        2.2840     0.6230    -0.7590 H     1 <1>   0.0800 
 24 H       -1.8210     0.9420     1.8260 H     1 <1>   0.1500 
 25 H       -1.2250     3.6960    -1.3560 H     1 <1>   0.1500 
 26 H        3.1770     2.2390     0.8660 H     1 <1>   0.0800 
 27 H       -3.9160     2.0420     2.4060 H     1 <1>   0.1500 
 28 H       -3.3040     4.8190    -0.7980 H     1 <1>   0.1500 
 29 H        3.5870     4.0710    -1.5250 H     1 <1>   0.0800 
 30 H        4.2560     4.3420     0.0650 H     1 <1>   0.0800 
 31 H        2.5350     4.3820    -0.1620 H     1 <1>   0.0800 
 32 H        4.9850     1.8670    -1.5350 H     1 <1>   0.0800 
 33 H        4.7180     0.6960    -0.2650 H     1 <1>   0.0800 
 34 H        5.5110     2.2050     0.0970 H     1 <1>   0.0800 
 35 H       -4.9590     5.2500     1.1980 H     1 <1>   0.0800 
 36 H       -5.4280     3.8620     2.1540 H     1 <1>   0.0800 
 37 H       -5.7450     4.1080    -0.7700 H     1 <1>   0.4500 
 38 H       -7.2820     5.5810     0.2070 H     1 <1>   0.0800 
 39 H       -7.8170     4.3390     1.2990 H     1 <1>   0.0800 
 40 H       -6.6670     1.9100     0.9210 H     1 <1>   0.0800 
 41 H       -5.3690     1.8480    -0.2330 H     1 <1>   0.0800 
 42 H       -8.8650     4.8850    -1.2610 H     1 <1>   0.0800 
 43 H       -9.2670     3.5170    -0.2570 H     1 <1>   0.0800 
 44 H       -8.1220     1.4010    -0.7600 H     1 <1>   0.0800 
 45 H       -6.8290     1.4830    -1.9260 H     1 <1>   0.0800 
@<TRIPOS>BOND
  1   1   2  2   
  2   2   3  am  
  3   2   4  1   
  4   3   5  1   
  5   3  21  1   
  6   4   6  ar  
  7   4   7  ar  
  8   5   8  1   
  9   5  22  1   
 10   5  23  1   
 11   6   9  ar  
 12   6  24  1   
 13   7  10  ar  
 14   7  25  1   
 15   8  11  1   
 16   8  12  1   
 17   8  26  1   
 18   9  13  ar  
 19   9  27  1   
 20  10  13  ar  
 21  10  28  1   
 22  11  29  1   
 23  11  30  1   
 24  11  31  1   
 25  12  32  1   
 26  12  33  1   
 27  12  34  1   
 28  13  14  1   
 29  14  15  1   
 30  14  35  1   
 31  14  36  1   
 32  15  16  1   
 33  15  17  1   
 34  15  37  1   
 35  16  18  1   
 36  16  38  1   
 37  16  39  1   
 38  17  19  1   
 39  17  40  1   
 40  17  41  1   
 41  18  20  1   
 42  18  42  1   
 43  18  43  1   
 44  19  20  1   
 45  19  44  1   
 46  19  45  1   
@<TRIPOS>SUBSTRUCTURE
  1 ****   7 GROUP 4 **** **** 0

# MOE 2024.06 (io_trps.svl 2023.06)
