@<TRIPOS>MOLECULE
NONAME
46 47 1 0 0 
SMALL
USER_CHARGES


@<TRIPOS>ATOM
  1 O       -0.6640    -0.3100     0.9210 O.3   1 <1>  -0.2800 
  2 C       -1.6600    -0.5160     0.0780 C.2   1 <1>  -0.0400 
  3 C        0.2140    -1.2770     0.7630 C.2   1 <1>  -0.0400 
  4 C       -1.4250    -1.6380    -0.6420 C.2   1 <1>  -0.1500 
  5 C       -2.8210     0.4840     0.0690 C.3   1 <1>   0.1800 
  6 C       -0.1970    -2.1350    -0.1920 C.2   1 <1>  -0.1500 
  7 C        1.4600    -1.2690     1.6200 C.3   1 <1>  -0.0600 
  8 C       -3.8950     0.0110    -0.9370 C.3   1 <1>  -0.1600 
  9 C       -2.2710     1.8640    -0.3280 C.3   1 <1>  -0.2400 
 10 C       -3.4050     0.5610     1.4910 C.3   1 <1>  -0.2400 
 11 C       -5.1080     0.9520    -1.0520 C.3   1 <1>   0.4230 
 12 N       -6.3640     0.1910    -0.9370 N.4   1 <1>  -0.9060 
 13 C       -5.1490     1.6670    -2.3990 C.3   1 <1>  -0.2400 
 14 C       -6.6850    -0.2870     0.4220 C.3   1 <1>   0.4230 
 15 C       -7.8770    -1.2290     0.3170 C.3   1 <1>  -0.1600 
 16 C       -7.2410     0.8700     1.2460 C.3   1 <1>  -0.1600 
 17 C       -9.1160    -0.3290     0.2160 C.3   1 <1>  -0.1600 
 18 C       -8.7080     1.0200     0.8230 C.3   1 <1>  -0.1600 
 19 H       -2.0140    -2.1000    -1.4130 H     1 <1>   0.1500 
 20 H        0.2920    -3.0220    -0.5550 H     1 <1>   0.1500 
 21 H        2.0140    -0.3650     1.4450 H     1 <1>   0.0800 
 22 H        2.0810    -2.1130     1.3820 H     1 <1>   0.0800 
 23 H        1.1860    -1.3160     2.6580 H     1 <1>   0.0800 
 24 H       -4.2060    -0.9760    -0.6480 H     1 <1>   0.0800 
 25 H       -3.4250    -0.0830    -1.9010 H     1 <1>   0.0800 
 26 H       -3.0260     2.6260    -0.2910 H     1 <1>   0.0800 
 27 H       -1.4830     2.1520     0.3460 H     1 <1>   0.0800 
 28 H       -1.8540     1.8290    -1.3190 H     1 <1>   0.0800 
 29 H       -2.6340     0.8490     2.1850 H     1 <1>   0.0800 
 30 H       -4.1920     1.2860     1.5680 H     1 <1>   0.0800 
 31 H       -3.7700    -0.4020     1.7990 H     1 <1>   0.0800 
 32 H       -5.0650     1.6940    -0.2720 H     1 <1>   0.0800 
 33 H       -6.3330    -0.6060    -1.5780 H     1 <1>   0.4500 
 34 H       -7.1480     0.7800    -1.2340 H     1 <1>   0.4500 
 35 H       -5.2200     0.9660    -3.2130 H     1 <1>   0.0800 
 36 H       -4.2490     2.2410    -2.5340 H     1 <1>   0.0800 
 37 H       -5.9780     2.3510    -2.4410 H     1 <1>   0.0800 
 38 H       -5.8340    -0.7610     0.8860 H     1 <1>   0.0800 
 39 H       -7.9410    -1.7930     1.2320 H     1 <1>   0.0800 
 40 H       -7.8020    -1.9260    -0.4990 H     1 <1>   0.0800 
 41 H       -6.6880     1.7860     1.1430 H     1 <1>   0.0800 
 42 H       -7.2150     0.5830     2.2840 H     1 <1>   0.0800 
 43 H       -9.9460    -0.7610     0.7510 H     1 <1>   0.0800 
 44 H       -9.4070    -0.1980    -0.8130 H     1 <1>   0.0800 
 45 H       -8.8160     1.8030     0.0900 H     1 <1>   0.0800 
 46 H       -9.3260     1.2660     1.6720 H     1 <1>   0.0800 
@<TRIPOS>BOND
  1   1   2  1   
  2   1   3  1   
  3   2   4  2   
  4   2   5  1   
  5   3   6  2   
  6   3   7  1   
  7   4   6  1   
  8   4  19  1   
  9   5   8  1   
 10   5   9  1   
 11   5  10  1   
 12   6  20  1   
 13   7  21  1   
 14   7  22  1   
 15   7  23  1   
 16   8  11  1   
 17   8  24  1   
 18   8  25  1   
 19   9  26  1   
 20   9  27  1   
 21   9  28  1   
 22  10  29  1   
 23  10  30  1   
 24  10  31  1   
 25  11  12  1   
 26  11  13  1   
 27  11  32  1   
 28  12  14  1   
 29  12  33  1   
 30  12  34  1   
 31  13  35  1   
 32  13  36  1   
 33  13  37  1   
 34  14  15  1   
 35  14  16  1   
 36  14  38  1   
 37  15  17  1   
 38  15  39  1   
 39  15  40  1   
 40  16  18  1   
 41  16  41  1   
 42  16  42  1   
 43  17  18  1   
 44  17  43  1   
 45  17  44  1   
 46  18  45  1   
 47  18  46  1   
@<TRIPOS>SUBSTRUCTURE
  1 ****   8 GROUP 4 **** **** 0

# MOE 2024.06 (io_trps.svl 2023.06)
