@<TRIPOS>MOLECULE
NONAME
40 40 1 0 0 
SMALL
USER_CHARGES


@<TRIPOS>ATOM
  1 O       -0.0910     2.1830    -1.8540 O.2   1 <1>  -0.5700 
  2 C        0.3810     2.2980    -0.7400 C.2   1 <1>   0.5440 
  3 N       -0.4730     2.2730     0.3240 N.am  1 <1>  -0.7300 
  4 C        1.8120     2.4580    -0.5450 C.ar  1 <1>   0.0860 
  5 C       -1.9510     2.0890     0.2440 C.3   1 <1>   0.2810 
  6 C        2.3420     3.1310     0.5550 C.ar  1 <1>  -0.1500 
  7 C        2.7230     1.9390    -1.4610 C.ar  1 <1>  -0.1500 
  8 C       -2.7370     3.3660     0.6370 C.2   1 <1>   0.6590 
  9 C       -2.2920     0.8780     1.1210 C.3   1 <1>  -0.2400 
 10 C        3.7070     3.2650     0.7360 C.ar  1 <1>  -0.1500 
 11 C        4.0870     2.0720    -1.2820 C.ar  1 <1>  -0.1500 
 12 O       -3.1460     3.5230     1.7590 O.2   1 <1>  -0.5700 
 13 O       -2.9730     4.3080    -0.2770 O.3   1 <1>  -0.4300 
 14 C        4.6120     2.7350    -0.1790 C.ar  1 <1>  -0.1430 
 15 C       -2.3310     4.4100    -1.5330 C.3   1 <1>   0.0400 
 16 C        6.1440     2.8550    -0.0210 C.3   1 <1>   0.1440 
 17 C        6.5640     3.6120     1.2510 C.3   1 <1>  -0.2400 
 18 C        6.7270     3.6120    -1.2240 C.3   1 <1>  -0.2400 
 19 C        6.7650     1.4520     0.0490 C.3   1 <1>  -0.2400 
 20 H       -0.1010     2.3350     1.2730 H     1 <1>   0.3700 
 21 H       -2.2240     1.8320    -0.7630 H     1 <1>   0.0800 
 22 H        1.6810     3.5680     1.2820 H     1 <1>   0.1500 
 23 H        2.3500     1.4220    -2.3290 H     1 <1>   0.1500 
 24 H       -2.0350     1.0700     2.1480 H     1 <1>   0.0800 
 25 H       -1.7660     0.0070     0.7740 H     1 <1>   0.0800 
 26 H       -3.3470     0.6810     1.0700 H     1 <1>   0.0800 
 27 H        4.0430     3.7950     1.6080 H     1 <1>   0.1500 
 28 H        4.7420     1.6480    -2.0230 H     1 <1>   0.1500 
 29 H       -2.7110     5.2830    -2.0330 H     1 <1>   0.0800 
 30 H       -2.5430     3.5350    -2.1220 H     1 <1>   0.0800 
 31 H       -1.2710     4.5150    -1.3790 H     1 <1>   0.0800 
 32 H        7.6360     3.6690     1.3200 H     1 <1>   0.0800 
 33 H        6.2020     3.1070     2.1280 H     1 <1>   0.0800 
 34 H        6.1790     4.6160     1.2380 H     1 <1>   0.0800 
 35 H        6.2740     4.5840    -1.3010 H     1 <1>   0.0800 
 36 H        6.5450     3.0820    -2.1410 H     1 <1>   0.0800 
 37 H        7.7890     3.7370    -1.1160 H     1 <1>   0.0800 
 38 H        6.3380     0.9020     0.8690 H     1 <1>   0.0800 
 39 H        7.8280     1.5140     0.1960 H     1 <1>   0.0800 
 40 H        6.5850     0.9020    -0.8560 H     1 <1>   0.0800 
@<TRIPOS>BOND
  1   1   2  2   
  2   2   3  am  
  3   2   4  1   
  4   3   5  1   
  5   3  20  1   
  6   4   6  ar  
  7   4   7  ar  
  8   5   8  1   
  9   5   9  1   
 10   5  21  1   
 11   6  10  ar  
 12   6  22  1   
 13   7  11  ar  
 14   7  23  1   
 15   8  12  2   
 16   8  13  1   
 17   9  24  1   
 18   9  25  1   
 19   9  26  1   
 20  10  14  ar  
 21  10  27  1   
 22  11  14  ar  
 23  11  28  1   
 24  13  15  1   
 25  14  16  1   
 26  15  29  1   
 27  15  30  1   
 28  15  31  1   
 29  16  17  1   
 30  16  18  1   
 31  16  19  1   
 32  17  32  1   
 33  17  33  1   
 34  17  34  1   
 35  18  35  1   
 36  18  36  1   
 37  18  37  1   
 38  19  38  1   
 39  19  39  1   
 40  19  40  1   
@<TRIPOS>SUBSTRUCTURE
  1 ****   4 GROUP 4 **** **** 0

# MOE 2024.06 (io_trps.svl 2023.06)
