@<TRIPOS>MOLECULE
NONAME
34 37 1 0 0 
SMALL
USER_CHARGES


@<TRIPOS>ATOM
  1 S        0.2980     0.1620     0.6190 S.o2  1 <1>   1.4470 
  2 O        0.6150    -0.2200     1.9780 O.2   1 <1>  -0.6500 
  3 O        0.7900     1.4190     0.1000 O.2   1 <1>  -0.6500 
  4 N        0.9660    -0.9770    -0.4170 N.am  1 <1>  -0.7890 
  5 C       -1.4830     0.0270     0.3120 C.ar  1 <1>  -0.0090 
  6 C        2.3320    -1.3080    -0.0970 C.3   1 <1>   0.1310 
  7 C       -2.1730    -1.1810     0.5970 C.ar  1 <1>   0.0000 
  8 C       -2.1850     1.0950    -0.2140 C.ar  1 <1>  -0.1500 
  9 C        2.9200    -2.5090    -0.7560 C.3   1 <1>  -0.2000 
 10 C        2.5940    -2.5330     0.7090 C.3   1 <1>  -0.2000 
 11 C       -3.5420    -1.2060     0.3080 C.ar  1 <1>   0.0000 
 12 C       -1.6530    -2.3800     1.1430 C.ar  1 <1>  -0.1500 
 13 C       -3.5620     1.0340    -0.4870 C.ar  1 <1>  -0.1500 
 14 C       -4.2270    -0.1250    -0.2220 C.ar  1 <1>  -0.1430 
 15 C       -4.3500    -2.3140     0.5240 C.ar  1 <1>  -0.1430 
 16 C       -2.4480    -3.4800     1.3590 C.ar  1 <1>  -0.1500 
 17 C       -5.6860    -0.5090    -0.4000 C.3   1 <1>  -0.0170 
 18 C       -3.8180    -3.4570     1.0470 C.ar  1 <1>  -0.1500 
 19 C       -5.7660    -1.9770     0.0940 C.3   1 <1>  -0.0170 
 20 H        0.9900    -0.4960    -1.3110 H     1 <1>   0.4200 
 21 H        2.9630    -0.4450     0.0560 H     1 <1>   0.1000 
 22 H       -1.6750     2.0200    -0.4310 H     1 <1>   0.1500 
 23 H        3.9560    -2.4950    -1.0420 H     1 <1>   0.1000 
 24 H        2.3080    -3.0890    -1.4250 H     1 <1>   0.1000 
 25 H        1.7540    -3.1090     1.0530 H     1 <1>   0.1000 
 26 H        3.4020    -2.5130     1.4200 H     1 <1>   0.1000 
 27 H       -0.6100    -2.4330     1.3980 H     1 <1>   0.1500 
 28 H       -4.0660     1.8930    -0.8970 H     1 <1>   0.1500 
 29 H       -2.0300    -4.3810     1.7740 H     1 <1>   0.1500 
 30 H       -5.9670    -0.4380    -1.4360 H     1 <1>   0.0800 
 31 H       -6.3150     0.1290     0.1940 H     1 <1>   0.0800 
 32 H       -4.4210    -4.3300     1.2250 H     1 <1>   0.1500 
 33 H       -6.4400    -2.0640     0.9280 H     1 <1>   0.0800 
 34 H       -6.0810    -2.6320    -0.6990 H     1 <1>   0.0800 
@<TRIPOS>BOND
  1   1   2  2   
  2   1   3  2   
  3   1   4  am  
  4   1   5  1   
  5   4   6  1   
  6   4  20  1   
  7   5   7  ar  
  8   5   8  ar  
  9   6   9  1   
 10   6  10  1   
 11   6  21  1   
 12   7  11  ar  
 13   7  12  ar  
 14   8  13  ar  
 15   8  22  1   
 16   9  10  1   
 17   9  23  1   
 18   9  24  1   
 19  10  25  1   
 20  10  26  1   
 21  11  14  ar  
 22  11  15  ar  
 23  12  16  ar  
 24  12  27  1   
 25  13  14  ar  
 26  13  28  1   
 27  14  17  1   
 28  15  18  ar  
 29  15  19  1   
 30  16  18  ar  
 31  16  29  1   
 32  17  19  1   
 33  17  30  1   
 34  17  31  1   
 35  18  32  1   
 36  19  33  1   
 37  19  34  1   
@<TRIPOS>SUBSTRUCTURE
  1 ****   7 GROUP 4 **** **** 0

# MOE 2024.06 (io_trps.svl 2023.06)
