@<TRIPOS>MOLECULE
NONAME
47 49 1 0 0 
SMALL
USER_CHARGES


@<TRIPOS>ATOM
  1 S        0.0380    -0.4100     1.3640 S.o2  1 <1>   1.4470 
  2 O        0.9030    -0.6820     2.4900 O.2   1 <1>  -0.6500 
  3 O       -0.9800     0.6130     1.4780 O.2   1 <1>  -0.6500 
  4 N        1.0370     0.0310     0.0670 N.am  1 <1>  -0.8490 
  5 C       -0.7180    -1.9610     0.8010 C.ar  1 <1>  -0.0090 
  6 C        0.2790     0.5300    -1.0930 C.3   1 <1>   0.1960 
  7 C        2.0240     1.0450     0.4710 C.3   1 <1>   0.1960 
  8 C       -2.0720    -2.2060     0.9830 C.ar  1 <1>  -0.1500 
  9 C        0.0390    -2.9490     0.1890 C.ar  1 <1>  -0.1500 
 10 C        1.2260     0.9290    -2.2390 C.3   1 <1>   0.1200 
 11 C        2.9240     1.4500    -0.7110 C.3   1 <1>   0.1200 
 12 C       -2.6920    -3.3840     0.5670 C.ar  1 <1>   0.0860 
 13 C       -0.5410    -4.1290    -0.2360 C.ar  1 <1>  -0.1500 
 14 O        2.1530     1.8800    -1.7970 O.3   1 <1>  -0.5600 
 15 C       -1.8950    -4.3520    -0.0560 C.ar  1 <1>  -0.1440 
 16 C       -4.1180    -3.5510     0.7960 C.2   1 <1>   0.5440 
 17 C       -2.4890    -5.6680    -0.5470 C.3   1 <1>  -0.0960 
 18 O       -4.5690    -4.5480     1.3220 O.2   1 <1>  -0.5700 
 19 N       -4.9920    -2.5720     0.4280 N.am  1 <1>  -0.7300 
 20 C       -6.4460    -2.6460     0.6350 C.3   1 <1>   0.2840 
 21 C       -7.0700    -1.3760     0.0930 C.ar  1 <1>  -0.1440 
 22 C       -7.2630    -0.2810     0.9230 C.ar  1 <1>   0.1600 
 23 C       -7.4510    -1.2840    -1.2310 C.ar  1 <1>  -0.1500 
 24 N       -7.7970     0.8700     0.5460 N.ar  1 <1>  -0.6200 
 25 C       -8.0090    -0.0920    -1.6400 C.ar  1 <1>  -0.1500 
 26 C       -8.1580     0.9370    -0.7260 C.ar  1 <1>   0.1600 
 27 H       -0.3070     1.3910    -0.8160 H     1 <1>   0.0800 
 28 H       -0.3930    -0.2340    -1.4430 H     1 <1>   0.0800 
 29 H        2.6450     0.6520     1.2590 H     1 <1>   0.0800 
 30 H        1.5220     1.9200     0.8500 H     1 <1>   0.0800 
 31 H       -2.6680    -1.4550     1.4740 H     1 <1>   0.1500 
 32 H        1.0960    -2.7920     0.0460 H     1 <1>   0.1500 
 33 H        0.6690     1.3650    -3.0490 H     1 <1>   0.0800 
 34 H        1.7610     0.0700    -2.6060 H     1 <1>   0.0800 
 35 H        3.5290     0.6170    -1.0260 H     1 <1>   0.0800 
 36 H        3.5710     2.2600    -0.4260 H     1 <1>   0.0800 
 37 H        0.0750    -4.8760    -0.7080 H     1 <1>   0.1500 
 38 H       -3.3670    -5.4850    -1.1400 H     1 <1>   0.0800 
 39 H       -2.7660    -6.2790     0.2950 H     1 <1>   0.0800 
 40 H       -1.7850    -6.2160    -1.1470 H     1 <1>   0.0800 
 41 H       -4.6680    -1.7380    -0.0650 H     1 <1>   0.3700 
 42 H       -6.6540    -2.7560     1.6860 H     1 <1>   0.0800 
 43 H       -6.8370    -3.5080     0.1210 H     1 <1>   0.0800 
 44 H       -6.9600    -0.3530     1.9540 H     1 <1>   0.1500 
 45 H       -7.3220    -2.1050    -1.9170 H     1 <1>   0.1500 
 46 H       -8.3270     0.0420    -2.6580 H     1 <1>   0.1500 
 47 H       -8.5960     1.8630    -1.0560 H     1 <1>   0.1500 
@<TRIPOS>BOND
  1   1   2  2   
  2   1   3  2   
  3   1   4  am  
  4   1   5  1   
  5   4   6  1   
  6   4   7  1   
  7   5   8  ar  
  8   5   9  ar  
  9   6  10  1   
 10   6  27  1   
 11   6  28  1   
 12   7  11  1   
 13   7  29  1   
 14   7  30  1   
 15   8  12  ar  
 16   8  31  1   
 17   9  13  ar  
 18   9  32  1   
 19  10  14  1   
 20  10  33  1   
 21  10  34  1   
 22  11  14  1   
 23  11  35  1   
 24  11  36  1   
 25  12  15  ar  
 26  12  16  1   
 27  13  15  ar  
 28  13  37  1   
 29  15  17  1   
 30  16  18  2   
 31  16  19  am  
 32  17  38  1   
 33  17  39  1   
 34  17  40  1   
 35  19  20  1   
 36  19  41  1   
 37  20  21  1   
 38  20  42  1   
 39  20  43  1   
 40  21  22  ar  
 41  21  23  ar  
 42  22  24  ar  
 43  22  44  1   
 44  23  25  ar  
 45  23  45  1   
 46  24  26  ar  
 47  25  26  ar  
 48  25  46  1   
 49  26  47  1   
@<TRIPOS>SUBSTRUCTURE
  1 ****   8 GROUP 4 **** **** 0

# MOE 2024.06 (io_trps.svl 2023.06)
