@<TRIPOS>MOLECULE
NONAME
35 38 1 0 0 
SMALL
USER_CHARGES


@<TRIPOS>ATOM
  1 N       -0.3610    -0.0060    -0.3370 N.2   1 <1>  -0.7070 
  2 N       -1.0630     1.0130     0.1600 N.pl3 1 <1>   0.3140 
  3 C        0.8410     0.2670     0.0390 C.2   1 <1>   0.3350 
  4 C       -0.2100     1.8220     0.8010 C.2   1 <1>   0.0360 
  5 C       -2.5460     1.2000     0.0140 C.3   1 <1>   0.2560 
  6 N        0.9970     1.3880     0.7480 N.2   1 <1>  -0.5650 
  7 C        2.0270    -0.6060    -0.2850 C.3   1 <1>  -0.0590 
  8 C       -3.1850     0.0450    -0.8000 C.3   1 <1>  -0.1600 
  9 C       -2.8370     2.5330    -0.7170 C.3   1 <1>  -0.1600 
 10 C       -3.2090     1.2380     1.4120 C.3   1 <1>  -0.1600 
 11 C       -4.7040     0.2540    -0.9390 C.3   1 <1>  -0.0800 
 12 C       -4.3560     2.7530    -0.8530 C.3   1 <1>  -0.0800 
 13 C       -4.7290     1.4540     1.2820 C.3   1 <1>  -0.0800 
 14 C       -4.9660     1.5910    -1.6580 C.3   1 <1>  -0.1600 
 15 C       -5.3370     0.3000     0.4640 C.3   1 <1>  -0.1600 
 16 C       -4.9900     2.7850     0.5500 C.3   1 <1>  -0.1600 
 17 H       -0.5180     2.7240     1.2960 H     1 <1>   0.1500 
 18 H        1.7100    -1.4570    -0.8580 H     1 <1>   0.0800 
 19 H        2.4830    -0.9420     0.6270 H     1 <1>   0.0800 
 20 H        2.7420    -0.0420    -0.8530 H     1 <1>   0.0800 
 21 H       -2.9970    -0.8930    -0.3090 H     1 <1>   0.0800 
 22 H       -2.7400     0.0010    -1.7790 H     1 <1>   0.0800 
 23 H       -2.3890     2.5120    -1.6960 H     1 <1>   0.0800 
 24 H       -2.4120     3.3570    -0.1720 H     1 <1>   0.0800 
 25 H       -3.0230     0.3100     1.9240 H     1 <1>   0.0800 
 26 H       -2.7920     2.0350     2.0010 H     1 <1>   0.0800 
 27 H       -5.1330    -0.5550    -1.5060 H     1 <1>   0.0800 
 28 H       -4.5460     3.6840    -1.3600 H     1 <1>   0.0800 
 29 H       -5.1790     1.4820     2.2600 H     1 <1>   0.0800 
 30 H       -6.0260     1.7420    -1.7690 H     1 <1>   0.0800 
 31 H       -4.5370     1.5640    -2.6450 H     1 <1>   0.0800 
 32 H       -5.1700    -0.6350     0.9700 H     1 <1>   0.0800 
 33 H       -6.4020     0.4360     0.3780 H     1 <1>   0.0800 
 34 H       -6.0510     2.9490     0.4650 H     1 <1>   0.0800 
 35 H       -4.5820     3.6020     1.1190 H     1 <1>   0.0800 
@<TRIPOS>BOND
  1   1   2  1   
  2   1   3  2   
  3   2   4  1   
  4   2   5  1   
  5   3   6  1   
  6   3   7  1   
  7   4   6  2   
  8   4  17  1   
  9   5   8  1   
 10   5   9  1   
 11   5  10  1   
 12   7  18  1   
 13   7  19  1   
 14   7  20  1   
 15   8  11  1   
 16   8  21  1   
 17   8  22  1   
 18   9  12  1   
 19   9  23  1   
 20   9  24  1   
 21  10  13  1   
 22  10  25  1   
 23  10  26  1   
 24  11  14  1   
 25  11  15  1   
 26  11  27  1   
 27  12  14  1   
 28  12  16  1   
 29  12  28  1   
 30  13  15  1   
 31  13  16  1   
 32  13  29  1   
 33  14  30  1   
 34  14  31  1   
 35  15  32  1   
 36  15  33  1   
 37  16  34  1   
 38  16  35  1   
@<TRIPOS>SUBSTRUCTURE
  1 ****   5 GROUP 4 **** **** 0

# MOE 2024.06 (io_trps.svl 2023.06)
