@<TRIPOS>MOLECULE
NONAME
40 42 1 0 0 
SMALL
USER_CHARGES


@<TRIPOS>ATOM
  1 CL       0.9630    -2.9670    -1.3110 Cl    1 <1>  -0.1770 
  2 C       -0.5730    -3.1160    -0.4950 C.ar  1 <1>   0.1770 
  3 C       -1.7380    -2.9710    -1.2160 C.ar  1 <1>  -0.1500 
  4 C       -0.5870    -3.3790     0.8660 C.ar  1 <1>  -0.1500 
  5 C       -2.9710    -3.0870    -0.5740 C.ar  1 <1>   0.0280 
  6 C       -1.8020    -3.4970     1.5150 C.ar  1 <1>  -0.1500 
  7 C       -2.9840    -3.3530     0.8020 C.ar  1 <1>   0.0830 
  8 C       -4.2220    -2.9500    -1.2380 C.2   1 <1>  -0.1780 
  9 O       -4.1600    -3.4730     1.4550 O.3   1 <1>  -0.2320 
 10 C       -5.3870    -3.0680    -0.5440 C.2   1 <1>   0.0290 
 11 C       -5.3540    -3.3480     0.8610 C.2   1 <1>   0.7060 
 12 C       -6.6780    -2.9430    -1.1530 C.2   1 <1>   0.6160 
 13 O       -6.3330    -3.4650     1.5690 O.2   1 <1>  -0.5700 
 14 O       -7.1490    -3.9160    -1.7110 O.2   1 <1>  -0.5700 
 15 N       -7.3580    -1.7420    -1.1850 N.am  1 <1>  -0.6600 
 16 C       -8.7340    -1.6690    -1.7530 C.3   1 <1>   0.1400 
 17 C       -6.7100    -0.4350    -0.8970 C.3   1 <1>   0.1400 
 18 C       -9.7730    -2.2420    -0.7830 C.3   1 <1>  -0.1600 
 19 C       -6.8630    -0.0140     0.5680 C.3   1 <1>  -0.1600 
 20 C      -10.2270    -1.2890     0.3350 C.3   1 <1>  -0.1600 
 21 C       -8.3020     0.3030     1.0060 C.3   1 <1>  -0.1600 
 22 C       -9.1420    -0.9360     1.3660 C.3   1 <1>  -0.1600 
 23 H       -1.6910    -2.7700    -2.2710 H     1 <1>   0.1500 
 24 H        0.3410    -3.4870     1.3990 H     1 <1>   0.1500 
 25 H       -1.8400    -3.7020     2.5720 H     1 <1>   0.1500 
 26 H       -4.2190    -2.7590    -2.2980 H     1 <1>   0.1500 
 27 H       -8.7570    -2.2460    -2.6620 H     1 <1>   0.0800 
 28 H       -8.9920    -0.6560    -2.0060 H     1 <1>   0.0800 
 29 H       -7.1270     0.3260    -1.5340 H     1 <1>   0.0800 
 30 H       -5.6620    -0.4980    -1.1340 H     1 <1>   0.0800 
 31 H       -9.4080    -3.1620    -0.3600 H     1 <1>   0.0800 
 32 H      -10.6440    -2.4920    -1.3610 H     1 <1>   0.0800 
 33 H       -6.2830     0.8830     0.6960 H     1 <1>   0.0800 
 34 H       -6.4320    -0.7520     1.2180 H     1 <1>   0.0800 
 35 H      -11.0210    -1.7870     0.8640 H     1 <1>   0.0800 
 36 H      -10.6510    -0.3950    -0.0870 H     1 <1>   0.0800 
 37 H       -8.7940     0.9060     0.2630 H     1 <1>   0.0800 
 38 H       -8.2330     0.9070     1.8950 H     1 <1>   0.0800 
 39 H       -8.5160    -1.7920     1.5550 H     1 <1>   0.0800 
 40 H       -9.6470    -0.7200     2.2920 H     1 <1>   0.0800 
@<TRIPOS>BOND
  1   1   2  1   
  2   2   3  ar  
  3   2   4  ar  
  4   3   5  ar  
  5   3  23  1   
  6   4   6  ar  
  7   4  24  1   
  8   5   7  ar  
  9   5   8  1   
 10   6   7  ar  
 11   6  25  1   
 12   7   9  1   
 13   8  10  2   
 14   8  26  1   
 15   9  11  1   
 16  10  11  1   
 17  10  12  1   
 18  11  13  2   
 19  12  14  2   
 20  12  15  am  
 21  15  16  1   
 22  15  17  1   
 23  16  18  1   
 24  16  27  1   
 25  16  28  1   
 26  17  19  1   
 27  17  29  1   
 28  17  30  1   
 29  18  20  1   
 30  18  31  1   
 31  18  32  1   
 32  19  21  1   
 33  19  33  1   
 34  19  34  1   
 35  20  22  1   
 36  20  35  1   
 37  20  36  1   
 38  21  22  1   
 39  21  37  1   
 40  21  38  1   
 41  22  39  1   
 42  22  40  1   
@<TRIPOS>SUBSTRUCTURE
  1 ****  10 GROUP 4 **** **** 0

# MOE 2024.06 (io_trps.svl 2023.06)
