@<TRIPOS>MOLECULE
NONAME
47 49 1 0 0 
SMALL
USER_CHARGES


@<TRIPOS>ATOM
  1 O       -0.4980    -0.5250     1.0720 O.2   1 <1>  -0.5700 
  2 C       -0.1950    -1.7010     0.9930 C.2   1 <1>   0.6900 
  3 N       -1.0330    -2.6670     1.4850 N.am  1 <1>  -0.6600 
  4 N        0.9930    -2.0910     0.4470 N.am  1 <1>  -0.5470 
  5 C       -1.1540    -4.0370     0.8860 C.3   1 <1>   0.1400 
  6 C       -2.2000    -2.3030     2.3520 C.3   1 <1>   0.1400 
  7 C        1.9650    -1.3810    -0.2710 C.ar  1 <1>   0.1170 
  8 C       -2.5070    -4.2230     0.1760 C.3   1 <1>   0.2090 
  9 C       -3.5330    -2.5060     1.6120 C.3   1 <1>   0.2090 
 10 C        3.2660    -1.8710    -0.3060 C.ar  1 <1>  -0.1500 
 11 C        1.6790    -0.2140    -0.9720 C.ar  1 <1>  -0.1500 
 12 N       -3.6400    -3.9030     1.0920 N.pl3 1 <1>  -0.8380 
 13 C        4.2620    -1.2190    -1.0150 C.ar  1 <1>  -0.1440 
 14 C        2.6660     0.4440    -1.6830 C.ar  1 <1>  -0.1500 
 15 C       -4.9110    -4.2730     0.6280 C.ar  1 <1>   0.1000 
 16 C        3.9560    -0.0580    -1.7050 C.ar  1 <1>  -0.1500 
 17 C        5.6800    -1.7600    -1.0450 C.3   1 <1>  -0.0970 
 18 C       -5.5370    -3.7170    -0.5040 C.ar  1 <1>   0.0820 
 19 C       -5.5820    -5.2540     1.3440 C.ar  1 <1>  -0.1500 
 20 O       -4.8720    -2.7480    -1.2070 O.3   1 <1>  -0.3620 
 21 C       -6.8020    -4.1610    -0.8780 C.ar  1 <1>  -0.1500 
 22 C       -6.8390    -5.6880     0.9660 C.ar  1 <1>  -0.1500 
 23 C       -5.4960    -2.0310    -2.2480 C.3   1 <1>   0.0400 
 24 C       -7.4500    -5.1420    -0.1460 C.ar  1 <1>  -0.1500 
 25 H        1.2520    -3.0300     0.7240 H     1 <1>   0.3700 
 26 H       -1.0700    -4.7700     1.6680 H     1 <1>   0.0800 
 27 H       -0.3690    -4.2150     0.1740 H     1 <1>   0.0800 
 28 H       -2.1270    -1.2790     2.6750 H     1 <1>   0.0800 
 29 H       -2.1920    -2.9240     3.2290 H     1 <1>   0.0800 
 30 H       -2.6020    -5.2390    -0.1620 H     1 <1>   0.0800 
 31 H       -2.5440    -3.5790    -0.6860 H     1 <1>   0.0800 
 32 H       -3.5930    -1.8050     0.7970 H     1 <1>   0.0800 
 33 H       -4.3510    -2.3120     2.2820 H     1 <1>   0.0800 
 34 H        3.5010    -2.7700     0.2310 H     1 <1>   0.1500 
 35 H        0.6810     0.1830    -0.9650 H     1 <1>   0.1500 
 36 H        2.4290     1.3460    -2.2180 H     1 <1>   0.1500 
 37 H        4.7180     0.4600    -2.2610 H     1 <1>   0.1500 
 38 H        5.8160    -2.5230    -0.2990 H     1 <1>   0.0800 
 39 H        6.3800    -0.9670    -0.8510 H     1 <1>   0.0800 
 40 H        5.8890    -2.1800    -2.0120 H     1 <1>   0.0800 
 41 H       -5.1020    -5.6750     2.2070 H     1 <1>   0.1500 
 42 H       -7.3040    -3.7610    -1.7380 H     1 <1>   0.1500 
 43 H       -7.3390    -6.4500     1.5390 H     1 <1>   0.1500 
 44 H       -4.8070    -1.2830    -2.5960 H     1 <1>   0.0800 
 45 H       -6.3840    -1.5600    -1.8640 H     1 <1>   0.0800 
 46 H       -5.7320    -2.7110    -3.0470 H     1 <1>   0.0800 
 47 H       -8.4280    -5.4790    -0.4430 H     1 <1>   0.1500 
@<TRIPOS>BOND
  1   1   2  2   
  2   2   3  am  
  3   2   4  am  
  4   3   5  1   
  5   3   6  1   
  6   4   7  1   
  7   4  25  1   
  8   5   8  1   
  9   5  26  1   
 10   5  27  1   
 11   6   9  1   
 12   6  28  1   
 13   6  29  1   
 14   7  10  ar  
 15   7  11  ar  
 16   8  12  1   
 17   8  30  1   
 18   8  31  1   
 19   9  12  1   
 20   9  32  1   
 21   9  33  1   
 22  10  13  ar  
 23  10  34  1   
 24  11  14  ar  
 25  11  35  1   
 26  12  15  1   
 27  13  16  ar  
 28  13  17  1   
 29  14  16  ar  
 30  14  36  1   
 31  15  18  ar  
 32  15  19  ar  
 33  16  37  1   
 34  17  38  1   
 35  17  39  1   
 36  17  40  1   
 37  18  20  1   
 38  18  21  ar  
 39  19  22  ar  
 40  19  41  1   
 41  20  23  1   
 42  21  24  ar  
 43  21  42  1   
 44  22  24  ar  
 45  22  43  1   
 46  23  44  1   
 47  23  45  1   
 48  23  46  1   
 49  24  47  1   
@<TRIPOS>SUBSTRUCTURE
  1 ****   3 GROUP 4 **** **** 0

# MOE 2024.06 (io_trps.svl 2023.06)
