@<TRIPOS>MOLECULE
NONAME
35 36 1 0 0 
SMALL
USER_CHARGES


@<TRIPOS>ATOM
  1 CL       0.6980    -1.4960    -1.7070 Cl    1 <1>  -0.1770 
  2 C        2.2160    -0.8230    -1.1640 C.ar  1 <1>   0.1770 
  3 C        3.1900    -1.6640    -0.6600 C.ar  1 <1>  -0.1500 
  4 C        2.4220     0.5410    -1.2430 C.ar  1 <1>  -0.1500 
  5 C        4.3910    -1.1260    -0.2310 C.ar  1 <1>  -0.1500 
  6 C        3.6260     1.0700    -0.8100 C.ar  1 <1>  -0.1500 
  7 C        4.6290     0.2440    -0.3020 C.ar  1 <1>   0.1170 
  8 N        5.8590     0.7350     0.1580 N.am  1 <1>  -0.5470 
  9 C        6.5450     1.8750    -0.1400 C.2   1 <1>   0.6900 
 10 O        6.1390     2.6870    -0.9470 O.2   1 <1>  -0.5700 
 11 N        7.7280     2.0650     0.4860 N.am  1 <1>  -0.7300 
 12 C        8.6820     3.1470     0.1880 C.3   1 <1>   0.2200 
 13 C        9.9320     2.5130    -0.4710 C.3   1 <1>   0.2000 
 14 C        8.9570     3.8700     1.5100 C.3   1 <1>  -0.2400 
 15 O       10.4650     1.5020     0.3360 O.3   1 <1>  -0.5600 
 16 C       11.1090     3.4360    -0.7630 C.3   1 <1>  -0.1600 
 17 C       11.8180     1.3020     0.0590 C.3   1 <1>   0.1200 
 18 C       12.2640     2.4550    -0.8370 C.3   1 <1>  -0.1600 
 19 H        3.0060    -2.7220    -0.6090 H     1 <1>   0.1500 
 20 H        1.6510     1.1790    -1.6370 H     1 <1>   0.1500 
 21 H        5.1520    -1.7780     0.1570 H     1 <1>   0.1500 
 22 H        3.7820     2.1320    -0.8670 H     1 <1>   0.1500 
 23 H        6.3530     0.1300     0.8030 H     1 <1>   0.3700 
 24 H        8.1920     1.2820     0.9450 H     1 <1>   0.3700 
 25 H        8.2400     3.8440    -0.5040 H     1 <1>   0.0800 
 26 H        9.6270     2.0470    -1.3940 H     1 <1>   0.0800 
 27 H        9.4830     3.2250     2.1910 H     1 <1>   0.0800 
 28 H        8.0290     4.1780     1.9570 H     1 <1>   0.0800 
 29 H        9.5470     4.7510     1.3430 H     1 <1>   0.0800 
 30 H       11.2710     4.1210     0.0480 H     1 <1>   0.0800 
 31 H       10.9720     3.9870    -1.6760 H     1 <1>   0.0800 
 32 H       11.9340     0.3490    -0.4300 H     1 <1>   0.0800 
 33 H       12.3480     1.3020     0.9950 H     1 <1>   0.0800 
 34 H       13.1910     2.8860    -0.5020 H     1 <1>   0.0800 
 35 H       12.3870     2.0950    -1.8440 H     1 <1>   0.0800 
@<TRIPOS>BOND
  1   1   2  1   
  2   2   3  ar  
  3   2   4  ar  
  4   3   5  ar  
  5   3  19  1   
  6   4   6  ar  
  7   4  20  1   
  8   5   7  ar  
  9   5  21  1   
 10   6   7  ar  
 11   6  22  1   
 12   7   8  1   
 13   8   9  am  
 14   8  23  1   
 15   9  10  2   
 16   9  11  am  
 17  11  12  1   
 18  11  24  1   
 19  12  13  1   
 20  12  14  1   
 21  12  25  1   
 22  13  15  1   
 23  13  16  1   
 24  13  26  1   
 25  14  27  1   
 26  14  28  1   
 27  14  29  1   
 28  15  17  1   
 29  16  18  1   
 30  16  30  1   
 31  16  31  1   
 32  17  18  1   
 33  17  32  1   
 34  17  33  1   
 35  18  34  1   
 36  18  35  1   
@<TRIPOS>SUBSTRUCTURE
  1 ****   9 GROUP 4 **** **** 0

# MOE 2024.06 (io_trps.svl 2023.06)
