@<TRIPOS>MOLECULE
NONAME
44 46 1 0 0 
SMALL
USER_CHARGES


@<TRIPOS>ATOM
  1 F       -0.0060    -0.7320    -0.3920 F     1 <1>  -0.1900 
  2 C        1.1860    -1.2580    -0.2670 C.ar  1 <1>   0.1900 
  3 C        2.1720    -0.8920    -1.1630 C.ar  1 <1>  -0.1500 
  4 C        1.4140    -2.1590     0.7550 C.ar  1 <1>  -0.1500 
  5 C        3.4310    -1.4510    -1.0260 C.ar  1 <1>  -0.1500 
  6 C        2.6770    -2.7100     0.8800 C.ar  1 <1>  -0.1500 
  7 C        3.6940    -2.3630    -0.0050 C.ar  1 <1>   0.1000 
  8 N        4.9520    -2.9350     0.1480 N.pl3 1 <1>  -0.8380 
  9 C        6.0380    -2.0270     0.6190 C.3   1 <1>   0.2090 
 10 C        5.3670    -3.9110    -0.9020 C.3   1 <1>   0.2090 
 11 C        7.2810    -2.8350     1.0460 C.3   1 <1>   0.3430 
 12 C        6.6200    -4.6960    -0.4570 C.3   1 <1>   0.3430 
 13 N        7.7520    -3.7900    -0.0280 N.4   1 <1>  -0.9590 
 14 C        8.9380    -4.5750     0.4180 C.3   1 <1>   0.3430 
 15 C       10.2230    -4.0680    -0.2530 C.3   1 <1>  -0.0800 
 16 C       11.3950    -4.9820     0.1580 C.3   1 <1>  -0.0220 
 17 C       10.5520    -2.5920     0.0700 C.3   1 <1>  -0.1600 
 18 C       12.7250    -4.4100    -0.2900 C.2   1 <1>  -0.2880 
 19 C       11.7910    -2.1070    -0.7010 C.3   1 <1>  -0.0220 
 20 C       12.8970    -3.1440    -0.6780 C.2   1 <1>  -0.2880 
 21 H        1.9530    -0.1870    -1.9440 H     1 <1>   0.1500 
 22 H        0.6200    -2.4190     1.4320 H     1 <1>   0.1500 
 23 H        4.2100    -1.1780    -1.7120 H     1 <1>   0.1500 
 24 H        2.8840    -3.4130     1.6650 H     1 <1>   0.1500 
 25 H        5.6780    -1.4540     1.4580 H     1 <1>   0.0800 
 26 H        6.2990    -1.3360    -0.1640 H     1 <1>   0.0800 
 27 H        5.5660    -3.3920    -1.8230 H     1 <1>   0.0800 
 28 H        4.5580    -4.6010    -1.0800 H     1 <1>   0.0800 
 29 H        7.0250    -3.3910     1.9330 H     1 <1>   0.0800 
 30 H        8.0720    -2.1520     1.3050 H     1 <1>   0.0800 
 31 H        6.9420    -5.3280    -1.2680 H     1 <1>   0.0800 
 32 H        6.3380    -5.3320     0.3660 H     1 <1>   0.0800 
 33 H        8.0300    -3.2340    -0.8460 H     1 <1>   0.4500 
 34 H        8.8060    -5.6130     0.1570 H     1 <1>   0.0800 
 35 H        9.0410    -4.5170     1.4900 H     1 <1>   0.0800 
 36 H       10.1080    -4.1630    -1.3190 H     1 <1>   0.0800 
 37 H       11.2660    -5.9540    -0.2890 H     1 <1>   0.0800 
 38 H       11.4270    -5.1060     1.2270 H     1 <1>   0.0800 
 39 H       10.7500    -2.4970     1.1250 H     1 <1>   0.0800 
 40 H        9.7350    -1.9410    -0.1780 H     1 <1>   0.0800 
 41 H       13.5330    -5.1250    -0.2640 H     1 <1>   0.1500 
 42 H       12.1490    -1.1920    -0.2590 H     1 <1>   0.0800 
 43 H       11.5340    -1.9020    -1.7260 H     1 <1>   0.0800 
 44 H       13.8480    -2.7590    -1.0080 H     1 <1>   0.1500 
@<TRIPOS>BOND
  1   1   2  1   
  2   2   3  ar  
  3   2   4  ar  
  4   3   5  ar  
  5   3  21  1   
  6   4   6  ar  
  7   4  22  1   
  8   5   7  ar  
  9   5  23  1   
 10   6   7  ar  
 11   6  24  1   
 12   7   8  1   
 13   8   9  1   
 14   8  10  1   
 15   9  11  1   
 16   9  25  1   
 17   9  26  1   
 18  10  12  1   
 19  10  27  1   
 20  10  28  1   
 21  11  13  1   
 22  11  29  1   
 23  11  30  1   
 24  12  13  1   
 25  12  31  1   
 26  12  32  1   
 27  13  14  1   
 28  13  33  1   
 29  14  15  1   
 30  14  34  1   
 31  14  35  1   
 32  15  16  1   
 33  15  17  1   
 34  15  36  1   
 35  16  18  1   
 36  16  37  1   
 37  16  38  1   
 38  17  19  1   
 39  17  39  1   
 40  17  40  1   
 41  18  20  2   
 42  18  41  1   
 43  19  20  1   
 44  19  42  1   
 45  19  43  1   
 46  20  44  1   
@<TRIPOS>SUBSTRUCTURE
  1 ****   9 GROUP 4 **** **** 0

# MOE 2024.06 (io_trps.svl 2023.06)
