@<TRIPOS>MOLECULE
NONAME
46 46 1 0 0 
SMALL
USER_CHARGES


@<TRIPOS>ATOM
  1 CL       0.6790     1.7940     1.7230 Cl    1 <1>  -0.1770 
  2 C       -0.5400     2.8800     1.0910 C.ar  1 <1>   0.1770 
  3 C       -0.1620     4.0140     0.3840 C.ar  1 <1>   0.0830 
  4 C       -1.8690     2.5790     1.3150 C.ar  1 <1>  -0.1500 
  5 O        1.1620     4.2430     0.2060 O.3   1 <1>  -0.3630 
  6 C       -1.1570     4.8550    -0.1040 C.ar  1 <1>  -0.1500 
  7 C       -2.8700     3.4130     0.8310 C.ar  1 <1>  -0.0090 
  8 C        1.6490     5.3930    -0.4740 C.3   1 <1>   0.1810 
  9 C       -2.4890     4.5490     0.1230 C.ar  1 <1>  -0.1500 
 10 S       -4.6210     3.0460     1.1160 S.o2  1 <1>   1.4470 
 11 C        3.1720     5.4060    -0.4970 C.2   1 <1>   0.5690 
 12 O       -5.2250     4.1310     1.8530 O.2   1 <1>  -0.6500 
 13 O       -4.7830     1.6800     1.5530 O.2   1 <1>  -0.6500 
 14 N       -5.2530     3.0360    -0.4360 N.am  1 <1>  -0.9140 
 15 O        3.7220     6.3230    -1.0580 O.2   1 <1>  -0.5700 
 16 N        3.8400     4.3880     0.1130 N.am  1 <1>  -0.7300 
 17 C       -6.6430     3.4010    -0.5090 C.3   1 <1>   0.2760 
 18 C        5.2780     4.1530     0.2410 C.3   1 <1>   0.3000 
 19 C       -7.2760     2.5470    -1.6010 C.3   1 <1>  -0.2400 
 20 C       -6.7410     4.8810    -0.8680 C.3   1 <1>  -0.2400 
 21 C        5.4380     2.8540     1.0270 C.3   1 <1>  -0.2400 
 22 C        5.8980     3.9980    -1.1470 C.3   1 <1>  -0.2400 
 23 C        5.9190     5.3060     1.0130 C.3   1 <1>  -0.2400 
 24 H       -2.1220     1.6920     1.8690 H     1 <1>   0.1500 
 25 H       -0.9210     5.7450    -0.6580 H     1 <1>   0.1500 
 26 H        1.2960     6.2690     0.0370 H     1 <1>   0.0800 
 27 H        1.2800     5.3770    -1.4830 H     1 <1>   0.0800 
 28 H       -3.2560     5.2050    -0.2570 H     1 <1>   0.1500 
 29 H       -5.2160     2.0480    -0.6750 H     1 <1>   0.4200 
 30 H        3.2610     3.6680     0.5510 H     1 <1>   0.3700 
 31 H       -7.1470     3.2060     0.4270 H     1 <1>   0.0800 
 32 H       -6.7850     2.7080    -2.5440 H     1 <1>   0.0800 
 33 H       -8.3140     2.8080    -1.7100 H     1 <1>   0.0800 
 34 H       -7.2240     1.5050    -1.3410 H     1 <1>   0.0800 
 35 H       -6.2330     5.0790    -1.7950 H     1 <1>   0.0800 
 36 H       -6.3100     5.4870    -0.0920 H     1 <1>   0.0800 
 37 H       -7.7720     5.1640    -0.9740 H     1 <1>   0.0800 
 38 H        4.9770     2.0360     0.5020 H     1 <1>   0.0800 
 39 H        4.9920     2.9440     2.0020 H     1 <1>   0.0800 
 40 H        6.4800     2.6260     1.1550 H     1 <1>   0.0800 
 41 H        5.4080     3.2120    -1.6920 H     1 <1>   0.0800 
 42 H        6.9420     3.7550    -1.0610 H     1 <1>   0.0800 
 43 H        5.8150     4.9140    -1.7030 H     1 <1>   0.0800 
 44 H        5.4440     5.4300     1.9690 H     1 <1>   0.0800 
 45 H        5.8360     6.2240     0.4600 H     1 <1>   0.0800 
 46 H        6.9630     5.1090     1.1730 H     1 <1>   0.0800 
@<TRIPOS>BOND
  1   1   2  1   
  2   2   3  ar  
  3   2   4  ar  
  4   3   5  1   
  5   3   6  ar  
  6   4   7  ar  
  7   4  24  1   
  8   5   8  1   
  9   6   9  ar  
 10   6  25  1   
 11   7   9  ar  
 12   7  10  1   
 13   8  11  1   
 14   8  26  1   
 15   8  27  1   
 16   9  28  1   
 17  10  12  2   
 18  10  13  2   
 19  10  14  am  
 20  11  15  2   
 21  11  16  am  
 22  14  17  1   
 23  14  29  1   
 24  16  18  1   
 25  16  30  1   
 26  17  19  1   
 27  17  20  1   
 28  17  31  1   
 29  18  21  1   
 30  18  22  1   
 31  18  23  1   
 32  19  32  1   
 33  19  33  1   
 34  19  34  1   
 35  20  35  1   
 36  20  36  1   
 37  20  37  1   
 38  21  38  1   
 39  21  39  1   
 40  21  40  1   
 41  22  41  1   
 42  22  42  1   
 43  22  43  1   
 44  23  44  1   
 45  23  45  1   
 46  23  46  1   
@<TRIPOS>SUBSTRUCTURE
  1 ****   3 GROUP 4 **** **** 0

# MOE 2024.06 (io_trps.svl 2023.06)
