@<TRIPOS>MOLECULE
NONAME
37 38 1 0 0 
SMALL
USER_CHARGES


@<TRIPOS>ATOM
  1 O       -0.4710    -0.7280    -1.8650 O.2   1 <1>  -0.5700 
  2 C       -0.3560    -1.4650    -0.9050 C.2   1 <1>   0.5440 
  3 N        0.8430    -1.5120    -0.2530 N.am  1 <1>  -0.7300 
  4 C       -1.4730    -2.2740    -0.4480 C.ar  1 <1>   0.0860 
  5 C        2.0530    -0.7530    -0.6140 C.3   1 <1>   0.2200 
  6 C       -2.7870    -1.8400    -0.6110 C.ar  1 <1>  -0.1500 
  7 C       -1.2800    -3.5120     0.1700 C.ar  1 <1>  -0.1500 
  8 C        3.2250    -1.7200    -0.7130 C.3   1 <1>  -0.1600 
  9 C        2.4360     0.1430     0.5570 C.3   1 <1>  -0.1600 
 10 C       -3.8650    -2.5890    -0.1720 C.ar  1 <1>   0.0820 
 11 C       -2.3470    -4.2710     0.6150 C.ar  1 <1>  -0.1500 
 12 C        3.6960    -1.9540     0.7280 C.3   1 <1>  -0.1600 
 13 C        3.1940    -0.7550     1.5420 C.3   1 <1>  -0.1600 
 14 O       -5.0980    -2.0650    -0.3820 O.3   1 <1>  -0.3630 
 15 C       -3.6410    -3.8140     0.4480 C.ar  1 <1>  -0.1500 
 16 C       -6.2670    -2.7730    -0.0410 C.3   1 <1>   0.2580 
 17 C       -7.4620    -1.9310    -0.4410 C.2   1 <1>  -0.2880 
 18 C       -8.4460    -1.5390     0.3750 C.2   1 <1>  -0.3000 
 19 H        0.9250    -2.0300     0.6190 H     1 <1>   0.3700 
 20 H        1.9020    -0.1970    -1.5260 H     1 <1>   0.0800 
 21 H       -2.9720    -0.8960    -1.0920 H     1 <1>   0.1500 
 22 H       -0.2810    -3.8900     0.2960 H     1 <1>   0.1500 
 23 H        4.0140    -1.2400    -1.2640 H     1 <1>   0.0800 
 24 H        2.9580    -2.6310    -1.2200 H     1 <1>   0.0800 
 25 H        1.5790     0.6210     0.9990 H     1 <1>   0.0800 
 26 H        3.1030     0.9060     0.1950 H     1 <1>   0.0800 
 27 H       -2.1700    -5.2210     1.0890 H     1 <1>   0.1500 
 28 H        4.7690    -2.0380     0.7710 H     1 <1>   0.0800 
 29 H        3.2630    -2.8610     1.1120 H     1 <1>   0.0800 
 30 H        2.5270    -1.0940     2.3160 H     1 <1>   0.0800 
 31 H        4.0090    -0.2190     1.9980 H     1 <1>   0.0800 
 32 H       -4.4510    -4.4220     0.8040 H     1 <1>   0.1500 
 33 H       -6.2620    -2.9520     1.0200 H     1 <1>   0.0800 
 34 H       -6.2680    -3.7050    -0.5780 H     1 <1>   0.0800 
 35 H       -7.4350    -1.6680    -1.4850 H     1 <1>   0.1500 
 36 H       -9.2810    -0.9370     0.0590 H     1 <1>   0.1500 
 37 H       -8.5010    -1.7800     1.4230 H     1 <1>   0.1500 
@<TRIPOS>BOND
  1   1   2  2   
  2   2   3  am  
  3   2   4  1   
  4   3   5  1   
  5   3  19  1   
  6   4   6  ar  
  7   4   7  ar  
  8   5   8  1   
  9   5   9  1   
 10   5  20  1   
 11   6  10  ar  
 12   6  21  1   
 13   7  11  ar  
 14   7  22  1   
 15   8  12  1   
 16   8  23  1   
 17   8  24  1   
 18   9  13  1   
 19   9  25  1   
 20   9  26  1   
 21  10  14  1   
 22  10  15  ar  
 23  11  15  ar  
 24  11  27  1   
 25  12  13  1   
 26  12  28  1   
 27  12  29  1   
 28  13  30  1   
 29  13  31  1   
 30  14  16  1   
 31  15  32  1   
 32  16  17  1   
 33  16  33  1   
 34  16  34  1   
 35  17  18  2   
 36  17  35  1   
 37  18  36  1   
 38  18  37  1   
@<TRIPOS>SUBSTRUCTURE
  1 ****   4 GROUP 4 **** **** 0

# MOE 2024.06 (io_trps.svl 2023.06)
