@<TRIPOS>MOLECULE
NONAME
41 42 1 0 0 
SMALL
USER_CHARGES


@<TRIPOS>ATOM
  1 S        0.3140     0.2860    -0.9330 S.3   1 <1>  -0.2860 
  2 C       -1.3960     0.6450    -1.3600 C.2   1 <1>   0.2420 
  3 C        0.2420    -1.1040     0.2990 C.3   1 <1>   0.1310 
  4 N       -1.7350     1.5650    -2.1890 N.2   1 <1>  -0.3380 
  5 N       -2.4370    -0.0080    -0.8550 N.pl3 1 <1>   0.0330 
  6 C        1.6230    -1.5000     0.7960 C.2   1 <1>   0.5690 
  7 N       -3.0730     1.5330    -2.2450 N.2   1 <1>  -0.3380 
  8 C       -3.4700     0.5980    -1.4470 C.2   1 <1>   0.0060 
  9 O        1.6670    -2.3330     1.6670 O.2   1 <1>  -0.5700 
 10 N        2.7270    -0.9040     0.2470 N.am  1 <1>  -0.5470 
 11 C       -4.9230     0.2220    -1.2110 C.3   1 <1>   0.0200 
 12 C        4.1030    -1.0560     0.4830 C.ar  1 <1>   0.1170 
 13 C       -5.5540     0.9870    -0.0320 C.3   1 <1>  -0.0800 
 14 C        4.9710    -0.1180    -0.0670 C.ar  1 <1>  -0.1500 
 15 C        4.6460    -2.0980     1.2280 C.ar  1 <1>  -0.1500 
 16 C       -4.8710     0.6750     1.3080 C.3   1 <1>  -0.2400 
 17 C       -7.0500     0.6610     0.0680 C.3   1 <1>  -0.2400 
 18 C        6.3400    -0.2070     0.1170 C.ar  1 <1>  -0.1430 
 19 C        6.0120    -2.1940     1.4190 C.ar  1 <1>  -0.1500 
 20 C        6.8590    -1.2510     0.8650 C.ar  1 <1>  -0.1500 
 21 C        7.2770     0.8230    -0.4870 C.3   1 <1>  -0.0970 
 22 H       -0.2230    -1.9410    -0.1870 H     1 <1>   0.0800 
 23 H       -0.3570    -0.7700     1.1250 H     1 <1>   0.0800 
 24 H       -2.4550    -0.7710    -0.1820 H     1 <1>   0.2700 
 25 H        2.5050    -0.1900    -0.4490 H     1 <1>   0.3700 
 26 H       -5.0030    -0.8380    -1.0510 H     1 <1>   0.0800 
 27 H       -5.4710     0.4550    -2.1080 H     1 <1>   0.0800 
 28 H       -5.4530     2.0430    -0.2270 H     1 <1>   0.0800 
 29 H        4.5670     0.6920    -0.6450 H     1 <1>   0.1500 
 30 H        4.0090    -2.8450     1.6640 H     1 <1>   0.1500 
 31 H       -4.8920    -0.3810     1.5130 H     1 <1>   0.0800 
 32 H       -5.3800     1.1860     2.1070 H     1 <1>   0.0800 
 33 H       -3.8530     1.0170     1.3050 H     1 <1>   0.0800 
 34 H       -7.2020    -0.3850     0.2680 H     1 <1>   0.0800 
 35 H       -7.5510     0.9140    -0.8500 H     1 <1>   0.0800 
 36 H       -7.5030     1.2300     0.8610 H     1 <1>   0.0800 
 37 H        6.4160    -3.0050     1.9990 H     1 <1>   0.1500 
 38 H        7.9200    -1.3330     1.0190 H     1 <1>   0.1500 
 39 H        6.7490     1.4830    -1.1510 H     1 <1>   0.0800 
 40 H        8.0550     0.3310    -1.0430 H     1 <1>   0.0800 
 41 H        7.7260     1.4090     0.2950 H     1 <1>   0.0800 
@<TRIPOS>BOND
  1   1   2  1   
  2   1   3  1   
  3   2   4  2   
  4   2   5  1   
  5   3   6  1   
  6   3  22  1   
  7   3  23  1   
  8   4   7  1   
  9   5   8  1   
 10   5  24  1   
 11   6   9  2   
 12   6  10  am  
 13   7   8  2   
 14   8  11  1   
 15  10  12  1   
 16  10  25  1   
 17  11  13  1   
 18  11  26  1   
 19  11  27  1   
 20  12  14  ar  
 21  12  15  ar  
 22  13  16  1   
 23  13  17  1   
 24  13  28  1   
 25  14  18  ar  
 26  14  29  1   
 27  15  19  ar  
 28  15  30  1   
 29  16  31  1   
 30  16  32  1   
 31  16  33  1   
 32  17  34  1   
 33  17  35  1   
 34  17  36  1   
 35  18  20  ar  
 36  18  21  1   
 37  19  20  ar  
 38  19  37  1   
 39  20  38  1   
 40  21  39  1   
 41  21  40  1   
 42  21  41  1   
@<TRIPOS>SUBSTRUCTURE
  1 ****   1 GROUP 4 **** **** 0

# MOE 2024.06 (io_trps.svl 2023.06)
