@<TRIPOS>MOLECULE
NONAME
50 51 1 0 0 
SMALL
USER_CHARGES


@<TRIPOS>ATOM
  1 S        0.6160     0.3920    -1.4750 S.o2  1 <1>   1.4470 
  2 O        1.9590     0.6610    -1.9440 O.2   1 <1>  -0.6500 
  3 O       -0.4510     0.2320    -2.4380 O.2   1 <1>  -0.6500 
  4 N        0.7060    -1.0700    -0.6200 N.am  1 <1>  -0.8490 
  5 C        0.1690     1.6010    -0.2000 C.ar  1 <1>  -0.0090 
  6 C        1.3680    -2.1410    -1.4200 C.3   1 <1>   0.2570 
  7 C       -0.6000    -1.5250    -0.1280 C.3   1 <1>   0.1160 
  8 C       -0.9850     2.3720    -0.3040 C.ar  1 <1>  -0.1500 
  9 C        0.9720     1.7800     0.9200 C.ar  1 <1>  -0.1500 
 10 C        2.8550    -2.3670    -1.1110 C.2   1 <1>   0.5690 
 11 C       -1.3320     3.2860     0.6760 C.ar  1 <1>  -0.1500 
 12 C        0.6340     2.6910     1.9050 C.ar  1 <1>  -0.1500 
 13 O        3.2500    -3.5080    -1.0520 O.2   1 <1>  -0.5700 
 14 N        3.6770    -1.2900    -0.9310 N.am  1 <1>  -0.5470 
 15 C       -0.5190     3.4490     1.7930 C.ar  1 <1>   0.0830 
 16 C        5.0590    -1.2560    -0.7000 C.ar  1 <1>   0.1170 
 17 O       -0.7810     4.3150     2.8000 O.3   1 <1>  -0.3630 
 18 C        5.6180    -1.6790     0.5120 C.ar  1 <1>  -0.1430 
 19 C        5.8930    -0.7490    -1.7000 C.ar  1 <1>  -0.1430 
 20 C       -1.9170     5.1510     2.7770 C.3   1 <1>   0.0400 
 21 C        6.9900    -1.6040     0.6940 C.ar  1 <1>  -0.1500 
 22 C        4.7730    -2.2100     1.6680 C.3   1 <1>  -0.0170 
 23 C        7.2600    -0.6840    -1.4960 C.ar  1 <1>  -0.1500 
 24 C        5.3210    -0.2660    -3.0290 C.3   1 <1>  -0.0970 
 25 C        7.8100    -1.1120    -0.3030 C.ar  1 <1>  -0.1500 
 26 C        4.1350    -1.0610     2.4540 C.3   1 <1>  -0.2400 
 27 H        1.2640    -1.9390    -2.4720 H     1 <1>   0.0800 
 28 H        0.8790    -3.0820    -1.2370 H     1 <1>   0.0800 
 29 H       -1.0520    -0.7650     0.4870 H     1 <1>   0.0800 
 30 H       -0.4800    -2.4110     0.4720 H     1 <1>   0.0800 
 31 H       -1.2610    -1.7440    -0.9510 H     1 <1>   0.0800 
 32 H       -1.6220     2.2550    -1.1650 H     1 <1>   0.1500 
 33 H        1.8730     1.1990     1.0240 H     1 <1>   0.1500 
 34 H       -2.2320     3.8590     0.5550 H     1 <1>   0.1500 
 35 H        1.2620     2.8210     2.7680 H     1 <1>   0.1500 
 36 H        3.2630    -0.3890    -1.1990 H     1 <1>   0.3700 
 37 H       -1.9080     5.7500     3.6690 H     1 <1>   0.0800 
 38 H       -2.8010     4.5390     2.7570 H     1 <1>   0.0800 
 39 H       -1.8660     5.7860     1.9100 H     1 <1>   0.0800 
 40 H        7.4310    -1.9280     1.6200 H     1 <1>   0.1500 
 41 H        5.3900    -2.7890     2.3320 H     1 <1>   0.0800 
 42 H        4.0090    -2.8710     1.3050 H     1 <1>   0.0800 
 43 H        7.9080    -0.3000    -2.2640 H     1 <1>   0.1500 
 44 H        6.1030     0.0460    -3.6970 H     1 <1>   0.0800 
 45 H        4.7700    -1.0600    -3.5010 H     1 <1>   0.0800 
 46 H        4.6610     0.5670    -2.8650 H     1 <1>   0.0800 
 47 H        8.8730    -1.0610    -0.1500 H     1 <1>   0.1500 
 48 H        4.8970    -0.4040     2.8320 H     1 <1>   0.0800 
 49 H        3.5660    -1.4500     3.2800 H     1 <1>   0.0800 
 50 H        3.4780    -0.4990     1.8160 H     1 <1>   0.0800 
@<TRIPOS>BOND
  1   1   2  2   
  2   1   3  2   
  3   1   4  am  
  4   1   5  1   
  5   4   6  1   
  6   4   7  1   
  7   5   8  ar  
  8   5   9  ar  
  9   6  10  1   
 10   6  27  1   
 11   6  28  1   
 12   7  29  1   
 13   7  30  1   
 14   7  31  1   
 15   8  11  ar  
 16   8  32  1   
 17   9  12  ar  
 18   9  33  1   
 19  10  13  2   
 20  10  14  am  
 21  11  15  ar  
 22  11  34  1   
 23  12  15  ar  
 24  12  35  1   
 25  14  16  1   
 26  14  36  1   
 27  15  17  1   
 28  16  18  ar  
 29  16  19  ar  
 30  17  20  1   
 31  18  21  ar  
 32  18  22  1   
 33  19  23  ar  
 34  19  24  1   
 35  20  37  1   
 36  20  38  1   
 37  20  39  1   
 38  21  25  ar  
 39  21  40  1   
 40  22  26  1   
 41  22  41  1   
 42  22  42  1   
 43  23  25  ar  
 44  23  43  1   
 45  24  44  1   
 46  24  45  1   
 47  24  46  1   
 48  25  47  1   
 49  26  48  1   
 50  26  49  1   
 51  26  50  1   
@<TRIPOS>SUBSTRUCTURE
  1 ****   2 GROUP 4 **** **** 0

# MOE 2024.06 (io_trps.svl 2023.06)
