@<TRIPOS>MOLECULE
NONAME
53 56 1 0 0 
SMALL
USER_CHARGES


@<TRIPOS>ATOM
  1 O        0.2430     0.0600     0.2760 O.2   1 <1>  -0.5700 
  2 C        0.6560     1.0450    -0.2820 C.2   1 <1>   0.6670 
  3 O       -0.0080     2.1990    -0.3330 O.3   1 <1>  -0.2330 
  4 C        1.9990     1.0500    -0.9980 C.3   1 <1>   0.0530 
  5 C       -1.2500     2.4820     0.1450 C.ar  1 <1>   0.0830 
  6 C        3.0470     0.0490    -0.4840 C.3   1 <1>   0.0000 
  7 C        2.9900     2.1160    -0.4960 C.3   1 <1>   0.0000 
  8 C       -2.2740     1.5440     0.2040 C.ar  1 <1>  -0.1500 
  9 C       -1.4860     3.7810     0.5680 C.ar  1 <1>  -0.1500 
 10 C        4.1590     1.1090    -0.8310 C.3   1 <1>   0.0000 
 11 C       -3.5160     1.9090     0.6930 C.ar  1 <1>  -0.1500 
 12 C       -2.7280     4.1460     1.0560 C.ar  1 <1>  -0.1500 
 13 C        5.2830     2.1150    -1.2890 C.3   1 <1>   0.0000 
 14 C        5.1610     0.8770     0.3680 C.3   1 <1>   0.0000 
 15 C       -3.7530     3.2050     1.1220 C.ar  1 <1>   0.0830 
 16 C        6.3130     1.2070    -0.5980 C.3   1 <1>   0.0530 
 17 O       -5.0000     3.4760     1.5870 O.3   1 <1>  -0.3630 
 18 C        7.5060     1.9150     0.0310 C.2   1 <1>   0.6670 
 19 C       -5.3390     4.7590     2.0630 C.3   1 <1>   0.0400 
 20 O        7.3750     2.9070     0.7020 O.2   1 <1>  -0.5700 
 21 O        8.6850     1.3440    -0.2180 O.3   1 <1>  -0.2330 
 22 C        9.9240     1.7730     0.1450 C.ar  1 <1>   0.0830 
 23 C       10.8890     0.8040     0.3710 C.ar  1 <1>  -0.1500 
 24 C       10.2570     3.1170     0.2720 C.ar  1 <1>  -0.1500 
 25 C       12.1760     1.1650     0.7320 C.ar  1 <1>  -0.1500 
 26 C       11.5430     3.4770     0.6350 C.ar  1 <1>  -0.1500 
 27 C       12.5080     2.5100     0.8670 C.ar  1 <1>   0.0830 
 28 O       13.7430     2.9530     1.2180 O.3   1 <1>  -0.3630 
 29 C       14.7910     2.0500     1.4940 C.3   1 <1>   0.0400 
 30 H        1.9130     1.0440    -2.0710 H     1 <1>   0.0000 
 31 H        3.1050    -0.8410    -1.0860 H     1 <1>   0.0000 
 32 H        2.9270    -0.1690     0.5670 H     1 <1>   0.0000 
 33 H        2.8870     2.3350     0.5550 H     1 <1>   0.0000 
 34 H        2.9440     3.0010    -1.1080 H     1 <1>   0.0000 
 35 H       -2.1200     0.5340    -0.1300 H     1 <1>   0.1500 
 36 H       -0.6940     4.5070     0.5140 H     1 <1>   0.1500 
 37 H       -4.3120     1.1880     0.7450 H     1 <1>   0.1500 
 38 H       -2.8790     5.1590     1.3780 H     1 <1>   0.1500 
 39 H        5.2340     3.0980    -0.8460 H     1 <1>   0.0000 
 40 H        5.4100     2.1510    -2.3560 H     1 <1>   0.0000 
 41 H        5.2370    -0.1370     0.7230 H     1 <1>   0.0000 
 42 H        5.0500     1.5870     1.1710 H     1 <1>   0.0000 
 43 H        6.5830     0.3620    -1.2110 H     1 <1>   0.0000 
 44 H       -6.3640     4.7360     2.3840 H     1 <1>   0.0800 
 45 H       -5.2210     5.4700     1.2650 H     1 <1>   0.0800 
 46 H       -4.7010     5.0020     2.8950 H     1 <1>   0.0800 
 47 H       10.6310    -0.2350     0.2650 H     1 <1>   0.1500 
 48 H        9.5300     3.8870     0.0900 H     1 <1>   0.1500 
 49 H       12.9000     0.3910     0.9030 H     1 <1>   0.1500 
 50 H       11.8070     4.5140     0.7390 H     1 <1>   0.1500 
 51 H       15.6630     2.6220     1.7550 H     1 <1>   0.0800 
 52 H       14.9880     1.4640     0.6130 H     1 <1>   0.0800 
 53 H       14.5040     1.4240     2.3200 H     1 <1>   0.0800 
@<TRIPOS>BOND
  1   1   2  2   
  2   2   3  1   
  3   2   4  1   
  4   3   5  1   
  5   4   6  1   
  6   4   7  1   
  7   4  30  1   
  8   5   8  ar  
  9   5   9  ar  
 10   6  10  1   
 11   6  31  1   
 12   6  32  1   
 13   7  10  1   
 14   7  33  1   
 15   7  34  1   
 16   8  11  ar  
 17   8  35  1   
 18   9  12  ar  
 19   9  36  1   
 20  10  13  1   
 21  10  14  1   
 22  11  15  ar  
 23  11  37  1   
 24  12  15  ar  
 25  12  38  1   
 26  13  16  1   
 27  13  39  1   
 28  13  40  1   
 29  14  16  1   
 30  14  41  1   
 31  14  42  1   
 32  15  17  1   
 33  16  18  1   
 34  16  43  1   
 35  17  19  1   
 36  18  20  2   
 37  18  21  1   
 38  19  44  1   
 39  19  45  1   
 40  19  46  1   
 41  21  22  1   
 42  22  23  ar  
 43  22  24  ar  
 44  23  25  ar  
 45  23  47  1   
 46  24  26  ar  
 47  24  48  1   
 48  25  27  ar  
 49  25  49  1   
 50  26  27  ar  
 51  26  50  1   
 52  27  28  1   
 53  28  29  1   
 54  29  51  1   
 55  29  52  1   
 56  29  53  1   
@<TRIPOS>SUBSTRUCTURE
  1 ****   7 GROUP 4 **** **** 0

# MOE 2024.06 (io_trps.svl 2023.06)
