@<TRIPOS>MOLECULE
NONAME
35 35 1 0 0 
SMALL
USER_CHARGES


@<TRIPOS>ATOM
  1 S        0.0200    -0.0720     1.0590 S.o2  1 <1>   1.3330 
  2 O        0.6970    -1.0400     1.8840 O.2   1 <1>  -0.6500 
  3 O        0.3640     1.3280     1.1010 O.2   1 <1>  -0.6500 
  4 N       -1.6260    -0.2310     1.5180 N.am  1 <1>  -0.7570 
  5 C        0.0010    -0.6580    -0.6410 C.3   1 <1>  -0.0550 
  6 C       -2.7460     0.3470     0.9280 C.ar  1 <1>   0.1990 
  7 C        1.3810    -0.6810    -1.3220 C.3   1 <1>  -0.2400 
  8 C       -3.9300    -0.3770     0.8890 C.ar  1 <1>  -0.1500 
  9 C       -2.7130     1.6210     0.3770 C.ar  1 <1>  -0.1500 
 10 C       -5.0670     0.1470     0.2850 C.ar  1 <1>   0.0820 
 11 C       -3.8360     2.1650    -0.2350 C.ar  1 <1>   0.0820 
 12 O       -6.2490    -0.5340     0.2270 O.3   1 <1>  -0.3630 
 13 C       -5.0130     1.4180    -0.2860 C.ar  1 <1>   0.0820 
 14 O       -3.8380     3.4130    -0.7890 O.3   1 <1>  -0.3630 
 15 C       -6.3630    -1.8690     0.6680 C.3   1 <1>   0.0400 
 16 O       -6.1120     1.9240    -0.9130 O.3   1 <1>  -0.3630 
 17 C       -2.6900     4.2330    -0.7720 C.3   1 <1>   0.0400 
 18 C       -6.9500     2.7040    -0.0950 C.3   1 <1>   0.0400 
 19 H       -1.7400    -1.0360     2.1260 H     1 <1>   0.4200 
 20 H       -0.6510    -0.0300    -1.2180 H     1 <1>   0.0800 
 21 H       -0.4050    -1.6510    -0.6620 H     1 <1>   0.0800 
 22 H        1.8010     0.3100    -1.3400 H     1 <1>   0.0800 
 23 H        1.2930    -1.0390    -2.3320 H     1 <1>   0.0800 
 24 H        2.0500    -1.3270    -0.7810 H     1 <1>   0.0800 
 25 H       -3.9430    -1.3500     1.3350 H     1 <1>   0.1500 
 26 H       -1.8060     2.1850     0.4420 H     1 <1>   0.1500 
 27 H       -7.3670    -2.1980     0.4730 H     1 <1>   0.0800 
 28 H       -6.1660    -1.9060     1.7250 H     1 <1>   0.0800 
 29 H       -5.6670    -2.4790     0.1200 H     1 <1>   0.0800 
 30 H       -2.9340     5.1580    -1.2640 H     1 <1>   0.0800 
 31 H       -1.8970     3.7370    -1.3030 H     1 <1>   0.0800 
 32 H       -2.4110     4.4250     0.2490 H     1 <1>   0.0800 
 33 H       -7.7780     3.0450    -0.6910 H     1 <1>   0.0800 
 34 H       -6.3900     3.5440     0.2750 H     1 <1>   0.0800 
 35 H       -7.3040     2.0960     0.7180 H     1 <1>   0.0800 
@<TRIPOS>BOND
  1   1   2  2   
  2   1   3  2   
  3   1   4  am  
  4   1   5  1   
  5   4   6  1   
  6   4  19  1   
  7   5   7  1   
  8   5  20  1   
  9   5  21  1   
 10   6   8  ar  
 11   6   9  ar  
 12   7  22  1   
 13   7  23  1   
 14   7  24  1   
 15   8  10  ar  
 16   8  25  1   
 17   9  11  ar  
 18   9  26  1   
 19  10  12  1   
 20  10  13  ar  
 21  11  13  ar  
 22  11  14  1   
 23  12  15  1   
 24  13  16  1   
 25  14  17  1   
 26  15  27  1   
 27  15  28  1   
 28  15  29  1   
 29  16  18  1   
 30  17  30  1   
 31  17  31  1   
 32  17  32  1   
 33  18  33  1   
 34  18  34  1   
 35  18  35  1   
@<TRIPOS>SUBSTRUCTURE
  1 ****   6 GROUP 4 **** **** 0

# MOE 2024.06 (io_trps.svl 2023.06)
