@<TRIPOS>MOLECULE
NONAME
45 47 1 0 0 
SMALL
USER_CHARGES


@<TRIPOS>ATOM
  1 O       -4.6810    -7.2680     0.3430 O.3   1 <1>  -0.3630 
  2 C       -3.8910    -6.2390     0.0240 C.ar  1 <1>   0.0830 
  3 C       -5.6700    -7.3580    -0.6840 C.3   1 <1>   0.4000 
  4 C       -4.3030    -5.6740    -1.1460 C.ar  1 <1>   0.0830 
  5 C       -2.8010    -5.7550     0.7180 C.ar  1 <1>  -0.1500 
  6 O       -5.3720    -6.3220    -1.6180 O.3   1 <1>  -0.3630 
  7 C       -3.6480    -4.5890    -1.6900 C.ar  1 <1>  -0.1500 
  8 C       -2.1190    -4.6630     0.1880 C.ar  1 <1>  -0.1440 
  9 C       -2.5470    -4.0840    -1.0090 C.ar  1 <1>  -0.1500 
 10 C       -0.9110    -4.1120     0.9070 C.3   1 <1>   0.4870 
 11 N        0.2530    -4.8740     0.4200 N.4   1 <1>  -0.9060 
 12 C        1.5470    -4.4560     0.9880 C.3   1 <1>   0.4860 
 13 C        2.5860    -5.3780     0.3980 C.ar  1 <1>  -0.1430 
 14 C        2.7990    -6.6260     0.9600 C.ar  1 <1>  -0.1500 
 15 C        3.3280    -5.0010    -0.7100 C.ar  1 <1>  -0.1500 
 16 C        3.7260    -7.5080     0.4330 C.ar  1 <1>   0.0830 
 17 C        4.2610    -5.8690    -1.2500 C.ar  1 <1>  -0.1500 
 18 O        3.7970    -8.6900     1.1110 O.3   1 <1>  -0.3630 
 19 C        4.4730    -7.1310    -0.6980 C.ar  1 <1>   0.0830 
 20 C        4.8210    -9.6370     0.9140 C.3   1 <1>   0.1200 
 21 O        5.3800    -7.9930    -1.2440 O.3   1 <1>  -0.3630 
 22 C        4.6780   -10.7140     1.9860 C.3   1 <1>  -0.2400 
 23 C        6.1910    -7.6520    -2.3480 C.3   1 <1>   0.0400 
 24 H       -6.6460    -7.1950    -0.2620 H     1 <1>   0.0800 
 25 H       -5.6010    -8.3150    -1.1710 H     1 <1>   0.0800 
 26 H       -2.5190    -6.2330     1.6400 H     1 <1>   0.1500 
 27 H       -3.9960    -4.1580    -2.6130 H     1 <1>   0.1500 
 28 H       -2.0360    -3.2330    -1.4290 H     1 <1>   0.1500 
 29 H       -1.0280    -4.2360     1.9720 H     1 <1>   0.0800 
 30 H       -0.7990    -3.0620     0.6860 H     1 <1>   0.0800 
 31 H        0.2950    -4.8130    -0.6030 H     1 <1>   0.4500 
 32 H        0.1100    -5.8720     0.6140 H     1 <1>   0.4500 
 33 H        1.5410    -4.5520     2.0620 H     1 <1>   0.0800 
 34 H        1.7680    -3.4330     0.7270 H     1 <1>   0.0800 
 35 H        2.2500    -6.9470     1.8280 H     1 <1>   0.1500 
 36 H        3.1960    -4.0340    -1.1670 H     1 <1>   0.1500 
 37 H        4.8140    -5.5390    -2.1090 H     1 <1>   0.1500 
 38 H        5.7710    -9.1390     0.9980 H     1 <1>   0.0800 
 39 H        4.7070   -10.0630    -0.0680 H     1 <1>   0.0800 
 40 H        4.7800   -10.2790     2.9630 H     1 <1>   0.0800 
 41 H        5.4470   -11.4540     1.8580 H     1 <1>   0.0800 
 42 H        3.7210   -11.1950     1.9020 H     1 <1>   0.0800 
 43 H        6.8280    -8.4900    -2.5640 H     1 <1>   0.0800 
 44 H        6.7910    -6.7970    -2.0910 H     1 <1>   0.0800 
 45 H        5.5620    -7.4460    -3.1950 H     1 <1>   0.0800 
@<TRIPOS>BOND
  1   1   2  1   
  2   1   3  1   
  3   2   4  ar  
  4   2   5  ar  
  5   3   6  1   
  6   3  24  1   
  7   3  25  1   
  8   4   6  1   
  9   4   7  ar  
 10   5   8  ar  
 11   5  26  1   
 12   7   9  ar  
 13   7  27  1   
 14   8   9  ar  
 15   8  10  1   
 16   9  28  1   
 17  10  11  1   
 18  10  29  1   
 19  10  30  1   
 20  11  12  1   
 21  11  31  1   
 22  11  32  1   
 23  12  13  1   
 24  12  33  1   
 25  12  34  1   
 26  13  14  ar  
 27  13  15  ar  
 28  14  16  ar  
 29  14  35  1   
 30  15  17  ar  
 31  15  36  1   
 32  16  18  1   
 33  16  19  ar  
 34  17  19  ar  
 35  17  37  1   
 36  18  20  1   
 37  19  21  1   
 38  20  22  1   
 39  20  38  1   
 40  20  39  1   
 41  21  23  1   
 42  22  40  1   
 43  22  41  1   
 44  22  42  1   
 45  23  43  1   
 46  23  44  1   
 47  23  45  1   
@<TRIPOS>SUBSTRUCTURE
  1 ****  11 GROUP 4 **** **** 0

# MOE 2024.06 (io_trps.svl 2023.06)
