@<TRIPOS>MOLECULE
NONAME
28 29 1 0 0 
SMALL
USER_CHARGES


@<TRIPOS>ATOM
  1 F       -0.3430     0.4900    -0.3470 F     1 <1>  -0.1900 
  2 C        0.4700     1.5020    -0.1660 C.ar  1 <1>   0.1900 
  3 C       -0.0730     2.7810    -0.0060 C.ar  1 <1>   0.1170 
  4 C        1.8250     1.2420    -0.1410 C.ar  1 <1>  -0.1500 
  5 N       -1.4710     2.9490    -0.0440 N.am  1 <1>  -0.5470 
  6 C        0.8230     3.8320     0.1980 C.ar  1 <1>  -0.1500 
  7 C        2.6660     2.3180     0.0570 C.ar  1 <1>   0.1900 
  8 C       -2.2750     4.0450    -0.1740 C.2   1 <1>   0.6900 
  9 C        2.1910     3.6060     0.2280 C.ar  1 <1>  -0.1500 
 10 F        3.9570     2.1120     0.0860 F     1 <1>  -0.1900 
 11 O       -1.8110     5.1600    -0.3180 O.2   1 <1>  -0.5700 
 12 N       -3.6310     3.8650    -0.1530 N.am  1 <1>  -0.6600 
 13 C       -4.3470     2.5940     0.0940 C.3   1 <1>   0.1400 
 14 C       -4.5750     4.9990    -0.2420 C.3   1 <1>   0.1400 
 15 C       -5.8230     2.9410    -0.0690 C.3   1 <1>  -0.1600 
 16 C       -5.9070     4.4340     0.2350 C.3   1 <1>  -0.1600 
 17 H        2.2110     0.2480    -0.2700 H     1 <1>   0.1500 
 18 H       -1.9950     2.0800    -0.0680 H     1 <1>   0.3700 
 19 H        0.4600     4.8340     0.3370 H     1 <1>   0.1500 
 20 H        2.8800     4.4180     0.3820 H     1 <1>   0.1500 
 21 H       -4.1480     2.2660     1.1000 H     1 <1>   0.0800 
 22 H       -4.0470     1.8360    -0.6100 H     1 <1>   0.0800 
 23 H       -4.6410     5.3180    -1.2680 H     1 <1>   0.0800 
 24 H       -4.2480     5.8230     0.3710 H     1 <1>   0.0800 
 25 H       -6.4470     2.3540     0.5820 H     1 <1>   0.0800 
 26 H       -6.1140     2.7600    -1.0890 H     1 <1>   0.0800 
 27 H       -6.7400     4.9080    -0.2530 H     1 <1>   0.0800 
 28 H       -5.9900     4.5880     1.2970 H     1 <1>   0.0800 
@<TRIPOS>BOND
  1   1   2  1   
  2   2   3  ar  
  3   2   4  ar  
  4   3   5  1   
  5   3   6  ar  
  6   4   7  ar  
  7   4  17  1   
  8   5   8  am  
  9   5  18  1   
 10   6   9  ar  
 11   6  19  1   
 12   7   9  ar  
 13   7  10  1   
 14   8  11  2   
 15   8  12  am  
 16   9  20  1   
 17  12  13  1   
 18  12  14  1   
 19  13  15  1   
 20  13  21  1   
 21  13  22  1   
 22  14  16  1   
 23  14  23  1   
 24  14  24  1   
 25  15  16  1   
 26  15  25  1   
 27  15  26  1   
 28  16  27  1   
 29  16  28  1   
@<TRIPOS>SUBSTRUCTURE
  1 ****   5 GROUP 4 **** **** 0

# MOE 2024.06 (io_trps.svl 2023.06)
