@<TRIPOS>MOLECULE
NONAME
41 42 1 0 0 
SMALL
USER_CHARGES


@<TRIPOS>ATOM
  1 S       -0.1460    -0.0830    -0.8360 S.o2  1 <1>   1.4470 
  2 O        0.0290    -0.4830    -2.2170 O.2   1 <1>  -0.6500 
  3 O        0.6560     0.9990    -0.3060 O.2   1 <1>  -0.6500 
  4 N        0.1690    -1.4530     0.1120 N.am  1 <1>  -0.8490 
  5 C       -1.8940     0.2600    -0.4930 C.ar  1 <1>  -0.0090 
  6 C        1.6110    -1.6780     0.2540 C.3   1 <1>   0.1960 
  7 C       -0.4990    -2.6480    -0.4140 C.3   1 <1>   0.1960 
  8 C       -2.3390     0.4670     0.8070 C.ar  1 <1>  -0.1500 
  9 C       -2.8370     0.3220    -1.5130 C.ar  1 <1>  -0.1500 
 10 C        1.8770    -2.8260     1.2350 C.3   1 <1>  -0.1600 
 11 C       -0.3190    -3.8240     0.5520 C.3   1 <1>  -0.1600 
 12 C       -3.6710     0.7210     1.0800 C.ar  1 <1>  -0.1500 
 13 C       -4.1710     0.5750    -1.2450 C.ar  1 <1>  -0.1500 
 14 C        1.1660    -4.1140     0.8020 C.3   1 <1>  -0.1600 
 15 C       -4.6110     0.7760     0.0590 C.ar  1 <1>   0.1170 
 16 N       -5.9470     1.0400     0.3860 N.am  1 <1>  -0.5470 
 17 C       -7.1070     0.8550    -0.3000 C.2   1 <1>   0.7800 
 18 O       -7.1850     0.3660    -1.4080 O.2   1 <1>  -0.5700 
 19 O       -8.2040     1.2450     0.3420 O.3   1 <1>  -0.4300 
 20 C       -9.4760     1.1040    -0.2510 C.3   1 <1>   0.1200 
 21 C      -10.5170     1.6390     0.7270 C.3   1 <1>  -0.2400 
 22 H        2.0850    -0.7880     0.6340 H     1 <1>   0.0800 
 23 H        2.0420    -1.9040    -0.7080 H     1 <1>   0.0800 
 24 H       -0.0910    -2.9050    -1.3790 H     1 <1>   0.0800 
 25 H       -1.5520    -2.4560    -0.5340 H     1 <1>   0.0800 
 26 H       -1.6250     0.4260     1.6130 H     1 <1>   0.1500 
 27 H       -2.5240     0.1700    -2.5330 H     1 <1>   0.1500 
 28 H        1.5330    -2.5310     2.2110 H     1 <1>   0.0800 
 29 H        2.9360    -3.0010     1.2990 H     1 <1>   0.0800 
 30 H       -0.7940    -4.6980     0.1440 H     1 <1>   0.0800 
 31 H       -0.8070    -3.5870     1.4820 H     1 <1>   0.0800 
 32 H       -3.9790     0.8750     2.0980 H     1 <1>   0.1500 
 33 H       -4.8660     0.6190    -2.0630 H     1 <1>   0.1500 
 34 H        1.2720    -4.8680     1.5640 H     1 <1>   0.0800 
 35 H        1.6160    -4.4840    -0.1030 H     1 <1>   0.0800 
 36 H       -6.1160     1.4090     1.3180 H     1 <1>   0.3700 
 37 H       -9.6420     0.0600    -0.4600 H     1 <1>   0.0800 
 38 H       -9.4870     1.6630    -1.1720 H     1 <1>   0.0800 
 39 H      -10.4870     1.0780     1.6440 H     1 <1>   0.0800 
 40 H      -11.4980     1.5440     0.2990 H     1 <1>   0.0800 
 41 H      -10.3320     2.6790     0.9330 H     1 <1>   0.0800 
@<TRIPOS>BOND
  1   1   2  2   
  2   1   3  2   
  3   1   4  am  
  4   1   5  1   
  5   4   6  1   
  6   4   7  1   
  7   5   8  ar  
  8   5   9  ar  
  9   6  10  1   
 10   6  22  1   
 11   6  23  1   
 12   7  11  1   
 13   7  24  1   
 14   7  25  1   
 15   8  12  ar  
 16   8  26  1   
 17   9  13  ar  
 18   9  27  1   
 19  10  14  1   
 20  10  28  1   
 21  10  29  1   
 22  11  14  1   
 23  11  30  1   
 24  11  31  1   
 25  12  15  ar  
 26  12  32  1   
 27  13  15  ar  
 28  13  33  1   
 29  14  34  1   
 30  14  35  1   
 31  15  16  1   
 32  16  17  am  
 33  16  36  1   
 34  17  18  2   
 35  17  19  1   
 36  19  20  1   
 37  20  21  1   
 38  20  37  1   
 39  20  38  1   
 40  21  39  1   
 41  21  40  1   
 42  21  41  1   
@<TRIPOS>SUBSTRUCTURE
  1 ****   5 GROUP 4 **** **** 0

# MOE 2024.06 (io_trps.svl 2023.06)
