@<TRIPOS>MOLECULE
NONAME
46 49 1 0 0 
SMALL
USER_CHARGES


@<TRIPOS>ATOM
  1 CL       1.9730    -0.8510    -2.0960 Cl    1 <1>  -0.1770 
  2 C        1.7800    -2.0900    -0.8750 C.ar  1 <1>   0.1770 
  3 C        0.5160    -2.5760    -0.5600 C.ar  1 <1>   0.0820 
  4 C        2.9060    -2.5620    -0.2280 C.ar  1 <1>  -0.1500 
  5 O       -0.5770    -2.1040    -1.2050 O.3   1 <1>  -0.3630 
  6 C        0.3920    -3.5620     0.4110 C.ar  1 <1>  -0.1500 
  7 C        2.7740    -3.5380     0.7470 C.ar  1 <1>  -0.1500 
  8 C       -1.5620    -1.4330    -0.4480 C.3   1 <1>   0.2000 
  9 C        1.5190    -4.0360     1.0640 C.ar  1 <1>  -0.1500 
 10 C       -2.8310    -1.3450    -1.2940 C.3   1 <1>  -0.1600 
 11 C       -1.0640    -0.0320    -0.0840 C.3   1 <1>  -0.1600 
 12 C       -3.8940    -0.5090    -0.5780 C.3   1 <1>   0.1100 
 13 C       -2.1740     0.7720     0.5940 C.3   1 <1>   0.1100 
 14 N       -3.3610     0.8270    -0.2770 N.3   1 <1>  -0.8100 
 15 C       -4.4170     1.7130     0.2750 C.3   1 <1>   0.2900 
 16 C       -4.0490     3.1960     0.4010 C.2   1 <1>   0.2980 
 17 O       -4.7800     3.9140     1.2140 O.3   1 <1>  -0.0190 
 18 N       -3.1210     3.8360    -0.1890 N.2   1 <1>  -0.5650 
 19 N       -4.2740     5.1040     1.1380 N.2   1 <1>  -0.4100 
 20 C       -3.2920     5.0630     0.3080 C.2   1 <1>   0.4620 
 21 C       -2.4460     6.1850    -0.0670 C.ar  1 <1>   0.0540 
 22 C       -1.4050     6.0440    -0.9880 C.ar  1 <1>  -0.1500 
 23 C       -2.6420     7.4550     0.4800 C.ar  1 <1>  -0.1500 
 24 C       -0.6010     7.1120    -1.3430 C.ar  1 <1>  -0.1500 
 25 C       -1.8410     8.5280     0.1300 C.ar  1 <1>  -0.1500 
 26 C       -0.8170     8.3580    -0.7840 C.ar  1 <1>  -0.1500 
 27 H        3.8730    -2.1690    -0.4860 H     1 <1>   0.1500 
 28 H       -0.5760    -3.9610     0.6500 H     1 <1>   0.1500 
 29 H        3.6460    -3.9110     1.2570 H     1 <1>   0.1500 
 30 H       -1.7640    -1.9990     0.4440 H     1 <1>   0.0800 
 31 H        1.4210    -4.7990     1.8180 H     1 <1>   0.1500 
 32 H       -3.2130    -2.3320    -1.4760 H     1 <1>   0.0800 
 33 H       -2.6060    -0.8820    -2.2390 H     1 <1>   0.0800 
 34 H       -0.7570     0.4890    -0.9740 H     1 <1>   0.0800 
 35 H       -0.2230    -0.1010     0.5810 H     1 <1>   0.0800 
 36 H       -4.1970    -0.9990     0.3330 H     1 <1>   0.0800 
 37 H       -4.7530    -0.4180    -1.2220 H     1 <1>   0.0800 
 38 H       -1.8070     1.7670     0.7810 H     1 <1>   0.0800 
 39 H       -2.4310     0.3230     1.5390 H     1 <1>   0.0800 
 40 H       -4.7020     1.3510     1.2470 H     1 <1>   0.0800 
 41 H       -5.2820     1.6590    -0.3620 H     1 <1>   0.0800 
 42 H       -1.2220     5.0810    -1.4330 H     1 <1>   0.1500 
 43 H       -3.4340     7.6050     1.1930 H     1 <1>   0.1500 
 44 H        0.1940     6.9720    -2.0550 H     1 <1>   0.1500 
 45 H       -2.0150     9.4950     0.5680 H     1 <1>   0.1500 
 46 H       -0.1930     9.1900    -1.0580 H     1 <1>   0.1500 
@<TRIPOS>BOND
  1   1   2  1   
  2   2   3  ar  
  3   2   4  ar  
  4   3   5  1   
  5   3   6  ar  
  6   4   7  ar  
  7   4  27  1   
  8   5   8  1   
  9   6   9  ar  
 10   6  28  1   
 11   7   9  ar  
 12   7  29  1   
 13   8  10  1   
 14   8  11  1   
 15   8  30  1   
 16   9  31  1   
 17  10  12  1   
 18  10  32  1   
 19  10  33  1   
 20  11  13  1   
 21  11  34  1   
 22  11  35  1   
 23  12  14  1   
 24  12  36  1   
 25  12  37  1   
 26  13  14  1   
 27  13  38  1   
 28  13  39  1   
 29  14  15  1   
 30  15  16  1   
 31  15  40  1   
 32  15  41  1   
 33  16  17  1   
 34  16  18  2   
 35  17  19  1   
 36  18  20  1   
 37  19  20  2   
 38  20  21  1   
 39  21  22  ar  
 40  21  23  ar  
 41  22  24  ar  
 42  22  42  1   
 43  23  25  ar  
 44  23  43  1   
 45  24  26  ar  
 46  24  44  1   
 47  25  26  ar  
 48  25  45  1   
 49  26  46  1   
@<TRIPOS>SUBSTRUCTURE
  1 ****  13 GROUP 4 **** **** 0

# MOE 2024.06 (io_trps.svl 2023.06)
