@<TRIPOS>MOLECULE
NONAME
37 39 1 0 0 
SMALL
USER_CHARGES


@<TRIPOS>ATOM
  1 O       -0.9000     0.7090    -0.1210 O.3   1 <1>  -0.5600 
  2 C       -1.6690     1.5260     0.7150 C.3   1 <1>   0.3410 
  3 C        0.3160     0.3980     0.4820 C.3   1 <1>   0.3440 
  4 C       -0.6770     2.1440     1.6980 C.2   1 <1>   0.3280 
  5 C       -2.7200     0.6430     1.4180 C.3   1 <1>  -0.1600 
  6 C       -2.3470     2.5860    -0.1710 C.3   1 <1>  -0.1600 
  7 C        1.3800     0.0890    -0.5650 C.ar  1 <1>  -0.1440 
  8 C        0.6760     1.6050     1.3330 C.3   1 <1>  -0.0990 
  9 N       -0.9580     2.9370     2.6470 N.2   1 <1>  -0.5130 
 10 C       -3.7300     0.0320     0.4330 C.3   1 <1>  -0.1600 
 11 C       -3.3600     1.9740    -1.1540 C.3   1 <1>  -0.1600 
 12 C        1.3730     0.7110    -1.8060 C.ar  1 <1>  -0.1500 
 13 C        2.3860    -0.8220    -0.2730 C.ar  1 <1>  -0.1500 
 14 O       -0.0060     3.4160     3.4300 O.3   1 <1>  -0.3370 
 15 C       -4.4010     1.1200    -0.4170 C.3   1 <1>  -0.1600 
 16 C        2.3570     0.4300    -2.7390 C.ar  1 <1>  -0.1500 
 17 C        3.3700    -1.1040    -1.2050 C.ar  1 <1>  -0.1500 
 18 C        3.3570    -0.4770    -2.4380 C.ar  1 <1>  -0.1500 
 19 H        0.1450    -0.4620     1.1080 H     1 <1>   0.0800 
 20 H       -2.2300    -0.1360     1.9740 H     1 <1>   0.0800 
 21 H       -3.2550     1.2530     2.1260 H     1 <1>   0.0800 
 22 H       -1.5960     3.1330    -0.7110 H     1 <1>   0.0800 
 23 H       -2.8610     3.2840     0.4660 H     1 <1>   0.0800 
 24 H        1.2560     1.3150     2.1880 H     1 <1>   0.0800 
 25 H        1.2130     2.3280     0.7450 H     1 <1>   0.0800 
 26 H       -4.4790    -0.5170     0.9760 H     1 <1>   0.0800 
 27 H       -3.2200    -0.6600    -0.2170 H     1 <1>   0.0800 
 28 H       -3.8550     2.7580    -1.6990 H     1 <1>   0.0800 
 29 H       -2.8360     1.3570    -1.8650 H     1 <1>   0.0800 
 30 H        0.5970     1.4150    -2.0520 H     1 <1>   0.1500 
 31 H        2.4100    -1.3180     0.6810 H     1 <1>   0.1500 
 32 H        0.9150     3.3180     3.1180 H     1 <1>   0.4000 
 33 H       -4.9960     1.7530     0.2190 H     1 <1>   0.0800 
 34 H       -5.0600     0.6600    -1.1330 H     1 <1>   0.0800 
 35 H        2.3410     0.9170    -3.6990 H     1 <1>   0.1500 
 36 H        4.1460    -1.8120    -0.9720 H     1 <1>   0.1500 
 37 H        4.1210    -0.6960    -3.1630 H     1 <1>   0.1500 
@<TRIPOS>BOND
  1   1   2  1   
  2   1   3  1   
  3   2   4  1   
  4   2   5  1   
  5   2   6  1   
  6   3   7  1   
  7   3   8  1   
  8   3  19  1   
  9   4   8  1   
 10   4   9  2   
 11   5  10  1   
 12   5  20  1   
 13   5  21  1   
 14   6  11  1   
 15   6  22  1   
 16   6  23  1   
 17   7  12  ar  
 18   7  13  ar  
 19   8  24  1   
 20   8  25  1   
 21   9  14  1   
 22  10  15  1   
 23  10  26  1   
 24  10  27  1   
 25  11  15  1   
 26  11  28  1   
 27  11  29  1   
 28  12  16  ar  
 29  12  30  1   
 30  13  17  ar  
 31  13  31  1   
 32  14  32  1   
 33  15  33  1   
 34  15  34  1   
 35  16  18  ar  
 36  16  35  1   
 37  17  18  ar  
 38  17  36  1   
 39  18  37  1   
@<TRIPOS>SUBSTRUCTURE
  1 ****   1 GROUP 4 **** **** 0

# MOE 2024.06 (io_trps.svl 2023.06)
