@<TRIPOS>MOLECULE
NONAME
27 28 1 0 0 
SMALL
USER_CHARGES


@<TRIPOS>ATOM
  1 BR      -0.3290     0.1450     0.4630 Br    1 <1>  -0.0570 
  2 C        1.3080     1.1370     0.1550 C.2   1 <1>   0.0570 
  3 C        2.5820     0.6250     0.3350 C.2   1 <1>   0.1080 
  4 C        1.4270     2.4090    -0.2580 C.2   1 <1>  -0.3320 
  5 N        3.4700     1.5200     0.0520 N.2   1 <1>  -0.7070 
  6 C        2.9200    -0.7750     0.7960 C.3   1 <1>  -0.0590 
  7 N        2.7830     2.6620    -0.3260 N.pl3 1 <1>   0.5610 
  8 C        0.3210     3.4050    -0.5890 C.3   1 <1>  -0.0600 
  9 C        3.4320     3.8800    -0.6880 C.2   1 <1>   0.6650 
 10 O        2.8680     4.6970    -1.4020 O.2   1 <1>  -0.5700 
 11 C        4.7570     4.1240    -0.1710 C.2   1 <1>   0.2030 
 12 N        5.8430     4.4230    -0.8690 N.2   1 <1>  -0.7070 
 13 C        5.0860     4.0890     1.1870 C.2   1 <1>   0.1230 
 14 N        6.8300     4.5550     0.0300 N.pl3 1 <1>   0.3140 
 15 CL       3.9770     3.7830     2.5120 Cl    1 <1>  -0.1230 
 16 C        6.3960     4.3600     1.2910 C.2   1 <1>  -0.3020 
 17 C        8.2040     4.8820    -0.3700 C.3   1 <1>   0.0160 
 18 H        2.5060    -1.4930     0.1130 H     1 <1>   0.0800 
 19 H        2.5150    -0.9420     1.7770 H     1 <1>   0.0800 
 20 H        3.9860    -0.9010     0.8320 H     1 <1>   0.0800 
 21 H       -0.6460     2.9720    -0.4080 H     1 <1>   0.0800 
 22 H        0.3750     3.6910    -1.6250 H     1 <1>   0.0800 
 23 H        0.4180     4.2870     0.0190 H     1 <1>   0.0800 
 24 H        7.0220     4.4260     2.1600 H     1 <1>   0.1500 
 25 H        8.2430     4.9940    -1.4380 H     1 <1>   0.0800 
 26 H        8.8590     4.0860    -0.0680 H     1 <1>   0.0800 
 27 H        8.5010     5.8010     0.1000 H     1 <1>   0.0800 
@<TRIPOS>BOND
  1   1   2  1   
  2   2   3  1   
  3   2   4  2   
  4   3   5  2   
  5   3   6  1   
  6   4   7  1   
  7   4   8  1   
  8   5   7  1   
  9   6  18  1   
 10   6  19  1   
 11   6  20  1   
 12   7   9  1   
 13   8  21  1   
 14   8  22  1   
 15   8  23  1   
 16   9  10  2   
 17   9  11  1   
 18  11  12  2   
 19  11  13  1   
 20  12  14  1   
 21  13  15  1   
 22  13  16  2   
 23  14  16  1   
 24  14  17  1   
 25  16  24  1   
 26  17  25  1   
 27  17  26  1   
 28  17  27  1   
@<TRIPOS>SUBSTRUCTURE
  1 ****   7 GROUP 4 **** **** 0

# MOE 2024.06 (io_trps.svl 2023.06)
