@<TRIPOS>MOLECULE
NONAME
44 46 1 0 0 
SMALL
USER_CHARGES


@<TRIPOS>ATOM
  1 S        1.1580     0.5940     1.1970 S.3   1 <1>  -0.0800 
  2 C        2.1630     0.4490    -0.2050 C.2   1 <1>   0.4420 
  3 C       -0.2040     0.5760     0.1250 C.2   1 <1>   0.1980 
  4 N        1.4860     0.4430    -1.2950 N.2   1 <1>  -0.3380 
  5 N        3.5200     0.3530    -0.0110 N.am  1 <1>  -0.4940 
  6 N        0.1360     0.5160    -1.0990 N.2   1 <1>  -0.3380 
  7 C       -1.5940     0.6260     0.7360 C.3   1 <1>   0.1580 
  8 C        4.4370    -0.2730    -0.7920 C.2   1 <1>   0.6900 
  9 C       -2.2810    -0.7400     0.7620 C.2   1 <1>  -0.2760 
 10 O        5.5680     0.1550    -0.7990 O.2   1 <1>  -0.5700 
 11 N        4.1530    -1.3830    -1.5280 N.am  1 <1>  -0.5470 
 12 C       -3.4550    -0.9660     0.1590 C.2   1 <1>  -0.2880 
 13 C       -1.5350    -1.8310     1.5300 C.3   1 <1>  -0.0220 
 14 C        3.1010    -2.2980    -1.3980 C.ar  1 <1>   0.1170 
 15 C       -4.1930    -2.2940     0.1810 C.3   1 <1>  -0.0220 
 16 C       -2.1010    -3.2290     1.2420 C.3   1 <1>  -0.1600 
 17 C        2.7120    -2.7730    -0.1510 C.ar  1 <1>  -0.1500 
 18 C        2.4270    -2.7400    -2.5290 C.ar  1 <1>  -0.1500 
 19 C       -3.6340    -3.2270     1.2630 C.3   1 <1>  -0.1600 
 20 C        1.6510    -3.6640    -0.0320 C.ar  1 <1>   0.0820 
 21 C        1.3740    -3.6310    -2.4170 C.ar  1 <1>  -0.1500 
 22 O        1.2090    -4.1570     1.1530 O.3   1 <1>  -0.3620 
 23 C        0.9870    -4.0890    -1.1710 C.ar  1 <1>  -0.1500 
 24 C        1.8160    -3.7890     2.3720 C.3   1 <1>   0.0400 
 25 H        3.9350     0.9510     0.6950 H     1 <1>   0.3700 
 26 H       -2.1860     1.3120     0.1590 H     1 <1>   0.0800 
 27 H       -1.5340     1.0130     1.7370 H     1 <1>   0.0800 
 28 H        4.8670    -1.5920    -2.2230 H     1 <1>   0.3700 
 29 H       -3.9810    -0.2130    -0.4040 H     1 <1>   0.1500 
 30 H       -0.4960    -1.8440     1.2560 H     1 <1>   0.0800 
 31 H       -1.6020    -1.6250     2.5840 H     1 <1>   0.0800 
 32 H       -5.2390    -2.1250     0.3690 H     1 <1>   0.0800 
 33 H       -4.0970    -2.7570    -0.7850 H     1 <1>   0.0800 
 34 H       -1.7190    -3.9290     1.9650 H     1 <1>   0.0800 
 35 H       -1.7650    -3.5440     0.2700 H     1 <1>   0.0800 
 36 H        3.2500    -2.4350     0.7110 H     1 <1>   0.1500 
 37 H        2.7170    -2.3740    -3.4960 H     1 <1>   0.1500 
 38 H       -4.0060    -4.2240     1.1070 H     1 <1>   0.0800 
 39 H       -3.9710    -2.8900     2.2280 H     1 <1>   0.0800 
 40 H        0.8510    -3.9610    -3.2980 H     1 <1>   0.1500 
 41 H        0.1670    -4.7770    -1.0740 H     1 <1>   0.1500 
 42 H        1.3000    -4.2960     3.1670 H     1 <1>   0.0800 
 43 H        1.7290    -2.7250     2.4980 H     1 <1>   0.0800 
 44 H        2.8480    -4.0940     2.3530 H     1 <1>   0.0800 
@<TRIPOS>BOND
  1   1   2  1   
  2   1   3  1   
  3   2   4  2   
  4   2   5  1   
  5   3   6  2   
  6   3   7  1   
  7   4   6  1   
  8   5   8  am  
  9   5  25  1   
 10   7   9  1   
 11   7  26  1   
 12   7  27  1   
 13   8  10  2   
 14   8  11  am  
 15   9  12  2   
 16   9  13  1   
 17  11  14  1   
 18  11  28  1   
 19  12  15  1   
 20  12  29  1   
 21  13  16  1   
 22  13  30  1   
 23  13  31  1   
 24  14  17  ar  
 25  14  18  ar  
 26  15  19  1   
 27  15  32  1   
 28  15  33  1   
 29  16  19  1   
 30  16  34  1   
 31  16  35  1   
 32  17  20  ar  
 33  17  36  1   
 34  18  21  ar  
 35  18  37  1   
 36  19  38  1   
 37  19  39  1   
 38  20  22  1   
 39  20  23  ar  
 40  21  23  ar  
 41  21  40  1   
 42  22  24  1   
 43  23  41  1   
 44  24  42  1   
 45  24  43  1   
 46  24  44  1   
@<TRIPOS>SUBSTRUCTURE
  1 ****  17 GROUP 4 **** **** 0

# MOE 2024.06 (io_trps.svl 2023.06)
