@<TRIPOS>MOLECULE
NONAME
34 35 1 0 0 
SMALL
USER_CHARGES


@<TRIPOS>ATOM
  1 F        0.9940    -2.9180     1.9310 F     1 <1>  -0.1900 
  2 C        2.1130    -2.5030     1.3980 C.ar  1 <1>   0.1900 
  3 C        2.1840    -2.3190     0.0180 C.ar  1 <1>   0.0860 
  4 C        3.1720    -2.2460     2.2490 C.ar  1 <1>  -0.1500 
  5 C        1.0670    -2.6110    -0.8440 C.2   1 <1>   0.6340 
  6 C        3.3880    -1.8240    -0.4850 C.ar  1 <1>  -0.1500 
  7 C        4.3560    -1.7700     1.7170 C.ar  1 <1>  -0.1500 
  8 O        0.6490    -1.8430    -1.6820 O.2   1 <1>  -0.5700 
  9 O        0.4390    -3.7800    -0.6860 O.3   1 <1>  -0.4300 
 10 C        4.4600    -1.5570     0.3510 C.ar  1 <1>  -0.1500 
 11 C       -0.7010    -4.1320    -1.4530 C.3   1 <1>   0.2000 
 12 C       -1.8830    -3.2290    -1.0420 C.3   1 <1>   0.3430 
 13 C       -1.0380    -5.6000    -1.1400 C.3   1 <1>  -0.1600 
 14 N       -2.1210    -3.2680     0.4520 N.4   1 <1>  -0.9590 
 15 C       -1.9840    -5.7520     0.0730 C.3   1 <1>  -0.1600 
 16 C       -1.8410    -4.6060     1.0830 C.3   1 <1>   0.3430 
 17 C       -3.4820    -2.7640     0.7940 C.3   1 <1>   0.2630 
 18 H        3.0710    -2.4100     3.3080 H     1 <1>   0.1500 
 19 H        3.4830    -1.6480    -1.5440 H     1 <1>   0.1500 
 20 H        5.1950    -1.5620     2.3600 H     1 <1>   0.1500 
 21 H        5.3810    -1.1790    -0.0610 H     1 <1>   0.1500 
 22 H       -0.4580    -4.0130    -2.4960 H     1 <1>   0.0800 
 23 H       -2.7630    -3.5770    -1.5560 H     1 <1>   0.0800 
 24 H       -1.6930    -2.2180    -1.3640 H     1 <1>   0.0800 
 25 H       -0.1230    -6.1440    -0.9730 H     1 <1>   0.0800 
 26 H       -1.5150    -6.0430    -1.9980 H     1 <1>   0.0800 
 27 H       -1.4250    -2.6250     0.8630 H     1 <1>   0.4500 
 28 H       -1.7780    -6.6860     0.5660 H     1 <1>   0.0800 
 29 H       -3.0070    -5.7900    -0.2610 H     1 <1>   0.0800 
 30 H       -2.4970    -4.7680     1.9230 H     1 <1>   0.0800 
 31 H       -0.8270    -4.6130     1.4520 H     1 <1>   0.0800 
 32 H       -4.2360    -3.4180     0.3870 H     1 <1>   0.0800 
 33 H       -3.6270    -1.7750     0.3890 H     1 <1>   0.0800 
 34 H       -3.6060    -2.7170     1.8640 H     1 <1>   0.0800 
@<TRIPOS>BOND
  1   1   2  1   
  2   2   3  ar  
  3   2   4  ar  
  4   3   5  1   
  5   3   6  ar  
  6   4   7  ar  
  7   4  18  1   
  8   5   8  2   
  9   5   9  1   
 10   6  10  ar  
 11   6  19  1   
 12   7  10  ar  
 13   7  20  1   
 14   9  11  1   
 15  10  21  1   
 16  11  12  1   
 17  11  13  1   
 18  11  22  1   
 19  12  14  1   
 20  12  23  1   
 21  12  24  1   
 22  13  15  1   
 23  13  25  1   
 24  13  26  1   
 25  14  16  1   
 26  14  17  1   
 27  14  27  1   
 28  15  16  1   
 29  15  28  1   
 30  15  29  1   
 31  16  30  1   
 32  16  31  1   
 33  17  32  1   
 34  17  33  1   
 35  17  34  1   
@<TRIPOS>SUBSTRUCTURE
  1 ****   9 GROUP 4 **** **** 0

# MOE 2024.06 (io_trps.svl 2023.06)
