@<TRIPOS>MOLECULE
NONAME
42 43 1 0 0 
SMALL
USER_CHARGES


@<TRIPOS>ATOM
  1 O       -0.0660     1.3200     1.7850 O.2   1 <1>  -0.5700 
  2 C       -0.0800     1.8720     0.7090 C.2   1 <1>   0.6590 
  3 O        1.0160     1.9360    -0.0450 O.3   1 <1>  -0.4300 
  4 C       -1.3320     2.5610     0.1100 C.3   1 <1>   0.2510 
  5 C        2.2330     1.3340     0.3270 C.3   1 <1>   0.2000 
  6 N       -1.5370     3.9770     0.5870 N.3   1 <1>  -0.8100 
  7 C       -2.5860     1.7000     0.3470 C.3   1 <1>  -0.2660 
  8 C        3.3600     2.0900    -0.3850 C.3   1 <1>  -0.1600 
  9 C        2.1980    -0.1440    -0.0850 C.3   1 <1>  -0.1600 
 10 C       -2.6780     4.6260    -0.1060 C.3   1 <1>   0.1100 
 11 C       -0.3250     4.7940     0.3710 C.3   1 <1>   0.1100 
 12 C       -3.4210     1.6540    -0.8960 C.2   1 <1>   0.9060 
 13 C        4.7190     1.4170    -0.1410 C.3   1 <1>  -0.1600 
 14 C        3.5570    -0.8180     0.1550 C.3   1 <1>  -0.1600 
 15 C       -2.8240     6.1070     0.2850 C.3   1 <1>   0.1200 
 16 C       -0.5520     6.2570     0.7880 C.3   1 <1>   0.1200 
 17 O       -2.9140     1.1770    -1.9150 O.co2 1 <1>  -0.9000 
 18 O       -4.5700     2.1020    -0.8690 O.co2 1 <1>  -0.9000 
 19 C        4.6870    -0.0610    -0.5560 C.3   1 <1>  -0.1600 
 20 O       -1.6270     6.8080     0.0860 O.3   1 <1>  -0.5600 
 21 H       -1.1510     2.5960    -0.9510 H     1 <1>   0.0800 
 22 H        2.3550     1.4240     1.3940 H     1 <1>   0.0800 
 23 H       -3.1590     2.0600     1.1790 H     1 <1>   0.0800 
 24 H       -2.3070     0.6840     0.5470 H     1 <1>   0.0800 
 25 H        3.3920     3.1030    -0.0250 H     1 <1>   0.0800 
 26 H        3.1600     2.1060    -1.4420 H     1 <1>   0.0800 
 27 H        1.9470    -0.2140    -1.1300 H     1 <1>   0.0800 
 28 H        1.4420    -0.6570     0.4830 H     1 <1>   0.0800 
 29 H       -3.5950     4.1320     0.1590 H     1 <1>   0.0800 
 30 H       -2.5590     4.5480    -1.1740 H     1 <1>   0.0800 
 31 H       -0.0400     4.7630    -0.6670 H     1 <1>   0.0800 
 32 H        0.4860     4.4010     0.9570 H     1 <1>   0.0800 
 33 H        4.9700     1.4880     0.9040 H     1 <1>   0.0800 
 34 H        5.4810     1.9320    -0.6990 H     1 <1>   0.0800 
 35 H        3.5220    -1.8330    -0.2010 H     1 <1>   0.0800 
 36 H        3.7570    -0.8470     1.2130 H     1 <1>   0.0800 
 37 H       -3.1020     6.1880     1.3210 H     1 <1>   0.0800 
 38 H       -3.5840     6.5720    -0.3160 H     1 <1>   0.0800 
 39 H        0.3200     6.8460     0.5680 H     1 <1>   0.0800 
 40 H       -0.7590     6.3170     1.8420 H     1 <1>   0.0800 
 41 H        5.6310    -0.5210    -0.3220 H     1 <1>   0.0800 
 42 H        4.5440    -0.1280    -1.6210 H     1 <1>   0.0800 
@<TRIPOS>BOND
  1   1   2  2   
  2   2   3  1   
  3   2   4  1   
  4   3   5  1   
  5   4   6  1   
  6   4   7  1   
  7   4  21  1   
  8   5   8  1   
  9   5   9  1   
 10   5  22  1   
 11   6  10  1   
 12   6  11  1   
 13   7  12  1   
 14   7  23  1   
 15   7  24  1   
 16   8  13  1   
 17   8  25  1   
 18   8  26  1   
 19   9  14  1   
 20   9  27  1   
 21   9  28  1   
 22  10  15  1   
 23  10  29  1   
 24  10  30  1   
 25  11  16  1   
 26  11  31  1   
 27  11  32  1   
 28  12  17  ar  
 29  12  18  ar  
 30  13  19  1   
 31  13  33  1   
 32  13  34  1   
 33  14  19  1   
 34  14  35  1   
 35  14  36  1   
 36  15  20  1   
 37  15  37  1   
 38  15  38  1   
 39  16  20  1   
 40  16  39  1   
 41  16  40  1   
 42  19  41  1   
 43  19  42  1   
@<TRIPOS>SUBSTRUCTURE
  1 ****   2 GROUP 4 **** **** 0

# MOE 2024.06 (io_trps.svl 2023.06)
