@<TRIPOS>MOLECULE
NONAME
41 42 1 0 0 
SMALL
USER_CHARGES


@<TRIPOS>ATOM
  1 S       -0.1080    -0.0340     0.4510 S.o2  1 <1>   1.4470 
  2 O       -0.4970     0.1490     1.8340 O.2   1 <1>  -0.6500 
  3 O       -1.0860     0.1970    -0.5930 O.2   1 <1>  -0.6500 
  4 N        0.3290    -1.6680     0.3090 N.am  1 <1>  -0.8490 
  5 C        1.4420     0.8630     0.1410 C.ar  1 <1>  -0.0090 
  6 C       -0.6370    -2.5670     0.9120 C.3   1 <1>   0.1960 
  7 C        0.5040    -2.1450    -1.0540 C.3   1 <1>   0.1960 
  8 C        1.4180     2.2270    -0.1310 C.ar  1 <1>   0.0820 
  9 C        2.6770     0.2290     0.1940 C.ar  1 <1>  -0.1500 
 10 C       -0.2830    -3.9430     0.3540 C.3   1 <1>  -0.1600 
 11 C        0.5300    -3.6610    -0.9100 C.3   1 <1>  -0.1600 
 12 O        0.2150     2.8430    -0.1420 O.3   1 <1>  -0.3620 
 13 C        2.6050     2.9130    -0.3760 C.ar  1 <1>  -0.1500 
 14 C        3.8810     0.8880    -0.0460 C.ar  1 <1>   0.0860 
 15 C        0.0500     4.2130    -0.4330 C.3   1 <1>   0.0400 
 16 C        3.8140     2.2490    -0.3380 C.ar  1 <1>  -0.1500 
 17 C        5.1420     0.1730     0.0040 C.2   1 <1>   0.5440 
 18 O        5.2040    -0.9920    -0.3370 O.2   1 <1>  -0.5700 
 19 N        6.2780     0.7930     0.4460 N.am  1 <1>  -0.7300 
 20 C        7.6120     0.1670     0.5210 C.3   1 <1>   0.1400 
 21 C        8.6590     1.2090     0.1490 C.3   1 <1>  -0.2400 
 22 H       -1.6330    -2.2910     0.6050 H     1 <1>   0.0800 
 23 H       -0.5720    -2.5370     1.9870 H     1 <1>   0.0800 
 24 H        1.4120    -1.7670    -1.4920 H     1 <1>   0.0800 
 25 H       -0.3380    -1.8610    -1.6650 H     1 <1>   0.0800 
 26 H        2.7260    -0.8210     0.4310 H     1 <1>   0.1500 
 27 H       -1.1760    -4.5020     0.1420 H     1 <1>   0.0800 
 28 H        0.3110    -4.4850     1.0690 H     1 <1>   0.0800 
 29 H        1.5470    -3.9870    -0.7780 H     1 <1>   0.0800 
 30 H        0.1160    -4.1390    -1.7790 H     1 <1>   0.0800 
 31 H        2.6020     3.9640    -0.6000 H     1 <1>   0.1500 
 32 H       -1.0000     4.4380    -0.3860 H     1 <1>   0.0800 
 33 H        0.4200     4.4070    -1.4240 H     1 <1>   0.0800 
 34 H        0.5810     4.7930     0.3010 H     1 <1>   0.0800 
 35 H        4.7200     2.7910    -0.5450 H     1 <1>   0.1500 
 36 H        6.2070     1.7190     0.8680 H     1 <1>   0.3700 
 37 H        7.6650    -0.6690    -0.1580 H     1 <1>   0.0800 
 38 H        7.7800    -0.1940     1.5220 H     1 <1>   0.0800 
 39 H        8.4890     1.5650    -0.8510 H     1 <1>   0.0800 
 40 H        9.6370     0.7640     0.1880 H     1 <1>   0.0800 
 41 H        8.6340     2.0350     0.8380 H     1 <1>   0.0800 
@<TRIPOS>BOND
  1   1   2  2   
  2   1   3  2   
  3   1   4  am  
  4   1   5  1   
  5   4   6  1   
  6   4   7  1   
  7   5   8  ar  
  8   5   9  ar  
  9   6  10  1   
 10   6  22  1   
 11   6  23  1   
 12   7  11  1   
 13   7  24  1   
 14   7  25  1   
 15   8  12  1   
 16   8  13  ar  
 17   9  14  ar  
 18   9  26  1   
 19  10  11  1   
 20  10  27  1   
 21  10  28  1   
 22  11  29  1   
 23  11  30  1   
 24  12  15  1   
 25  13  16  ar  
 26  13  31  1   
 27  14  16  ar  
 28  14  17  1   
 29  15  32  1   
 30  15  33  1   
 31  15  34  1   
 32  16  35  1   
 33  17  18  2   
 34  17  19  am  
 35  19  20  1   
 36  19  36  1   
 37  20  21  1   
 38  20  37  1   
 39  20  38  1   
 40  21  39  1   
 41  21  40  1   
 42  21  41  1   
@<TRIPOS>SUBSTRUCTURE
  1 ****   9 GROUP 4 **** **** 0

# MOE 2024.06 (io_trps.svl 2023.06)
