@<TRIPOS>MOLECULE
NONAME
35 36 1 0 0 
SMALL
USER_CHARGES


@<TRIPOS>ATOM
  1 O       -1.4280     0.1440    -1.9930 O.2   1 <1>  -0.5700 
  2 C       -2.1940    -0.6010    -1.4190 C.2   1 <1>   0.7060 
  3 O       -3.4360    -0.1760    -1.1760 O.3   1 <1>  -0.2330 
  4 C       -1.8350    -1.9140    -0.9910 C.2   1 <1>  -0.1360 
  5 C       -4.3580    -0.9380    -0.5440 C.ar  1 <1>   0.0820 
  6 C       -2.7120    -2.7240    -0.3550 C.2   1 <1>  -0.1670 
  7 C       -4.0410    -2.2360    -0.1110 C.ar  1 <1>   0.0280 
  8 C       -5.6180    -0.4010    -0.3390 C.ar  1 <1>  -0.1500 
  9 C       -2.3110    -4.1210     0.0960 C.3   1 <1>  -0.1020 
 10 C       -5.0480    -2.9650     0.5290 C.ar  1 <1>  -0.1500 
 11 C       -6.5960    -1.1360     0.3030 C.ar  1 <1>   0.0830 
 12 C       -6.3050    -2.4300     0.7310 C.ar  1 <1>  -0.1500 
 13 O       -7.8110    -0.5530     0.4630 O.3   1 <1>  -0.2330 
 14 C       -8.7220    -0.7700     1.4120 C.2   1 <1>   0.6590 
 15 O       -8.5540    -1.5040     2.3510 O.2   1 <1>  -0.5700 
 16 C      -10.0240    -0.0100     1.2430 C.3   1 <1>  -0.0990 
 17 C      -10.8450    -0.5170     0.0460 C.3   1 <1>  -0.1600 
 18 C      -12.1590     0.2600    -0.0980 C.3   1 <1>  -0.1600 
 19 C      -12.9700    -0.2490    -1.2920 C.3   1 <1>  -0.2400 
 20 H       -0.8260    -2.2040    -1.2100 H     1 <1>   0.1500 
 21 H       -5.8330     0.5940    -0.6830 H     1 <1>   0.1500 
 22 H       -2.9340    -4.8570    -0.3810 H     1 <1>   0.0800 
 23 H       -2.4170    -4.2100     1.1630 H     1 <1>   0.0800 
 24 H       -1.2870    -4.3290    -0.1590 H     1 <1>   0.0800 
 25 H       -4.8530    -3.9630     0.8750 H     1 <1>   0.1500 
 26 H       -7.0550    -3.0260     1.2190 H     1 <1>   0.1500 
 27 H       -9.7940     1.0320     1.1160 H     1 <1>   0.0800 
 28 H      -10.5980    -0.1170     2.1450 H     1 <1>   0.0800 
 29 H      -11.0610    -1.5640     0.1830 H     1 <1>   0.0800 
 30 H      -10.2670    -0.4120    -0.8570 H     1 <1>   0.0800 
 31 H      -11.9490     1.3080    -0.2350 H     1 <1>   0.0800 
 32 H      -12.7460     0.1520     0.7990 H     1 <1>   0.0800 
 33 H      -12.4130    -0.1300    -2.2050 H     1 <1>   0.0800 
 34 H      -13.8870     0.3060    -1.3780 H     1 <1>   0.0800 
 35 H      -13.2120    -1.2900    -1.1670 H     1 <1>   0.0800 
@<TRIPOS>BOND
  1   1   2  2   
  2   2   3  1   
  3   2   4  1   
  4   3   5  1   
  5   4   6  2   
  6   4  20  1   
  7   5   7  ar  
  8   5   8  ar  
  9   6   7  1   
 10   6   9  1   
 11   7  10  ar  
 12   8  11  ar  
 13   8  21  1   
 14   9  22  1   
 15   9  23  1   
 16   9  24  1   
 17  10  12  ar  
 18  10  25  1   
 19  11  12  ar  
 20  11  13  1   
 21  12  26  1   
 22  13  14  1   
 23  14  15  2   
 24  14  16  1   
 25  16  17  1   
 26  16  27  1   
 27  16  28  1   
 28  17  18  1   
 29  17  29  1   
 30  17  30  1   
 31  18  19  1   
 32  18  31  1   
 33  18  32  1   
 34  19  33  1   
 35  19  34  1   
 36  19  35  1   
@<TRIPOS>SUBSTRUCTURE
  1 ****  11 GROUP 4 **** **** 0

# MOE 2024.06 (io_trps.svl 2023.06)
