@<TRIPOS>MOLECULE
NONAME
41 45 1 0 0 
SMALL
USER_CHARGES


@<TRIPOS>ATOM
  1 O        0.3740     0.8460     1.2330 O.2   1 <1>  -0.5700 
  2 C        0.5760     1.8330     0.5730 C.2   1 <1>   0.5690 
  3 N        1.6380     2.1020    -0.2780 N.am  1 <1>  -0.2370 
  4 C       -0.3080     3.0450     0.5620 C.3   1 <1>  -0.0190 
  5 C        2.8550     1.3880    -0.3250 C.ar  1 <1>   0.1170 
  6 C        1.3130     3.2050    -1.0560 C.2   1 <1>   0.5690 
  7 C       -1.7320     3.5120     0.9130 C.3   1 <1>   0.1530 
  8 C       -0.1650     3.4290    -0.9150 C.3   1 <1>  -0.0190 
  9 C        4.0730     2.0580    -0.3040 C.ar  1 <1>  -0.1500 
 10 C        2.8600    -0.0020    -0.3950 C.ar  1 <1>  -0.1500 
 11 O        2.0350     3.8700    -1.7540 O.2   1 <1>  -0.5700 
 12 C       -2.7640     3.1060    -0.1330 C.2   1 <1>  -0.2880 
 13 C       -1.5200     4.9360     0.3770 C.3   1 <1>  -0.1900 
 14 C       -1.2150     4.5570    -1.0730 C.3   1 <1>   0.1530 
 15 C        5.2700     1.3560    -0.3460 C.ar  1 <1>   0.0830 
 16 C        4.0500    -0.7060    -0.4470 C.ar  1 <1>  -0.1500 
 17 C       -2.4970     3.7570    -1.2700 C.2   1 <1>  -0.2880 
 18 C       -2.3650     6.1070     0.7580 C.3   1 <1>  -0.2000 
 19 C       -0.8930     6.0760     1.1120 C.3   1 <1>  -0.2000 
 20 O        6.4810     1.9720    -0.3360 O.3   1 <1>  -0.2320 
 21 C        5.2550    -0.0270    -0.4250 C.ar  1 <1>  -0.1500 
 22 C        6.8180     3.0670     0.3430 C.2   1 <1>   0.6590 
 23 O        6.0940     3.6260     1.1230 O.2   1 <1>  -0.5700 
 24 C        8.2100     3.5840     0.0730 C.3   1 <1>  -0.1790 
 25 H        0.3040     3.7040     1.1610 H     1 <1>   0.0800 
 26 H       -2.0320     3.4690     1.9450 H     1 <1>   0.0800 
 27 H       -0.5350     2.6220    -1.5310 H     1 <1>   0.0800 
 28 H        4.0820     3.1320    -0.2590 H     1 <1>   0.1500 
 29 H        1.9280    -0.5390    -0.4060 H     1 <1>   0.1500 
 30 H       -3.5470     2.4100     0.1180 H     1 <1>   0.1500 
 31 H       -1.0260     5.3520    -1.7730 H     1 <1>   0.0800 
 32 H        4.0370    -1.7810    -0.5020 H     1 <1>   0.1500 
 33 H       -3.0010     3.7540    -2.2220 H     1 <1>   0.1500 
 34 H       -3.0910     5.9870     1.5430 H     1 <1>   0.1000 
 35 H       -2.7000     6.7770    -0.0150 H     1 <1>   0.1000 
 36 H       -0.2270     6.7380     0.5850 H     1 <1>   0.1000 
 37 H       -0.6270     5.9610     2.1480 H     1 <1>   0.1000 
 38 H        6.1830    -0.5690    -0.4670 H     1 <1>   0.1500 
 39 H        8.9300     2.8310     0.3320 H     1 <1>   0.0800 
 40 H        8.3900     4.4640     0.6620 H     1 <1>   0.0800 
 41 H        8.3060     3.8290    -0.9680 H     1 <1>   0.0800 
@<TRIPOS>BOND
  1   1   2  2   
  2   2   3  am  
  3   2   4  1   
  4   3   5  1   
  5   3   6  am  
  6   4   7  1   
  7   4   8  1   
  8   4  25  1   
  9   5   9  ar  
 10   5  10  ar  
 11   6   8  1   
 12   6  11  2   
 13   7  12  1   
 14   7  13  1   
 15   7  26  1   
 16   8  14  1   
 17   8  27  1   
 18   9  15  ar  
 19   9  28  1   
 20  10  16  ar  
 21  10  29  1   
 22  12  17  2   
 23  12  30  1   
 24  13  14  1   
 25  13  18  1   
 26  13  19  1   
 27  14  17  1   
 28  14  31  1   
 29  15  20  1   
 30  15  21  ar  
 31  16  21  ar  
 32  16  32  1   
 33  17  33  1   
 34  18  19  1   
 35  18  34  1   
 36  18  35  1   
 37  19  36  1   
 38  19  37  1   
 39  20  22  1   
 40  21  38  1   
 41  22  23  2   
 42  22  24  1   
 43  24  39  1   
 44  24  40  1   
 45  24  41  1   
@<TRIPOS>SUBSTRUCTURE
  1 ****   3 GROUP 4 **** **** 0

# MOE 2024.06 (io_trps.svl 2023.06)
