@<TRIPOS>MOLECULE
NONAME
42 43 1 0 0 
SMALL
USER_CHARGES


@<TRIPOS>ATOM
  1 O       -0.4020     0.6600    -1.5210 O.2   1 <1>  -0.5700 
  2 C       -0.8490     1.4110    -0.6740 C.2   1 <1>   0.7150 
  3 N       -2.0770     1.1520    -0.1070 N.am  1 <1>  -0.5470 
  4 C       -0.1270     2.5910    -0.2470 C.2   1 <1>   0.0550 
  5 C       -2.9690     0.0780    -0.2370 C.ar  1 <1>   0.1170 
  6 O        1.0120     2.9520    -0.8340 O.3   1 <1>  -0.2800 
  7 C       -0.4030     3.5010     0.7330 C.2   1 <1>  -0.1500 
  8 C       -4.2950     0.2800     0.1120 C.ar  1 <1>  -0.1500 
  9 C       -2.5910    -1.1850    -0.6760 C.ar  1 <1>  -0.1500 
 10 C        1.4610     4.0470    -0.2670 C.2   1 <1>  -0.0100 
 11 C        0.6270     4.4430     0.7170 C.2   1 <1>  -0.1500 
 12 C       -5.2410    -0.7360     0.0420 C.ar  1 <1>   0.1170 
 13 C       -3.5180    -2.2070    -0.7640 C.ar  1 <1>  -0.1500 
 14 N       -6.5860    -0.5230     0.3970 N.am  1 <1>  -0.5470 
 15 C       -4.8400    -1.9960    -0.4080 C.ar  1 <1>  -0.1430 
 16 C       -7.1810     0.4230     1.1850 C.2   1 <1>   0.5690 
 17 C       -5.8240    -3.1550    -0.5150 C.3   1 <1>  -0.0970 
 18 O       -6.5830     1.2980     1.7600 O.2   1 <1>  -0.5700 
 19 C       -8.6870     0.3470     1.3480 C.3   1 <1>  -0.0990 
 20 C       -9.4340     0.7530     0.0660 C.3   1 <1>  -0.1600 
 21 C      -10.9530     0.6740     0.2580 C.3   1 <1>  -0.1600 
 22 C      -11.6900     1.0800    -1.0220 C.3   1 <1>  -0.2400 
 23 H       -2.4230     1.9070     0.4780 H     1 <1>   0.3700 
 24 H       -1.2360     3.5240     1.4120 H     1 <1>   0.1500 
 25 H       -4.5950     1.2560     0.4380 H     1 <1>   0.1500 
 26 H       -1.5700    -1.3810    -0.9500 H     1 <1>   0.1500 
 27 H        2.3800     4.4800    -0.6230 H     1 <1>   0.1500 
 28 H        0.7130     5.2970     1.3650 H     1 <1>   0.1500 
 29 H       -3.1930    -3.1720    -1.1120 H     1 <1>   0.1500 
 30 H       -7.2220    -1.2250     0.0260 H     1 <1>   0.3700 
 31 H       -6.2910    -3.3330     0.4370 H     1 <1>   0.0800 
 32 H       -5.3220    -4.0580    -0.8140 H     1 <1>   0.0800 
 33 H       -6.5790    -2.9330    -1.2480 H     1 <1>   0.0800 
 34 H       -8.9750     1.0030     2.1510 H     1 <1>   0.0800 
 35 H       -8.9560    -0.6540     1.6320 H     1 <1>   0.0800 
 36 H       -9.1430     0.1100    -0.7460 H     1 <1>   0.0800 
 37 H       -9.1580     1.7620    -0.1950 H     1 <1>   0.0800 
 38 H      -11.2520     1.3290     1.0590 H     1 <1>   0.0800 
 39 H      -11.2360    -0.3300     0.5250 H     1 <1>   0.0800 
 40 H      -11.4410     2.0900    -1.2950 H     1 <1>   0.0800 
 41 H      -12.7530     1.0210    -0.8680 H     1 <1>   0.0800 
 42 H      -11.4260     0.4260    -1.8340 H     1 <1>   0.0800 
@<TRIPOS>BOND
  1   1   2  2   
  2   2   3  am  
  3   2   4  1   
  4   3   5  1   
  5   3  23  1   
  6   4   6  1   
  7   4   7  2   
  8   5   8  ar  
  9   5   9  ar  
 10   6  10  1   
 11   7  11  1   
 12   7  24  1   
 13   8  12  ar  
 14   8  25  1   
 15   9  13  ar  
 16   9  26  1   
 17  10  11  2   
 18  10  27  1   
 19  11  28  1   
 20  12  14  1   
 21  12  15  ar  
 22  13  15  ar  
 23  13  29  1   
 24  14  16  am  
 25  14  30  1   
 26  15  17  1   
 27  16  18  2   
 28  16  19  1   
 29  17  31  1   
 30  17  32  1   
 31  17  33  1   
 32  19  20  1   
 33  19  34  1   
 34  19  35  1   
 35  20  21  1   
 36  20  36  1   
 37  20  37  1   
 38  21  22  1   
 39  21  38  1   
 40  21  39  1   
 41  22  40  1   
 42  22  41  1   
 43  22  42  1   
@<TRIPOS>SUBSTRUCTURE
  1 ****   8 GROUP 4 **** **** 0

# MOE 2024.06 (io_trps.svl 2023.06)
