@<TRIPOS>MOLECULE
NONAME
38 39 1 0 0 
SMALL
USER_CHARGES


@<TRIPOS>ATOM
  1 I       -0.3330     0.5460    -0.2200 I     1 <1>  -0.0810 
  2 C        1.6830     1.2070    -0.0340 C.ar  1 <1>   0.0810 
  3 C        2.6990     0.3610    -0.4400 C.ar  1 <1>  -0.1500 
  4 C        1.9230     2.4650     0.4870 C.ar  1 <1>  -0.1500 
  5 C        4.0090     0.7930    -0.3180 C.ar  1 <1>  -0.1500 
  6 C        3.2370     2.8850     0.6040 C.ar  1 <1>  -0.1500 
  7 C        4.2810     2.0590     0.2050 C.ar  1 <1>   0.0830 
  8 O        5.5340     2.5570     0.3570 O.3   1 <1>  -0.3630 
  9 C        6.6680     1.8150    -0.0150 C.3   1 <1>   0.1200 
 10 C        7.8910     2.6800     0.2880 C.3   1 <1>  -0.1600 
 11 C        9.1780     1.9550    -0.0980 C.3   1 <1>   0.3430 
 12 N       10.3670     2.7580     0.3010 N.4   1 <1>  -0.9590 
 13 C       10.5380     3.9830    -0.5400 C.3   1 <1>   0.3430 
 14 C       11.5990     1.9140     0.2850 C.3   1 <1>   0.3430 
 15 C       11.6980     4.8230    -0.0010 C.3   1 <1>  -0.1600 
 16 C       12.7790     2.7100     0.8450 C.3   1 <1>  -0.1600 
 17 C       13.0000     4.0160     0.0720 C.3   1 <1>  -0.1600 
 18 H        2.4720    -0.6110    -0.8410 H     1 <1>   0.1500 
 19 H        1.1100     3.0980     0.7940 H     1 <1>   0.1500 
 20 H        4.7930     0.1330    -0.6340 H     1 <1>   0.1500 
 21 H        3.4590     3.8570     1.0050 H     1 <1>   0.1500 
 22 H        6.5950     1.5940    -1.0670 H     1 <1>   0.0800 
 23 H        6.6780     0.9050     0.5620 H     1 <1>   0.0800 
 24 H        7.8980     2.8990     1.3410 H     1 <1>   0.0800 
 25 H        7.7950     3.5950    -0.2690 H     1 <1>   0.0800 
 26 H        9.1950     1.7710    -1.1610 H     1 <1>   0.0800 
 27 H        9.2030     1.0030     0.4090 H     1 <1>   0.0800 
 28 H       10.2330     3.0740     1.2700 H     1 <1>   0.4500 
 29 H        9.6380     4.5760    -0.5270 H     1 <1>   0.0800 
 30 H       10.7440     3.7000    -1.5610 H     1 <1>   0.0800 
 31 H       11.8200     1.6080    -0.7250 H     1 <1>   0.0800 
 32 H       11.4500     1.0290     0.8830 H     1 <1>   0.0800 
 33 H       11.4430     5.1990     0.9750 H     1 <1>   0.0800 
 34 H       11.8430     5.6750    -0.6430 H     1 <1>   0.0800 
 35 H       13.6700     2.1080     0.7850 H     1 <1>   0.0800 
 36 H       12.6070     2.9230     1.8860 H     1 <1>   0.0800 
 37 H       13.7670     4.6020     0.5530 H     1 <1>   0.0800 
 38 H       13.3390     3.7910    -0.9260 H     1 <1>   0.0800 
@<TRIPOS>BOND
  1   1   2  1   
  2   2   3  ar  
  3   2   4  ar  
  4   3   5  ar  
  5   3  18  1   
  6   4   6  ar  
  7   4  19  1   
  8   5   7  ar  
  9   5  20  1   
 10   6   7  ar  
 11   6  21  1   
 12   7   8  1   
 13   8   9  1   
 14   9  10  1   
 15   9  22  1   
 16   9  23  1   
 17  10  11  1   
 18  10  24  1   
 19  10  25  1   
 20  11  12  1   
 21  11  26  1   
 22  11  27  1   
 23  12  13  1   
 24  12  14  1   
 25  12  28  1   
 26  13  15  1   
 27  13  29  1   
 28  13  30  1   
 29  14  16  1   
 30  14  31  1   
 31  14  32  1   
 32  15  17  1   
 33  15  33  1   
 34  15  34  1   
 35  16  17  1   
 36  16  35  1   
 37  16  36  1   
 38  17  37  1   
 39  17  38  1   
@<TRIPOS>SUBSTRUCTURE
  1 ****   9 GROUP 4 **** **** 0

# MOE 2024.06 (io_trps.svl 2023.06)
