@<TRIPOS>MOLECULE
NONAME
44 46 1 0 0 
SMALL
USER_CHARGES


@<TRIPOS>ATOM
  1 S       -0.3270     0.0840     1.5610 S.o2  1 <1>   1.4470 
  2 O        0.2880    -0.8900     2.4390 O.2   1 <1>  -0.6500 
  3 O       -1.2110     1.0810     2.1240 O.2   1 <1>  -0.6500 
  4 N        0.9430     0.9080     0.7960 N.am  1 <1>  -0.8490 
  5 C       -1.1650    -0.7520     0.1860 C.ar  1 <1>  -0.0090 
  6 C        1.9750    -0.0110     0.3060 C.3   1 <1>   0.1960 
  7 C        1.5070     1.9430     1.6660 C.3   1 <1>   0.1960 
  8 C       -1.4640    -2.1100     0.2400 C.ar  1 <1>  -0.1500 
  9 C       -1.5310    -0.0520    -0.9580 C.ar  1 <1>  -0.1500 
 10 C        3.0270     0.7520    -0.5020 C.3   1 <1>  -0.1600 
 11 C        2.5520     2.7640     0.9080 C.3   1 <1>  -0.1600 
 12 C       -2.0990    -2.7470    -0.8120 C.ar  1 <1>  -0.1500 
 13 C       -2.1660    -0.6810    -2.0150 C.ar  1 <1>  -0.1500 
 14 C        3.6670     1.8680     0.3380 C.3   1 <1>  -0.0190 
 15 C       -2.4490    -2.0320    -1.9420 C.ar  1 <1>  -0.1500 
 16 C        4.7010     2.6500    -0.4800 C.2   1 <1>   0.5690 
 17 O        4.3240     3.5800    -1.1560 O.2   1 <1>  -0.5700 
 18 N        6.0230     2.2920    -0.4520 N.am  1 <1>  -0.6600 
 19 C        7.0470     3.0300    -1.2240 C.3   1 <1>   0.1400 
 20 C        6.6280     1.1490     0.2680 C.3   1 <1>   0.1400 
 21 C        8.3790     2.4460    -0.7690 C.3   1 <1>  -0.1600 
 22 C        8.0390     1.0360    -0.2970 C.3   1 <1>  -0.1600 
 23 H        1.5260    -0.7580    -0.3270 H     1 <1>   0.0800 
 24 H        2.4460    -0.5120     1.1370 H     1 <1>   0.0800 
 25 H        1.9500     1.4870     2.5380 H     1 <1>   0.0800 
 26 H        0.7260     2.6070     1.9970 H     1 <1>   0.0800 
 27 H       -1.1960    -2.6750     1.1170 H     1 <1>   0.1500 
 28 H       -1.3120     1.0020    -1.0190 H     1 <1>   0.1500 
 29 H        2.5590     1.1780    -1.3740 H     1 <1>   0.0800 
 30 H        3.7840     0.0680    -0.8380 H     1 <1>   0.0800 
 31 H        2.9800     3.4980     1.5670 H     1 <1>   0.0800 
 32 H        2.0590     3.2920     0.1090 H     1 <1>   0.0800 
 33 H       -2.3200    -3.7990    -0.7510 H     1 <1>   0.1500 
 34 H       -2.4390    -0.1190    -2.8920 H     1 <1>   0.1500 
 35 H        4.1660     1.4190     1.1770 H     1 <1>   0.0800 
 36 H       -2.9430    -2.5250    -2.7620 H     1 <1>   0.1500 
 37 H        6.9850     4.0880    -1.0290 H     1 <1>   0.0800 
 38 H        6.8910     2.8490    -2.2740 H     1 <1>   0.0800 
 39 H        6.0690     0.2440     0.1070 H     1 <1>   0.0800 
 40 H        6.6670     1.3780     1.3200 H     1 <1>   0.0800 
 41 H        8.7510     3.0300     0.0550 H     1 <1>   0.0800 
 42 H        9.1080     2.4520    -1.5600 H     1 <1>   0.0800 
 43 H        8.0270     0.3640    -1.1370 H     1 <1>   0.0800 
 44 H        8.7360     0.6690     0.4360 H     1 <1>   0.0800 
@<TRIPOS>BOND
  1   1   2  2   
  2   1   3  2   
  3   1   4  am  
  4   1   5  1   
  5   4   6  1   
  6   4   7  1   
  7   5   8  ar  
  8   5   9  ar  
  9   6  10  1   
 10   6  23  1   
 11   6  24  1   
 12   7  11  1   
 13   7  25  1   
 14   7  26  1   
 15   8  12  ar  
 16   8  27  1   
 17   9  13  ar  
 18   9  28  1   
 19  10  14  1   
 20  10  29  1   
 21  10  30  1   
 22  11  14  1   
 23  11  31  1   
 24  11  32  1   
 25  12  15  ar  
 26  12  33  1   
 27  13  15  ar  
 28  13  34  1   
 29  14  16  1   
 30  14  35  1   
 31  15  36  1   
 32  16  17  2   
 33  16  18  am  
 34  18  19  1   
 35  18  20  1   
 36  19  21  1   
 37  19  37  1   
 38  19  38  1   
 39  20  22  1   
 40  20  39  1   
 41  20  40  1   
 42  21  22  1   
 43  21  41  1   
 44  21  42  1   
 45  22  43  1   
 46  22  44  1   
@<TRIPOS>SUBSTRUCTURE
  1 ****   6 GROUP 4 **** **** 0

# MOE 2024.06 (io_trps.svl 2023.06)
