@<TRIPOS>MOLECULE
NONAME
29 30 1 0 0 
SMALL
USER_CHARGES


@<TRIPOS>ATOM
  1 F       -1.6890     0.5550    -2.3680 F     1 <1>  -0.1900 
  2 C       -2.1500     1.0570    -1.2520 C.ar  1 <1>   0.1900 
  3 C       -1.4990     2.1090    -0.6310 C.ar  1 <1>   0.1900 
  4 C       -3.3020     0.5170    -0.7100 C.ar  1 <1>  -0.1500 
  5 F       -0.4120     2.6170    -1.1510 F     1 <1>  -0.1900 
  6 C       -1.9870     2.6400     0.5480 C.ar  1 <1>  -0.1500 
  7 C       -3.8080     1.0490     0.4730 C.ar  1 <1>  -0.1440 
  8 C       -3.1440     2.1040     1.0960 C.ar  1 <1>  -0.1500 
  9 C       -5.0790     0.4810     1.0830 C.3   1 <1>   0.4870 
 10 N       -6.2420     0.8930     0.2530 N.4   1 <1>  -0.9590 
 11 C       -6.4060     2.3820     0.1270 C.3   1 <1>   0.3430 
 12 C       -7.5330     0.2480     0.6660 C.3   1 <1>   0.3430 
 13 C       -7.6040     2.7370    -0.7850 C.3   1 <1>   0.1200 
 14 C       -8.7160     0.7450    -0.1980 C.3   1 <1>   0.1200 
 15 O       -8.2690     1.5840    -1.2280 O.3   1 <1>  -0.5600 
 16 H       -3.7750    -0.3050    -1.2190 H     1 <1>   0.1500 
 17 H       -1.4650     3.4540     1.0220 H     1 <1>   0.1500 
 18 H       -3.5140     2.5200     2.0200 H     1 <1>   0.1500 
 19 H       -5.1950     0.8420     2.0910 H     1 <1>   0.0800 
 20 H       -5.0080    -0.5950     1.1120 H     1 <1>   0.0800 
 21 H       -6.0770     0.5770    -0.7140 H     1 <1>   0.4500 
 22 H       -5.5120     2.8220    -0.2860 H     1 <1>   0.0800 
 23 H       -6.5630     2.8210     1.0980 H     1 <1>   0.0800 
 24 H       -7.7440     0.4660     1.7010 H     1 <1>   0.0800 
 25 H       -7.4580    -0.8230     0.5690 H     1 <1>   0.0800 
 26 H       -7.2620     3.2710    -1.6550 H     1 <1>   0.0800 
 27 H       -8.3090     3.3640    -0.2640 H     1 <1>   0.0800 
 28 H       -9.4290     1.2860     0.4020 H     1 <1>   0.0800 
 29 H       -9.2240    -0.0900    -0.6490 H     1 <1>   0.0800 
@<TRIPOS>BOND
  1   1   2  1   
  2   2   3  ar  
  3   2   4  ar  
  4   3   5  1   
  5   3   6  ar  
  6   4   7  ar  
  7   4  16  1   
  8   6   8  ar  
  9   6  17  1   
 10   7   8  ar  
 11   7   9  1   
 12   8  18  1   
 13   9  10  1   
 14   9  19  1   
 15   9  20  1   
 16  10  11  1   
 17  10  12  1   
 18  10  21  1   
 19  11  13  1   
 20  11  22  1   
 21  11  23  1   
 22  12  14  1   
 23  12  24  1   
 24  12  25  1   
 25  13  15  1   
 26  13  26  1   
 27  13  27  1   
 28  14  15  1   
 29  14  28  1   
 30  14  29  1   
@<TRIPOS>SUBSTRUCTURE
  1 ****   7 GROUP 4 **** **** 0

# MOE 2024.06 (io_trps.svl 2023.06)
