@<TRIPOS>MOLECULE
NONAME
32 32 1 0 0 
SMALL
USER_CHARGES


@<TRIPOS>ATOM
  1 BR      -0.6730    -0.8580     1.2740 Br    1 <1>  -0.1110 
  2 C       -2.1200     0.3480     0.8520 C.ar  1 <1>   0.1110 
  3 C       -2.5170     0.5220    -0.4660 C.ar  1 <1>  -0.1440 
  4 C       -2.7270     1.0120     1.9020 C.ar  1 <1>  -0.1500 
  5 C       -3.5620     1.3970    -0.7160 C.ar  1 <1>  -0.1500 
  6 C       -1.8400    -0.2180    -1.6100 C.3   1 <1>  -0.0960 
  7 C       -3.7660     1.8810     1.6260 C.ar  1 <1>  -0.1500 
  8 C       -4.1930     2.0860     0.3170 C.ar  1 <1>   0.1990 
  9 N       -5.2450     2.9620     0.0670 N.am  1 <1>  -0.6930 
 10 S       -5.0720     4.3600    -0.9350 S.o2  1 <1>   1.3330 
 11 C       -6.6600     2.5290     0.3150 C.3   1 <1>   0.2570 
 12 O       -6.3270     5.0670    -0.8540 O.2   1 <1>  -0.6500 
 13 O       -4.5500     3.9320    -2.2090 O.2   1 <1>  -0.6500 
 14 C       -3.8410     5.2980    -0.0560 C.3   1 <1>  -0.1350 
 15 C       -6.8270     1.1900     1.0340 C.2   1 <1>   0.6590 
 16 O       -7.0470     1.1300     2.2180 O.2   1 <1>  -0.5700 
 17 O       -6.7120     0.0980     0.2830 O.3   1 <1>  -0.4300 
 18 C       -6.7760    -1.1980     0.8410 C.3   1 <1>   0.0400 
 19 H       -2.3930     0.8470     2.9110 H     1 <1>   0.1500 
 20 H       -3.9040     1.5480    -1.7250 H     1 <1>   0.1500 
 21 H       -0.7930     0.0260    -1.6380 H     1 <1>   0.0800 
 22 H       -2.2770     0.0520    -2.5550 H     1 <1>   0.0800 
 23 H       -1.9470    -1.2790    -1.4760 H     1 <1>   0.0800 
 24 H       -4.2580     2.4020     2.4280 H     1 <1>   0.1500 
 25 H       -7.1720     2.4660    -0.6280 H     1 <1>   0.0800 
 26 H       -7.1500     3.2830     0.9040 H     1 <1>   0.0800 
 27 H       -4.1800     5.5110     0.9390 H     1 <1>   0.0800 
 28 H       -3.6550     6.2240    -0.5630 H     1 <1>   0.0800 
 29 H       -2.9240     4.7450     0.0000 H     1 <1>   0.0800 
 30 H       -6.6590    -1.9160     0.0490 H     1 <1>   0.0800 
 31 H       -7.7310    -1.3240     1.3200 H     1 <1>   0.0800 
 32 H       -5.9820    -1.3050     1.5590 H     1 <1>   0.0800 
@<TRIPOS>BOND
  1   1   2  1   
  2   2   3  ar  
  3   2   4  ar  
  4   3   5  ar  
  5   3   6  1   
  6   4   7  ar  
  7   4  19  1   
  8   5   8  ar  
  9   5  20  1   
 10   6  21  1   
 11   6  22  1   
 12   6  23  1   
 13   7   8  ar  
 14   7  24  1   
 15   8   9  1   
 16   9  10  am  
 17   9  11  1   
 18  10  12  2   
 19  10  13  2   
 20  10  14  1   
 21  11  15  1   
 22  11  25  1   
 23  11  26  1   
 24  14  27  1   
 25  14  28  1   
 26  14  29  1   
 27  15  16  2   
 28  15  17  1   
 29  17  18  1   
 30  18  30  1   
 31  18  31  1   
 32  18  32  1   
@<TRIPOS>SUBSTRUCTURE
  1 ****   8 GROUP 4 **** **** 0

# MOE 2024.06 (io_trps.svl 2023.06)
