@<TRIPOS>MOLECULE
NONAME
31 31 1 0 0 
SMALL
USER_CHARGES


@<TRIPOS>ATOM
  1 P       -0.1850    -0.0410    -0.2010 P.3   1 <1>   0.8390 
  2 O       -0.2940    -1.4410    -0.5920 O.2   1 <1>  -0.7000 
  3 C        1.4660     0.4990     0.2620 C.ar  1 <1>  -0.1390 
  4 C       -0.6490     1.0740    -1.5060 C.3   1 <1>  -0.1600 
  5 C       -1.2770     0.3310     1.1570 C.3   1 <1>  -0.1600 
  6 C        2.6460    -0.1560    -0.1200 C.ar  1 <1>  -0.1440 
  7 C        1.6120     1.6490     1.0370 C.ar  1 <1>  -0.1500 
  8 C       -2.0660     0.8780    -2.0700 C.3   1 <1>  -0.2400 
  9 C       -0.9320    -0.3820     2.4750 C.3   1 <1>  -0.2400 
 10 C        3.8810     0.3030     0.3300 C.ar  1 <1>  -0.1500 
 11 C        2.6200    -1.3940    -1.0270 C.3   1 <1>   0.2630 
 12 C        2.8410     2.1140     1.4630 C.ar  1 <1>  -0.1500 
 13 C        3.9840     1.4310     1.1150 C.ar  1 <1>  -0.1500 
 14 O        3.7490    -1.4160    -1.8320 O.3   1 <1>  -0.6800 
 15 H        0.0360     0.9610    -2.3270 H     1 <1>   0.0800 
 16 H       -0.5620     2.0940    -1.1810 H     1 <1>   0.0800 
 17 H       -2.2760     0.0350     0.8970 H     1 <1>   0.0800 
 18 H       -1.3210     1.3850     1.3510 H     1 <1>   0.0800 
 19 H        0.7480     2.2140     1.3340 H     1 <1>   0.1500 
 20 H       -2.1840    -0.1310    -2.4280 H     1 <1>   0.0800 
 21 H       -2.2370     1.5530    -2.8900 H     1 <1>   0.0800 
 22 H       -2.8090     1.0630    -1.3150 H     1 <1>   0.0800 
 23 H       -0.9360    -1.4490     2.3280 H     1 <1>   0.0800 
 24 H       -1.6540    -0.1380     3.2340 H     1 <1>   0.0800 
 25 H        0.0440    -0.0910     2.8230 H     1 <1>   0.0800 
 26 H        4.7850    -0.2230     0.0720 H     1 <1>   0.1500 
 27 H        1.7800    -1.3850    -1.6960 H     1 <1>   0.0800 
 28 H        2.5990    -2.2990    -0.4440 H     1 <1>   0.0800 
 29 H        2.9070     3.0030     2.0670 H     1 <1>   0.1500 
 30 H        4.9480     1.7740     1.4500 H     1 <1>   0.1500 
 31 H        3.8620    -0.5350    -2.2350 H     1 <1>   0.4000 
@<TRIPOS>BOND
  1   1   2  2   
  2   1   3  1   
  3   1   4  1   
  4   1   5  1   
  5   3   6  ar  
  6   3   7  ar  
  7   4   8  1   
  8   4  15  1   
  9   4  16  1   
 10   5   9  1   
 11   5  17  1   
 12   5  18  1   
 13   6  10  ar  
 14   6  11  1   
 15   7  12  ar  
 16   7  19  1   
 17   8  20  1   
 18   8  21  1   
 19   8  22  1   
 20   9  23  1   
 21   9  24  1   
 22   9  25  1   
 23  10  13  ar  
 24  10  26  1   
 25  11  14  1   
 26  11  27  1   
 27  11  28  1   
 28  12  13  ar  
 29  12  29  1   
 30  13  30  1   
 31  14  31  1   
@<TRIPOS>SUBSTRUCTURE
  1 ****   3 GROUP 4 **** **** 0

# MOE 2024.06 (io_trps.svl 2023.06)
