@<TRIPOS>MOLECULE
NONAME
37 37 1 0 0 
SMALL
USER_CHARGES


@<TRIPOS>ATOM
  1 O        0.6890    -0.8250     0.7660 O.2   1 <1>  -0.5700 
  2 C        1.1560    -1.9410     0.6610 C.2   1 <1>   0.6340 
  3 O        2.4590    -2.1160     0.9130 O.3   1 <1>  -0.4300 
  4 C        0.3610    -3.0960     0.2950 C.ar  1 <1>   0.0860 
  5 C        3.3430    -1.0630     1.2380 C.3   1 <1>   0.1200 
  6 C        0.8870    -4.2210    -0.3750 C.ar  1 <1>   0.1170 
  7 C       -1.0010    -3.0970     0.6140 C.ar  1 <1>  -0.1500 
  8 C        3.8580    -0.4380    -0.0570 C.3   1 <1>  -0.2400 
  9 N        2.2420    -4.2650    -0.7500 N.am  1 <1>  -0.5470 
 10 C        0.0420    -5.2940    -0.6580 C.ar  1 <1>  -0.1500 
 11 C       -1.8220    -4.1640     0.3150 C.ar  1 <1>  -0.1500 
 12 C        2.9140    -4.9640    -1.7200 C.2   1 <1>   0.5690 
 13 C       -1.2950    -5.2710    -0.3220 C.ar  1 <1>  -0.1500 
 14 O        2.3850    -5.7500    -2.4640 O.2   1 <1>  -0.5700 
 15 C        4.3850    -4.7100    -1.9030 C.3   1 <1>  -0.0380 
 16 C        5.0660    -4.8030    -0.5710 C.2   1 <1>   0.6590 
 17 O        5.0960    -3.8580     0.1740 O.2   1 <1>  -0.5700 
 18 O        5.6170    -5.9690    -0.2670 O.3   1 <1>  -0.4300 
 19 C        6.2640    -6.1800     0.9650 C.3   1 <1>   0.1200 
 20 C        6.7780    -7.6160     0.9900 C.3   1 <1>  -0.2400 
 21 H        4.1600    -1.4870     1.7970 H     1 <1>   0.0800 
 22 H        2.8320    -0.3420     1.8540 H     1 <1>   0.0800 
 23 H       -1.4210    -2.2380     1.1110 H     1 <1>   0.1500 
 24 H        4.3680    -1.1760    -0.6490 H     1 <1>   0.0800 
 25 H        4.5500     0.3500     0.1760 H     1 <1>   0.0800 
 26 H        3.0420    -0.0180    -0.6190 H     1 <1>   0.0800 
 27 H        2.8360    -3.6140    -0.2130 H     1 <1>   0.3700 
 28 H        0.4280    -6.1690    -1.1480 H     1 <1>   0.1500 
 29 H       -2.8670    -4.1380     0.5750 H     1 <1>   0.1500 
 30 H       -1.9260    -6.1120    -0.5560 H     1 <1>   0.1500 
 31 H        4.5270    -3.7300    -2.3140 H     1 <1>   0.0800 
 32 H        4.8030    -5.4350    -2.5760 H     1 <1>   0.0800 
 33 H        5.5540    -6.0090     1.7580 H     1 <1>   0.0800 
 34 H        7.0760    -5.4770     1.0500 H     1 <1>   0.0800 
 35 H        5.9570    -8.3040     0.8940 H     1 <1>   0.0800 
 36 H        7.2770    -7.8070     1.9220 H     1 <1>   0.0800 
 37 H        7.4770    -7.7740     0.1890 H     1 <1>   0.0800 
@<TRIPOS>BOND
  1   1   2  2   
  2   2   3  1   
  3   2   4  1   
  4   3   5  1   
  5   4   6  ar  
  6   4   7  ar  
  7   5   8  1   
  8   5  21  1   
  9   5  22  1   
 10   6   9  1   
 11   6  10  ar  
 12   7  11  ar  
 13   7  23  1   
 14   8  24  1   
 15   8  25  1   
 16   8  26  1   
 17   9  12  am  
 18   9  27  1   
 19  10  13  ar  
 20  10  28  1   
 21  11  13  ar  
 22  11  29  1   
 23  12  14  2   
 24  12  15  1   
 25  13  30  1   
 26  15  16  1   
 27  15  31  1   
 28  15  32  1   
 29  16  17  2   
 30  16  18  1   
 31  18  19  1   
 32  19  20  1   
 33  19  33  1   
 34  19  34  1   
 35  20  35  1   
 36  20  36  1   
 37  20  37  1   
@<TRIPOS>SUBSTRUCTURE
  1 ****   9 GROUP 4 **** **** 0

# MOE 2024.06 (io_trps.svl 2023.06)
