@<TRIPOS>MOLECULE
NONAME
44 46 1 0 0 
SMALL
USER_CHARGES


@<TRIPOS>ATOM
  1 S       -0.1110    -0.3020     1.5570 S.o2  1 <1>   1.4470 
  2 O       -1.1510    -1.2660     1.8450 O.2   1 <1>  -0.6500 
  3 O        0.4840     0.4360     2.6500 O.2   1 <1>  -0.6500 
  4 N       -0.7970     0.8530     0.5200 N.am  1 <1>  -0.8490 
  5 C        1.2400    -1.0460     0.5690 C.ar  1 <1>  -0.0090 
  6 C        0.0800     1.9850     0.1790 C.3   1 <1>   0.1960 
  7 C       -1.4450     0.2940    -0.6720 C.3   1 <1>   0.1960 
  8 C        1.1510    -2.2460    -0.1490 C.ar  1 <1>  -0.1440 
  9 C        2.4410    -0.3500     0.4980 C.ar  1 <1>  -0.1500 
 10 C       -0.6700     3.0240    -0.6720 C.3   1 <1>   0.1200 
 11 C       -2.1330     1.3970    -1.4960 C.3   1 <1>   0.1200 
 12 C        2.2280    -2.6800    -0.9080 C.ar  1 <1>  -0.1500 
 13 C       -0.0910    -3.1300    -0.1330 C.3   1 <1>  -0.0960 
 14 C        3.5310    -0.7590    -0.2640 C.ar  1 <1>   0.0860 
 15 O       -1.2260     2.4180    -1.8050 O.3   1 <1>  -0.5600 
 16 C        3.3950    -1.9490    -0.9730 C.ar  1 <1>  -0.1500 
 17 C        4.7370     0.0450    -0.3180 C.2   1 <1>   0.5440 
 18 O        4.6590     1.2550    -0.2580 O.2   1 <1>  -0.5700 
 19 N        5.9650    -0.5640    -0.4150 N.am  1 <1>  -0.5470 
 20 C        7.2480    -0.0170    -0.6030 C.ar  1 <1>   0.1170 
 21 C        7.4950     1.2600    -1.1210 C.ar  1 <1>   0.1600 
 22 C        8.3490    -0.7910    -0.2750 C.ar  1 <1>  -0.1500 
 23 N        8.6920     1.7910    -1.3280 N.ar  1 <1>  -0.6200 
 24 C        9.6010    -0.2550    -0.4790 C.ar  1 <1>  -0.1500 
 25 C        9.7170     1.0230    -1.0000 C.ar  1 <1>   0.1600 
 26 H        0.9340     1.6450    -0.3800 H     1 <1>   0.0800 
 27 H        0.4300     2.4580     1.0810 H     1 <1>   0.0800 
 28 H       -2.1860    -0.4280    -0.3740 H     1 <1>   0.0800 
 29 H       -0.7180    -0.2020    -1.2930 H     1 <1>   0.0800 
 30 H        2.5440     0.5650     1.0590 H     1 <1>   0.1500 
 31 H        0.0080     3.7900    -1.0070 H     1 <1>   0.0800 
 32 H       -1.4580     3.4820    -0.1010 H     1 <1>   0.0800 
 33 H       -2.9550     1.8210    -0.9450 H     1 <1>   0.0800 
 34 H       -2.5050     0.9960    -2.4210 H     1 <1>   0.0800 
 35 H        2.1610    -3.6010    -1.4650 H     1 <1>   0.1500 
 36 H       -0.9580    -2.5800    -0.4490 H     1 <1>   0.0800 
 37 H       -0.2630    -3.5060     0.8610 H     1 <1>   0.0800 
 38 H        0.0190    -3.9740    -0.7890 H     1 <1>   0.0800 
 39 H        4.2030    -2.3030    -1.5900 H     1 <1>   0.1500 
 40 H        5.9510    -1.5700    -0.2550 H     1 <1>   0.3700 
 41 H        6.6550     1.8760    -1.3870 H     1 <1>   0.1500 
 42 H        8.2360    -1.7800     0.1290 H     1 <1>   0.1500 
 43 H       10.4850    -0.8160    -0.2370 H     1 <1>   0.1500 
 44 H       10.7010     1.4330    -1.1550 H     1 <1>   0.1500 
@<TRIPOS>BOND
  1   1   2  2   
  2   1   3  2   
  3   1   4  am  
  4   1   5  1   
  5   4   6  1   
  6   4   7  1   
  7   5   8  ar  
  8   5   9  ar  
  9   6  10  1   
 10   6  26  1   
 11   6  27  1   
 12   7  11  1   
 13   7  28  1   
 14   7  29  1   
 15   8  12  ar  
 16   8  13  1   
 17   9  14  ar  
 18   9  30  1   
 19  10  15  1   
 20  10  31  1   
 21  10  32  1   
 22  11  15  1   
 23  11  33  1   
 24  11  34  1   
 25  12  16  ar  
 26  12  35  1   
 27  13  36  1   
 28  13  37  1   
 29  13  38  1   
 30  14  16  ar  
 31  14  17  1   
 32  16  39  1   
 33  17  18  2   
 34  17  19  am  
 35  19  20  1   
 36  19  40  1   
 37  20  21  ar  
 38  20  22  ar  
 39  21  23  ar  
 40  21  41  1   
 41  22  24  ar  
 42  22  42  1   
 43  23  25  ar  
 44  24  25  ar  
 45  24  43  1   
 46  25  44  1   
@<TRIPOS>SUBSTRUCTURE
  1 ****   9 GROUP 4 **** **** 0

# MOE 2024.06 (io_trps.svl 2023.06)
