@<TRIPOS>MOLECULE
NONAME
56 58 1 0 0 
SMALL
USER_CHARGES


@<TRIPOS>ATOM
  1 O        2.1710    -2.2450    -2.4630 O.2   1 <1>  -0.5700 
  2 C        1.3420    -2.1970    -1.5870 C.2   1 <1>   0.5690 
  3 N        1.2700    -1.2300    -0.6270 N.am  1 <1>  -0.5470 
  4 C        0.2650    -3.2810    -1.5090 C.3   1 <1>   0.1710 
  5 C        2.0130    -0.0830    -0.3120 C.ar  1 <1>   0.1170 
  6 N       -0.9640    -2.8430    -0.7790 N.3   1 <1>  -0.8100 
  7 C        1.5580     0.7680     0.7000 C.ar  1 <1>  -0.1430 
  8 C        3.1970     0.2310    -0.9720 C.ar  1 <1>  -0.1500 
  9 C       -1.7820    -1.9330    -1.6270 C.3   1 <1>   0.1100 
 10 C       -1.7850    -4.0080    -0.3730 C.3   1 <1>   0.1100 
 11 C        2.2910     1.8980     1.0280 C.ar  1 <1>  -0.1500 
 12 C        0.2650     0.4910     1.4670 C.3   1 <1>  -0.0170 
 13 C        3.9200     1.3620    -0.6400 C.ar  1 <1>  -0.1500 
 14 C       -3.0820    -1.4890    -0.9300 C.3   1 <1>   0.2090 
 15 C       -3.0830    -3.5860     0.3450 C.3   1 <1>   0.2090 
 16 C        3.4670     2.1980     0.3630 C.ar  1 <1>  -0.1500 
 17 C        0.4940    -0.5510     2.5650 C.3   1 <1>  -0.2400 
 18 N       -3.8860    -2.6750    -0.5180 N.pl3 1 <1>  -0.8380 
 19 C       -5.1870    -2.4040    -0.0740 C.ar  1 <1>   0.1000 
 20 C       -5.4970    -1.6770     1.0910 C.ar  1 <1>   0.0820 
 21 C       -6.2280    -2.8940    -0.8500 C.ar  1 <1>  -0.1500 
 22 O       -4.4660    -1.1950     1.8540 O.3   1 <1>  -0.3620 
 23 C       -6.8300    -1.4690     1.4360 C.ar  1 <1>  -0.1500 
 24 C       -7.5490    -2.6820    -0.5010 C.ar  1 <1>  -0.1500 
 25 C       -4.7030    -0.3970     2.9890 C.3   1 <1>   0.1200 
 26 C       -7.8500    -1.9690     0.6430 C.ar  1 <1>  -0.1500 
 27 C       -3.3520     0.0010     3.5740 C.3   1 <1>  -0.2400 
 28 H        0.4470    -1.3830    -0.0360 H     1 <1>   0.3700 
 29 H        0.7020    -4.1190    -0.9960 H     1 <1>   0.0800 
 30 H        0.0120    -3.5990    -2.5050 H     1 <1>   0.0800 
 31 H        3.5660    -0.4090    -1.7510 H     1 <1>   0.1500 
 32 H       -2.0460    -2.4300    -2.5450 H     1 <1>   0.0800 
 33 H       -1.2110    -1.0560    -1.8780 H     1 <1>   0.0800 
 34 H       -1.2140    -4.6330     0.2910 H     1 <1>   0.0800 
 35 H       -2.0500    -4.5900    -1.2390 H     1 <1>   0.0800 
 36 H        1.9520     2.5570     1.8080 H     1 <1>   0.1500 
 37 H       -0.5040     0.1550     0.7940 H     1 <1>   0.0800 
 38 H       -0.0910     1.4010     1.9170 H     1 <1>   0.0800 
 39 H        4.8340     1.5880    -1.1610 H     1 <1>   0.1500 
 40 H       -3.6650    -0.8840    -1.6020 H     1 <1>   0.0800 
 41 H       -2.8380    -0.8950    -0.0670 H     1 <1>   0.0800 
 42 H       -2.8350    -3.0900     1.2670 H     1 <1>   0.0800 
 43 H       -3.6680    -4.4570     0.5780 H     1 <1>   0.0800 
 44 H        4.0280     3.0780     0.6260 H     1 <1>   0.1500 
 45 H        0.8290    -1.4820     2.1420 H     1 <1>   0.0800 
 46 H       -0.4180    -0.7290     3.1040 H     1 <1>   0.0800 
 47 H        1.2420    -0.2010     3.2540 H     1 <1>   0.0800 
 48 H       -5.9850    -3.4470    -1.7380 H     1 <1>   0.1500 
 49 H       -7.1050    -0.9230     2.3160 H     1 <1>   0.1500 
 50 H       -8.3370    -3.0720    -1.1200 H     1 <1>   0.1500 
 51 H       -5.2700    -0.9730     3.7000 H     1 <1>   0.0800 
 52 H       -5.2570     0.4740     2.6830 H     1 <1>   0.0800 
 53 H       -8.8770    -1.8030     0.9180 H     1 <1>   0.1500 
 54 H       -2.8070    -0.8780     3.8670 H     1 <1>   0.0800 
 55 H       -3.4980     0.6200     4.4400 H     1 <1>   0.0800 
 56 H       -2.7840     0.5530     2.8470 H     1 <1>   0.0800 
@<TRIPOS>BOND
  1   1   2  2   
  2   2   3  am  
  3   2   4  1   
  4   3   5  1   
  5   3  28  1   
  6   4   6  1   
  7   4  29  1   
  8   4  30  1   
  9   5   7  ar  
 10   5   8  ar  
 11   6   9  1   
 12   6  10  1   
 13   7  11  ar  
 14   7  12  1   
 15   8  13  ar  
 16   8  31  1   
 17   9  14  1   
 18   9  32  1   
 19   9  33  1   
 20  10  15  1   
 21  10  34  1   
 22  10  35  1   
 23  11  16  ar  
 24  11  36  1   
 25  12  17  1   
 26  12  37  1   
 27  12  38  1   
 28  13  16  ar  
 29  13  39  1   
 30  14  18  1   
 31  14  40  1   
 32  14  41  1   
 33  15  18  1   
 34  15  42  1   
 35  15  43  1   
 36  16  44  1   
 37  17  45  1   
 38  17  46  1   
 39  17  47  1   
 40  18  19  1   
 41  19  20  ar  
 42  19  21  ar  
 43  20  22  1   
 44  20  23  ar  
 45  21  24  ar  
 46  21  48  1   
 47  22  25  1   
 48  23  26  ar  
 49  23  49  1   
 50  24  26  ar  
 51  24  50  1   
 52  25  27  1   
 53  25  51  1   
 54  25  52  1   
 55  26  53  1   
 56  27  54  1   
 57  27  55  1   
 58  27  56  1   
@<TRIPOS>SUBSTRUCTURE
  1 ****  14 GROUP 4 **** **** 0

# MOE 2024.06 (io_trps.svl 2023.06)
