@<TRIPOS>MOLECULE
NONAME
52 55 1 0 0 
SMALL
USER_CHARGES


@<TRIPOS>ATOM
  1 S        0.5840    -0.9730    -0.5800 S.3   1 <1>  -0.0800 
  2 C        1.7610     0.3200    -0.4110 C.2   1 <1>   0.1660 
  3 C       -0.7310     0.1920    -0.5550 C.2   1 <1>  -0.1400 
  4 N        3.0840     0.0790    -0.3540 N.2   1 <1>  -0.5760 
  5 C        1.1620     1.5370    -0.3460 C.2   1 <1>  -0.0860 
  6 C       -0.2710     1.4430    -0.4380 C.2   1 <1>  -0.1810 
  7 C       -2.1810    -0.2280    -0.6600 C.3   1 <1>   0.3000 
  8 C        3.8230     1.1280    -0.2220 C.2   1 <1>   0.6510 
  9 C        2.0170     2.6660    -0.2020 C.2   1 <1>   0.7160 
 10 C       -1.2660     2.5880    -0.4030 C.3   1 <1>   0.0210 
 11 O       -3.0080     0.8790    -0.3810 O.3   1 <1>  -0.5600 
 12 S        5.5780     0.7970    -0.1470 S.3   1 <1>  -0.3710 
 13 N        3.3880     2.4430    -0.1370 N.am  1 <1>  -0.4200 
 14 O        1.5460     3.7940    -0.1410 O.2   1 <1>  -0.5700 
 15 C       -2.6610     2.1330    -0.9160 C.3   1 <1>   0.2800 
 16 C        5.7110    -1.0370    -0.3150 C.3   1 <1>   0.2080 
 17 C        4.3470     3.5960     0.0180 C.3   1 <1>   0.2200 
 18 C       -3.7430     3.0970    -0.4290 C.3   1 <1>  -0.2400 
 19 C       -2.7160     2.0530    -2.4500 C.3   1 <1>  -0.2400 
 20 C        7.1850    -1.3930    -0.2710 C.2   1 <1>  -0.2880 
 21 C        4.1530     4.3450     1.3490 C.3   1 <1>  -0.1600 
 22 C        4.3160     4.5490    -1.1900 C.3   1 <1>  -0.1600 
 23 C        7.8530    -2.0330    -1.2360 C.2   1 <1>  -0.3000 
 24 C        5.1960     5.4630     1.4990 C.3   1 <1>  -0.1600 
 25 C        5.3580     5.6650    -1.0280 C.3   1 <1>  -0.1600 
 26 C        5.1630     6.4180     0.2960 C.3   1 <1>  -0.1600 
 27 H       -2.4070    -0.9940     0.0600 H     1 <1>   0.0800 
 28 H       -2.4070    -0.5900    -1.6470 H     1 <1>   0.0800 
 29 H       -0.9150     3.4040    -1.0090 H     1 <1>   0.0800 
 30 H       -1.3430     2.9430     0.6080 H     1 <1>   0.0800 
 31 H        5.2580    -1.3120    -1.2520 H     1 <1>   0.0800 
 32 H        5.1710    -1.4800     0.5030 H     1 <1>   0.0800 
 33 H        5.3540     3.2330     0.0540 H     1 <1>   0.0800 
 34 H       -3.7610     3.1230     0.6460 H     1 <1>   0.0800 
 35 H       -4.7080     2.7840    -0.7850 H     1 <1>   0.0800 
 36 H       -3.5510     4.0910    -0.7910 H     1 <1>   0.0800 
 37 H       -1.9220     1.4420    -2.8380 H     1 <1>   0.0800 
 38 H       -2.6040     3.0360    -2.8710 H     1 <1>   0.0800 
 39 H       -3.6630     1.6550    -2.7680 H     1 <1>   0.0800 
 40 H        7.6540    -1.0670     0.6420 H     1 <1>   0.1500 
 41 H        4.2530     3.6560     2.1680 H     1 <1>   0.0800 
 42 H        3.1770     4.7920     1.3960 H     1 <1>   0.0800 
 43 H        3.3490     5.0070    -1.2890 H     1 <1>   0.0800 
 44 H        4.5250     3.9970    -2.0900 H     1 <1>   0.0800 
 45 H        8.9010    -2.2740    -1.1820 H     1 <1>   0.1500 
 46 H        7.4120    -2.3690    -2.1590 H     1 <1>   0.1500 
 47 H        6.1780     5.0300     1.5830 H     1 <1>   0.0800 
 48 H        5.0030     6.0160     2.4020 H     1 <1>   0.0800 
 49 H        5.2760     6.3560    -1.8490 H     1 <1>   0.0800 
 50 H        6.3470     5.2400    -1.0540 H     1 <1>   0.0800 
 51 H        5.9350     7.1600     0.4050 H     1 <1>   0.0800 
 52 H        4.2160     6.9300     0.2770 H     1 <1>   0.0800 
@<TRIPOS>BOND
  1   1   2  1   
  2   1   3  1   
  3   2   4  1   
  4   2   5  2   
  5   3   6  2   
  6   3   7  1   
  7   4   8  2   
  8   5   6  1   
  9   5   9  1   
 10   6  10  1   
 11   7  11  1   
 12   7  27  1   
 13   7  28  1   
 14   8  12  1   
 15   8  13  1   
 16   9  13  am  
 17   9  14  2   
 18  10  15  1   
 19  10  29  1   
 20  10  30  1   
 21  11  15  1   
 22  12  16  1   
 23  13  17  1   
 24  15  18  1   
 25  15  19  1   
 26  16  20  1   
 27  16  31  1   
 28  16  32  1   
 29  17  21  1   
 30  17  22  1   
 31  17  33  1   
 32  18  34  1   
 33  18  35  1   
 34  18  36  1   
 35  19  37  1   
 36  19  38  1   
 37  19  39  1   
 38  20  23  2   
 39  20  40  1   
 40  21  24  1   
 41  21  41  1   
 42  21  42  1   
 43  22  25  1   
 44  22  43  1   
 45  22  44  1   
 46  23  45  1   
 47  23  46  1   
 48  24  26  1   
 49  24  47  1   
 50  24  48  1   
 51  25  26  1   
 52  25  49  1   
 53  25  50  1   
 54  26  51  1   
 55  26  52  1   
@<TRIPOS>SUBSTRUCTURE
  1 ****   9 GROUP 4 **** **** 0

# MOE 2024.06 (io_trps.svl 2023.06)
