@<TRIPOS>MOLECULE
NONAME
35 37 1 0 0 
SMALL
USER_CHARGES


@<TRIPOS>ATOM
  1 CL       0.5870    -0.0940     2.1380 Cl    1 <1>  -0.1770 
  2 C        2.0250     0.2660     1.2180 C.ar  1 <1>   0.1770 
  3 C        1.9390     1.1280     0.1380 C.ar  1 <1>  -0.1500 
  4 C        3.2260    -0.3150     1.5850 C.ar  1 <1>  -0.1500 
  5 C        3.0800     1.4120    -0.5940 C.ar  1 <1>  -0.1500 
  6 C        4.3690    -0.0310     0.8550 C.ar  1 <1>  -0.1500 
  7 C        4.2830     0.8260    -0.2340 C.ar  1 <1>   0.1020 
  8 S        5.7360     1.2250    -1.2200 S.3   1 <1>  -0.1570 
  9 C        6.9520    -0.0730    -0.8820 C.2   1 <1>   0.0550 
 10 C        8.2430     0.1580    -0.4280 C.2   1 <1>   0.1080 
 11 C        6.8160    -1.4050    -1.0160 C.2   1 <1>  -0.3320 
 12 N        8.8840    -0.9520    -0.2700 N.2   1 <1>  -0.7070 
 13 C        8.8450     1.5150    -0.1420 C.3   1 <1>  -0.0590 
 14 N        8.0170    -1.9650    -0.6310 N.pl3 1 <1>   0.5610 
 15 C        5.6060    -2.1920    -1.5090 C.3   1 <1>  -0.0600 
 16 C        8.3750    -3.3440    -0.5830 C.2   1 <1>   0.5790 
 17 O        7.6490    -4.2490    -0.9260 O.2   1 <1>  -0.5700 
 18 C        9.7720    -3.6970    -0.0660 C.3   1 <1>  -0.1000 
 19 C       10.0940    -5.0400     0.5290 C.3   1 <1>  -0.2000 
 20 C       10.0250    -3.8310     1.4090 C.3   1 <1>  -0.2000 
 21 H        0.9920     1.5670    -0.1210 H     1 <1>   0.1500 
 22 H        3.2630    -0.9780     2.4320 H     1 <1>   0.1500 
 23 H        3.0390     2.0790    -1.4370 H     1 <1>   0.1500 
 24 H        5.3090    -0.4690     1.1380 H     1 <1>   0.1500 
 25 H        8.2680     2.0200     0.6100 H     1 <1>   0.0800 
 26 H        8.8510     2.1070    -1.0390 H     1 <1>   0.0800 
 27 H        9.8550     1.4030     0.2080 H     1 <1>   0.0800 
 28 H        4.8090    -1.5300    -1.7960 H     1 <1>   0.0800 
 29 H        5.2440    -2.8460    -0.7350 H     1 <1>   0.0800 
 30 H        5.8710    -2.7860    -2.3660 H     1 <1>   0.0800 
 31 H       10.5410    -3.2270    -0.6540 H     1 <1>   0.1000 
 32 H       11.0550    -5.4780     0.3210 H     1 <1>   0.1000 
 33 H        9.3120    -5.7770     0.5950 H     1 <1>   0.1000 
 34 H        9.1970    -3.7410     2.0920 H     1 <1>   0.1000 
 35 H       10.9350    -3.4190     1.8090 H     1 <1>   0.1000 
@<TRIPOS>BOND
  1   1   2  1   
  2   2   3  ar  
  3   2   4  ar  
  4   3   5  ar  
  5   3  21  1   
  6   4   6  ar  
  7   4  22  1   
  8   5   7  ar  
  9   5  23  1   
 10   6   7  ar  
 11   6  24  1   
 12   7   8  1   
 13   8   9  1   
 14   9  10  1   
 15   9  11  2   
 16  10  12  2   
 17  10  13  1   
 18  11  14  1   
 19  11  15  1   
 20  12  14  1   
 21  13  25  1   
 22  13  26  1   
 23  13  27  1   
 24  14  16  1   
 25  15  28  1   
 26  15  29  1   
 27  15  30  1   
 28  16  17  2   
 29  16  18  1   
 30  18  19  1   
 31  18  20  1   
 32  18  31  1   
 33  19  20  1   
 34  19  32  1   
 35  19  33  1   
 36  20  34  1   
 37  20  35  1   
@<TRIPOS>SUBSTRUCTURE
  1 ****  11 GROUP 4 **** **** 0

# MOE 2024.06 (io_trps.svl 2023.06)
