@<TRIPOS>MOLECULE
NONAME
49 51 1 0 0 
SMALL
USER_CHARGES


@<TRIPOS>ATOM
  1 O        0.3810     0.6560    -0.2760 O.2   1 <1>  -0.5700 
  2 C        0.2400     1.7870     0.1480 C.2   1 <1>   0.5440 
  3 N        1.3280     2.4390     0.6990 N.am  1 <1>  -0.6600 
  4 C       -1.0650     2.4140     0.0560 C.ar  1 <1>   0.0860 
  5 C        2.6150     1.7330     0.9440 C.3   1 <1>   0.1400 
  6 C        1.3710     3.9090     0.9380 C.3   1 <1>   0.1400 
  7 C       -1.7390     2.8660     1.1900 C.ar  1 <1>  -0.1500 
  8 C       -1.6920     2.5810    -1.1780 C.ar  1 <1>  -0.1500 
  9 C        3.7140     2.3460     0.0720 C.3   1 <1>  -0.1600 
 10 C        2.4680     4.5370     0.0740 C.3   1 <1>  -0.1600 
 11 C       -2.9770     3.4750     1.0970 C.ar  1 <1>  -0.1500 
 12 C       -2.9300     3.1890    -1.2790 C.ar  1 <1>  -0.1500 
 13 C        3.8380     3.8640     0.3020 C.3   1 <1>  -0.0190 
 14 C       -3.5740     3.6390    -0.1400 C.ar  1 <1>  -0.1500 
 15 C        4.9490     4.4620    -0.5650 C.2   1 <1>   0.5690 
 16 O        4.6660     5.0430    -1.5840 O.2   1 <1>  -0.5700 
 17 N        6.2350     4.2890    -0.1290 N.am  1 <1>  -0.5470 
 18 C        7.4620     4.7130    -0.6700 C.ar  1 <1>   0.1170 
 19 C        8.6270     3.9750    -0.4270 C.ar  1 <1>  -0.1430 
 20 C        7.5430     5.8780    -1.4270 C.ar  1 <1>  -0.1500 
 21 C        9.8350     4.4310    -0.9450 C.ar  1 <1>  -0.1500 
 22 C        8.5430     2.6830     0.3990 C.3   1 <1>  -0.0170 
 23 C        8.7480     6.3160    -1.9390 C.ar  1 <1>  -0.1500 
 24 C        9.8970     5.5900    -1.6960 C.ar  1 <1>  -0.1500 
 25 C        9.8300     1.8530     0.4840 C.3   1 <1>  -0.2400 
 26 H        2.5250     0.6820     0.7230 H     1 <1>   0.0800 
 27 H        2.8720     1.8280     1.9850 H     1 <1>   0.0800 
 28 H        1.5730     4.0900     1.9790 H     1 <1>   0.0800 
 29 H        0.4300     4.3700     0.6940 H     1 <1>   0.0800 
 30 H       -1.2800     2.7320     2.1540 H     1 <1>   0.1500 
 31 H       -1.1940     2.2230    -2.0630 H     1 <1>   0.1500 
 32 H        3.4810     2.1540    -0.9620 H     1 <1>   0.0800 
 33 H        4.6470     1.8590     0.2910 H     1 <1>   0.0800 
 34 H        2.5400     5.5870     0.2960 H     1 <1>   0.0800 
 35 H        2.1840     4.4440    -0.9610 H     1 <1>   0.0800 
 36 H       -3.4800     3.8180     1.9850 H     1 <1>   0.1500 
 37 H       -3.3940     3.3080    -2.2430 H     1 <1>   0.1500 
 38 H        4.1100     4.0290     1.3290 H     1 <1>   0.0800 
 39 H       -4.5380     4.1120    -0.2170 H     1 <1>   0.1500 
 40 H        6.3340     3.7060     0.6960 H     1 <1>   0.3700 
 41 H        6.6580     6.4560    -1.6190 H     1 <1>   0.1500 
 42 H       10.7520     3.8970    -0.7810 H     1 <1>   0.1500 
 43 H        7.7810     2.0560    -0.0310 H     1 <1>   0.0800 
 44 H        8.2400     2.9360     1.4000 H     1 <1>   0.0800 
 45 H        8.7900     7.2180    -2.5250 H     1 <1>   0.1500 
 46 H       10.8400     5.9270    -2.0920 H     1 <1>   0.1500 
 47 H       10.1640     1.5770    -0.5020 H     1 <1>   0.0800 
 48 H        9.6480     0.9530     1.0440 H     1 <1>   0.0800 
 49 H       10.6060     2.4080     0.9810 H     1 <1>   0.0800 
@<TRIPOS>BOND
  1   1   2  2   
  2   2   3  am  
  3   2   4  1   
  4   3   5  1   
  5   3   6  1   
  6   4   7  ar  
  7   4   8  ar  
  8   5   9  1   
  9   5  26  1   
 10   5  27  1   
 11   6  10  1   
 12   6  28  1   
 13   6  29  1   
 14   7  11  ar  
 15   7  30  1   
 16   8  12  ar  
 17   8  31  1   
 18   9  13  1   
 19   9  32  1   
 20   9  33  1   
 21  10  13  1   
 22  10  34  1   
 23  10  35  1   
 24  11  14  ar  
 25  11  36  1   
 26  12  14  ar  
 27  12  37  1   
 28  13  15  1   
 29  13  38  1   
 30  14  39  1   
 31  15  16  2   
 32  15  17  am  
 33  17  18  1   
 34  17  40  1   
 35  18  19  ar  
 36  18  20  ar  
 37  19  21  ar  
 38  19  22  1   
 39  20  23  ar  
 40  20  41  1   
 41  21  24  ar  
 42  21  42  1   
 43  22  25  1   
 44  22  43  1   
 45  22  44  1   
 46  23  24  ar  
 47  23  45  1   
 48  24  46  1   
 49  25  47  1   
 50  25  48  1   
 51  25  49  1   
@<TRIPOS>SUBSTRUCTURE
  1 ****  13 GROUP 4 **** **** 0

# MOE 2024.06 (io_trps.svl 2023.06)
