@<TRIPOS>MOLECULE
NONAME
42 42 1 0 0 
SMALL
USER_CHARGES


@<TRIPOS>ATOM
  1 O       -2.1790     0.7730     1.6160 O.3   1 <1>  -0.3630 
  2 C       -1.4000     1.6840     0.9730 C.ar  1 <1>   0.0830 
  3 C       -1.7210     0.0630     2.7470 C.3   1 <1>   0.0400 
  4 C       -1.9220     2.2900    -0.1790 C.ar  1 <1>   0.0280 
  5 C       -0.1290     2.0290     1.4290 C.ar  1 <1>  -0.1500 
  6 C       -1.1380     3.2320    -0.8410 C.ar  1 <1>  -0.1500 
  7 C       -3.2380     1.9480    -0.6730 C.2   1 <1>  -0.1780 
  8 C        0.6260     2.9690     0.7550 C.ar  1 <1>  -0.1500 
  9 C        0.1210     3.5720    -0.3820 C.ar  1 <1>  -0.1500 
 10 C       -4.0920     2.7440    -1.3370 C.2   1 <1>  -0.2880 
 11 C       -5.4630     2.3140    -1.7860 C.3   1 <1>   0.4810 
 12 N       -6.3930     2.8240    -0.7540 N.4   1 <1>  -0.9590 
 13 C       -7.6170     1.9670    -0.6280 C.3   1 <1>   0.3430 
 14 C       -6.7300     4.2530    -1.0010 C.3   1 <1>   0.3430 
 15 C       -7.3240     0.6120     0.0360 C.3   1 <1>   0.1200 
 16 C       -7.2400     4.9070     0.2850 C.3   1 <1>  -0.1600 
 17 O       -8.5030    -0.1080     0.0530 O.3   1 <1>  -0.6800 
 18 C       -7.5010     6.4020     0.0710 C.3   1 <1>  -0.2400 
 19 H       -2.4960    -0.6140     3.0560 H     1 <1>   0.0800 
 20 H       -1.5100     0.7620     3.5380 H     1 <1>   0.0800 
 21 H       -0.8390    -0.4910     2.4780 H     1 <1>   0.0800 
 22 H        0.2920     1.5800     2.3080 H     1 <1>   0.1500 
 23 H       -1.5070     3.7040    -1.7320 H     1 <1>   0.1500 
 24 H       -3.5170     0.9330    -0.4420 H     1 <1>   0.1500 
 25 H        1.6070     3.2320     1.1120 H     1 <1>   0.1500 
 26 H        0.7110     4.3020    -0.9090 H     1 <1>   0.1500 
 27 H       -3.8600     3.7650    -1.5850 H     1 <1>   0.1500 
 28 H       -5.4980     1.2380    -1.8200 H     1 <1>   0.0800 
 29 H       -5.7010     2.7020    -2.7640 H     1 <1>   0.0800 
 30 H       -5.8620     2.7860     0.1280 H     1 <1>   0.4500 
 31 H       -8.3530     2.4720    -0.0250 H     1 <1>   0.0800 
 32 H       -8.0430     1.7950    -1.6030 H     1 <1>   0.0800 
 33 H       -5.8490     4.7840    -1.3240 H     1 <1>   0.0800 
 34 H       -7.4750     4.3330    -1.7770 H     1 <1>   0.0800 
 35 H       -6.9980     0.7450     1.0540 H     1 <1>   0.0800 
 36 H       -6.5990     0.0420    -0.5190 H     1 <1>   0.0800 
 37 H       -8.1580     4.4470     0.6060 H     1 <1>   0.0800 
 38 H       -6.5060     4.7970     1.0650 H     1 <1>   0.0800 
 39 H       -8.3950    -0.9760     0.4990 H     1 <1>   0.4000 
 40 H       -8.2490     6.5570    -0.6880 H     1 <1>   0.0800 
 41 H       -6.5990     6.9110    -0.2210 H     1 <1>   0.0800 
 42 H       -7.8550     6.8480     0.9860 H     1 <1>   0.0800 
@<TRIPOS>BOND
  1   1   2  1   
  2   1   3  1   
  3   2   4  ar  
  4   2   5  ar  
  5   3  19  1   
  6   3  20  1   
  7   3  21  1   
  8   4   6  ar  
  9   4   7  1   
 10   5   8  ar  
 11   5  22  1   
 12   6   9  ar  
 13   6  23  1   
 14   7  10  2   
 15   7  24  1   
 16   8   9  ar  
 17   8  25  1   
 18   9  26  1   
 19  10  11  1   
 20  10  27  1   
 21  11  12  1   
 22  11  28  1   
 23  11  29  1   
 24  12  13  1   
 25  12  14  1   
 26  12  30  1   
 27  13  15  1   
 28  13  31  1   
 29  13  32  1   
 30  14  16  1   
 31  14  33  1   
 32  14  34  1   
 33  15  17  1   
 34  15  35  1   
 35  15  36  1   
 36  16  18  1   
 37  16  37  1   
 38  16  38  1   
 39  17  39  1   
 40  18  40  1   
 41  18  41  1   
 42  18  42  1   
@<TRIPOS>SUBSTRUCTURE
  1 ****   7 GROUP 4 **** **** 0

# MOE 2024.06 (io_trps.svl 2023.06)
