@<TRIPOS>MOLECULE
NONAME
34 35 1 0 0 
SMALL
USER_CHARGES


@<TRIPOS>ATOM
  1 S        0.3620     0.4150    -0.5690 S.3   1 <1>  -0.0800 
  2 C        0.8890     1.9020     0.2120 C.2   1 <1>   0.4340 
  3 C       -1.2490     0.7080     0.0590 C.ar  1 <1>   0.0400 
  4 S        2.6050     2.3660     0.0270 S.3   1 <1>  -0.2860 
  5 N        0.0040     2.5430     0.8560 N.2   1 <1>  -0.5650 
  6 C       -1.2220     1.8870     0.7860 C.ar  1 <1>   0.2270 
  7 C       -2.3820    -0.0640    -0.1100 C.ar  1 <1>  -0.1500 
  8 C        3.3820     1.0340    -1.0060 C.3   1 <1>   0.1310 
  9 C       -2.4000     2.3170     1.3790 C.ar  1 <1>  -0.1500 
 10 C       -3.5570     0.3800     0.4920 C.ar  1 <1>   0.0830 
 11 C        4.8540     1.3280    -1.2180 C.2   1 <1>   0.6590 
 12 C       -3.5540     1.5640     1.2290 C.ar  1 <1>  -0.1500 
 13 O       -4.7380    -0.2780     0.4080 O.3   1 <1>  -0.3630 
 14 O        5.2860     1.6240    -2.3020 O.2   1 <1>  -0.5700 
 15 O        5.6340     1.2140    -0.1510 O.3   1 <1>  -0.4300 
 16 C       -4.8590    -1.4830    -0.3100 C.3   1 <1>   0.1200 
 17 C        7.0160     1.4730    -0.2200 C.3   1 <1>   0.1200 
 18 C       -6.3060    -1.9530    -0.2020 C.3   1 <1>  -0.2400 
 19 C        7.6070     1.2590     1.1700 C.3   1 <1>  -0.2400 
 20 H       -2.3280    -0.9670    -0.6870 H     1 <1>   0.1500 
 21 H        2.8680     1.0140    -1.9490 H     1 <1>   0.0800 
 22 H        3.2600     0.1030    -0.4860 H     1 <1>   0.0800 
 23 H       -2.3970     3.2290     1.9470 H     1 <1>   0.1500 
 24 H       -4.4730     1.8880     1.6850 H     1 <1>   0.1500 
 25 H       -4.1910    -2.2080     0.1250 H     1 <1>   0.0800 
 26 H       -4.5950    -1.2980    -1.3360 H     1 <1>   0.0800 
 27 H        7.1570     2.4890    -0.5480 H     1 <1>   0.0800 
 28 H        7.4550     0.7980    -0.9360 H     1 <1>   0.0800 
 29 H       -6.5650    -2.1200     0.8280 H     1 <1>   0.0800 
 30 H       -6.4320    -2.8740    -0.7410 H     1 <1>   0.0800 
 31 H       -6.9660    -1.2160    -0.6230 H     1 <1>   0.0800 
 32 H        7.1490     1.9320     1.8740 H     1 <1>   0.0800 
 33 H        8.6640     1.4530     1.1490 H     1 <1>   0.0800 
 34 H        7.4510     0.2440     1.4880 H     1 <1>   0.0800 
@<TRIPOS>BOND
  1   1   2  1   
  2   1   3  1   
  3   2   4  1   
  4   2   5  2   
  5   3   6  ar  
  6   3   7  ar  
  7   4   8  1   
  8   5   6  1   
  9   6   9  ar  
 10   7  10  ar  
 11   7  20  1   
 12   8  11  1   
 13   8  21  1   
 14   8  22  1   
 15   9  12  ar  
 16   9  23  1   
 17  10  12  ar  
 18  10  13  1   
 19  11  14  2   
 20  11  15  1   
 21  12  24  1   
 22  13  16  1   
 23  15  17  1   
 24  16  18  1   
 25  16  25  1   
 26  16  26  1   
 27  17  19  1   
 28  17  27  1   
 29  17  28  1   
 30  18  29  1   
 31  18  30  1   
 32  18  31  1   
 33  19  32  1   
 34  19  33  1   
 35  19  34  1   
@<TRIPOS>SUBSTRUCTURE
  1 ****   1 GROUP 4 **** **** 0

# MOE 2024.06 (io_trps.svl 2023.06)
