@<TRIPOS>MOLECULE
NONAME
38 40 1 0 0 
SMALL
USER_CHARGES


@<TRIPOS>ATOM
  1 O        0.2810     0.6440    -0.8160 O.2   1 <1>  -0.5700 
  2 C        0.1260     1.8510    -0.8280 C.2   1 <1>   0.5440 
  3 N        1.2330     2.6720    -0.9230 N.am  1 <1>  -0.6600 
  4 C       -1.2190     2.3850    -0.7300 C.ar  1 <1>   0.0860 
  5 C        1.2250     4.1180    -0.5620 C.3   1 <1>   0.1400 
  6 C        2.5880     2.1260    -1.2180 C.3   1 <1>   0.1400 
  7 C       -2.0600     2.0380     0.3030 C.ar  1 <1>  -0.1500 
  8 C       -1.7140     3.2780    -1.7030 C.ar  1 <1>  -0.1500 
  9 C        2.1420     4.3560     0.6410 C.3   1 <1>  -0.1600 
 10 C        3.5090     2.3480    -0.0150 C.3   1 <1>  -0.1600 
 11 C       -3.3620     2.5560     0.4280 C.ar  1 <1>   0.0000 
 12 C       -2.9740     3.7990    -1.6150 C.ar  1 <1>  -0.1500 
 13 C        3.5640     3.8300     0.3890 C.3   1 <1>  -0.0800 
 14 C       -3.8310     3.4600    -0.5490 C.ar  1 <1>   0.0000 
 15 C       -4.2180     2.2080     1.4930 C.ar  1 <1>  -0.1500 
 16 C        4.4390     4.0190     1.6320 C.3   1 <1>  -0.2400 
 17 C       -5.1330     3.9830    -0.4220 C.ar  1 <1>  -0.1500 
 18 C       -5.4780     2.7310     1.5920 C.ar  1 <1>  -0.1500 
 19 C       -5.9410     3.6290     0.6240 C.ar  1 <1>  -0.1500 
 20 H        0.2320     4.4500    -0.3140 H     1 <1>   0.0800 
 21 H        1.5710     4.6900    -1.4060 H     1 <1>   0.0800 
 22 H        2.9860     2.6290    -2.0820 H     1 <1>   0.0800 
 23 H        2.5360     1.0740    -1.4440 H     1 <1>   0.0800 
 24 H       -1.7110     1.3430     1.0460 H     1 <1>   0.1500 
 25 H       -1.0690     3.5360    -2.5250 H     1 <1>   0.1500 
 26 H        1.7170     3.8650     1.4990 H     1 <1>   0.0800 
 27 H        2.1770     5.4100     0.8520 H     1 <1>   0.0800 
 28 H        4.4970     2.0010    -0.2610 H     1 <1>   0.0800 
 29 H        3.1470     1.7530     0.8060 H     1 <1>   0.0800 
 30 H       -3.3370     4.4790    -2.3640 H     1 <1>   0.1500 
 31 H        3.9980     4.3900    -0.4230 H     1 <1>   0.0800 
 32 H       -3.8580     1.5160     2.2330 H     1 <1>   0.1500 
 33 H        4.0360     3.4710     2.4660 H     1 <1>   0.0800 
 34 H        4.4900     5.0600     1.8980 H     1 <1>   0.0800 
 35 H        5.4380     3.6690     1.4420 H     1 <1>   0.0800 
 36 H       -5.4850     4.6710    -1.1690 H     1 <1>   0.1500 
 37 H       -6.1260     2.4610     2.4080 H     1 <1>   0.1500 
 38 H       -6.9340     4.0310     0.7160 H     1 <1>   0.1500 
@<TRIPOS>BOND
  1   1   2  2   
  2   2   3  am  
  3   2   4  1   
  4   3   5  1   
  5   3   6  1   
  6   4   7  ar  
  7   4   8  ar  
  8   5   9  1   
  9   5  20  1   
 10   5  21  1   
 11   6  10  1   
 12   6  22  1   
 13   6  23  1   
 14   7  11  ar  
 15   7  24  1   
 16   8  12  ar  
 17   8  25  1   
 18   9  13  1   
 19   9  26  1   
 20   9  27  1   
 21  10  13  1   
 22  10  28  1   
 23  10  29  1   
 24  11  14  ar  
 25  11  15  ar  
 26  12  14  ar  
 27  12  30  1   
 28  13  16  1   
 29  13  31  1   
 30  14  17  ar  
 31  15  18  ar  
 32  15  32  1   
 33  16  33  1   
 34  16  34  1   
 35  16  35  1   
 36  17  19  ar  
 37  17  36  1   
 38  18  19  ar  
 39  18  37  1   
 40  19  38  1   
@<TRIPOS>SUBSTRUCTURE
  1 ****   4 GROUP 4 **** **** 0

# MOE 2024.06 (io_trps.svl 2023.06)
