@<TRIPOS>MOLECULE
NONAME
47 49 1 0 0 
SMALL
USER_CHARGES


@<TRIPOS>ATOM
  1 CL       1.0130    -1.1540    -1.0480 Cl    1 <1>  -0.1770 
  2 C        2.5670    -1.7430    -0.5120 C.ar  1 <1>   0.1770 
  3 C        3.6890    -0.9590    -0.6930 C.ar  1 <1>  -0.1500 
  4 C        2.6430    -2.9860     0.0870 C.ar  1 <1>  -0.1500 
  5 C        4.9270    -1.4220    -0.2680 C.ar  1 <1>   0.1170 
  6 C        3.8730    -3.4580     0.5150 C.ar  1 <1>  -0.1500 
  7 N        6.1030    -0.6720    -0.4170 N.am  1 <1>  -0.5470 
  8 C        5.0160    -2.6820     0.3390 C.ar  1 <1>   0.0830 
  9 C        6.4720     0.3810    -1.1990 C.2   1 <1>   0.5690 
 10 O        6.2590    -3.0930     0.7340 O.3   1 <1>  -0.3630 
 11 O        5.7180     0.9900    -1.9210 O.2   1 <1>  -0.5700 
 12 C        7.9510     0.7750    -1.1430 C.3   1 <1>   0.1710 
 13 C        6.4510    -4.3040     1.4330 C.3   1 <1>   0.0400 
 14 N        8.8230    -0.3030    -0.5860 N.3   1 <1>  -0.8100 
 15 C       10.1390     0.2130    -0.1510 C.3   1 <1>   0.1100 
 16 C        9.0260    -1.4030    -1.5620 C.3   1 <1>   0.1100 
 17 C       11.0050    -0.8970     0.4770 C.3   1 <1>   0.2090 
 18 C        9.8610    -2.5480    -0.9610 C.3   1 <1>   0.2090 
 19 N       11.1780    -2.0480    -0.4610 N.pl3 1 <1>  -0.8380 
 20 C       12.0870    -3.0310    -0.0510 C.ar  1 <1>   0.1000 
 21 C       11.8990    -3.9040     1.0280 C.ar  1 <1>   0.1900 
 22 C       13.2740    -3.1620    -0.7610 C.ar  1 <1>  -0.1500 
 23 F       10.8000    -3.8340     1.7430 F     1 <1>  -0.1900 
 24 C       12.8300    -4.8570     1.3910 C.ar  1 <1>  -0.1500 
 25 C       14.2210    -4.1120    -0.4130 C.ar  1 <1>  -0.1500 
 26 C       14.0030    -4.9610     0.6610 C.ar  1 <1>  -0.1500 
 27 H        3.5910     0.0030    -1.1600 H     1 <1>   0.1500 
 28 H        1.7500    -3.5710     0.2140 H     1 <1>   0.1500 
 29 H        3.9170    -4.4260     0.9770 H     1 <1>   0.1500 
 30 H        6.9160    -1.0850     0.0600 H     1 <1>   0.3700 
 31 H        8.0200     1.6470    -0.5180 H     1 <1>   0.0800 
 32 H        8.2810     1.0450    -2.1300 H     1 <1>   0.0800 
 33 H        7.4980    -4.3920     1.6660 H     1 <1>   0.0800 
 34 H        6.1480    -5.1230     0.8050 H     1 <1>   0.0800 
 35 H        5.8770    -4.2780     2.3420 H     1 <1>   0.0800 
 36 H        9.9950     0.9910     0.5790 H     1 <1>   0.0800 
 37 H       10.6660     0.6320    -0.9920 H     1 <1>   0.0800 
 38 H        9.5320    -1.0310    -2.4360 H     1 <1>   0.0800 
 39 H        8.0760    -1.8020    -1.8720 H     1 <1>   0.0800 
 40 H       10.5360    -1.2370     1.3840 H     1 <1>   0.0800 
 41 H       11.9720    -0.4990     0.7280 H     1 <1>   0.0800 
 42 H       10.0310    -3.3010    -1.7110 H     1 <1>   0.0800 
 43 H        9.3090    -2.9960    -0.1530 H     1 <1>   0.0800 
 44 H       13.4450    -2.5060    -1.5950 H     1 <1>   0.1500 
 45 H       12.6410    -5.5040     2.2280 H     1 <1>   0.1500 
 46 H       15.1310    -4.1910    -0.9820 H     1 <1>   0.1500 
 47 H       14.7430    -5.6970     0.9270 H     1 <1>   0.1500 
@<TRIPOS>BOND
  1   1   2  1   
  2   2   3  ar  
  3   2   4  ar  
  4   3   5  ar  
  5   3  27  1   
  6   4   6  ar  
  7   4  28  1   
  8   5   7  1   
  9   5   8  ar  
 10   6   8  ar  
 11   6  29  1   
 12   7   9  am  
 13   7  30  1   
 14   8  10  1   
 15   9  11  2   
 16   9  12  1   
 17  10  13  1   
 18  12  14  1   
 19  12  31  1   
 20  12  32  1   
 21  13  33  1   
 22  13  34  1   
 23  13  35  1   
 24  14  15  1   
 25  14  16  1   
 26  15  17  1   
 27  15  36  1   
 28  15  37  1   
 29  16  18  1   
 30  16  38  1   
 31  16  39  1   
 32  17  19  1   
 33  17  40  1   
 34  17  41  1   
 35  18  19  1   
 36  18  42  1   
 37  18  43  1   
 38  19  20  1   
 39  20  21  ar  
 40  20  22  ar  
 41  21  23  1   
 42  21  24  ar  
 43  22  25  ar  
 44  22  44  1   
 45  24  26  ar  
 46  24  45  1   
 47  25  26  ar  
 48  25  46  1   
 49  26  47  1   
@<TRIPOS>SUBSTRUCTURE
  1 ****  16 GROUP 4 **** **** 0

# MOE 2024.06 (io_trps.svl 2023.06)
