@<TRIPOS>MOLECULE
NONAME
45 47 1 0 0 
SMALL
USER_CHARGES


@<TRIPOS>ATOM
  1 O       -0.2210     0.7570    -2.4720 O.2   1 <1>  -0.5700 
  2 C        0.0810     1.2880    -1.4440 C.2   1 <1>   0.4480 
  3 C       -0.9090     2.0150    -0.5460 C.3   1 <1>  -0.0190 
  4 C        1.5310     1.3680    -1.0000 C.3   1 <1>  -0.0990 
  5 C       -2.3840     1.6610    -0.8580 C.3   1 <1>   0.4850 
  6 C       -0.5620     3.5230    -0.5700 C.3   1 <1>  -0.1600 
  7 C        1.8310     2.6370    -0.1550 C.3   1 <1>  -0.0800 
  8 O       -2.6660     1.8970    -2.2040 O.3   1 <1>  -0.6800 
  9 C       -2.7160     0.2130    -0.4080 C.2   1 <1>   0.5690 
 10 C       -3.4150     2.4250    -0.0180 C.ar  1 <1>  -0.1440 
 11 C        0.9550     3.8050    -0.6750 C.3   1 <1>  -0.1600 
 12 C        3.3550     2.9690    -0.0410 C.3   1 <1>   0.0000 
 13 O       -2.1830    -0.8070    -0.7770 O.2   1 <1>  -0.5700 
 14 N       -3.6790     0.2400     0.5450 N.am  1 <1>  -0.5470 
 15 C       -4.1070     1.5320     0.7800 C.ar  1 <1>   0.1170 
 16 C       -3.7350     3.7730     0.0180 C.ar  1 <1>  -0.1500 
 17 C        4.1470     1.7240     0.3990 C.3   1 <1>  -0.2400 
 18 C        3.9580     3.4800    -1.3620 C.3   1 <1>  -0.2400 
 19 C        3.5870     4.0490     1.0330 C.3   1 <1>  -0.2400 
 20 C       -5.0930     1.9640     1.6530 C.ar  1 <1>  -0.1500 
 21 C       -4.7210     4.2130     0.8880 C.ar  1 <1>  -0.1500 
 22 C       -5.3930     3.3140     1.7050 C.ar  1 <1>  -0.1500 
 23 H       -0.7300     1.6680     0.4550 H     1 <1>   0.0800 
 24 H        2.1330     1.3550    -1.8890 H     1 <1>   0.0800 
 25 H        1.7610     0.4840    -0.4350 H     1 <1>   0.0800 
 26 H       -0.9410     3.9790     0.3280 H     1 <1>   0.0800 
 27 H       -1.0470     3.9940    -1.4090 H     1 <1>   0.0800 
 28 H        1.4970     2.4260     0.8470 H     1 <1>   0.0800 
 29 H       -2.0220     1.3600    -2.7260 H     1 <1>   0.4000 
 30 H        1.1630     4.7140    -0.1410 H     1 <1>   0.0800 
 31 H        1.1940     3.9810    -1.7100 H     1 <1>   0.0800 
 32 H       -4.0770    -0.6130     0.9360 H     1 <1>   0.3700 
 33 H       -3.2340     4.4730    -0.6270 H     1 <1>   0.1500 
 34 H        4.1330     0.9630    -0.3610 H     1 <1>   0.0800 
 35 H        3.7360     1.3140     1.3040 H     1 <1>   0.0800 
 36 H        5.1770     1.9750     0.5820 H     1 <1>   0.0800 
 37 H        3.8480     2.7590    -2.1500 H     1 <1>   0.0800 
 38 H        5.0090     3.6760    -1.2410 H     1 <1>   0.0800 
 39 H        3.4900     4.3970    -1.6720 H     1 <1>   0.0800 
 40 H        3.1590     4.9910     0.7440 H     1 <1>   0.0800 
 41 H        3.1570     3.7510     1.9720 H     1 <1>   0.0800 
 42 H        4.6400     4.2100     1.1850 H     1 <1>   0.0800 
 43 H       -5.6160     1.2580     2.2720 H     1 <1>   0.1500 
 44 H       -4.9710     5.2600     0.9250 H     1 <1>   0.1500 
 45 H       -6.1560     3.6700     2.3760 H     1 <1>   0.1500 
@<TRIPOS>BOND
  1   1   2  2   
  2   2   3  1   
  3   2   4  1   
  4   3   5  1   
  5   3   6  1   
  6   3  23  1   
  7   4   7  1   
  8   4  24  1   
  9   4  25  1   
 10   5   8  1   
 11   5   9  1   
 12   5  10  1   
 13   6  11  1   
 14   6  26  1   
 15   6  27  1   
 16   7  11  1   
 17   7  12  1   
 18   7  28  1   
 19   8  29  1   
 20   9  13  2   
 21   9  14  am  
 22  10  15  ar  
 23  10  16  ar  
 24  11  30  1   
 25  11  31  1   
 26  12  17  1   
 27  12  18  1   
 28  12  19  1   
 29  14  15  1   
 30  14  32  1   
 31  15  20  ar  
 32  16  21  ar  
 33  16  33  1   
 34  17  34  1   
 35  17  35  1   
 36  17  36  1   
 37  18  37  1   
 38  18  38  1   
 39  18  39  1   
 40  19  40  1   
 41  19  41  1   
 42  19  42  1   
 43  20  22  ar  
 44  20  43  1   
 45  21  22  ar  
 46  21  44  1   
 47  22  45  1   
@<TRIPOS>SUBSTRUCTURE
  1 ****   3 GROUP 4 **** **** 0

# MOE 2024.06 (io_trps.svl 2023.06)
