@<TRIPOS>MOLECULE
NONAME
44 47 1 0 0 
SMALL
USER_CHARGES


@<TRIPOS>ATOM
  1 S       -1.8110     3.8070     1.3040 S.3   1 <1>  -0.0800 
  2 C       -3.2510     2.7900     1.3420 C.ar  1 <1>   0.2970 
  3 C       -2.3500     4.6080    -0.1770 C.2   1 <1>  -0.1400 
  4 N       -3.4860     1.8900     2.2720 N.ar  1 <1>  -0.5670 
  5 C       -4.0660     3.0830     0.2790 C.ar  1 <1>   0.0000 
  6 C       -3.5360     4.1130    -0.5750 C.2   1 <1>  -0.1500 
  7 C       -1.4390     5.6730    -0.7490 C.3   1 <1>  -0.0600 
  8 C       -4.6280     1.2570     2.0900 C.ar  1 <1>   0.4700 
  9 C       -5.2430     2.3420     0.2180 C.ar  1 <1>   0.4100 
 10 N       -5.5330     1.4260     1.1280 N.ar  1 <1>  -0.6200 
 11 N       -6.1790     2.5510    -0.7680 N.pl3 1 <1>  -0.8380 
 12 C       -6.7800     1.3580    -1.4380 C.3   1 <1>   0.2090 
 13 C       -7.1270     3.6830    -0.5650 C.3   1 <1>   0.2090 
 14 C       -8.0560     0.8960    -0.7010 C.3   1 <1>   0.3430 
 15 C       -8.3940     3.2020     0.1750 C.3   1 <1>   0.3430 
 16 N       -9.0470     2.0150    -0.4970 N.4   1 <1>  -0.9590 
 17 C      -10.2390     1.5550     0.2630 C.3   1 <1>   0.4860 
 18 C      -11.2600     2.6760     0.2760 C.ar  1 <1>  -0.1430 
 19 C      -11.4600     3.4230     1.4280 C.ar  1 <1>  -0.1500 
 20 C      -11.9940     2.9700    -0.8650 C.ar  1 <1>  -0.1500 
 21 C      -12.3750     4.4620     1.4350 C.ar  1 <1>  -0.1500 
 22 C      -12.9080     4.0090    -0.8560 C.ar  1 <1>  -0.1500 
 23 C      -13.0960     4.7560     0.2920 C.ar  1 <1>  -0.1500 
 24 H       -4.0820     4.4180    -1.4500 H     1 <1>   0.1500 
 25 H       -0.4790     5.2470    -0.9830 H     1 <1>   0.0800 
 26 H       -1.3030     6.4640    -0.0330 H     1 <1>   0.0800 
 27 H       -1.8640     6.0850    -1.6460 H     1 <1>   0.0800 
 28 H       -4.8590     0.5030     2.8250 H     1 <1>   0.1500 
 29 H       -6.0630     0.5530    -1.4460 H     1 <1>   0.0800 
 30 H       -7.0090     1.6000    -2.4610 H     1 <1>   0.0800 
 31 H       -7.3930     4.1060    -1.5190 H     1 <1>   0.0800 
 32 H       -6.6500     4.4560     0.0150 H     1 <1>   0.0800 
 33 H       -7.7560     0.5030     0.2570 H     1 <1>   0.0800 
 34 H       -8.5120     0.0940    -1.2590 H     1 <1>   0.0800 
 35 H       -9.0930     4.0200     0.2380 H     1 <1>   0.0800 
 36 H       -8.1070     2.9330     1.1780 H     1 <1>   0.0800 
 37 H       -9.3810     2.3370    -1.4130 H     1 <1>   0.4500 
 38 H       -9.9630     1.2960     1.2720 H     1 <1>   0.0800 
 39 H      -10.6710     0.6870    -0.2080 H     1 <1>   0.0800 
 40 H      -10.9160     3.2090     2.3330 H     1 <1>   0.1500 
 41 H      -11.8740     2.3990    -1.7700 H     1 <1>   0.1500 
 42 H      -12.5320     5.0420     2.3290 H     1 <1>   0.1500 
 43 H      -13.4790     4.2390    -1.7410 H     1 <1>   0.1500 
 44 H      -13.8090     5.5640     0.2990 H     1 <1>   0.1500 
@<TRIPOS>BOND
  1   1   2  1   
  2   1   3  1   
  3   2   4  ar  
  4   2   5  ar  
  5   3   6  2   
  6   3   7  1   
  7   4   8  ar  
  8   5   6  1   
  9   5   9  ar  
 10   6  24  1   
 11   7  25  1   
 12   7  26  1   
 13   7  27  1   
 14   8  10  ar  
 15   8  28  1   
 16   9  10  ar  
 17   9  11  1   
 18  11  12  1   
 19  11  13  1   
 20  12  14  1   
 21  12  29  1   
 22  12  30  1   
 23  13  15  1   
 24  13  31  1   
 25  13  32  1   
 26  14  16  1   
 27  14  33  1   
 28  14  34  1   
 29  15  16  1   
 30  15  35  1   
 31  15  36  1   
 32  16  17  1   
 33  16  37  1   
 34  17  18  1   
 35  17  38  1   
 36  17  39  1   
 37  18  19  ar  
 38  18  20  ar  
 39  19  21  ar  
 40  19  40  1   
 41  20  22  ar  
 42  20  41  1   
 43  21  23  ar  
 44  21  42  1   
 45  22  23  ar  
 46  22  43  1   
 47  23  44  1   
@<TRIPOS>SUBSTRUCTURE
  1 ****  13 GROUP 4 **** **** 0

# MOE 2024.06 (io_trps.svl 2023.06)
