@<TRIPOS>MOLECULE
NONAME
47 50 1 0 0 
SMALL
USER_CHARGES


@<TRIPOS>ATOM
  1 O        1.1820     1.6010    -3.0510 O.2   1 <1>  -0.5700 
  2 C        0.3630     1.3670    -2.1950 C.2   1 <1>   0.5690 
  3 N        0.6900     1.1310    -0.8970 N.am  1 <1>  -0.7300 
  4 C       -1.1020     1.3360    -2.5980 C.3   1 <1>   0.0440 
  5 C        2.0140     1.1020    -0.2590 C.3   1 <1>   0.3000 
  6 C       -2.0460     1.0930    -1.4220 C.ar  1 <1>  -0.1440 
  7 C        2.7120     2.4690    -0.3850 C.3   1 <1>  -0.1600 
  8 C        2.8970     0.0050    -0.8810 C.3   1 <1>  -0.1600 
  9 C        1.8030     0.7860     1.2340 C.3   1 <1>  -0.1600 
 10 C       -2.3860    -0.2000    -1.0560 C.ar  1 <1>  -0.1500 
 11 C       -2.5530     2.1610    -0.6980 C.ar  1 <1>  -0.1500 
 12 C        4.0750     2.4320     0.3340 C.3   1 <1>  -0.0800 
 13 C        4.2610    -0.0410    -0.1640 C.3   1 <1>  -0.0800 
 14 C        3.1570     0.7400     1.9670 C.3   1 <1>  -0.0800 
 15 C       -3.2230    -0.4210     0.0240 C.ar  1 <1>  -0.1500 
 16 C       -3.3910     1.9430     0.3820 C.ar  1 <1>  -0.1500 
 17 C        4.9490     1.3320    -0.3010 C.3   1 <1>  -0.1600 
 18 C        3.8550     2.1060     1.8230 C.3   1 <1>  -0.1600 
 19 C        4.0400    -0.3490     1.3290 C.3   1 <1>  -0.1600 
 20 C       -3.7310     0.6440     0.7500 C.ar  1 <1>   0.0820 
 21 O       -4.5430     0.3410     1.7930 O.3   1 <1>  -0.3620 
 22 C       -5.1550     1.3510     2.5630 C.3   1 <1>   0.0400 
 23 H       -0.0830     0.9480    -0.2530 H     1 <1>   0.3700 
 24 H       -1.2310     0.5650    -3.3340 H     1 <1>   0.0800 
 25 H       -1.3410     2.2720    -3.0680 H     1 <1>   0.0800 
 26 H        2.0940     3.2360     0.0470 H     1 <1>   0.0800 
 27 H        2.8680     2.7070    -1.4220 H     1 <1>   0.0800 
 28 H        3.0560     0.2100    -1.9240 H     1 <1>   0.0800 
 29 H        2.4090    -0.9490    -0.7960 H     1 <1>   0.0800 
 30 H        1.3100    -0.1640     1.3390 H     1 <1>   0.0800 
 31 H        1.1820     1.5410     1.6820 H     1 <1>   0.0800 
 32 H       -2.0010    -1.0420    -1.6060 H     1 <1>   0.1500 
 33 H       -2.2950     3.1700    -0.9700 H     1 <1>   0.1500 
 34 H        4.5640     3.3860     0.2360 H     1 <1>   0.0800 
 35 H        4.8790    -0.8040    -0.6070 H     1 <1>   0.0800 
 36 H        3.0010     0.5190     3.0100 H     1 <1>   0.0800 
 37 H       -3.4890    -1.4220     0.3110 H     1 <1>   0.1500 
 38 H       -3.7660     2.7910     0.9220 H     1 <1>   0.1500 
 39 H        5.9100     1.3070     0.1820 H     1 <1>   0.0800 
 40 H        5.1130     1.5540    -1.3410 H     1 <1>   0.0800 
 41 H        3.2530     2.8740     2.2790 H     1 <1>   0.0800 
 42 H        4.8010     2.0870     2.3350 H     1 <1>   0.0800 
 43 H        4.9880    -0.3930     1.8360 H     1 <1>   0.0800 
 44 H        3.5680    -1.3110     1.4360 H     1 <1>   0.0800 
 45 H       -5.7650     0.8770     3.3110 H     1 <1>   0.0800 
 46 H       -5.7690     1.9560     1.9200 H     1 <1>   0.0800 
 47 H       -4.3900     1.9420     3.0350 H     1 <1>   0.0800 
@<TRIPOS>BOND
  1   1   2  2   
  2   2   3  am  
  3   2   4  1   
  4   3   5  1   
  5   3  23  1   
  6   4   6  1   
  7   4  24  1   
  8   4  25  1   
  9   5   7  1   
 10   5   8  1   
 11   5   9  1   
 12   6  10  ar  
 13   6  11  ar  
 14   7  12  1   
 15   7  26  1   
 16   7  27  1   
 17   8  13  1   
 18   8  28  1   
 19   8  29  1   
 20   9  14  1   
 21   9  30  1   
 22   9  31  1   
 23  10  15  ar  
 24  10  32  1   
 25  11  16  ar  
 26  11  33  1   
 27  12  17  1   
 28  12  18  1   
 29  12  34  1   
 30  13  17  1   
 31  13  19  1   
 32  13  35  1   
 33  14  18  1   
 34  14  19  1   
 35  14  36  1   
 36  15  20  ar  
 37  15  37  1   
 38  16  20  ar  
 39  16  38  1   
 40  17  39  1   
 41  17  40  1   
 42  18  41  1   
 43  18  42  1   
 44  19  43  1   
 45  19  44  1   
 46  20  21  1   
 47  21  22  1   
 48  22  45  1   
 49  22  46  1   
 50  22  47  1   
@<TRIPOS>SUBSTRUCTURE
  1 ****   3 GROUP 4 **** **** 0

# MOE 2024.06 (io_trps.svl 2023.06)
