@<TRIPOS>MOLECULE
NONAME
47 50 1 0 0 
SMALL
USER_CHARGES


@<TRIPOS>ATOM
  1 BR       2.9020     1.9710    -3.0770 Br    1 <1>  -0.1110 
  2 C        1.6170     2.5790    -1.7700 C.ar  1 <1>   0.1110 
  3 C        2.0100     2.7310    -0.4470 C.ar  1 <1>   0.0830 
  4 C        0.3310     2.8450    -2.1980 C.ar  1 <1>  -0.1500 
  5 O        3.2970     2.4430    -0.1220 O.3   1 <1>  -0.3630 
  6 C        1.0590     3.1700     0.4700 C.ar  1 <1>  -0.1500 
  7 C       -0.6070     3.2840    -1.2770 C.ar  1 <1>  -0.1430 
  8 C        3.7810     2.5720     1.2090 C.3   1 <1>   0.1810 
  9 C       -0.2350     3.4410     0.0520 C.ar  1 <1>  -0.1500 
 10 C       -2.0300     3.5850    -1.7130 C.3   1 <1>  -0.0960 
 11 C        5.2530     2.1880     1.2980 C.2   1 <1>   0.5690 
 12 O        5.7930     2.2510     2.3770 O.2   1 <1>  -0.5700 
 13 N        5.8940     1.7910     0.1650 N.am  1 <1>  -0.7300 
 14 C        7.2900     1.3720    -0.0230 C.3   1 <1>   0.3000 
 15 C        7.4750     1.0310    -1.5140 C.3   1 <1>  -0.1600 
 16 C        7.6030     0.1210     0.8180 C.3   1 <1>  -0.1600 
 17 C        8.2570     2.5110     0.3520 C.3   1 <1>  -0.1600 
 18 C        8.9240     0.5820    -1.7830 C.3   1 <1>  -0.0800 
 19 C        9.0550    -0.3300     0.5680 C.3   1 <1>  -0.0800 
 20 C        9.7120     2.0680     0.1010 C.3   1 <1>  -0.0800 
 21 C        9.2340    -0.6600    -0.9260 C.3   1 <1>  -0.1600 
 22 C        9.8860     1.7200    -1.3900 C.3   1 <1>  -0.1600 
 23 C       10.0120     0.8170     0.9500 C.3   1 <1>  -0.1600 
 24 H        0.0750     2.7110    -3.2340 H     1 <1>   0.1500 
 25 H        1.3010     3.3070     1.5070 H     1 <1>   0.1500 
 26 H        3.2070     1.9240     1.8450 H     1 <1>   0.0800 
 27 H        3.6630     3.5950     1.5170 H     1 <1>   0.0800 
 28 H       -0.9620     3.7790     0.7710 H     1 <1>   0.1500 
 29 H       -2.6580     2.7340    -1.5180 H     1 <1>   0.0800 
 30 H       -2.0650     3.8080    -2.7640 H     1 <1>   0.0800 
 31 H       -2.4150     4.4320    -1.1740 H     1 <1>   0.0800 
 32 H        5.3340     1.7770    -0.6900 H     1 <1>   0.3700 
 33 H        7.2540     1.8950    -2.1160 H     1 <1>   0.0800 
 34 H        6.8010     0.2410    -1.7940 H     1 <1>   0.0800 
 35 H        6.9260    -0.6730     0.5590 H     1 <1>   0.0800 
 36 H        7.4790     0.3410     1.8630 H     1 <1>   0.0800 
 37 H        8.1410     2.7620     1.3910 H     1 <1>   0.0800 
 38 H        8.0360     3.3850    -0.2320 H     1 <1>   0.0800 
 39 H        9.0460     0.3450    -2.8260 H     1 <1>   0.0800 
 40 H        9.2730    -1.2000     1.1640 H     1 <1>   0.0800 
 41 H       10.3860     2.8630     0.3720 H     1 <1>   0.0800 
 42 H       10.2430    -0.9860    -1.1080 H     1 <1>   0.0800 
 43 H        8.5770    -1.4670    -1.2010 H     1 <1>   0.0800 
 44 H        9.6870     2.5900    -1.9920 H     1 <1>   0.0800 
 45 H       10.9020     1.4190    -1.5770 H     1 <1>   0.0800 
 46 H       11.0310     0.5080     0.7940 H     1 <1>   0.0800 
 47 H        9.8990     1.0510     1.9940 H     1 <1>   0.0800 
@<TRIPOS>BOND
  1   1   2  1   
  2   2   3  ar  
  3   2   4  ar  
  4   3   5  1   
  5   3   6  ar  
  6   4   7  ar  
  7   4  24  1   
  8   5   8  1   
  9   6   9  ar  
 10   6  25  1   
 11   7   9  ar  
 12   7  10  1   
 13   8  11  1   
 14   8  26  1   
 15   8  27  1   
 16   9  28  1   
 17  10  29  1   
 18  10  30  1   
 19  10  31  1   
 20  11  12  2   
 21  11  13  am  
 22  13  14  1   
 23  13  32  1   
 24  14  15  1   
 25  14  16  1   
 26  14  17  1   
 27  15  18  1   
 28  15  33  1   
 29  15  34  1   
 30  16  19  1   
 31  16  35  1   
 32  16  36  1   
 33  17  20  1   
 34  17  37  1   
 35  17  38  1   
 36  18  21  1   
 37  18  22  1   
 38  18  39  1   
 39  19  21  1   
 40  19  23  1   
 41  19  40  1   
 42  20  22  1   
 43  20  23  1   
 44  20  41  1   
 45  21  42  1   
 46  21  43  1   
 47  22  44  1   
 48  22  45  1   
 49  23  46  1   
 50  23  47  1   
@<TRIPOS>SUBSTRUCTURE
  1 ****  13 GROUP 4 **** **** 0

# MOE 2024.06 (io_trps.svl 2023.06)
