@<TRIPOS>MOLECULE
NONAME
42 44 1 0 0 
SMALL
USER_CHARGES


@<TRIPOS>ATOM
  1 O        1.8330    -4.6910     0.4290 O.3   1 <1>  -0.3630 
  2 C        0.6700    -5.3130     0.1110 C.ar  1 <1>   0.0830 
  3 C        3.0760    -5.2520     0.0980 C.3   1 <1>   0.1200 
  4 C       -0.4990    -4.6640     0.4800 C.ar  1 <1>  -0.1500 
  5 C        0.6020    -6.5410    -0.5520 C.ar  1 <1>  -0.1500 
  6 C        4.1490    -4.2860     0.6010 C.3   1 <1>   0.3430 
  7 C       -1.7180    -5.2440     0.1860 C.ar  1 <1>  -0.1440 
  8 C       -0.6280    -7.1110    -0.8410 C.ar  1 <1>  -0.1500 
  9 N        5.5260    -4.7800     0.2990 N.4   1 <1>  -0.9060 
 10 C       -1.7820    -6.4490    -0.4650 C.ar  1 <1>  -0.1430 
 11 C       -3.0960    -4.7140     0.4960 C.3   1 <1>  -0.0170 
 12 C        6.5900    -3.8640     0.7560 C.3   1 <1>   0.4230 
 13 C       -3.2110    -6.8840    -0.6770 C.3   1 <1>  -0.0170 
 14 C       -4.0220    -5.6220    -0.3320 C.3   1 <1>  -0.1600 
 15 C        6.7020    -2.6920    -0.2140 C.3   1 <1>  -0.1600 
 16 C        7.9250    -4.5750     0.5790 C.3   1 <1>  -0.1600 
 17 C        7.4980    -3.2160    -1.4160 C.3   1 <1>  -0.1600 
 18 C        8.2840    -4.4310    -0.9060 C.3   1 <1>  -0.1600 
 19 H        3.1190    -5.3590    -0.9720 H     1 <1>   0.0800 
 20 H        3.1510    -6.2070     0.5880 H     1 <1>   0.0800 
 21 H       -0.4530    -3.7200     0.9910 H     1 <1>   0.1500 
 22 H        1.4840    -7.0710    -0.8530 H     1 <1>   0.1500 
 23 H        4.0320    -4.1650     1.6660 H     1 <1>   0.0800 
 24 H        3.9930    -3.3290     0.1300 H     1 <1>   0.0800 
 25 H       -0.6900    -8.0560    -1.3510 H     1 <1>   0.1500 
 26 H        5.6590    -4.8990    -0.7130 H     1 <1>   0.4500 
 27 H        5.6790    -5.6950     0.7370 H     1 <1>   0.4500 
 28 H       -3.1960    -3.6810     0.2100 H     1 <1>   0.0800 
 29 H       -3.2940    -4.8250     1.5470 H     1 <1>   0.0800 
 30 H        6.4280    -3.5510     1.7760 H     1 <1>   0.0800 
 31 H       -3.4460    -7.6840     0.0020 H     1 <1>   0.0800 
 32 H       -3.3830    -7.1990    -1.6900 H     1 <1>   0.0800 
 33 H       -4.2760    -5.1150    -1.2460 H     1 <1>   0.0800 
 34 H       -4.9260    -5.8610     0.1990 H     1 <1>   0.0800 
 35 H        7.2810    -1.9190     0.2630 H     1 <1>   0.0800 
 36 H        5.7570    -2.2650    -0.4990 H     1 <1>   0.0800 
 37 H        7.9140    -5.5990     0.9080 H     1 <1>   0.0800 
 38 H        8.6650    -4.0480     1.1590 H     1 <1>   0.0800 
 39 H        8.1620    -2.4550    -1.7940 H     1 <1>   0.0800 
 40 H        6.8360    -3.5110    -2.2130 H     1 <1>   0.0800 
 41 H        7.9970    -5.3130    -1.4540 H     1 <1>   0.0800 
 42 H        9.3450    -4.2870    -1.0290 H     1 <1>   0.0800 
@<TRIPOS>BOND
  1   1   2  1   
  2   1   3  1   
  3   2   4  ar  
  4   2   5  ar  
  5   3   6  1   
  6   3  19  1   
  7   3  20  1   
  8   4   7  ar  
  9   4  21  1   
 10   5   8  ar  
 11   5  22  1   
 12   6   9  1   
 13   6  23  1   
 14   6  24  1   
 15   7  10  ar  
 16   7  11  1   
 17   8  10  ar  
 18   8  25  1   
 19   9  12  1   
 20   9  26  1   
 21   9  27  1   
 22  10  13  1   
 23  11  14  1   
 24  11  28  1   
 25  11  29  1   
 26  12  15  1   
 27  12  16  1   
 28  12  30  1   
 29  13  14  1   
 30  13  31  1   
 31  13  32  1   
 32  14  33  1   
 33  14  34  1   
 34  15  17  1   
 35  15  35  1   
 36  15  36  1   
 37  16  18  1   
 38  16  37  1   
 39  16  38  1   
 40  17  18  1   
 41  17  39  1   
 42  17  40  1   
 43  18  41  1   
 44  18  42  1   
@<TRIPOS>SUBSTRUCTURE
  1 ****   1 GROUP 4 **** **** 0

# MOE 2024.06 (io_trps.svl 2023.06)
