@<TRIPOS>MOLECULE
NONAME
44 45 1 0 0 
SMALL
USER_CHARGES


@<TRIPOS>ATOM
  1 S        0.0020    -0.2890    -1.4220 S.o2  1 <1>   1.4470 
  2 O        0.4880    -0.6130    -2.7440 O.2   1 <1>  -0.6500 
  3 O       -0.3080     1.0790    -1.0790 O.2   1 <1>  -0.6500 
  4 N        1.2610    -0.7450    -0.3750 N.am  1 <1>  -0.8490 
  5 C       -1.3740    -1.3720    -0.9500 C.ar  1 <1>  -0.0090 
  6 C        1.8240    -2.0720    -0.7060 C.3   1 <1>   0.1960 
  7 C        2.3310     0.2810    -0.3910 C.3   1 <1>   0.1960 
  8 C       -2.0780    -1.1530     0.2260 C.ar  1 <1>  -0.1500 
  9 C       -1.7450    -2.4540    -1.7390 C.ar  1 <1>  -0.1500 
 10 C        2.9310    -2.5110     0.2890 C.3   1 <1>   0.3430 
 11 C        3.5930    -0.1260     0.4100 C.3   1 <1>   0.3430 
 12 C       -3.1320    -1.9670     0.6170 C.ar  1 <1>   0.1170 
 13 C       -2.7760    -3.2970    -1.3610 C.ar  1 <1>  -0.1500 
 14 N        3.3720    -1.3900     1.1950 N.4   1 <1>  -0.9590 
 15 N       -3.8490    -1.7270     1.8020 N.am  1 <1>  -0.5470 
 16 C       -3.4700    -3.0650    -0.1790 C.ar  1 <1>   0.0830 
 17 C        4.5410    -1.7590     2.0480 C.3   1 <1>   0.2630 
 18 C       -4.3440    -0.5960     2.3700 C.2   1 <1>   0.5690 
 19 O       -4.4830    -3.8680     0.2550 O.3   1 <1>  -0.3630 
 20 O       -4.9680    -0.6670     3.3960 O.2   1 <1>  -0.5700 
 21 C       -4.1590     0.7610     1.7310 C.3   1 <1>  -0.1790 
 22 C       -4.9970    -4.9100    -0.5470 C.3   1 <1>   0.0400 
 23 H        2.2420    -2.0570    -1.7000 H     1 <1>   0.0800 
 24 H        1.0430    -2.8150    -0.7010 H     1 <1>   0.0800 
 25 H        1.9460     1.1980     0.0240 H     1 <1>   0.0800 
 26 H        2.6210     0.4960    -1.4080 H     1 <1>   0.0800 
 27 H       -1.7910    -0.3270     0.8520 H     1 <1>   0.1500 
 28 H       -1.2250    -2.6430    -2.6650 H     1 <1>   0.1500 
 29 H        3.7710    -2.8840    -0.2730 H     1 <1>   0.0800 
 30 H        2.5550    -3.3260     0.8860 H     1 <1>   0.0800 
 31 H        3.8620     0.6810     1.0720 H     1 <1>   0.0800 
 32 H        4.4110    -0.2660    -0.2780 H     1 <1>   0.0800 
 33 H       -3.0230    -4.1250    -2.0000 H     1 <1>   0.1500 
 34 H        2.5510    -1.1900     1.7910 H     1 <1>   0.4500 
 35 H       -4.2550    -2.5680     2.2170 H     1 <1>   0.3700 
 36 H        5.4040    -1.9650     1.4360 H     1 <1>   0.0800 
 37 H        4.3160    -2.6360     2.6340 H     1 <1>   0.0800 
 38 H        4.7820    -0.9520     2.7220 H     1 <1>   0.0800 
 39 H       -3.2060     1.1670     2.0090 H     1 <1>   0.0800 
 40 H       -4.9290     1.4250     2.0780 H     1 <1>   0.0800 
 41 H       -4.2290     0.6860     0.6630 H     1 <1>   0.0800 
 42 H       -5.8200    -5.3600    -0.0210 H     1 <1>   0.0800 
 43 H       -4.2260    -5.6420    -0.7080 H     1 <1>   0.0800 
 44 H       -5.3430    -4.4980    -1.4780 H     1 <1>   0.0800 
@<TRIPOS>BOND
  1   1   2  2   
  2   1   3  2   
  3   1   4  am  
  4   1   5  1   
  5   4   6  1   
  6   4   7  1   
  7   5   8  ar  
  8   5   9  ar  
  9   6  10  1   
 10   6  23  1   
 11   6  24  1   
 12   7  11  1   
 13   7  25  1   
 14   7  26  1   
 15   8  12  ar  
 16   8  27  1   
 17   9  13  ar  
 18   9  28  1   
 19  10  14  1   
 20  10  29  1   
 21  10  30  1   
 22  11  14  1   
 23  11  31  1   
 24  11  32  1   
 25  12  15  1   
 26  12  16  ar  
 27  13  16  ar  
 28  13  33  1   
 29  14  17  1   
 30  14  34  1   
 31  15  18  am  
 32  15  35  1   
 33  16  19  1   
 34  17  36  1   
 35  17  37  1   
 36  17  38  1   
 37  18  20  2   
 38  18  21  1   
 39  19  22  1   
 40  21  39  1   
 41  21  40  1   
 42  21  41  1   
 43  22  42  1   
 44  22  43  1   
 45  22  44  1   
@<TRIPOS>SUBSTRUCTURE
  1 ****   5 GROUP 4 **** **** 0

# MOE 2024.06 (io_trps.svl 2023.06)
