@<TRIPOS>MOLECULE
NONAME
41 42 1 0 0 
SMALL
USER_CHARGES


@<TRIPOS>ATOM
  1 S        0.1230    -0.1120    -1.7720 S.o2  1 <1>   1.2950 
  2 O       -0.6510    -0.2870    -2.9920 O.2   1 <1>  -0.6500 
  3 O        1.1290     0.9380    -1.8010 O.2   1 <1>  -0.6500 
  4 N       -0.9960     0.1100    -0.3810 N.pl3 1 <1>   0.5840 
  5 C        0.9340    -1.6800    -1.3850 C.ar  1 <1>  -0.0090 
  6 N       -1.7360    -0.9010     0.1910 N.2   1 <1>  -0.7070 
  7 C       -1.3220     1.2870     0.2430 C.2   1 <1>  -0.3320 
  8 C        1.5680    -1.8610    -0.1630 C.ar  1 <1>   0.0830 
  9 C        0.9430    -2.7310    -2.2930 C.ar  1 <1>  -0.1500 
 10 C       -2.4560    -0.3480     1.1090 C.2   1 <1>   0.1080 
 11 C       -2.2440     1.0190     1.1900 C.2   1 <1>  -0.1500 
 12 C       -0.7270     2.6460    -0.0960 C.3   1 <1>  -0.0600 
 13 O        1.5480    -0.8250     0.7100 O.3   1 <1>  -0.3630 
 14 C        2.1920    -3.0700     0.1320 C.ar  1 <1>  -0.1500 
 15 C        1.5590    -3.9400    -2.0070 C.ar  1 <1>  -0.1430 
 16 C       -3.4120    -1.1380     1.9720 C.3   1 <1>  -0.0590 
 17 C        1.7440    -1.0210     2.0900 C.3   1 <1>   0.1200 
 18 C        2.1900    -4.1100    -0.7810 C.ar  1 <1>  -0.1430 
 19 C        1.5260    -5.0500    -3.0480 C.3   1 <1>  -0.0970 
 20 C        1.3720     0.2750     2.8030 C.3   1 <1>  -0.2400 
 21 C        2.8820    -5.4180    -0.4200 C.3   1 <1>  -0.0970 
 22 H        0.4540    -2.5970    -3.2430 H     1 <1>   0.1500 
 23 H       -2.7280     1.6940     1.8740 H     1 <1>   0.1500 
 24 H       -0.8870     2.8800    -1.1340 H     1 <1>   0.0800 
 25 H        0.3310     2.6500     0.1020 H     1 <1>   0.0800 
 26 H       -1.1860     3.4140     0.5010 H     1 <1>   0.0800 
 27 H        2.6900    -3.2070     1.0720 H     1 <1>   0.1500 
 28 H       -4.1490    -1.6110     1.3500 H     1 <1>   0.0800 
 29 H       -3.9050    -0.4940     2.6760 H     1 <1>   0.0800 
 30 H       -2.8700    -1.8960     2.5070 H     1 <1>   0.0800 
 31 H        2.7790    -1.2650     2.2570 H     1 <1>   0.0800 
 32 H        1.1100    -1.8290     2.4150 H     1 <1>   0.0800 
 33 H        0.9920    -4.7380    -3.9290 H     1 <1>   0.0800 
 34 H        1.0340    -5.9170    -2.6470 H     1 <1>   0.0800 
 35 H        2.5260    -5.3150    -3.3370 H     1 <1>   0.0800 
 36 H        1.9830     1.0830     2.4440 H     1 <1>   0.0800 
 37 H        1.5310     0.1670     3.8610 H     1 <1>   0.0800 
 38 H        0.3350     0.5030     2.6350 H     1 <1>   0.0800 
 39 H        3.3160    -5.3690     0.5620 H     1 <1>   0.0800 
 40 H        3.6660    -5.6260    -1.1250 H     1 <1>   0.0800 
 41 H        2.1720    -6.2250    -0.4350 H     1 <1>   0.0800 
@<TRIPOS>BOND
  1   1   2  2   
  2   1   3  2   
  3   1   4  1   
  4   1   5  1   
  5   4   6  1   
  6   4   7  1   
  7   5   8  ar  
  8   5   9  ar  
  9   6  10  2   
 10   7  11  2   
 11   7  12  1   
 12   8  13  1   
 13   8  14  ar  
 14   9  15  ar  
 15   9  22  1   
 16  10  11  1   
 17  10  16  1   
 18  11  23  1   
 19  12  24  1   
 20  12  25  1   
 21  12  26  1   
 22  13  17  1   
 23  14  18  ar  
 24  14  27  1   
 25  15  18  ar  
 26  15  19  1   
 27  16  28  1   
 28  16  29  1   
 29  16  30  1   
 30  17  20  1   
 31  17  31  1   
 32  17  32  1   
 33  18  21  1   
 34  19  33  1   
 35  19  34  1   
 36  19  35  1   
 37  20  36  1   
 38  20  37  1   
 39  20  38  1   
 40  21  39  1   
 41  21  40  1   
 42  21  41  1   
@<TRIPOS>SUBSTRUCTURE
  1 ****   5 GROUP 4 **** **** 0

# MOE 2024.06 (io_trps.svl 2023.06)
