@<TRIPOS>MOLECULE
NONAME
33 34 1 0 0 
SMALL
USER_CHARGES


@<TRIPOS>ATOM
  1 BR       0.8800     0.3990    -0.7700 Br    1 <1>  -0.1110 
  2 C        0.3340    -1.4310    -0.4910 C.ar  1 <1>   0.1110 
  3 C        1.1420    -2.2990     0.2250 C.ar  1 <1>   0.0830 
  4 C       -0.8770    -1.8290    -1.0230 C.ar  1 <1>  -0.1500 
  5 O        2.3200    -1.9000     0.7460 O.3   1 <1>  -0.5330 
  6 C        0.7260    -3.6150     0.4080 C.ar  1 <1>   0.0830 
  7 C       -1.3030    -3.1370    -0.8300 C.ar  1 <1>  -0.1430 
  8 O        1.5580    -4.4370     1.1090 O.3   1 <1>  -0.3630 
  9 C       -0.4970    -4.0250    -0.1220 C.ar  1 <1>  -0.1500 
 10 C       -2.6430    -3.5840    -1.3840 C.3   1 <1>   0.4860 
 11 C        1.3390    -5.8290     1.1810 C.3   1 <1>   0.0400 
 12 N       -3.6410    -3.5610    -0.2810 N.4   1 <1>  -0.9590 
 13 C       -4.9680    -4.0990    -0.6610 C.3   1 <1>   0.3430 
 14 C       -3.8870    -2.2080     0.2750 C.3   1 <1>   0.3430 
 15 C       -5.9090    -3.5650     0.4100 C.3   1 <1>  -0.1600 
 16 C       -5.2120    -2.3400     1.0130 C.3   1 <1>  -0.1600 
 17 H       -1.4590    -1.1120    -1.5760 H     1 <1>   0.1500 
 18 H        2.7550    -2.6460     1.2060 H     1 <1>   0.4500 
 19 H       -0.8250    -5.0390     0.0160 H     1 <1>   0.1500 
 20 H       -2.5510    -4.5820    -1.7810 H     1 <1>   0.0800 
 21 H       -2.9510    -2.9260    -2.1800 H     1 <1>   0.0800 
 22 H        2.1640    -6.2700     1.7130 H     1 <1>   0.0800 
 23 H        1.2960    -6.2300     0.1840 H     1 <1>   0.0800 
 24 H        0.4250    -6.0150     1.7160 H     1 <1>   0.0800 
 25 H       -3.2710    -4.1300     0.4900 H     1 <1>   0.4500 
 26 H       -4.9720    -5.1780    -0.6930 H     1 <1>   0.0800 
 27 H       -5.2620    -3.7090    -1.6220 H     1 <1>   0.0800 
 28 H       -3.9910    -1.4940    -0.5270 H     1 <1>   0.0800 
 29 H       -3.0900    -1.8940     0.9310 H     1 <1>   0.0800 
 30 H       -6.0670    -4.3160     1.1660 H     1 <1>   0.0800 
 31 H       -6.8630    -3.3100    -0.0200 H     1 <1>   0.0800 
 32 H       -5.7990    -1.4460     0.8930 H     1 <1>   0.0800 
 33 H       -5.0300    -2.4890     2.0630 H     1 <1>   0.0800 
@<TRIPOS>BOND
  1   1   2  1   
  2   2   3  ar  
  3   2   4  ar  
  4   3   5  1   
  5   3   6  ar  
  6   4   7  ar  
  7   4  17  1   
  8   5  18  1   
  9   6   8  1   
 10   6   9  ar  
 11   7   9  ar  
 12   7  10  1   
 13   8  11  1   
 14   9  19  1   
 15  10  12  1   
 16  10  20  1   
 17  10  21  1   
 18  11  22  1   
 19  11  23  1   
 20  11  24  1   
 21  12  13  1   
 22  12  14  1   
 23  12  25  1   
 24  13  15  1   
 25  13  26  1   
 26  13  27  1   
 27  14  16  1   
 28  14  28  1   
 29  14  29  1   
 30  15  16  1   
 31  15  30  1   
 32  15  31  1   
 33  16  32  1   
 34  16  33  1   
@<TRIPOS>SUBSTRUCTURE
  1 ****   7 GROUP 4 **** **** 0

# MOE 2024.06 (io_trps.svl 2023.06)
