@<TRIPOS>MOLECULE
NONAME
49 50 1 0 0 
SMALL
USER_CHARGES


@<TRIPOS>ATOM
  1 P       -0.4690     0.2770    -0.2440 P.3   1 <1>   0.9780 
  2 O        0.1650     0.9660    -1.3610 O.2   1 <1>  -0.7000 
  3 C       -1.5500     1.3320     0.7180 C.ar  1 <1>  -0.1390 
  4 C       -1.4510    -1.1300    -0.7540 C.ar  1 <1>  -0.1390 
  5 C        0.6950    -0.3930     0.9320 C.3   1 <1>  -0.1600 
  6 C       -2.9390     1.2260     0.6730 C.ar  1 <1>  -0.1500 
  7 C       -1.0310     2.3300     1.5380 C.ar  1 <1>  -0.1500 
  8 C       -1.5810    -1.4500    -2.1000 C.ar  1 <1>  -0.1500 
  9 C       -2.1170    -1.9520     0.1520 C.ar  1 <1>  -0.1500 
 10 C        2.0090    -1.0520     0.4320 C.3   1 <1>  -0.0800 
 11 C       -3.7630     2.0430     1.4270 C.ar  1 <1>  -0.1500 
 12 C       -1.8420     3.1540     2.2980 C.ar  1 <1>  -0.1500 
 13 C       -2.3270    -2.5340    -2.5280 C.ar  1 <1>  -0.1500 
 14 C       -2.8660    -3.0400    -0.2610 C.ar  1 <1>  -0.1500 
 15 P        3.4080     0.0680     0.3260 P.3   1 <1>   0.7000 
 16 C        1.7650    -1.9580    -0.7920 C.3   1 <1>  -0.2400 
 17 C       -3.2150     3.0090     2.2470 C.ar  1 <1>  -0.1500 
 18 C       -2.9720    -3.3350    -1.6060 C.ar  1 <1>  -0.1500 
 19 O        3.5750     0.8060     1.5710 O.2   1 <1>  -0.7000 
 20 C        4.7950    -0.9980    -0.0170 C.3   1 <1>  -0.1600 
 21 C        3.2000     1.1320    -1.0870 C.3   1 <1>  -0.1600 
 22 C        6.1760    -0.4420     0.3690 C.3   1 <1>  -0.2400 
 23 C        4.4200     1.9670    -1.5030 C.3   1 <1>  -0.2400 
 24 H        0.1910    -1.1220     1.5380 H     1 <1>   0.0800 
 25 H        0.9880     0.3730     1.6240 H     1 <1>   0.0800 
 26 H       -3.4030     0.4960     0.0320 H     1 <1>   0.1500 
 27 H        0.0350     2.4810     1.5850 H     1 <1>   0.1500 
 28 H       -1.0870    -0.8350    -2.8360 H     1 <1>   0.1500 
 29 H       -2.0620    -1.7420     1.2070 H     1 <1>   0.1500 
 30 H        2.2670    -1.7350     1.2230 H     1 <1>   0.0800 
 31 H       -4.8310     1.9290     1.3710 H     1 <1>   0.1500 
 32 H       -1.4040     3.9110     2.9240 H     1 <1>   0.1500 
 33 H       -2.4040    -2.7530    -3.5790 H     1 <1>   0.1500 
 34 H       -3.3690    -3.6560     0.4650 H     1 <1>   0.1500 
 35 H        1.5300    -1.3800    -1.6690 H     1 <1>   0.0800 
 36 H        0.9540    -2.6400    -0.6030 H     1 <1>   0.0800 
 37 H        2.6390    -2.5470    -1.0070 H     1 <1>   0.0800 
 38 H       -3.8510     3.6470     2.8360 H     1 <1>   0.1500 
 39 H       -3.5540    -4.1790    -1.9330 H     1 <1>   0.1500 
 40 H        4.8210    -1.2730    -1.0560 H     1 <1>   0.0800 
 41 H        4.6850    -1.9130     0.5350 H     1 <1>   0.0800 
 42 H        2.4210     1.8400    -0.8740 H     1 <1>   0.0800 
 43 H        2.8790     0.5790    -1.9500 H     1 <1>   0.0800 
 44 H        6.4020     0.4570    -0.1730 H     1 <1>   0.0800 
 45 H        6.9420    -1.1680     0.1610 H     1 <1>   0.0800 
 46 H        6.1970    -0.2130     1.4210 H     1 <1>   0.0800 
 47 H        4.8060     2.5070    -0.6560 H     1 <1>   0.0800 
 48 H        4.1360     2.6770    -2.2600 H     1 <1>   0.0800 
 49 H        5.1930     1.3380    -1.9060 H     1 <1>   0.0800 
@<TRIPOS>BOND
  1   1   2  2   
  2   1   3  1   
  3   1   4  1   
  4   1   5  1   
  5   3   6  ar  
  6   3   7  ar  
  7   4   8  ar  
  8   4   9  ar  
  9   5  10  1   
 10   5  24  1   
 11   5  25  1   
 12   6  11  ar  
 13   6  26  1   
 14   7  12  ar  
 15   7  27  1   
 16   8  13  ar  
 17   8  28  1   
 18   9  14  ar  
 19   9  29  1   
 20  10  15  1   
 21  10  16  1   
 22  10  30  1   
 23  11  17  ar  
 24  11  31  1   
 25  12  17  ar  
 26  12  32  1   
 27  13  18  ar  
 28  13  33  1   
 29  14  18  ar  
 30  14  34  1   
 31  15  19  2   
 32  15  20  1   
 33  15  21  1   
 34  16  35  1   
 35  16  36  1   
 36  16  37  1   
 37  17  38  1   
 38  18  39  1   
 39  20  22  1   
 40  20  40  1   
 41  20  41  1   
 42  21  23  1   
 43  21  42  1   
 44  21  43  1   
 45  22  44  1   
 46  22  45  1   
 47  22  46  1   
 48  23  47  1   
 49  23  48  1   
 50  23  49  1   
@<TRIPOS>SUBSTRUCTURE
  1 ****   1 GROUP 4 **** **** 0

# MOE 2024.06 (io_trps.svl 2023.06)
