@<TRIPOS>MOLECULE
NONAME
53 56 1 0 0 
SMALL
USER_CHARGES


@<TRIPOS>ATOM
  1 O        0.2070    -0.8560    -0.3950 O.2   1 <1>  -0.5740 
  2 C        0.8460    -1.8080     0.0050 C.2   1 <1>   0.6860 
  3 N        0.2030    -2.8290     0.6900 N.am  1 <1>  -0.4250 
  4 N        2.2140    -1.8750    -0.2270 N.am  1 <1>  -0.4410 
  5 C        0.8980    -3.9340     1.1540 C.2   1 <1>   0.7000 
  6 C       -1.2880    -2.9500     0.5520 C.3   1 <1>   0.1940 
  7 C        2.8840    -3.0130     0.1810 C.2   1 <1>   0.4210 
  8 C        2.9170    -0.7880    -0.9690 C.3   1 <1>   0.0530 
  9 O        0.3290    -4.7950     1.8050 O.2   1 <1>  -0.5740 
 10 C        2.2920    -4.0250     0.8500 C.2   1 <1>   0.2710 
 11 C       -1.6670    -3.7540    -0.6880 C.2   1 <1>   0.6550 
 12 N        4.1990    -3.3230     0.0010 N.pl3 1 <1>  -0.7030 
 13 N        3.2960    -4.9790     1.0780 N.pl3 1 <1>  -0.7670 
 14 O       -0.8330    -4.2980    -1.3720 O.2   1 <1>  -0.5740 
 15 O       -2.9640    -3.8220    -0.9600 O.3   1 <1>  -0.4350 
 16 C        4.4250    -4.5170     0.5490 C.cat 1 <1>   1.0690 
 17 C        3.1470    -6.2830     1.7510 C.3   1 <1>   0.3480 
 18 C       -3.4550    -4.5330    -2.0780 C.3   1 <1>   0.0320 
 19 N        5.5870    -5.2000     0.5960 N.pl3 1 <1>  -0.5960 
 20 C        4.2570    -7.2100     1.2540 C.3   1 <1>  -0.1670 
 21 C        6.9000    -4.7170     0.0820 C.3   1 <1>   0.2410 
 22 C        5.6350    -6.5330     1.2670 C.3   1 <1>   0.1610 
 23 C        7.3530    -3.4400     0.8080 C.3   1 <1>  -0.1670 
 24 C        6.8680    -4.5460    -1.4460 C.3   1 <1>  -0.1670 
 25 C        8.7060    -2.9580     0.2680 C.3   1 <1>  -0.1670 
 26 C        8.2240    -4.0530    -1.9670 C.3   1 <1>  -0.1670 
 27 C        8.6620    -2.7670    -1.2540 C.3   1 <1>  -0.1670 
 28 H       -1.7380    -1.9760     0.4840 H     1 <1>   0.0730 
 29 H       -1.6990    -3.4360     1.4180 H     1 <1>   0.0730 
 30 H        2.3810     0.1410    -0.8740 H     1 <1>   0.0730 
 31 H        2.9780    -1.0440    -2.0130 H     1 <1>   0.0730 
 32 H        3.9070    -0.6440    -0.5760 H     1 <1>   0.0730 
 33 H        4.9100    -2.7780    -0.4780 H     1 <1>   0.4450 
 34 H        2.1820    -6.7090     1.5280 H     1 <1>   0.0730 
 35 H        3.2220    -6.1430     2.8170 H     1 <1>   0.0730 
 36 H       -4.5270    -4.4520    -2.0890 H     1 <1>   0.0730 
 37 H       -3.1620    -5.5650    -1.9920 H     1 <1>   0.0730 
 38 H       -3.0420    -4.1020    -2.9740 H     1 <1>   0.0730 
 39 H        4.0280    -7.5310     0.2520 H     1 <1>   0.0730 
 40 H        4.2840    -8.0930     1.8690 H     1 <1>   0.0730 
 41 H        7.6440    -5.4680     0.2920 H     1 <1>   0.0730 
 42 H        5.9720    -6.4010     2.2820 H     1 <1>   0.0730 
 43 H        6.3390    -7.1740     0.7600 H     1 <1>   0.0730 
 44 H        7.4530    -3.6410     1.8610 H     1 <1>   0.0730 
 45 H        6.6460    -2.6430     0.6800 H     1 <1>   0.0730 
 46 H        6.1210    -3.8370    -1.7450 H     1 <1>   0.0730 
 47 H        6.6430    -5.4920    -1.9090 H     1 <1>   0.0730 
 48 H        9.4690    -3.6780     0.5110 H     1 <1>   0.0730 
 49 H        8.9760    -2.0280     0.7390 H     1 <1>   0.0730 
 50 H        8.1620    -3.8720    -3.0270 H     1 <1>   0.0730 
 51 H        8.9700    -4.8150    -1.8110 H     1 <1>   0.0730 
 52 H        9.6390    -2.4810    -1.6050 H     1 <1>   0.0730 
 53 H        7.9830    -1.9680    -1.4990 H     1 <1>   0.0730 
@<TRIPOS>BOND
  1   1   2  2   
  2   2   3  am  
  3   2   4  am  
  4   3   5  am  
  5   3   6  1   
  6   4   7  1   
  7   4   8  1   
  8   5   9  2   
  9   5  10  1   
 10   6  11  1   
 11   6  28  1   
 12   6  29  1   
 13   7  10  2   
 14   7  12  1   
 15   8  30  1   
 16   8  31  1   
 17   8  32  1   
 18  10  13  1   
 19  11  14  2   
 20  11  15  1   
 21  12  16  ar  
 22  12  33  1   
 23  13  16  ar  
 24  13  17  1   
 25  15  18  1   
 26  16  19  ar  
 27  17  20  1   
 28  17  34  1   
 29  17  35  1   
 30  18  36  1   
 31  18  37  1   
 32  18  38  1   
 33  19  21  1   
 34  19  22  1   
 35  20  22  1   
 36  20  39  1   
 37  20  40  1   
 38  21  23  1   
 39  21  24  1   
 40  21  41  1   
 41  22  42  1   
 42  22  43  1   
 43  23  25  1   
 44  23  44  1   
 45  23  45  1   
 46  24  26  1   
 47  24  46  1   
 48  24  47  1   
 49  25  27  1   
 50  25  48  1   
 51  25  49  1   
 52  26  27  1   
 53  26  50  1   
 54  26  51  1   
 55  27  52  1   
 56  27  53  1   
@<TRIPOS>SUBSTRUCTURE
  1 ****   7 GROUP 4 **** **** 0

# MOE 2024.06 (io_trps.svl 2023.06)
