@<TRIPOS>MOLECULE
NONAME
45 45 1 0 0 
SMALL
USER_CHARGES


@<TRIPOS>ATOM
  1 N        0.0730     0.0520     0.2990 N.4   1 <1>  -0.9590 
  2 C       -1.1540    -0.7960     0.0500 C.3   1 <1>   0.3430 
  3 C        1.2990    -0.8090     0.2970 C.3   1 <1>   0.3430 
  4 C        0.0060     0.8470     1.5640 C.3   1 <1>   0.3430 
  5 C       -2.4740     0.0010    -0.1700 C.3   1 <1>   0.3430 
  6 C        2.5370     0.0470     0.0340 C.3   1 <1>  -0.1600 
  7 C       -0.3140     2.2950     1.2160 C.3   1 <1>  -0.2400 
  8 N       -3.6930    -0.8540    -0.4330 N.4   1 <1>  -0.9590 
  9 C        3.8060    -0.8120    -0.0370 C.3   1 <1>  -0.0170 
 10 C       -3.6290    -1.6150    -1.7280 C.3   1 <1>   0.2630 
 11 C       -4.9310    -0.0020    -0.4370 C.3   1 <1>   0.2630 
 12 C        5.0020     0.0850    -0.2960 C.ar  1 <1>  -0.1440 
 13 C        5.7200     0.6200     0.7630 C.ar  1 <1>  -0.1500 
 14 C        5.3810     0.3870    -1.5960 C.ar  1 <1>  -0.1500 
 15 C        6.8010     1.4500     0.5260 C.ar  1 <1>  -0.1500 
 16 C        6.4620     1.2170    -1.8330 C.ar  1 <1>  -0.1500 
 17 C        7.1720     1.7510    -0.7730 C.ar  1 <1>  -0.1500 
 18 H        0.2120     0.7240    -0.4730 H     1 <1>   0.4500 
 19 H       -1.2880    -1.4600     0.8880 H     1 <1>   0.0800 
 20 H       -0.9780    -1.3990    -0.8250 H     1 <1>   0.0800 
 21 H        1.2260    -1.5500    -0.4830 H     1 <1>   0.0800 
 22 H        1.3990    -1.3230     1.2410 H     1 <1>   0.0800 
 23 H        0.9570     0.8200     2.0750 H     1 <1>   0.0800 
 24 H       -0.7370     0.4450     2.2330 H     1 <1>   0.0800 
 25 H       -2.3380     0.6730    -1.0020 H     1 <1>   0.0800 
 26 H       -2.6580     0.5950     0.7100 H     1 <1>   0.0800 
 27 H        2.6720     0.7740     0.8150 H     1 <1>   0.0800 
 28 H        2.4310     0.5670    -0.9020 H     1 <1>   0.0800 
 29 H        0.4560     2.7150     0.5920 H     1 <1>   0.0800 
 30 H       -0.3440     2.8730     2.1230 H     1 <1>   0.0800 
 31 H       -1.2670     2.3960     0.7330 H     1 <1>   0.0800 
 32 H       -3.8210    -1.5390     0.3330 H     1 <1>   0.4500 
 33 H        3.7290    -1.5390    -0.8270 H     1 <1>   0.0800 
 34 H        3.9540    -1.3440     0.8880 H     1 <1>   0.0800 
 35 H       -3.5290    -0.9370    -2.5610 H     1 <1>   0.0800 
 36 H       -4.5330    -2.1890    -1.8680 H     1 <1>   0.0800 
 37 H       -2.7950    -2.2970    -1.7330 H     1 <1>   0.0800 
 38 H       -4.8860     0.7290    -1.2290 H     1 <1>   0.0800 
 39 H       -5.0400     0.5150     0.5030 H     1 <1>   0.0800 
 40 H       -5.8070    -0.6140    -0.5890 H     1 <1>   0.0800 
 41 H        5.4470     0.3950     1.7790 H     1 <1>   0.1500 
 42 H        4.8420    -0.0210    -2.4320 H     1 <1>   0.1500 
 43 H        7.3560     1.8620     1.3510 H     1 <1>   0.1500 
 44 H        6.7530     1.4480    -2.8430 H     1 <1>   0.1500 
 45 H        8.0130     2.3960    -0.9570 H     1 <1>   0.1500 
@<TRIPOS>BOND
  1   1   2  1   
  2   1   3  1   
  3   1   4  1   
  4   1  18  1   
  5   2   5  1   
  6   2  19  1   
  7   2  20  1   
  8   3   6  1   
  9   3  21  1   
 10   3  22  1   
 11   4   7  1   
 12   4  23  1   
 13   4  24  1   
 14   5   8  1   
 15   5  25  1   
 16   5  26  1   
 17   6   9  1   
 18   6  27  1   
 19   6  28  1   
 20   7  29  1   
 21   7  30  1   
 22   7  31  1   
 23   8  10  1   
 24   8  11  1   
 25   8  32  1   
 26   9  12  1   
 27   9  33  1   
 28   9  34  1   
 29  10  35  1   
 30  10  36  1   
 31  10  37  1   
 32  11  38  1   
 33  11  39  1   
 34  11  40  1   
 35  12  13  ar  
 36  12  14  ar  
 37  13  15  ar  
 38  13  41  1   
 39  14  16  ar  
 40  14  42  1   
 41  15  17  ar  
 42  15  43  1   
 43  16  17  ar  
 44  16  44  1   
 45  17  45  1   
@<TRIPOS>SUBSTRUCTURE
  1 ****   6 GROUP 4 **** **** 0

# MOE 2024.06 (io_trps.svl 2023.06)
