@<TRIPOS>MOLECULE
NONAME
45 47 1 0 0 
SMALL
USER_CHARGES


@<TRIPOS>ATOM
  1 O        2.6330    -0.3980     2.3230 O.3   1 <1>  -0.3630 
  2 C        1.8660    -1.3940     1.7830 C.ar  1 <1>   0.0830 
  3 C        2.1780     0.3680     3.4200 C.3   1 <1>   0.0400 
  4 C        2.4820    -2.2730     0.8500 C.ar  1 <1>   0.3100 
  5 C        0.5380    -1.5520     2.1180 C.ar  1 <1>  -0.1500 
  6 N        3.7940    -2.0910     0.5410 N.ar  1 <1>  -0.6200 
  7 C        1.7070    -3.3080     0.2690 C.ar  1 <1>   0.0000 
  8 C       -0.2170    -2.5750     1.5470 C.ar  1 <1>  -0.1500 
  9 C        4.3410    -2.8930    -0.3230 C.ar  1 <1>   0.4100 
 10 C        2.3350    -4.1670    -0.6640 C.ar  1 <1>  -0.1440 
 11 C        0.3540    -3.4300     0.6450 C.ar  1 <1>  -0.1500 
 12 N        5.6600    -2.6470    -0.6420 N.pl3 1 <1>  -0.8380 
 13 C        3.6460    -3.9420    -0.9440 C.ar  1 <1>  -0.1500 
 14 C        1.5850    -5.3090    -1.3360 C.3   1 <1>  -0.0970 
 15 C        6.6670    -2.4010     0.4460 C.3   1 <1>   0.2090 
 16 C        6.0160    -2.1760    -2.0030 C.3   1 <1>   0.2090 
 17 C        6.6290    -0.9630     1.0190 C.3   1 <1>   0.3430 
 18 C        5.6610    -0.6940    -2.1740 C.3   1 <1>  -0.1600 
 19 N        5.7670    -0.0530     0.2050 N.4   1 <1>  -0.9590 
 20 C        6.3000     0.2430    -1.1460 C.3   1 <1>   0.3430 
 21 C        5.2900     1.1340     0.9610 C.3   1 <1>   0.2630 
 22 H        2.9790     1.0100     3.7400 H     1 <1>   0.0800 
 23 H        1.9030    -0.2960     4.2210 H     1 <1>   0.0800 
 24 H        1.3370     0.9620     3.1080 H     1 <1>   0.0800 
 25 H        0.0400    -0.9050     2.8150 H     1 <1>   0.1500 
 26 H       -1.2520    -2.6820     1.8240 H     1 <1>   0.1500 
 27 H       -0.2450    -4.2120     0.2160 H     1 <1>   0.1500 
 28 H        4.1910    -4.5560    -1.6350 H     1 <1>   0.1500 
 29 H        1.2190    -5.9970    -0.5950 H     1 <1>   0.0800 
 30 H        2.2280    -5.8490    -2.0070 H     1 <1>   0.0800 
 31 H        0.7540    -4.9250    -1.9010 H     1 <1>   0.0800 
 32 H        7.6540    -2.6100     0.0720 H     1 <1>   0.0800 
 33 H        6.4840    -3.0930     1.2500 H     1 <1>   0.0800 
 34 H        5.4760    -2.7570    -2.7330 H     1 <1>   0.0800 
 35 H        7.0670    -2.3320    -2.1770 H     1 <1>   0.0800 
 36 H        7.6270    -0.5700     1.1000 H     1 <1>   0.0800 
 37 H        6.2190    -1.0270     2.0130 H     1 <1>   0.0800 
 38 H        4.5910    -0.5780    -2.1520 H     1 <1>   0.0800 
 39 H        5.9860    -0.3890    -3.1520 H     1 <1>   0.0800 
 40 H        4.9360    -0.6770     0.0490 H     1 <1>   0.4500 
 41 H        6.0610     1.2590    -1.4110 H     1 <1>   0.0800 
 42 H        7.3720     0.1340    -1.1560 H     1 <1>   0.0800 
 43 H        6.1150     1.7820     1.2060 H     1 <1>   0.0800 
 44 H        4.8070     0.8170     1.8710 H     1 <1>   0.0800 
 45 H        4.5730     1.6830     0.3730 H     1 <1>   0.0800 
@<TRIPOS>BOND
  1   1   2  1   
  2   1   3  1   
  3   2   4  ar  
  4   2   5  ar  
  5   3  22  1   
  6   3  23  1   
  7   3  24  1   
  8   4   6  ar  
  9   4   7  ar  
 10   5   8  ar  
 11   5  25  1   
 12   6   9  ar  
 13   7  10  ar  
 14   7  11  ar  
 15   8  11  ar  
 16   8  26  1   
 17   9  12  1   
 18   9  13  ar  
 19  10  13  ar  
 20  10  14  1   
 21  11  27  1   
 22  12  15  1   
 23  12  16  1   
 24  13  28  1   
 25  14  29  1   
 26  14  30  1   
 27  14  31  1   
 28  15  17  1   
 29  15  32  1   
 30  15  33  1   
 31  16  18  1   
 32  16  34  1   
 33  16  35  1   
 34  17  19  1   
 35  17  36  1   
 36  17  37  1   
 37  18  20  1   
 38  18  38  1   
 39  18  39  1   
 40  19  20  1   
 41  19  21  1   
 42  19  40  1   
 43  20  41  1   
 44  20  42  1   
 45  21  43  1   
 46  21  44  1   
 47  21  45  1   
@<TRIPOS>SUBSTRUCTURE
  1 ****   6 GROUP 4 **** **** 0

# MOE 2024.06 (io_trps.svl 2023.06)
