@<TRIPOS>MOLECULE
NONAME
28 28 1 0 0 
SMALL
USER_CHARGES


@<TRIPOS>ATOM
  1 CL      -0.5650    -0.0930     0.0010 Cl    1 <1>  -0.1770 
  2 C       -0.3510     1.6440     0.0010 C.ar  1 <1>   0.1770 
  3 C       -1.4660     2.4810     0.0030 C.ar  1 <1>   0.0830 
  4 C        0.9350     2.1480    -0.0010 C.ar  1 <1>  -0.1500 
  5 O       -2.6960     1.9000     0.0050 O.3   1 <1>  -0.3630 
  6 C       -1.2710     3.8630     0.0030 C.ar  1 <1>  -0.1500 
  7 C        1.1020     3.5190    -0.0010 C.ar  1 <1>   0.1770 
  8 C       -3.8850     2.6480     0.0060 C.3   1 <1>   0.1200 
  9 C        0.0170     4.3780     0.0010 C.ar  1 <1>  -0.1500 
 10 CL       2.7160     4.1820    -0.0030 Cl    1 <1>  -0.1770 
 11 C       -5.0370     1.6390     0.0080 C.3   1 <1>   0.3430 
 12 N       -6.3740     2.3080     0.0100 N.4   1 <1>  -0.9060 
 13 C       -7.4800     1.3260     0.0110 C.3   1 <1>   0.3430 
 14 C       -8.7930     2.0930     0.0140 C.3   1 <1>  -0.2400 
 15 H        1.7840     1.4900    -0.0020 H     1 <1>   0.1500 
 16 H       -2.0940     4.5520     0.0040 H     1 <1>   0.1500 
 17 H       -3.8990     3.2550    -0.8820 H     1 <1>   0.0800 
 18 H       -3.8970     3.2550     0.8950 H     1 <1>   0.0800 
 19 H        0.1870     5.4410     0.0010 H     1 <1>   0.1500 
 20 H       -4.9450     1.0150     0.8820 H     1 <1>   0.0800 
 21 H       -4.9470     1.0150    -0.8670 H     1 <1>   0.0800 
 22 H       -6.4730     2.9110    -0.8180 H     1 <1>   0.4500 
 23 H       -6.4710     2.9110     0.8370 H     1 <1>   0.4500 
 24 H       -7.4220     0.6980     0.8880 H     1 <1>   0.0800 
 25 H       -7.4250     0.6980    -0.8650 H     1 <1>   0.0800 
 26 H       -8.8830     2.7050     0.8940 H     1 <1>   0.0800 
 27 H       -9.6110     1.3940     0.0150 H     1 <1>   0.0800 
 28 H       -8.8860     2.7050    -0.8660 H     1 <1>   0.0800 
@<TRIPOS>BOND
  1   1   2  1   
  2   2   3  ar  
  3   2   4  ar  
  4   3   5  1   
  5   3   6  ar  
  6   4   7  ar  
  7   4  15  1   
  8   5   8  1   
  9   6   9  ar  
 10   6  16  1   
 11   7   9  ar  
 12   7  10  1   
 13   8  11  1   
 14   8  17  1   
 15   8  18  1   
 16   9  19  1   
 17  11  12  1   
 18  11  20  1   
 19  11  21  1   
 20  12  13  1   
 21  12  22  1   
 22  12  23  1   
 23  13  14  1   
 24  13  24  1   
 25  13  25  1   
 26  14  26  1   
 27  14  27  1   
 28  14  28  1   
@<TRIPOS>SUBSTRUCTURE
  1 ****   5 GROUP 4 **** **** 0

# MOE 2024.06 (io_trps.svl 2023.06)
