@<TRIPOS>MOLECULE
NONAME
50 52 1 0 0 
SMALL
USER_CHARGES


@<TRIPOS>ATOM
  1 F       -0.0130    -2.2650     1.9660 F     1 <1>  -0.1900 
  2 C       -1.0230    -2.0910     1.1440 C.ar  1 <1>   0.1900 
  3 C       -0.9990    -2.7010    -0.1160 C.ar  1 <1>   0.1000 
  4 C       -2.0700    -1.3010     1.5760 C.ar  1 <1>  -0.1500 
  5 N        0.0440    -3.5100    -0.5920 N.pl3 1 <1>  -0.8380 
  6 C       -2.0940    -2.4790    -0.9400 C.ar  1 <1>  -0.1500 
  7 C       -3.1470    -1.1000     0.7290 C.ar  1 <1>  -0.1500 
  8 C        1.3190    -2.8300    -0.9790 C.3   1 <1>   0.2090 
  9 C        0.1760    -4.8770    -0.0030 C.3   1 <1>   0.2090 
 10 C       -3.1550    -1.6900    -0.5260 C.ar  1 <1>  -0.1500 
 11 C        2.4010    -2.9470     0.1150 C.3   1 <1>   0.3430 
 12 C        1.2840    -4.9480     1.0710 C.3   1 <1>   0.3430 
 13 N        2.5900    -4.3620     0.6050 N.4   1 <1>  -0.9590 
 14 C        3.6360    -4.4380     1.6590 C.3   1 <1>   0.4860 
 15 C        4.9620    -4.0320     1.0440 C.ar  1 <1>  -0.1430 
 16 C        5.7030    -4.9010     0.2480 C.ar  1 <1>  -0.1430 
 17 C        5.4320    -2.7490     1.2840 C.ar  1 <1>  -0.1500 
 18 C        6.8900    -4.4580    -0.3130 C.ar  1 <1>  -0.1500 
 19 C        5.2640    -6.3350    -0.0280 C.3   1 <1>  -0.0970 
 20 C        6.6180    -2.3080     0.7250 C.ar  1 <1>  -0.1430 
 21 C        7.3540    -3.1660    -0.0840 C.ar  1 <1>   0.0830 
 22 C        7.1130    -0.8950     1.0010 C.3   1 <1>  -0.0970 
 23 O        8.5100    -2.6900    -0.6170 O.3   1 <1>  -0.3620 
 24 C        9.3850    -3.5090    -1.3610 C.3   1 <1>   0.0400 
 25 H       -2.0460    -0.8510     2.5520 H     1 <1>   0.1500 
 26 H       -2.1100    -2.9320    -1.9150 H     1 <1>   0.1500 
 27 H       -3.9770    -0.4880     1.0430 H     1 <1>   0.1500 
 28 H        1.1240    -1.7880    -1.1720 H     1 <1>   0.0800 
 29 H        1.6830    -3.2630    -1.8940 H     1 <1>   0.0800 
 30 H        0.3920    -5.5760    -0.7920 H     1 <1>   0.0800 
 31 H       -0.7630    -5.1680     0.4370 H     1 <1>   0.0800 
 32 H       -3.9940    -1.5330    -1.1840 H     1 <1>   0.1500 
 33 H        2.1160    -2.3150     0.9390 H     1 <1>   0.0800 
 34 H        3.3310    -2.5690    -0.2790 H     1 <1>   0.0800 
 35 H        1.4230    -5.9780     1.3570 H     1 <1>   0.0800 
 36 H        0.9400    -4.4120     1.9400 H     1 <1>   0.0800 
 37 H        2.9380    -4.9040    -0.1940 H     1 <1>   0.4500 
 38 H        3.7110    -5.4420     2.0410 H     1 <1>   0.0800 
 39 H        3.3910    -3.7790     2.4760 H     1 <1>   0.0800 
 40 H        4.8770    -2.0760     1.9150 H     1 <1>   0.1500 
 41 H        7.4550    -5.1290    -0.9310 H     1 <1>   0.1500 
 42 H        4.4510    -6.3540    -0.7300 H     1 <1>   0.0800 
 43 H        4.9680    -6.8260     0.8810 H     1 <1>   0.0800 
 44 H        6.0760    -6.9040    -0.4480 H     1 <1>   0.0800 
 45 H        6.4360    -0.3550     1.6370 H     1 <1>   0.0800 
 46 H        7.2190    -0.3570     0.0760 H     1 <1>   0.0800 
 47 H        8.0740    -0.9360     1.4830 H     1 <1>   0.0800 
 48 H       10.2420    -2.9190    -1.6340 H     1 <1>   0.0800 
 49 H        8.8790    -3.8470    -2.2470 H     1 <1>   0.0800 
 50 H        9.6940    -4.3380    -0.7490 H     1 <1>   0.0800 
@<TRIPOS>BOND
  1   1   2  1   
  2   2   3  ar  
  3   2   4  ar  
  4   3   5  1   
  5   3   6  ar  
  6   4   7  ar  
  7   4  25  1   
  8   5   8  1   
  9   5   9  1   
 10   6  10  ar  
 11   6  26  1   
 12   7  10  ar  
 13   7  27  1   
 14   8  11  1   
 15   8  28  1   
 16   8  29  1   
 17   9  12  1   
 18   9  30  1   
 19   9  31  1   
 20  10  32  1   
 21  11  13  1   
 22  11  33  1   
 23  11  34  1   
 24  12  13  1   
 25  12  35  1   
 26  12  36  1   
 27  13  14  1   
 28  13  37  1   
 29  14  15  1   
 30  14  38  1   
 31  14  39  1   
 32  15  16  ar  
 33  15  17  ar  
 34  16  18  ar  
 35  16  19  1   
 36  17  20  ar  
 37  17  40  1   
 38  18  21  ar  
 39  18  41  1   
 40  19  42  1   
 41  19  43  1   
 42  19  44  1   
 43  20  21  ar  
 44  20  22  1   
 45  21  23  1   
 46  22  45  1   
 47  22  46  1   
 48  22  47  1   
 49  23  24  1   
 50  24  48  1   
 51  24  49  1   
 52  24  50  1   
@<TRIPOS>SUBSTRUCTURE
  1 ****  11 GROUP 4 **** **** 0

# MOE 2024.06 (io_trps.svl 2023.06)
