@<TRIPOS>MOLECULE
NONAME
40 40 1 0 0 
SMALL
USER_CHARGES


@<TRIPOS>ATOM
  1 CL       3.1690     1.5590    -1.2300 Cl    1 <1>  -0.1770 
  2 C        2.8450    -0.0710    -0.6710 C.ar  1 <1>   0.1770 
  3 C        3.6680    -0.7570     0.2360 C.ar  1 <1>   0.0830 
  4 C        1.6940    -0.6560    -1.1660 C.ar  1 <1>  -0.1500 
  5 O        4.8280    -0.3030     0.7840 O.3   1 <1>  -0.3630 
  6 C        3.2910    -2.0310     0.6420 C.ar  1 <1>  -0.1500 
  7 C        1.3540    -1.9270    -0.7500 C.ar  1 <1>   0.1770 
  8 C        5.6680     0.6130     0.1250 C.3   1 <1>   0.1200 
  9 C        2.1380    -2.6210     0.1520 C.ar  1 <1>  -0.1500 
 10 CL      -0.0980    -2.6710    -1.3710 Cl    1 <1>  -0.1770 
 11 C        7.0670     0.4780     0.7300 C.3   1 <1>  -0.1600 
 12 C        8.0550     1.4620     0.0870 C.3   1 <1>  -0.1600 
 13 C        9.4460     1.3080     0.7080 C.3   1 <1>   0.3430 
 14 N       10.4210     2.2110     0.0290 N.4   1 <1>  -0.9590 
 15 C       11.8200     1.7470     0.2400 C.3   1 <1>   0.3430 
 16 C       10.2490     3.6230     0.4690 C.3   1 <1>   0.3430 
 17 C       12.1020     0.5480    -0.6580 C.3   1 <1>  -0.2400 
 18 C       10.8470     4.5590    -0.5750 C.3   1 <1>  -0.2400 
 19 H        1.0680    -0.1280    -1.8620 H     1 <1>   0.1500 
 20 H        3.9100    -2.5600     1.3460 H     1 <1>   0.1500 
 21 H        5.2800     1.6030     0.2880 H     1 <1>   0.0800 
 22 H        5.6790     0.3780    -0.9260 H     1 <1>   0.0800 
 23 H        1.8480    -3.6090     0.4640 H     1 <1>   0.1500 
 24 H        7.4090    -0.5320     0.5820 H     1 <1>   0.0800 
 25 H        7.0010     0.6680     1.7890 H     1 <1>   0.0800 
 26 H        7.6880     2.4620     0.2330 H     1 <1>   0.0800 
 27 H        8.1080     1.2600    -0.9690 H     1 <1>   0.0800 
 28 H        9.7560     0.2820     0.5940 H     1 <1>   0.0800 
 29 H        9.4070     1.5280     1.7630 H     1 <1>   0.0800 
 30 H       10.2340     2.1740    -0.9820 H     1 <1>   0.4500 
 31 H       11.9760     1.4860     1.2750 H     1 <1>   0.0800 
 32 H       12.5120     2.5350    -0.0140 H     1 <1>   0.0800 
 33 H       10.7230     3.7780     1.4260 H     1 <1>   0.0800 
 34 H        9.2010     3.8530     0.5740 H     1 <1>   0.0800 
 35 H       11.4920    -0.2970    -0.3970 H     1 <1>   0.0800 
 36 H       13.1300     0.2560    -0.5390 H     1 <1>   0.0800 
 37 H       11.9490     0.8010    -1.6920 H     1 <1>   0.0800 
 38 H       11.9100     4.4260    -0.6660 H     1 <1>   0.0800 
 39 H       10.6700     5.5770    -0.2750 H     1 <1>   0.0800 
 40 H       10.3800     4.4120    -1.5330 H     1 <1>   0.0800 
@<TRIPOS>BOND
  1   1   2  1   
  2   2   3  ar  
  3   2   4  ar  
  4   3   5  1   
  5   3   6  ar  
  6   4   7  ar  
  7   4  19  1   
  8   5   8  1   
  9   6   9  ar  
 10   6  20  1   
 11   7   9  ar  
 12   7  10  1   
 13   8  11  1   
 14   8  21  1   
 15   8  22  1   
 16   9  23  1   
 17  11  12  1   
 18  11  24  1   
 19  11  25  1   
 20  12  13  1   
 21  12  26  1   
 22  12  27  1   
 23  13  14  1   
 24  13  28  1   
 25  13  29  1   
 26  14  15  1   
 27  14  16  1   
 28  14  30  1   
 29  15  17  1   
 30  15  31  1   
 31  15  32  1   
 32  16  18  1   
 33  16  33  1   
 34  16  34  1   
 35  17  35  1   
 36  17  36  1   
 37  17  37  1   
 38  18  38  1   
 39  18  39  1   
 40  18  40  1   
@<TRIPOS>SUBSTRUCTURE
  1 ****   8 GROUP 4 **** **** 0

# MOE 2024.06 (io_trps.svl 2023.06)
