@<TRIPOS>MOLECULE
NONAME
55 57 1 0 0 
SMALL
USER_CHARGES


@<TRIPOS>ATOM
  1 O       -0.2020     0.8560     0.6020 O.2   1 <1>  -0.5700 
  2 C       -1.3100     1.0090     0.1310 C.2   1 <1>   0.5440 
  3 N       -1.6370     2.2100    -0.4490 N.am  1 <1>  -0.5390 
  4 C       -2.3020    -0.0480     0.2080 C.ar  1 <1>   0.0860 
  5 C       -0.8070     3.2970    -0.7830 C.2   1 <1>   0.1230 
  6 C       -1.9180    -1.3880     0.1680 C.ar  1 <1>  -0.1500 
  7 C       -3.6680     0.2200     0.3280 C.ar  1 <1>  -0.1500 
  8 C        0.5470     3.0410    -1.2530 C.2   1 <1>   0.6160 
  9 C       -1.3050     4.5610    -0.7130 C.2   1 <1>  -0.1780 
 10 C       -2.8460    -2.4100     0.2300 C.ar  1 <1>  -0.1500 
 11 C       -4.6000    -0.8000     0.3890 C.ar  1 <1>  -0.1500 
 12 O        0.7200     2.5350    -2.3490 O.2   1 <1>  -0.5700 
 13 N        1.6440     3.4150    -0.5090 N.am  1 <1>  -0.6600 
 14 C       -2.5860     5.0030    -0.2400 C.ar  1 <1>   0.0280 
 15 C       -4.1960    -2.1220     0.3370 C.ar  1 <1>  -0.1430 
 16 C        3.0230     3.0370    -0.8890 C.3   1 <1>   0.1400 
 17 C        1.5660     3.7480     0.9290 C.3   1 <1>   0.1400 
 18 C       -3.2860     5.9910    -0.9310 C.ar  1 <1>  -0.1500 
 19 C       -3.1680     4.4900     0.9200 C.ar  1 <1>  -0.1500 
 20 C       -5.2160    -3.2440     0.4060 C.3   1 <1>  -0.0970 
 21 C        3.7710     2.9070     0.4320 C.3   1 <1>  -0.1600 
 22 C        3.0160     3.8210     1.3930 C.3   1 <1>  -0.1600 
 23 C       -4.5220     6.4370    -0.5010 C.ar  1 <1>   0.0830 
 24 C       -4.4120     4.9140     1.3510 C.ar  1 <1>  -0.1500 
 25 O       -5.1120     7.4260    -1.2160 O.3   1 <1>  -0.3630 
 26 C       -5.1100     5.8730     0.6380 C.ar  1 <1>   0.0830 
 27 C       -5.1970     8.6820    -0.5790 C.3   1 <1>   0.0400 
 28 O       -6.3400     6.2140     1.0960 O.3   1 <1>  -0.3630 
 29 C       -7.4340     6.0430     0.2210 C.3   1 <1>   0.0400 
 30 H       -2.6140     2.3290    -0.7090 H     1 <1>   0.3700 
 31 H       -0.8700    -1.6240     0.0860 H     1 <1>   0.1500 
 32 H       -4.0150     1.2360     0.3830 H     1 <1>   0.1500 
 33 H       -0.6750     5.3600    -1.0640 H     1 <1>   0.1500 
 34 H       -2.5120    -3.4330     0.1950 H     1 <1>   0.1500 
 35 H       -5.6460    -0.5610     0.4800 H     1 <1>   0.1500 
 36 H        3.0350     2.1110    -1.4400 H     1 <1>   0.0800 
 37 H        3.4460     3.8220    -1.4920 H     1 <1>   0.0800 
 38 H        1.0550     4.6820     1.0840 H     1 <1>   0.0800 
 39 H        1.0490     2.9580     1.4480 H     1 <1>   0.0800 
 40 H       -2.8610     6.4210    -1.8190 H     1 <1>   0.1500 
 41 H       -2.6340     3.7550     1.4980 H     1 <1>   0.1500 
 42 H       -4.8740    -4.0990    -0.1500 H     1 <1>   0.0800 
 43 H       -6.1560    -2.9260    -0.0090 H     1 <1>   0.0800 
 44 H       -5.3690    -3.5350     1.4300 H     1 <1>   0.0800 
 45 H        3.6990     1.8870     0.7690 H     1 <1>   0.0800 
 46 H        4.8080     3.1740     0.3340 H     1 <1>   0.0800 
 47 H        3.3680     4.8320     1.2880 H     1 <1>   0.0800 
 48 H        3.1230     3.5150     2.4190 H     1 <1>   0.0800 
 49 H       -4.8500     4.5050     2.2430 H     1 <1>   0.1500 
 50 H       -5.6360     9.3810    -1.2680 H     1 <1>   0.0800 
 51 H       -4.2050     9.0030    -0.3100 H     1 <1>   0.0800 
 52 H       -5.8120     8.5970     0.2990 H     1 <1>   0.0800 
 53 H       -8.3390     6.1250     0.7950 H     1 <1>   0.0800 
 54 H       -7.3710     5.0690    -0.2320 H     1 <1>   0.0800 
 55 H       -7.4130     6.8080    -0.5330 H     1 <1>   0.0800 
@<TRIPOS>BOND
  1   1   2  2   
  2   2   3  am  
  3   2   4  1   
  4   3   5  1   
  5   3  30  1   
  6   4   6  ar  
  7   4   7  ar  
  8   5   8  1   
  9   5   9  2   
 10   6  10  ar  
 11   6  31  1   
 12   7  11  ar  
 13   7  32  1   
 14   8  12  2   
 15   8  13  am  
 16   9  14  1   
 17   9  33  1   
 18  10  15  ar  
 19  10  34  1   
 20  11  15  ar  
 21  11  35  1   
 22  13  16  1   
 23  13  17  1   
 24  14  18  ar  
 25  14  19  ar  
 26  15  20  1   
 27  16  21  1   
 28  16  36  1   
 29  16  37  1   
 30  17  22  1   
 31  17  38  1   
 32  17  39  1   
 33  18  23  ar  
 34  18  40  1   
 35  19  24  ar  
 36  19  41  1   
 37  20  42  1   
 38  20  43  1   
 39  20  44  1   
 40  21  22  1   
 41  21  45  1   
 42  21  46  1   
 43  22  47  1   
 44  22  48  1   
 45  23  25  1   
 46  23  26  ar  
 47  24  26  ar  
 48  24  49  1   
 49  25  27  1   
 50  26  28  1   
 51  27  50  1   
 52  27  51  1   
 53  27  52  1   
 54  28  29  1   
 55  29  53  1   
 56  29  54  1   
 57  29  55  1   
@<TRIPOS>SUBSTRUCTURE
  1 ****   3 GROUP 4 **** **** 0

# MOE 2024.06 (io_trps.svl 2023.06)
