@<TRIPOS>MOLECULE
NONAME
38 41 1 0 0 
SMALL
USER_CHARGES


@<TRIPOS>ATOM
  1 O       -1.3190    -0.3230    -1.7800 O.2   1 <1>  -0.5700 
  2 C       -1.5020    -0.6660    -0.6360 C.2   1 <1>   0.6300 
  3 N       -0.9080    -1.7630    -0.1110 N.am  1 <1>  -0.7300 
  4 C       -2.3710     0.1810     0.2820 C.3   1 <1>  -0.1000 
  5 C       -0.0890    -2.7480    -0.8530 C.3   1 <1>   0.1400 
  6 C       -3.4790    -0.3240     1.1660 C.3   1 <1>  -0.1950 
  7 C       -3.7830     0.6090     0.0110 C.3   1 <1>  -0.1950 
  8 C       -0.7630    -4.1270    -0.8300 C.3   1 <1>   0.2000 
  9 C       -4.5540    -1.4250     1.0240 C.3   1 <1>   0.0150 
 10 C       -4.9830    -0.0600    -0.6900 C.3   1 <1>   0.0150 
 11 O       -1.0890    -4.4890     0.4760 O.3   1 <1>  -0.5600 
 12 C        0.1150    -5.2660    -1.3250 C.3   1 <1>  -0.1600 
 13 C       -5.7280    -0.6030     0.5180 C.3   1 <1>  -0.1600 
 14 C       -4.2900    -2.3140    -0.2000 C.3   1 <1>  -0.1600 
 15 C       -4.5660    -1.3670    -1.3840 C.3   1 <1>  -0.1600 
 16 C       -1.2420    -5.8700     0.5680 C.3   1 <1>   0.1200 
 17 C       -0.4570    -6.4720    -0.5970 C.3   1 <1>  -0.1600 
 18 H       -1.2030    -2.0890     0.8130 H     1 <1>   0.3700 
 19 H       -1.7450     0.9410     0.7100 H     1 <1>   0.1000 
 20 H        0.8820    -2.8120    -0.3940 H     1 <1>   0.0800 
 21 H        0.0420    -2.4270    -1.8730 H     1 <1>   0.0800 
 22 H       -3.5040     0.1020     2.1550 H     1 <1>   0.1000 
 23 H       -4.0050     1.6340     0.2500 H     1 <1>   0.1000 
 24 H       -1.6780    -4.0960    -1.3970 H     1 <1>   0.0800 
 25 H       -4.7450    -1.9700     1.9320 H     1 <1>   0.0800 
 26 H       -5.5530     0.6090    -1.3120 H     1 <1>   0.0800 
 27 H        1.1350    -5.1020    -1.0210 H     1 <1>   0.0800 
 28 H        0.0740    -5.3680    -2.3950 H     1 <1>   0.0800 
 29 H       -6.0230     0.1710     1.2080 H     1 <1>   0.0800 
 30 H       -6.5800    -1.2050     0.2500 H     1 <1>   0.0800 
 31 H       -4.9880    -3.1330    -0.2160 H     1 <1>   0.0800 
 32 H       -3.2980    -2.7180    -0.2050 H     1 <1>   0.0800 
 33 H       -3.7150    -1.2300    -2.0240 H     1 <1>   0.0800 
 34 H       -5.3810    -1.7450    -1.9760 H     1 <1>   0.0800 
 35 H       -2.2920    -6.0980     0.4940 H     1 <1>   0.0800 
 36 H       -0.8610    -6.1900     1.5220 H     1 <1>   0.0800 
 37 H        0.3170    -7.1310    -0.2470 H     1 <1>   0.0800 
 38 H       -1.1260    -7.0240    -1.2330 H     1 <1>   0.0800 
@<TRIPOS>BOND
  1   1   2  2   
  2   2   3  am  
  3   2   4  1   
  4   3   5  1   
  5   3  18  1   
  6   4   6  1   
  7   4   7  1   
  8   4  19  1   
  9   5   8  1   
 10   5  20  1   
 11   5  21  1   
 12   6   7  1   
 13   6   9  1   
 14   6  22  1   
 15   7  10  1   
 16   7  23  1   
 17   8  11  1   
 18   8  12  1   
 19   8  24  1   
 20   9  13  1   
 21   9  14  1   
 22   9  25  1   
 23  10  13  1   
 24  10  15  1   
 25  10  26  1   
 26  11  16  1   
 27  12  17  1   
 28  12  27  1   
 29  12  28  1   
 30  13  29  1   
 31  13  30  1   
 32  14  15  1   
 33  14  31  1   
 34  14  32  1   
 35  15  33  1   
 36  15  34  1   
 37  16  17  1   
 38  16  35  1   
 39  16  36  1   
 40  17  37  1   
 41  17  38  1   
@<TRIPOS>SUBSTRUCTURE
  1 ****   3 GROUP 4 **** **** 0

# MOE 2024.06 (io_trps.svl 2023.06)
