@<TRIPOS>MOLECULE
NONAME
53 57 1 0 0 
SMALL
USER_CHARGES


@<TRIPOS>ATOM
  1 S       -0.9030     0.0880    -0.3200 S.3   1 <1>  -0.0800 
  2 C        0.6400     0.9080    -0.1900 C.2   1 <1>  -0.0360 
  3 C       -1.7260     1.6320    -0.4500 C.2   1 <1>  -0.1400 
  4 N        1.8640     0.2630    -0.0400 N.pl3 1 <1>   0.3790 
  5 C        0.5170     2.2600    -0.2440 C.2   1 <1>  -0.0860 
  6 C       -0.8600     2.6580    -0.4080 C.2   1 <1>  -0.1810 
  7 C       -3.2310     1.6850    -0.5900 C.3   1 <1>   0.0200 
  8 C        2.3650    -0.9820     0.0580 C.2   1 <1>   0.2420 
  9 C        2.9930     1.0120     0.0680 C.2   1 <1>   0.2500 
 10 C        1.7060     3.0760    -0.1290 C.2   1 <1>   0.7160 
 11 C       -1.3410     4.0990    -0.5200 C.3   1 <1>   0.0210 
 12 C       -3.7080     3.1260    -0.3360 C.3   1 <1>  -0.1600 
 13 S        1.3580    -2.4710    -0.0070 S.3   1 <1>  -0.2860 
 14 N        3.6380    -1.0170     0.2100 N.2   1 <1>  -0.3380 
 15 N        4.0450     0.2590     0.2170 N.2   1 <1>  -0.3380 
 16 N        2.9380     2.4340     0.0170 N.am  1 <1>  -0.4240 
 17 O        1.6370     4.2940    -0.1530 O.2   1 <1>  -0.5700 
 18 C       -2.7980     4.1640    -1.0240 C.3   1 <1>  -0.1600 
 19 C        2.6150    -3.8340     0.1060 C.3   1 <1>   0.1310 
 20 C        4.1840     3.2670     0.1200 C.3   1 <1>   0.2200 
 21 C        1.9420    -5.1940     0.2460 C.2   1 <1>   0.6590 
 22 C        5.1500     3.0060    -1.0490 C.3   1 <1>  -0.1600 
 23 C        4.8750     3.1030     1.4840 C.3   1 <1>  -0.1600 
 24 O        1.9410    -5.9630    -0.6770 O.2   1 <1>  -0.5700 
 25 O        1.3830    -5.5460     1.4030 O.3   1 <1>  -0.4300 
 26 C        6.3880     3.9090    -0.9440 C.3   1 <1>  -0.1600 
 27 C        6.1150     4.0060     1.5790 C.3   1 <1>  -0.1600 
 28 C        1.2880    -4.7410     2.5600 C.3   1 <1>   0.0400 
 29 C        7.0820     3.7420     0.4160 C.3   1 <1>  -0.1600 
 30 H       -3.6940     1.0160     0.1140 H     1 <1>   0.0800 
 31 H       -3.4990     1.3750    -1.5850 H     1 <1>   0.0800 
 32 H       -0.7130     4.6460    -1.2010 H     1 <1>   0.0800 
 33 H       -1.2670     4.5630     0.4480 H     1 <1>   0.0800 
 34 H       -3.7030     3.3120     0.7240 H     1 <1>   0.0800 
 35 H       -4.7200     3.2350    -0.6850 H     1 <1>   0.0800 
 36 H       -2.8040     3.9790    -2.0850 H     1 <1>   0.0800 
 37 H       -3.1850     5.1540    -0.8620 H     1 <1>   0.0800 
 38 H        3.2520    -3.6290     0.9450 H     1 <1>   0.0800 
 39 H        3.1920    -3.8000    -0.8000 H     1 <1>   0.0800 
 40 H        3.9180     4.3070     0.0500 H     1 <1>   0.0800 
 41 H        4.6470     3.2000    -1.9790 H     1 <1>   0.0800 
 42 H        5.4800     1.9830    -1.0460 H     1 <1>   0.0800 
 43 H        5.1880     2.0860     1.6300 H     1 <1>   0.0800 
 44 H        4.1860     3.3640     2.2680 H     1 <1>   0.0800 
 45 H        6.0940     4.9370    -1.0700 H     1 <1>   0.0800 
 46 H        7.0790     3.6650    -1.7330 H     1 <1>   0.0800 
 47 H        6.6180     3.8280     2.5130 H     1 <1>   0.0800 
 48 H        5.8090     5.0380     1.5610 H     1 <1>   0.0800 
 49 H        0.8300    -5.3280     3.3360 H     1 <1>   0.0800 
 50 H        0.6710    -3.8860     2.3470 H     1 <1>   0.0800 
 51 H        2.2730    -4.4390     2.8690 H     1 <1>   0.0800 
 52 H        7.9150     4.4210     0.4800 H     1 <1>   0.0800 
 53 H        7.4680     2.7400     0.4960 H     1 <1>   0.0800 
@<TRIPOS>BOND
  1   1   2  1   
  2   1   3  1   
  3   2   4  1   
  4   2   5  2   
  5   3   6  2   
  6   3   7  1   
  7   4   8  1   
  8   4   9  1   
  9   5   6  1   
 10   5  10  1   
 11   6  11  1   
 12   7  12  1   
 13   7  30  1   
 14   7  31  1   
 15   8  13  1   
 16   8  14  2   
 17   9  15  2   
 18   9  16  1   
 19  10  16  am  
 20  10  17  2   
 21  11  18  1   
 22  11  32  1   
 23  11  33  1   
 24  12  18  1   
 25  12  34  1   
 26  12  35  1   
 27  13  19  1   
 28  14  15  1   
 29  16  20  1   
 30  18  36  1   
 31  18  37  1   
 32  19  21  1   
 33  19  38  1   
 34  19  39  1   
 35  20  22  1   
 36  20  23  1   
 37  20  40  1   
 38  21  24  2   
 39  21  25  1   
 40  22  26  1   
 41  22  41  1   
 42  22  42  1   
 43  23  27  1   
 44  23  43  1   
 45  23  44  1   
 46  25  28  1   
 47  26  29  1   
 48  26  45  1   
 49  26  46  1   
 50  27  29  1   
 51  27  47  1   
 52  27  48  1   
 53  28  49  1   
 54  28  50  1   
 55  28  51  1   
 56  29  52  1   
 57  29  53  1   
@<TRIPOS>SUBSTRUCTURE
  1 ****   4 GROUP 4 **** **** 0

# MOE 2024.06 (io_trps.svl 2023.06)
