@<TRIPOS>MOLECULE
NONAME
47 49 1 0 0 
SMALL
USER_CHARGES


@<TRIPOS>ATOM
  1 CL      -0.1840     2.5740    -2.6560 Cl    1 <1>  -0.1770 
  2 C       -0.5130     3.3100    -1.1070 C.ar  1 <1>   0.1770 
  3 C       -1.7020     3.9800    -0.9190 C.ar  1 <1>  -0.1500 
  4 C        0.4230     3.2080    -0.0970 C.ar  1 <1>  -0.1500 
  5 C       -1.9800     4.5710     0.3080 C.ar  1 <1>   0.1000 
  6 C        0.1550     3.7940     1.1280 C.ar  1 <1>  -0.1500 
  7 N       -3.1810     5.2490     0.5040 N.pl3 1 <1>  -0.8380 
  8 C       -1.0370     4.4730     1.3350 C.ar  1 <1>  -0.1430 
  9 C       -3.3630     6.5780    -0.1500 C.3   1 <1>   0.2090 
 10 C       -4.4340     4.4500     0.6330 C.3   1 <1>   0.2090 
 11 C       -1.3110     5.1100     2.6900 C.3   1 <1>  -0.0970 
 12 C       -4.2200     6.4890    -1.4290 C.3   1 <1>   0.1100 
 13 C       -5.2530     4.4370    -0.6730 C.3   1 <1>   0.1100 
 14 N       -5.5120     5.8020    -1.2010 N.3   1 <1>  -0.8100 
 15 C       -6.3050     5.7370    -2.4650 C.3   1 <1>   0.1710 
 16 C       -7.7860     5.4380    -2.2340 C.2   1 <1>   0.5690 
 17 O       -8.4340     4.9400    -3.1190 O.2   1 <1>  -0.5700 
 18 N       -8.2740     5.7650    -1.0050 N.am  1 <1>  -0.4940 
 19 C       -9.5390     5.6450    -0.4760 C.2   1 <1>   0.4420 
 20 S       -9.7470     6.1500     1.1690 S.3   1 <1>  -0.0800 
 21 N      -10.6310     5.2130    -0.9920 N.2   1 <1>  -0.3380 
 22 C      -11.4130     5.7080     1.0200 C.2   1 <1>   0.1980 
 23 N      -11.6960     5.2520    -0.1330 N.2   1 <1>  -0.3380 
 24 C      -12.3000     5.9120     2.2390 C.3   1 <1>   0.0200 
 25 C      -13.7510     5.4720     2.0040 C.3   1 <1>  -0.2400 
 26 H       -2.4090     4.0420    -1.7200 H     1 <1>   0.1500 
 27 H        1.3430     2.6800    -0.2690 H     1 <1>   0.1500 
 28 H        0.8810     3.7180     1.9180 H     1 <1>   0.1500 
 29 H       -2.3980     6.9910    -0.3930 H     1 <1>   0.0800 
 30 H       -3.8380     7.2450     0.5480 H     1 <1>   0.0800 
 31 H       -5.0320     4.8700     1.4220 H     1 <1>   0.0800 
 32 H       -4.1860     3.4400     0.9100 H     1 <1>   0.0800 
 33 H       -2.2070     4.6930     3.1110 H     1 <1>   0.0800 
 34 H       -1.4490     6.1690     2.5700 H     1 <1>   0.0800 
 35 H       -0.4990     4.9430     3.3730 H     1 <1>   0.0800 
 36 H       -3.6580     5.9710    -2.1860 H     1 <1>   0.0800 
 37 H       -4.4050     7.4890    -1.7820 H     1 <1>   0.0800 
 38 H       -6.1860     3.9360    -0.4820 H     1 <1>   0.0800 
 39 H       -4.7190     3.8570    -1.4060 H     1 <1>   0.0800 
 40 H       -5.8950     4.9930    -3.1250 H     1 <1>   0.0800 
 41 H       -6.2540     6.6870    -2.9690 H     1 <1>   0.0800 
 42 H       -7.5420     6.1190    -0.3860 H     1 <1>   0.3700 
 43 H      -12.2860     6.9540     2.5040 H     1 <1>   0.0800 
 44 H      -11.8900     5.3530     3.0600 H     1 <1>   0.0800 
 45 H      -14.1830     6.0340     1.1940 H     1 <1>   0.0800 
 46 H      -14.3390     5.6340     2.8900 H     1 <1>   0.0800 
 47 H      -13.7850     4.4270     1.7510 H     1 <1>   0.0800 
@<TRIPOS>BOND
  1   1   2  1   
  2   2   3  ar  
  3   2   4  ar  
  4   3   5  ar  
  5   3  26  1   
  6   4   6  ar  
  7   4  27  1   
  8   5   7  1   
  9   5   8  ar  
 10   6   8  ar  
 11   6  28  1   
 12   7   9  1   
 13   7  10  1   
 14   8  11  1   
 15   9  12  1   
 16   9  29  1   
 17   9  30  1   
 18  10  13  1   
 19  10  31  1   
 20  10  32  1   
 21  11  33  1   
 22  11  34  1   
 23  11  35  1   
 24  12  14  1   
 25  12  36  1   
 26  12  37  1   
 27  13  14  1   
 28  13  38  1   
 29  13  39  1   
 30  14  15  1   
 31  15  16  1   
 32  15  40  1   
 33  15  41  1   
 34  16  17  2   
 35  16  18  am  
 36  18  19  1   
 37  18  42  1   
 38  19  20  1   
 39  19  21  2   
 40  20  22  1   
 41  21  23  1   
 42  22  23  2   
 43  22  24  1   
 44  24  25  1   
 45  24  43  1   
 46  24  44  1   
 47  25  45  1   
 48  25  46  1   
 49  25  47  1   
@<TRIPOS>SUBSTRUCTURE
  1 ****  13 GROUP 4 **** **** 0

# MOE 2024.06 (io_trps.svl 2023.06)
