@<TRIPOS>MOLECULE
NONAME
40 42 1 0 0 
SMALL
USER_CHARGES


@<TRIPOS>ATOM
  1 O       -1.2190     2.0040    -2.8770 O.2   1 <1>  -0.5700 
  2 C       -1.3630     2.5620    -1.8150 C.2   1 <1>   0.5690 
  3 N       -0.4310     2.4380    -0.8070 N.am  1 <1>  -0.6600 
  4 C       -2.5920     3.4270    -1.6770 C.3   1 <1>   0.1570 
  5 C        0.7050     1.4790    -0.9360 C.3   1 <1>   0.1400 
  6 C       -0.4560     3.1590     0.5000 C.3   1 <1>   0.1400 
  7 N       -3.5490     2.7770    -0.7800 N.pl3 1 <1>   0.5800 
  8 C        2.0340     2.2120    -0.7390 C.3   1 <1>  -0.1600 
  9 C        0.8680     3.8990     0.7150 C.3   1 <1>  -0.1600 
 10 N       -3.7240     3.1550     0.4750 N.2   1 <1>  -0.4180 
 11 N       -4.3670     1.8200    -1.1530 N.2   1 <1>  -0.7070 
 12 C        2.0740     2.9550     0.6050 C.3   1 <1>  -0.0800 
 13 N       -4.6490     2.4160     0.9340 N.2   1 <1>  -0.2270 
 14 C       -5.0320     1.6080    -0.0640 C.2   1 <1>   0.4620 
 15 C        3.3860     3.7330     0.7540 C.3   1 <1>  -0.2400 
 16 C       -6.0830     0.6140     0.0860 C.ar  1 <1>   0.0540 
 17 C       -6.3800    -0.2830    -0.9430 C.ar  1 <1>  -0.1500 
 18 C       -6.8400     0.5100     1.2560 C.ar  1 <1>  -0.1500 
 19 C       -7.3780    -1.2320    -0.8140 C.ar  1 <1>  -0.1500 
 20 C       -7.8400    -0.4370     1.3920 C.ar  1 <1>  -0.1500 
 21 C       -8.1110    -1.3120     0.3550 C.ar  1 <1>  -0.1500 
 22 H       -3.0560     3.5440    -2.6360 H     1 <1>   0.0800 
 23 H       -2.3340     4.3920    -1.2920 H     1 <1>   0.0800 
 24 H        0.7000     1.0020    -1.9010 H     1 <1>   0.0800 
 25 H        0.5980     0.7100    -0.1900 H     1 <1>   0.0800 
 26 H       -0.6080     2.4430     1.2910 H     1 <1>   0.0800 
 27 H       -1.2550     3.8740     0.5430 H     1 <1>   0.0800 
 28 H        2.1670     2.9060    -1.5510 H     1 <1>   0.0800 
 29 H        2.8370     1.4980    -0.7830 H     1 <1>   0.0800 
 30 H        0.8570     4.3580     1.6880 H     1 <1>   0.0800 
 31 H        0.9480     4.6830    -0.0170 H     1 <1>   0.0800 
 32 H        2.0160     2.2290     1.3990 H     1 <1>   0.0800 
 33 H        3.4820     4.4690    -0.0250 H     1 <1>   0.0800 
 34 H        4.2250     3.0620     0.6980 H     1 <1>   0.0800 
 35 H        3.4160     4.2340     1.7060 H     1 <1>   0.0800 
 36 H       -5.8170    -0.2340    -1.8590 H     1 <1>   0.1500 
 37 H       -6.6470     1.1800     2.0750 H     1 <1>   0.1500 
 38 H       -7.5830    -1.9100    -1.6250 H     1 <1>   0.1500 
 39 H       -8.4080    -0.4950     2.3040 H     1 <1>   0.1500 
 40 H       -8.8880    -2.0490     0.4580 H     1 <1>   0.1500 
@<TRIPOS>BOND
  1   1   2  2   
  2   2   3  am  
  3   2   4  1   
  4   3   5  1   
  5   3   6  1   
  6   4   7  1   
  7   4  22  1   
  8   4  23  1   
  9   5   8  1   
 10   5  24  1   
 11   5  25  1   
 12   6   9  1   
 13   6  26  1   
 14   6  27  1   
 15   7  10  1   
 16   7  11  1   
 17   8  12  1   
 18   8  28  1   
 19   8  29  1   
 20   9  12  1   
 21   9  30  1   
 22   9  31  1   
 23  10  13  2   
 24  11  14  2   
 25  12  15  1   
 26  12  32  1   
 27  13  14  1   
 28  14  16  1   
 29  15  33  1   
 30  15  34  1   
 31  15  35  1   
 32  16  17  ar  
 33  16  18  ar  
 34  17  19  ar  
 35  17  36  1   
 36  18  20  ar  
 37  18  37  1   
 38  19  21  ar  
 39  19  38  1   
 40  20  21  ar  
 41  20  39  1   
 42  21  40  1   
@<TRIPOS>SUBSTRUCTURE
  1 ****   7 GROUP 4 **** **** 0

# MOE 2024.06 (io_trps.svl 2023.06)
