@<TRIPOS>MOLECULE
NONAME
40 43 1 0 0 
SMALL
USER_CHARGES


@<TRIPOS>ATOM
  1 F        0.4180    -0.1350    -1.4660 F     1 <1>  -0.1900 
  2 C       -0.1350    -1.2240    -1.0060 C.ar  1 <1>   0.1900 
  3 C        0.5950    -2.0990    -0.1880 C.ar  1 <1>   0.0860 
  4 C       -1.4510    -1.4360    -1.3700 C.ar  1 <1>  -0.1500 
  5 C        1.9820    -1.8940     0.2030 C.2   1 <1>   0.5440 
  6 C       -0.0960    -3.2340     0.2620 C.ar  1 <1>  -0.1500 
  7 C       -2.0710    -2.5720    -0.8960 C.ar  1 <1>   0.1900 
  8 O        2.4320    -2.5090     1.1500 O.2   1 <1>  -0.5700 
  9 N        2.8030    -1.0380    -0.4790 N.am  1 <1>  -0.7300 
 10 C       -1.4150    -3.4770    -0.0830 C.ar  1 <1>  -0.1500 
 11 F       -3.3110    -2.7990    -1.2230 F     1 <1>  -0.1900 
 12 C        4.2180    -0.6990    -0.2400 C.3   1 <1>   0.3000 
 13 C        5.1160    -1.9440    -0.3700 C.3   1 <1>  -0.1600 
 14 C        4.4050    -0.0590     1.1490 C.3   1 <1>  -0.1600 
 15 C        4.6300     0.3240    -1.3150 C.3   1 <1>  -0.1600 
 16 C        6.5940    -1.5500    -0.1720 C.3   1 <1>  -0.0800 
 17 C        5.8800     0.3390     1.3520 C.3   1 <1>  -0.0800 
 18 C        6.1050     0.7320    -1.1310 C.3   1 <1>  -0.0800 
 19 C        6.7640    -0.9180     1.2230 C.3   1 <1>  -0.1600 
 20 C        6.9930    -0.5210    -1.2460 C.3   1 <1>  -0.1600 
 21 C        6.2850     1.3540     0.2660 C.3   1 <1>  -0.1600 
 22 H       -1.9770    -0.7420    -1.9990 H     1 <1>   0.1500 
 23 H        0.4170    -3.9390     0.8970 H     1 <1>   0.1500 
 24 H        2.3820    -0.4760    -1.2180 H     1 <1>   0.3700 
 25 H       -1.9300    -4.3530     0.2700 H     1 <1>   0.1500 
 26 H        4.9850    -2.3900    -1.3390 H     1 <1>   0.0800 
 27 H        4.8480    -2.6720     0.3730 H     1 <1>   0.0800 
 28 H        4.1240    -0.7580     1.9170 H     1 <1>   0.0800 
 29 H        3.7770     0.8080     1.2400 H     1 <1>   0.0800 
 30 H        4.5020    -0.1040    -2.2930 H     1 <1>   0.0800 
 31 H        4.0100     1.2000    -1.2430 H     1 <1>   0.0800 
 32 H        7.2160    -2.4250    -0.2540 H     1 <1>   0.0800 
 33 H        6.0080     0.7760     2.3270 H     1 <1>   0.0800 
 34 H        6.3840     1.4470    -1.8870 H     1 <1>   0.0800 
 35 H        6.4920    -1.6320     1.9810 H     1 <1>   0.0800 
 36 H        7.7960    -0.6540     1.3800 H     1 <1>   0.0800 
 37 H        6.8870    -0.9560    -2.2250 H     1 <1>   0.0800 
 38 H        8.0260    -0.2480    -1.1220 H     1 <1>   0.0800 
 39 H        7.3110     1.6460     0.4060 H     1 <1>   0.0800 
 40 H        5.6800     2.2400     0.3530 H     1 <1>   0.0800 
@<TRIPOS>BOND
  1   1   2  1   
  2   2   3  ar  
  3   2   4  ar  
  4   3   5  1   
  5   3   6  ar  
  6   4   7  ar  
  7   4  22  1   
  8   5   8  2   
  9   5   9  am  
 10   6  10  ar  
 11   6  23  1   
 12   7  10  ar  
 13   7  11  1   
 14   9  12  1   
 15   9  24  1   
 16  10  25  1   
 17  12  13  1   
 18  12  14  1   
 19  12  15  1   
 20  13  16  1   
 21  13  26  1   
 22  13  27  1   
 23  14  17  1   
 24  14  28  1   
 25  14  29  1   
 26  15  18  1   
 27  15  30  1   
 28  15  31  1   
 29  16  19  1   
 30  16  20  1   
 31  16  32  1   
 32  17  19  1   
 33  17  21  1   
 34  17  33  1   
 35  18  20  1   
 36  18  21  1   
 37  18  34  1   
 38  19  35  1   
 39  19  36  1   
 40  20  37  1   
 41  20  38  1   
 42  21  39  1   
 43  21  40  1   
@<TRIPOS>SUBSTRUCTURE
  1 ****   9 GROUP 4 **** **** 0

# MOE 2024.06 (io_trps.svl 2023.06)
