@<TRIPOS>MOLECULE
NONAME
37 37 1 0 0 
SMALL
USER_CHARGES


@<TRIPOS>ATOM
  1 F       -0.8820     0.5140     1.1090 F     1 <1>  -0.3400 
  2 C        0.4430     0.6000     1.1630 C.3   1 <1>   1.0200 
  3 F        0.7820     0.3310     2.4190 F     1 <1>  -0.3400 
  4 F        0.8860    -0.4490     0.4730 F     1 <1>  -0.3400 
  5 C        1.0310     1.9350     0.6000 C.3   1 <1>   0.3000 
  6 N        2.5210     1.7350     0.2610 N.am  1 <1>  -0.7300 
  7 C        0.7470     2.9890     1.7320 C.3   1 <1>   1.0200 
  8 C        0.3120     2.3560    -0.7280 C.3   1 <1>  -0.1600 
  9 C        3.4200     2.6820    -0.0890 C.2   1 <1>   0.6900 
 10 F        0.8110     4.2500     1.3230 F     1 <1>  -0.3400 
 11 F        1.5940     2.9030     2.7530 F     1 <1>  -0.3400 
 12 F       -0.4680     2.8900     2.2640 F     1 <1>  -0.3400 
 13 C        0.4640     1.4030    -1.9300 C.3   1 <1>  -0.2400 
 14 O        3.0710     3.8350    -0.1970 O.2   1 <1>  -0.5700 
 15 N        4.6950     2.2730    -0.3190 N.am  1 <1>  -0.5470 
 16 C        5.8560     2.9320    -0.7640 C.ar  1 <1>   0.1170 
 17 C        7.0680     2.2340    -0.7000 C.ar  1 <1>   0.0830 
 18 C        5.8560     4.2280    -1.2690 C.ar  1 <1>  -0.1500 
 19 O        7.0290     0.9580    -0.2060 O.3   1 <1>  -0.3630 
 20 C        8.2450     2.8400    -1.1290 C.ar  1 <1>  -0.1500 
 21 C        7.0290     4.8250    -1.6950 C.ar  1 <1>  -0.1500 
 22 C        8.2060     0.1910    -0.0720 C.3   1 <1>   0.0400 
 23 C        8.2240     4.1330    -1.6240 C.ar  1 <1>  -0.1500 
 24 H        2.7990     0.7610     0.1290 H     1 <1>   0.3700 
 25 H        0.6810     3.3200    -1.0330 H     1 <1>   0.0800 
 26 H       -0.7400     2.4890    -0.5380 H     1 <1>   0.0800 
 27 H        1.5010     1.2500    -2.1760 H     1 <1>   0.0800 
 28 H       -0.0160     1.8340    -2.7910 H     1 <1>   0.0800 
 29 H        0.0030     0.4500    -1.7420 H     1 <1>   0.0800 
 30 H        4.9070     1.3240    -0.0200 H     1 <1>   0.3700 
 31 H        4.9400     4.7850    -1.3370 H     1 <1>   0.1500 
 32 H        9.1880     2.3290    -1.0890 H     1 <1>   0.1500 
 33 H        7.0090     5.8300    -2.0800 H     1 <1>   0.1500 
 34 H        7.9390    -0.7630     0.3460 H     1 <1>   0.0800 
 35 H        8.8840     0.7010     0.5890 H     1 <1>   0.0800 
 36 H        8.6460     0.0520    -1.0440 H     1 <1>   0.0800 
 37 H        9.1350     4.6000    -1.9550 H     1 <1>   0.1500 
@<TRIPOS>BOND
  1   1   2  1   
  2   2   3  1   
  3   2   4  1   
  4   2   5  1   
  5   5   6  1   
  6   5   7  1   
  7   5   8  1   
  8   6   9  am  
  9   6  24  1   
 10   7  10  1   
 11   7  11  1   
 12   7  12  1   
 13   8  13  1   
 14   8  25  1   
 15   8  26  1   
 16   9  14  2   
 17   9  15  am  
 18  13  27  1   
 19  13  28  1   
 20  13  29  1   
 21  15  16  1   
 22  15  30  1   
 23  16  17  ar  
 24  16  18  ar  
 25  17  19  1   
 26  17  20  ar  
 27  18  21  ar  
 28  18  31  1   
 29  19  22  1   
 30  20  23  ar  
 31  20  32  1   
 32  21  23  ar  
 33  21  33  1   
 34  22  34  1   
 35  22  35  1   
 36  22  36  1   
 37  23  37  1   
@<TRIPOS>SUBSTRUCTURE
  1 ****   9 GROUP 4 **** **** 0

# MOE 2024.06 (io_trps.svl 2023.06)
