@<TRIPOS>MOLECULE
NONAME
50 53 1 0 0 
SMALL
USER_CHARGES


@<TRIPOS>ATOM
  1 O        0.4500     1.0160    -2.2980 O.2   1 <1>  -0.5700 
  2 C        0.1180     1.7820    -1.4290 C.2   1 <1>   0.5690 
  3 N        0.8830     2.0690    -0.3440 N.am  1 <1>  -0.7300 
  4 C       -1.2270     2.4700    -1.5470 C.3   1 <1>  -0.0990 
  5 C        2.2020     1.5210     0.0140 C.3   1 <1>   0.3000 
  6 C       -2.2330     1.9570    -0.5040 C.3   1 <1>  -0.1600 
  7 C        3.2510     1.8620    -1.0620 C.3   1 <1>  -0.1600 
  8 C        2.1270    -0.0060     0.2060 C.3   1 <1>  -0.1600 
  9 C        2.6270     2.1690     1.3460 C.3   1 <1>  -0.1600 
 10 C       -3.5980     2.6240    -0.6710 C.3   1 <1>   0.1200 
 11 C        4.6320     1.3220    -0.6400 C.3   1 <1>  -0.0800 
 12 C        3.5040    -0.5520     0.6320 C.3   1 <1>  -0.0800 
 13 C        4.0060     1.6370     1.7850 C.3   1 <1>  -0.0800 
 14 O       -4.4370     2.1610     0.3600 O.3   1 <1>  -0.3630 
 15 C        4.5410    -0.2060    -0.4550 C.3   1 <1>  -0.1600 
 16 C        5.0440     1.9690     0.6960 C.3   1 <1>  -0.1600 
 17 C        3.9240     0.1090     1.9580 C.3   1 <1>  -0.1600 
 18 C       -5.7180     2.5920     0.4750 C.ar  1 <1>   0.0820 
 19 C       -6.3160     3.4930    -0.4030 C.ar  1 <1>  -0.1500 
 20 C       -6.4500     2.0900     1.5400 C.ar  1 <1>  -0.1500 
 21 C       -7.6310     3.8810    -0.2070 C.ar  1 <1>  -0.1500 
 22 C       -7.7640     2.4790     1.7340 C.ar  1 <1>  -0.1500 
 23 C       -8.3550     3.3750     0.8600 C.ar  1 <1>  -0.1500 
 24 H        0.5130     2.7100     0.3530 H     1 <1>   0.3700 
 25 H       -1.6110     2.2910    -2.5360 H     1 <1>   0.0800 
 26 H       -1.0830     3.5290    -1.4350 H     1 <1>   0.0800 
 27 H       -1.8620     2.1580     0.4860 H     1 <1>   0.0800 
 28 H       -2.3470     0.8920    -0.6170 H     1 <1>   0.0800 
 29 H        3.3030     2.9260    -1.1990 H     1 <1>   0.0800 
 30 H        2.9740     1.4160    -2.0000 H     1 <1>   0.0800 
 31 H        1.8340    -0.4780    -0.7140 H     1 <1>   0.0800 
 32 H        1.3940    -0.2460     0.9550 H     1 <1>   0.0800 
 33 H        1.9030     1.9440     2.1090 H     1 <1>   0.0800 
 34 H        2.6820     3.2370     1.2310 H     1 <1>   0.0800 
 35 H       -4.0410     2.3580    -1.6150 H     1 <1>   0.0800 
 36 H       -3.5150     3.6930    -0.5820 H     1 <1>   0.0800 
 37 H        5.3600     1.5540    -1.3990 H     1 <1>   0.0800 
 38 H        3.4490    -1.6200     0.7560 H     1 <1>   0.0800 
 39 H        4.2950     2.0950     2.7150 H     1 <1>   0.0800 
 40 H        5.5040    -0.5970    -0.1770 H     1 <1>   0.0800 
 41 H        4.2590    -0.6680    -1.3860 H     1 <1>   0.0800 
 42 H        5.1210     3.0350     0.5750 H     1 <1>   0.0800 
 43 H        6.0120     1.6040     0.9930 H     1 <1>   0.0800 
 44 H        4.8810    -0.2740     2.2680 H     1 <1>   0.0800 
 45 H        3.2120    -0.1350     2.7280 H     1 <1>   0.0800 
 46 H       -5.7810     3.9000    -1.2380 H     1 <1>   0.1500 
 47 H       -5.9840     1.3950     2.2130 H     1 <1>   0.1500 
 48 H       -8.0950     4.5760    -0.8850 H     1 <1>   0.1500 
 49 H       -8.3250     2.0840     2.5630 H     1 <1>   0.1500 
 50 H       -9.3760     3.6780     1.0090 H     1 <1>   0.1500 
@<TRIPOS>BOND
  1   1   2  2   
  2   2   3  am  
  3   2   4  1   
  4   3   5  1   
  5   3  24  1   
  6   4   6  1   
  7   4  25  1   
  8   4  26  1   
  9   5   7  1   
 10   5   8  1   
 11   5   9  1   
 12   6  10  1   
 13   6  27  1   
 14   6  28  1   
 15   7  11  1   
 16   7  29  1   
 17   7  30  1   
 18   8  12  1   
 19   8  31  1   
 20   8  32  1   
 21   9  13  1   
 22   9  33  1   
 23   9  34  1   
 24  10  14  1   
 25  10  35  1   
 26  10  36  1   
 27  11  15  1   
 28  11  16  1   
 29  11  37  1   
 30  12  15  1   
 31  12  17  1   
 32  12  38  1   
 33  13  16  1   
 34  13  17  1   
 35  13  39  1   
 36  14  18  1   
 37  15  40  1   
 38  15  41  1   
 39  16  42  1   
 40  16  43  1   
 41  17  44  1   
 42  17  45  1   
 43  18  19  ar  
 44  18  20  ar  
 45  19  21  ar  
 46  19  46  1   
 47  20  22  ar  
 48  20  47  1   
 49  21  23  ar  
 50  21  48  1   
 51  22  23  ar  
 52  22  49  1   
 53  23  50  1   
@<TRIPOS>SUBSTRUCTURE
  1 ****   6 GROUP 4 **** **** 0

# MOE 2024.06 (io_trps.svl 2023.06)
