@<TRIPOS>MOLECULE
NONAME
41 42 1 0 0 
SMALL
USER_CHARGES


@<TRIPOS>ATOM
  1 O       -0.0590    -0.6800     1.5270 O.2   1 <1>  -0.5700 
  2 C        0.0430    -1.5580     0.6920 C.2   1 <1>   0.5440 
  3 N        1.2900    -1.9270     0.2440 N.am  1 <1>  -0.5470 
  4 C       -1.1550    -2.1590     0.1490 C.ar  1 <1>   0.0860 
  5 C        2.5120    -1.2310     0.2390 C.ar  1 <1>   0.1170 
  6 C       -1.2840    -3.5250    -0.1450 C.ar  1 <1>   0.3920 
  7 C       -2.2580    -1.3520    -0.1080 C.ar  1 <1>  -0.1500 
  8 C        3.7400    -1.9020     0.1410 C.ar  1 <1>  -0.1440 
  9 C        2.5180     0.1620     0.2960 C.ar  1 <1>  -0.1500 
 10 O       -0.2510    -4.3520     0.1380 O.3   1 <1>  -0.3630 
 11 N       -2.3710    -4.0850    -0.6780 N.ar  1 <1>  -0.6200 
 12 C       -3.3860    -1.9240    -0.6480 C.ar  1 <1>  -0.1500 
 13 C        4.9150    -1.1610     0.1110 C.ar  1 <1>  -0.1500 
 14 C        3.8880    -3.4290     0.0720 C.3   1 <1>   0.0630 
 15 C        3.6940     0.8840     0.2670 C.ar  1 <1>  -0.1500 
 16 C       -0.3960    -5.7570     0.0190 C.3   1 <1>   0.1200 
 17 C       -3.3890    -3.2790    -0.9150 C.ar  1 <1>   0.1600 
 18 C        4.9000     0.2190     0.1740 C.ar  1 <1>  -0.1500 
 19 C        3.2730    -4.0210    -1.2030 C.3   1 <1>  -0.2400 
 20 C        3.3770    -4.1130     1.3440 C.3   1 <1>  -0.2400 
 21 C        0.8540    -6.4430     0.5590 C.3   1 <1>  -0.2400 
 22 H        1.3450    -2.8860    -0.1000 H     1 <1>   0.3700 
 23 H       -2.2220    -0.2980     0.1140 H     1 <1>   0.1500 
 24 H        1.5890     0.6980     0.3630 H     1 <1>   0.1500 
 25 H       -4.2560    -1.3280    -0.8610 H     1 <1>   0.1500 
 26 H        5.8690    -1.6540     0.0390 H     1 <1>   0.1500 
 27 H        4.9400    -3.6540     0.0210 H     1 <1>   0.0800 
 28 H        3.6680     1.9580     0.3170 H     1 <1>   0.1500 
 29 H       -0.5490    -5.9970    -1.0200 H     1 <1>   0.0800 
 30 H       -1.2600    -6.0580     0.5880 H     1 <1>   0.0800 
 31 H       -4.2740    -3.7210    -1.3420 H     1 <1>   0.1500 
 32 H        5.8210     0.7740     0.1510 H     1 <1>   0.1500 
 33 H        2.2020    -3.9640    -1.2020 H     1 <1>   0.0800 
 34 H        3.5560    -5.0530    -1.3000 H     1 <1>   0.0800 
 35 H        3.6410    -3.4880    -2.0620 H     1 <1>   0.0800 
 36 H        2.3150    -4.0040     1.4560 H     1 <1>   0.0800 
 37 H        3.8500    -3.6740     2.2040 H     1 <1>   0.0800 
 38 H        3.6160    -5.1610     1.3240 H     1 <1>   0.0800 
 39 H        1.7090    -6.1840    -0.0360 H     1 <1>   0.0800 
 40 H        0.7250    -7.5090     0.5150 H     1 <1>   0.0800 
 41 H        1.0180    -6.1620     1.5840 H     1 <1>   0.0800 
@<TRIPOS>BOND
  1   1   2  2   
  2   2   3  am  
  3   2   4  1   
  4   3   5  1   
  5   3  22  1   
  6   4   6  ar  
  7   4   7  ar  
  8   5   8  ar  
  9   5   9  ar  
 10   6  10  1   
 11   6  11  ar  
 12   7  12  ar  
 13   7  23  1   
 14   8  13  ar  
 15   8  14  1   
 16   9  15  ar  
 17   9  24  1   
 18  10  16  1   
 19  11  17  ar  
 20  12  17  ar  
 21  12  25  1   
 22  13  18  ar  
 23  13  26  1   
 24  14  19  1   
 25  14  20  1   
 26  14  27  1   
 27  15  18  ar  
 28  15  28  1   
 29  16  21  1   
 30  16  29  1   
 31  16  30  1   
 32  17  31  1   
 33  18  32  1   
 34  19  33  1   
 35  19  34  1   
 36  19  35  1   
 37  20  36  1   
 38  20  37  1   
 39  20  38  1   
 40  21  39  1   
 41  21  40  1   
 42  21  41  1   
@<TRIPOS>SUBSTRUCTURE
  1 ****   3 GROUP 4 **** **** 0

# MOE 2024.06 (io_trps.svl 2023.06)
