@<TRIPOS>MOLECULE
NONAME
35 36 1 0 0 
SMALL
USER_CHARGES


@<TRIPOS>ATOM
  1 CL       0.1940    -0.7810    -0.9030 Cl    1 <1>  -0.1770 
  2 C       -1.0140     0.4120    -0.4580 C.ar  1 <1>   0.1770 
  3 C       -0.7090     1.7050     0.0040 C.ar  1 <1>   0.0830 
  4 C       -2.3280    -0.0060    -0.5910 C.ar  1 <1>  -0.1500 
  5 O        0.5250     2.2580     0.1850 O.3   1 <1>  -0.3630 
  6 C       -1.7630     2.5490     0.3270 C.ar  1 <1>  -0.1500 
  7 C       -3.3670     0.8510    -0.2660 C.ar  1 <1>  -0.1500 
  8 C        1.7340     1.6140    -0.1280 C.3   1 <1>   0.1200 
  9 C       -3.0690     2.1200     0.1910 C.ar  1 <1>   0.1770 
 10 C        2.8790     2.5850     0.1750 C.3   1 <1>   0.3430 
 11 CL      -4.3720     3.2040     0.6030 Cl    1 <1>  -0.1770 
 12 N        4.2210     2.0350    -0.2110 N.4   1 <1>  -0.9590 
 13 C        4.6050     0.8390     0.6020 C.3   1 <1>   0.3430 
 14 C        5.2590     3.1040    -0.1200 C.3   1 <1>   0.3430 
 15 C        5.9230     0.2630     0.0820 C.3   1 <1>  -0.1600 
 16 C        6.5920     2.5780    -0.6580 C.3   1 <1>  -0.1600 
 17 C        7.0420     1.3120     0.0830 C.3   1 <1>  -0.1600 
 18 H       -2.5380    -0.9990    -0.9470 H     1 <1>   0.1500 
 19 H       -1.5690     3.5440     0.6850 H     1 <1>   0.1500 
 20 H       -4.3930     0.5420    -0.3630 H     1 <1>   0.1500 
 21 H        1.7180     1.3660    -1.1750 H     1 <1>   0.0800 
 22 H        1.8070     0.7350     0.4860 H     1 <1>   0.0800 
 23 H        2.8710     2.8170     1.2280 H     1 <1>   0.0800 
 24 H        2.6980     3.4950    -0.3730 H     1 <1>   0.0800 
 25 H        4.1880     1.7380    -1.1950 H     1 <1>   0.4500 
 26 H        3.8410     0.0810     0.5400 H     1 <1>   0.0800 
 27 H        4.7200     1.1210     1.6370 H     1 <1>   0.0800 
 28 H        5.3820     3.4100     0.9070 H     1 <1>   0.0800 
 29 H        4.9570     3.9650    -0.6970 H     1 <1>   0.0800 
 30 H        5.7790    -0.1200    -0.9130 H     1 <1>   0.0800 
 31 H        6.2150    -0.5660     0.7050 H     1 <1>   0.0800 
 32 H        7.3420     3.3410    -0.5440 H     1 <1>   0.0800 
 33 H        6.4990     2.3750    -1.7110 H     1 <1>   0.0800 
 34 H        7.9250     0.9080    -0.3860 H     1 <1>   0.0800 
 35 H        7.2990     1.5630     1.0990 H     1 <1>   0.0800 
@<TRIPOS>BOND
  1   1   2  1   
  2   2   3  ar  
  3   2   4  ar  
  4   3   5  1   
  5   3   6  ar  
  6   4   7  ar  
  7   4  18  1   
  8   5   8  1   
  9   6   9  ar  
 10   6  19  1   
 11   7   9  ar  
 12   7  20  1   
 13   8  10  1   
 14   8  21  1   
 15   8  22  1   
 16   9  11  1   
 17  10  12  1   
 18  10  23  1   
 19  10  24  1   
 20  12  13  1   
 21  12  14  1   
 22  12  25  1   
 23  13  15  1   
 24  13  26  1   
 25  13  27  1   
 26  14  16  1   
 27  14  28  1   
 28  14  29  1   
 29  15  17  1   
 30  15  30  1   
 31  15  31  1   
 32  16  17  1   
 33  16  32  1   
 34  16  33  1   
 35  17  34  1   
 36  17  35  1   
@<TRIPOS>SUBSTRUCTURE
  1 ****   8 GROUP 4 **** **** 0

# MOE 2024.06 (io_trps.svl 2023.06)
