@<TRIPOS>MOLECULE
NONAME
40 40 1 0 0 
SMALL
USER_CHARGES


@<TRIPOS>ATOM
  1 O      -10.3660     5.2140     0.1950 O.3   1 <1>  -0.3630 
  2 C       -9.0520     5.3660    -0.0830 C.ar  1 <1>   0.0830 
  3 C      -11.1530     4.6190    -0.8150 C.3   1 <1>   0.3200 
  4 C       -8.1690     4.2860    -0.1840 C.ar  1 <1>   0.0830 
  5 C       -8.5840     6.6540    -0.2790 C.ar  1 <1>  -0.1500 
  6 C      -12.5270     4.4070    -0.2770 C.1   1 <1>  -0.2000 
  7 O       -8.5260     2.9960     0.0370 O.3   1 <1>  -0.3630 
  8 C       -6.8470     4.5140    -0.5270 C.ar  1 <1>  -0.1500 
  9 C       -7.2560     6.8760    -0.6050 C.ar  1 <1>  -0.1500 
 10 C      -13.6210     4.2350     0.1550 C.1   1 <1>  -0.1770 
 11 C       -9.1480     2.6760     1.2640 C.3   1 <1>   0.1200 
 12 C       -6.3820     5.8050    -0.7340 C.ar  1 <1>  -0.1430 
 13 C       -9.0430     1.1680     1.4660 C.3   1 <1>  -0.2400 
 14 C       -4.9300     6.0380    -1.0820 C.3   1 <1>   0.4860 
 15 N       -4.1970     6.1030     0.1990 N.4   1 <1>  -0.9060 
 16 C       -2.7580     6.3610     0.0800 C.3   1 <1>   0.4230 
 17 C       -2.0650     5.1210    -0.4790 C.3   1 <1>  -0.2400 
 18 C       -2.2380     6.6890     1.4720 C.3   1 <1>  -0.2400 
 19 H      -10.7150     3.6790    -1.1000 H     1 <1>   0.0800 
 20 H      -11.1750     5.2820    -1.6620 H     1 <1>   0.0800 
 21 H       -9.2690     7.4790    -0.1810 H     1 <1>   0.1500 
 22 H       -6.2000     3.6590    -0.6240 H     1 <1>   0.1500 
 23 H       -6.9260     7.8900    -0.7590 H     1 <1>   0.1500 
 24 H      -14.6100     4.0850     0.5510 H     1 <1>   0.1770 
 25 H      -10.1790     2.9770     1.2270 H     1 <1>   0.0800 
 26 H       -8.6440     3.2050     2.0560 H     1 <1>   0.0800 
 27 H       -9.5440     0.6530     0.6660 H     1 <1>   0.0800 
 28 H       -9.5100     0.8930     2.3940 H     1 <1>   0.0800 
 29 H       -8.0120     0.8670     1.4980 H     1 <1>   0.0800 
 30 H       -4.8230     6.9610    -1.6290 H     1 <1>   0.0800 
 31 H       -4.5640     5.2260    -1.6900 H     1 <1>   0.0800 
 32 H       -4.3500     5.2250     0.7040 H     1 <1>   0.4500 
 33 H       -4.6340     6.8330     0.7720 H     1 <1>   0.4500 
 34 H       -2.5830     7.2050    -0.5720 H     1 <1>   0.0800 
 35 H       -2.2440     4.2600     0.1420 H     1 <1>   0.0800 
 36 H       -1.0020     5.2900    -0.5100 H     1 <1>   0.0800 
 37 H       -2.3830     4.9130    -1.4840 H     1 <1>   0.0800 
 38 H       -2.3920     5.8690     2.1520 H     1 <1>   0.0800 
 39 H       -2.7150     7.5710     1.8610 H     1 <1>   0.0800 
 40 H       -1.1810     6.8860     1.4260 H     1 <1>   0.0800 
@<TRIPOS>BOND
  1   1   2  1   
  2   1   3  1   
  3   2   4  ar  
  4   2   5  ar  
  5   3   6  1   
  6   3  19  1   
  7   3  20  1   
  8   4   7  1   
  9   4   8  ar  
 10   5   9  ar  
 11   5  21  1   
 12   6  10  3   
 13   7  11  1   
 14   8  12  ar  
 15   8  22  1   
 16   9  12  ar  
 17   9  23  1   
 18  10  24  1   
 19  11  13  1   
 20  11  25  1   
 21  11  26  1   
 22  12  14  1   
 23  13  27  1   
 24  13  28  1   
 25  13  29  1   
 26  14  15  1   
 27  14  30  1   
 28  14  31  1   
 29  15  16  1   
 30  15  32  1   
 31  15  33  1   
 32  16  17  1   
 33  16  18  1   
 34  16  34  1   
 35  17  35  1   
 36  17  36  1   
 37  17  37  1   
 38  18  38  1   
 39  18  39  1   
 40  18  40  1   
@<TRIPOS>SUBSTRUCTURE
  1 ****   4 GROUP 4 **** **** 0

# MOE 2024.06 (io_trps.svl 2023.06)
