@<TRIPOS>MOLECULE
NONAME
42 45 1 0 0 
SMALL
USER_CHARGES


@<TRIPOS>ATOM
  1 S        0.0760    -0.1420     1.2470 S.3   1 <1>  -0.0800 
  2 C        1.5240     0.7010     0.6740 C.ar  1 <1>   0.2970 
  3 C       -0.9480     1.2670     0.9010 C.2   1 <1>  -0.0450 
  4 N        2.7110     0.1250     0.6780 N.ar  1 <1>  -0.5670 
  5 C        1.1990     1.9850     0.2510 C.ar  1 <1>   0.0000 
  6 C       -2.3420     1.3950     1.1020 C.2   1 <1>   0.8660 
  7 C       -0.2020     2.2710     0.3920 C.2   1 <1>   0.0830 
  8 C        3.6770     0.9020     0.2160 C.ar  1 <1>   0.1660 
  9 C        2.2350     2.7730    -0.2240 C.ar  1 <1>  -0.1500 
 10 O       -3.0280     0.4940     1.5640 O.2   1 <1>  -0.5700 
 11 N       -2.9490     2.5800     0.7650 N.2   1 <1>  -0.6610 
 12 N       -0.8770     3.4260     0.0770 N.pl3 1 <1>  -0.5330 
 13 C        3.4970     2.2110    -0.2370 C.ar  1 <1>  -0.1430 
 14 C        5.0610     0.2850     0.1780 C.3   1 <1>  -0.0170 
 15 C       -2.2270     3.5290     0.2780 C.2   1 <1>   0.4390 
 16 C        4.6820     3.0330    -0.7300 C.3   1 <1>   0.2640 
 17 C        6.1710     1.3430     0.0790 C.3   1 <1>   0.2800 
 18 C       -2.8450     4.8660    -0.1150 C.3   1 <1>  -0.0990 
 19 O        5.8280     2.2540    -0.9180 O.3   1 <1>  -0.5600 
 20 C        7.4810     0.7020    -0.3820 C.3   1 <1>  -0.2400 
 21 C        6.4100     2.0780     1.4080 C.3   1 <1>  -0.2400 
 22 C       -4.3640     4.9690     0.1130 C.3   1 <1>  -0.1600 
 23 C       -4.9020     6.3400    -0.3080 C.3   1 <1>  -0.2400 
 24 H        2.0580     3.7770    -0.5650 H     1 <1>   0.1500 
 25 H       -0.3700     4.2210    -0.3160 H     1 <1>   0.4000 
 26 H        5.1080    -0.3700    -0.6730 H     1 <1>   0.0800 
 27 H        5.2140    -0.3140     1.0560 H     1 <1>   0.0800 
 28 H        4.9170     3.8140    -0.0280 H     1 <1>   0.0800 
 29 H        4.4500     3.4860    -1.6780 H     1 <1>   0.0800 
 30 H       -2.6420     5.0360    -1.1570 H     1 <1>   0.0800 
 31 H       -2.3600     5.6400     0.4510 H     1 <1>   0.0800 
 32 H        7.3490     0.2310    -1.3400 H     1 <1>   0.0800 
 33 H        7.8030    -0.0410     0.3230 H     1 <1>   0.0800 
 34 H        8.2490     1.4490    -0.4660 H     1 <1>   0.0800 
 35 H        5.4950     2.4660     1.8180 H     1 <1>   0.0800 
 36 H        7.1100     2.8820     1.2680 H     1 <1>   0.0800 
 37 H        6.8200     1.3970     2.1310 H     1 <1>   0.0800 
 38 H       -4.5840     4.8050     1.1550 H     1 <1>   0.0800 
 39 H       -4.8660     4.2010    -0.4530 H     1 <1>   0.0800 
 40 H       -4.4350     7.1220     0.2640 H     1 <1>   0.0800 
 41 H       -5.9640     6.3830    -0.1380 H     1 <1>   0.0800 
 42 H       -4.7190     6.5140    -1.3540 H     1 <1>   0.0800 
@<TRIPOS>BOND
  1   1   2  1   
  2   1   3  1   
  3   2   4  ar  
  4   2   5  ar  
  5   3   6  1   
  6   3   7  2   
  7   4   8  ar  
  8   5   7  1   
  9   5   9  ar  
 10   6  10  2   
 11   6  11  1   
 12   7  12  1   
 13   8  13  ar  
 14   8  14  1   
 15   9  13  ar  
 16   9  24  1   
 17  11  15  2   
 18  12  15  1   
 19  12  25  1   
 20  13  16  1   
 21  14  17  1   
 22  14  26  1   
 23  14  27  1   
 24  15  18  1   
 25  16  19  1   
 26  16  28  1   
 27  16  29  1   
 28  17  19  1   
 29  17  20  1   
 30  17  21  1   
 31  18  22  1   
 32  18  30  1   
 33  18  31  1   
 34  20  32  1   
 35  20  33  1   
 36  20  34  1   
 37  21  35  1   
 38  21  36  1   
 39  21  37  1   
 40  22  23  1   
 41  22  38  1   
 42  22  39  1   
 43  23  40  1   
 44  23  41  1   
 45  23  42  1   
@<TRIPOS>SUBSTRUCTURE
  1 ****   5 GROUP 4 **** **** 0

# MOE 2024.06 (io_trps.svl 2023.06)
