@<TRIPOS>MOLECULE
NONAME
41 42 1 0 0 
SMALL
USER_CHARGES


@<TRIPOS>ATOM
  1 CL       0.1830    -0.3460    -2.1690 Cl    1 <1>  -0.1770 
  2 C       -0.8510     0.5870    -1.1020 C.ar  1 <1>   0.1770 
  3 C       -0.4900     1.8480    -0.6140 C.ar  1 <1>   0.0830 
  4 C       -2.0660     0.0170    -0.7760 C.ar  1 <1>  -0.1500 
  5 O        0.6990     2.4610    -0.8730 O.3   1 <1>  -0.3630 
  6 C       -1.3970     2.5380     0.1880 C.ar  1 <1>  -0.1440 
  7 C       -2.9550     0.6990     0.0370 C.ar  1 <1>  -0.1430 
  8 C        1.9030     1.7340    -0.8240 C.3   1 <1>   0.1200 
  9 C       -2.6150     1.9560     0.5080 C.ar  1 <1>  -0.1500 
 10 C       -1.0740     3.9270     0.7220 C.3   1 <1>  -0.0960 
 11 C       -4.2950     0.0840     0.4010 C.3   1 <1>  -0.0970 
 12 C        3.0090     2.6930    -0.3780 C.3   1 <1>   0.3430 
 13 N        4.3660     2.0540    -0.3880 N.4   1 <1>  -0.9590 
 14 C        4.4900     0.9630     0.6280 C.3   1 <1>   0.3430 
 15 C        5.4240     3.0910    -0.2010 C.3   1 <1>   0.3430 
 16 C        5.8520     0.2810     0.4890 C.3   1 <1>  -0.1600 
 17 C        6.8060     2.4540    -0.3600 C.3   1 <1>  -0.1600 
 18 C        7.0060     1.2830     0.6110 C.3   1 <1>  -0.1600 
 19 H       -2.3140    -0.9540    -1.1650 H     1 <1>   0.1500 
 20 H        2.1050     1.3650    -1.8130 H     1 <1>   0.0800 
 21 H        1.7820     0.9250    -0.1250 H     1 <1>   0.0800 
 22 H       -3.3140     2.4880     1.1310 H     1 <1>   0.1500 
 23 H       -0.2370     3.8780     1.3940 H     1 <1>   0.0800 
 24 H       -1.9120     4.3440     1.2510 H     1 <1>   0.0800 
 25 H       -0.8300     4.5850    -0.0930 H     1 <1>   0.0800 
 26 H       -4.2650    -0.9850     0.2950 H     1 <1>   0.0800 
 27 H       -5.0620     0.4750    -0.2430 H     1 <1>   0.0800 
 28 H       -4.5470     0.3160     1.4210 H     1 <1>   0.0800 
 29 H        2.7830     3.0510     0.6130 H     1 <1>   0.0800 
 30 H        3.0080     3.5350    -1.0510 H     1 <1>   0.0800 
 31 H        4.5250     1.6320    -1.3130 H     1 <1>   0.4500 
 32 H        3.7120     0.2300     0.4890 H     1 <1>   0.0800 
 33 H        4.3940     1.3750     1.6200 H     1 <1>   0.0800 
 34 H        5.3400     3.5260     0.7820 H     1 <1>   0.0800 
 35 H        5.3060     3.8760    -0.9310 H     1 <1>   0.0800 
 36 H        5.9030    -0.2260    -0.4600 H     1 <1>   0.0800 
 37 H        5.9500    -0.4680     1.2570 H     1 <1>   0.0800 
 38 H        7.5600     3.2000    -0.1760 H     1 <1>   0.0800 
 39 H        6.9300     2.1160    -1.3740 H     1 <1>   0.0800 
 40 H        7.9430     0.7910     0.4030 H     1 <1>   0.0800 
 41 H        7.0520     1.6580     1.6200 H     1 <1>   0.0800 
@<TRIPOS>BOND
  1   1   2  1   
  2   2   3  ar  
  3   2   4  ar  
  4   3   5  1   
  5   3   6  ar  
  6   4   7  ar  
  7   4  19  1   
  8   5   8  1   
  9   6   9  ar  
 10   6  10  1   
 11   7   9  ar  
 12   7  11  1   
 13   8  12  1   
 14   8  20  1   
 15   8  21  1   
 16   9  22  1   
 17  10  23  1   
 18  10  24  1   
 19  10  25  1   
 20  11  26  1   
 21  11  27  1   
 22  11  28  1   
 23  12  13  1   
 24  12  29  1   
 25  12  30  1   
 26  13  14  1   
 27  13  15  1   
 28  13  31  1   
 29  14  16  1   
 30  14  32  1   
 31  14  33  1   
 32  15  17  1   
 33  15  34  1   
 34  15  35  1   
 35  16  18  1   
 36  16  36  1   
 37  16  37  1   
 38  17  18  1   
 39  17  38  1   
 40  17  39  1   
 41  18  40  1   
 42  18  41  1   
@<TRIPOS>SUBSTRUCTURE
  1 ****   8 GROUP 4 **** **** 0

# MOE 2024.06 (io_trps.svl 2023.06)
