@<TRIPOS>MOLECULE
NONAME
52 53 1 0 0 
SMALL
USER_CHARGES


@<TRIPOS>ATOM
  1 O        0.3370     0.2940    -0.7470 O.3   1 <1>  -0.3630 
  2 C        1.4710     0.9050    -0.3070 C.ar  1 <1>   0.0830 
  3 C       -0.8240     0.5290     0.0170 C.3   1 <1>   0.0400 
  4 C        1.6590     2.2640    -0.5730 C.ar  1 <1>   0.0830 
  5 C        2.4460     0.1940     0.4050 C.ar  1 <1>   0.0830 
  6 O        0.6990     2.9200    -1.2880 O.3   1 <1>  -0.3630 
  7 C        2.8060     2.9060    -0.1120 C.ar  1 <1>  -0.1500 
  8 O        2.4130    -1.1340     0.7100 O.3   1 <1>  -0.3630 
  9 C        3.5700     0.8580     0.8660 C.ar  1 <1>  -0.1500 
 10 C        0.7580     4.3020    -1.5600 C.3   1 <1>   0.0400 
 11 C        3.7630     2.2050     0.6070 C.ar  1 <1>  -0.1430 
 12 C        1.7330    -2.0620    -0.1090 C.3   1 <1>   0.0400 
 13 C        5.0210     2.8860     1.0920 C.3   1 <1>   0.4860 
 14 N        6.0690     2.5730     0.1000 N.4   1 <1>  -0.9060 
 15 C        7.4090     3.0880     0.4270 C.3   1 <1>   0.4230 
 16 C        7.4360     4.6160     0.2940 C.3   1 <1>  -0.1600 
 17 C        8.4130     2.4420    -0.5310 C.3   1 <1>  -0.1600 
 18 C        8.8510     5.1630     0.5310 C.3   1 <1>  -0.1600 
 19 C        9.8310     2.9830    -0.3000 C.3   1 <1>  -0.1600 
 20 C        9.8820     4.5190    -0.4130 C.3   1 <1>  -0.0800 
 21 C       11.2840     5.0760    -0.1010 C.3   1 <1>  -0.1600 
 22 C       12.3570     4.6250    -1.1000 C.3   1 <1>  -0.2400 
 23 H       -1.6270    -0.0450    -0.4070 H     1 <1>   0.0800 
 24 H       -1.0640     1.5760    -0.0170 H     1 <1>   0.0800 
 25 H       -0.6410     0.2170     1.0310 H     1 <1>   0.0800 
 26 H        2.9550     3.9510    -0.3100 H     1 <1>   0.1500 
 27 H        4.2870     0.2870     1.4300 H     1 <1>   0.1500 
 28 H       -0.1270     4.5690    -2.1110 H     1 <1>   0.0800 
 29 H        1.6290     4.5060    -2.1560 H     1 <1>   0.0800 
 30 H        0.7830     4.8430    -0.6310 H     1 <1>   0.0800 
 31 H        2.1070    -3.0450     0.1140 H     1 <1>   0.0800 
 32 H        1.9150    -1.8240    -1.1420 H     1 <1>   0.0800 
 33 H        0.6820    -2.0170     0.1120 H     1 <1>   0.0800 
 34 H        5.2920     2.5070     2.0640 H     1 <1>   0.0800 
 35 H        4.8640     3.9510     1.1610 H     1 <1>   0.0800 
 36 H        5.7720     2.9280    -0.8150 H     1 <1>   0.4500 
 37 H        6.1060     1.5530     0.0020 H     1 <1>   0.4500 
 38 H        7.6730     2.8160     1.4370 H     1 <1>   0.0800 
 39 H        6.7790     5.0700     1.0140 H     1 <1>   0.0800 
 40 H        7.1200     4.9060    -0.6940 H     1 <1>   0.0800 
 41 H        8.1340     2.6460    -1.5510 H     1 <1>   0.0800 
 42 H        8.4270     1.3760    -0.3850 H     1 <1>   0.0800 
 43 H        9.1410     4.9820     1.5530 H     1 <1>   0.0800 
 44 H        8.8480     6.2300     0.3810 H     1 <1>   0.0800 
 45 H       10.4880     2.5410    -1.0290 H     1 <1>   0.0800 
 46 H       10.1800     2.6840     0.6750 H     1 <1>   0.0800 
 47 H        9.6330     4.7970    -1.4250 H     1 <1>   0.0800 
 48 H       11.5830     4.7850     0.8920 H     1 <1>   0.0800 
 49 H       11.2440     6.1520    -0.1230 H     1 <1>   0.0800 
 50 H       12.5390     3.5680    -1.0280 H     1 <1>   0.0800 
 51 H       13.2820     5.1340    -0.8930 H     1 <1>   0.0800 
 52 H       12.0600     4.8620    -2.1070 H     1 <1>   0.0800 
@<TRIPOS>BOND
  1   1   2  1   
  2   1   3  1   
  3   2   4  ar  
  4   2   5  ar  
  5   3  23  1   
  6   3  24  1   
  7   3  25  1   
  8   4   6  1   
  9   4   7  ar  
 10   5   8  1   
 11   5   9  ar  
 12   6  10  1   
 13   7  11  ar  
 14   7  26  1   
 15   8  12  1   
 16   9  11  ar  
 17   9  27  1   
 18  10  28  1   
 19  10  29  1   
 20  10  30  1   
 21  11  13  1   
 22  12  31  1   
 23  12  32  1   
 24  12  33  1   
 25  13  14  1   
 26  13  34  1   
 27  13  35  1   
 28  14  15  1   
 29  14  36  1   
 30  14  37  1   
 31  15  16  1   
 32  15  17  1   
 33  15  38  1   
 34  16  18  1   
 35  16  39  1   
 36  16  40  1   
 37  17  19  1   
 38  17  41  1   
 39  17  42  1   
 40  18  20  1   
 41  18  43  1   
 42  18  44  1   
 43  19  20  1   
 44  19  45  1   
 45  19  46  1   
 46  20  21  1   
 47  20  47  1   
 48  21  22  1   
 49  21  48  1   
 50  21  49  1   
 51  22  50  1   
 52  22  51  1   
 53  22  52  1   
@<TRIPOS>SUBSTRUCTURE
  1 ****  14 GROUP 4 **** **** 0

# MOE 2024.06 (io_trps.svl 2023.06)
