@<TRIPOS>MOLECULE
NONAME
37 37 1 0 0 
SMALL
USER_CHARGES


@<TRIPOS>ATOM
  1 O        0.2660     0.5010    -1.1010 O.2   1 <1>  -0.5700 
  2 C        0.2000     1.3290    -0.2130 C.2   1 <1>   0.5440 
  3 N        1.2430     1.4270     0.6640 N.am  1 <1>  -0.7300 
  4 C       -0.9620     2.1890    -0.0840 C.ar  1 <1>   0.0860 
  5 C        2.5410     0.7310     0.5650 C.3   1 <1>   0.1400 
  6 C       -0.9060     3.4940     0.4340 C.ar  1 <1>   0.0820 
  7 C       -2.2170     1.7190    -0.4810 C.ar  1 <1>  -0.1500 
  8 C        3.6340     1.7760     0.3560 C.3   1 <1>  -0.1600 
  9 O        0.2560     4.0610     0.8160 O.3   1 <1>  -0.3620 
 10 C       -2.0550     4.2580     0.5780 C.ar  1 <1>  -0.1500 
 11 C       -3.3600     2.4860    -0.3500 C.ar  1 <1>  -0.1500 
 12 C        5.0180     1.1250     0.2490 C.3   1 <1>  -0.1600 
 13 C        1.0610     4.6090    -0.2060 C.3   1 <1>   0.0400 
 14 C       -3.2810     3.7590     0.1860 C.ar  1 <1>  -0.1500 
 15 C        6.1000     2.1890     0.0390 C.3   1 <1>  -0.1600 
 16 C        7.4950     1.5560    -0.0800 C.3   1 <1>  -0.2660 
 17 C        8.5720     2.5970    -0.2790 C.2   1 <1>   0.9060 
 18 O        8.8480     2.9470    -1.4300 O.co2 1 <1>  -0.9000 
 19 O        9.1300     3.0640     0.7180 O.co2 1 <1>  -0.9000 
 20 H        1.2050     2.2010     1.3340 H     1 <1>   0.3700 
 21 H        2.5290     0.0380    -0.2600 H     1 <1>   0.0800 
 22 H        2.7180     0.1790     1.4720 H     1 <1>   0.0800 
 23 H       -2.2900     0.7280    -0.8970 H     1 <1>   0.1500 
 24 H        3.6330     2.4670     1.1810 H     1 <1>   0.0800 
 25 H        3.4320     2.3180    -0.5520 H     1 <1>   0.0800 
 26 H       -1.9810     5.2460     0.9960 H     1 <1>   0.1500 
 27 H       -4.3120     2.0920    -0.6630 H     1 <1>   0.1500 
 28 H        5.0320     0.4380    -0.5810 H     1 <1>   0.0800 
 29 H        5.2330     0.5740     1.1480 H     1 <1>   0.0800 
 30 H        0.5100     5.3890    -0.7010 H     1 <1>   0.0800 
 31 H        1.3220     3.8350    -0.9070 H     1 <1>   0.0800 
 32 H        1.9510     5.0120     0.2430 H     1 <1>   0.0800 
 33 H       -4.1710     4.3550     0.2960 H     1 <1>   0.1500 
 34 H        6.1060     2.8790     0.8660 H     1 <1>   0.0800 
 35 H        5.9000     2.7490    -0.8590 H     1 <1>   0.0800 
 36 H        7.5300     0.8860    -0.9170 H     1 <1>   0.0800 
 37 H        7.7320     1.0060     0.8110 H     1 <1>   0.0800 
@<TRIPOS>BOND
  1   1   2  2   
  2   2   3  am  
  3   2   4  1   
  4   3   5  1   
  5   3  20  1   
  6   4   6  ar  
  7   4   7  ar  
  8   5   8  1   
  9   5  21  1   
 10   5  22  1   
 11   6   9  1   
 12   6  10  ar  
 13   7  11  ar  
 14   7  23  1   
 15   8  12  1   
 16   8  24  1   
 17   8  25  1   
 18   9  13  1   
 19  10  14  ar  
 20  10  26  1   
 21  11  14  ar  
 22  11  27  1   
 23  12  15  1   
 24  12  28  1   
 25  12  29  1   
 26  13  30  1   
 27  13  31  1   
 28  13  32  1   
 29  14  33  1   
 30  15  16  1   
 31  15  34  1   
 32  15  35  1   
 33  16  17  1   
 34  16  36  1   
 35  16  37  1   
 36  17  18  ar  
 37  17  19  ar  
@<TRIPOS>SUBSTRUCTURE
  1 ****   3 GROUP 4 **** **** 0

# MOE 2024.06 (io_trps.svl 2023.06)
