@<TRIPOS>MOLECULE
NONAME
41 42 1 0 0 
SMALL
USER_CHARGES


@<TRIPOS>ATOM
  1 O       -0.3970    -0.3110     0.7570 O.3   1 <1>  -0.5600 
  2 C       -1.3670    -0.5720    -0.3310 C.3   1 <1>   0.2000 
  3 C        1.0320    -0.6460     0.6710 C.3   1 <1>   0.1200 
  4 C       -2.7800    -0.1320     0.1500 C.3   1 <1>   0.0000 
  5 C       -1.1630    -2.0630    -1.0330 C.3   1 <1>   0.0580 
  6 C        1.3320    -2.0950    -0.0380 C.3   1 <1>   0.0000 
  7 C       -2.7150     1.3970     0.4080 C.3   1 <1>   0.1200 
  8 C       -3.1800    -0.8220     1.4730 C.3   1 <1>  -0.2400 
  9 C       -3.8320    -0.4170    -0.9450 C.3   1 <1>  -0.2400 
 10 C       -1.4830    -3.3480    -0.1350 C.2   1 <1>  -0.2760 
 11 C        0.3680    -2.1740    -1.2520 C.3   1 <1>  -0.1600 
 12 C        0.9230    -3.3330     0.9190 C.3   1 <1>  -0.0220 
 13 C        2.8000    -2.2000    -0.4880 C.3   1 <1>   0.1200 
 14 O       -3.9600     1.9190     0.7550 O.3   1 <1>  -0.6800 
 15 C       -0.5510    -3.8620     0.7150 C.2   1 <1>  -0.2880 
 16 C       -2.8420    -4.0010    -0.3410 C.3   1 <1>  -0.1020 
 17 O        3.6480    -2.1630     0.6100 O.3   1 <1>  -0.6800 
 18 H       -1.0970     0.1250    -1.1060 H     1 <1>   0.0800 
 19 H        1.4310    -0.6240     1.6690 H     1 <1>   0.0800 
 20 H        1.4980     0.1370     0.0990 H     1 <1>   0.0800 
 21 H       -1.6740    -2.1230    -1.9780 H     1 <1>   0.0800 
 22 H       -2.3800     1.9140    -0.4740 H     1 <1>   0.0800 
 23 H       -2.0320     1.6080     1.2130 H     1 <1>   0.0800 
 24 H       -2.5310    -0.5030     2.2690 H     1 <1>   0.0800 
 25 H       -3.1060    -1.8860     1.4120 H     1 <1>   0.0800 
 26 H       -4.1890    -0.5650     1.7440 H     1 <1>   0.0800 
 27 H       -3.5950     0.1260    -1.8420 H     1 <1>   0.0800 
 28 H       -4.8090    -0.1090    -0.6160 H     1 <1>   0.0800 
 29 H       -3.8830    -1.4590    -1.1840 H     1 <1>   0.0800 
 30 H        0.0390    -2.0130    -0.4190 H     1 <1>   0.0800 
 31 H        0.6160    -1.3200    -1.8580 H     1 <1>   0.0800 
 32 H        1.0660    -3.0540     1.9480 H     1 <1>   0.0800 
 33 H        1.5850    -4.1570     0.7190 H     1 <1>   0.0800 
 34 H        3.0630    -1.3910    -1.1480 H     1 <1>   0.0800 
 35 H        2.9660    -3.1330    -1.0000 H     1 <1>   0.0800 
 36 H       -3.8790     2.8590     1.0080 H     1 <1>   0.4000 
 37 H       -0.7510    -4.7260     1.3250 H     1 <1>   0.1500 
 38 H       -3.6510    -3.3520    -0.0740 H     1 <1>   0.0800 
 39 H       -2.9220    -4.8890     0.2610 H     1 <1>   0.0800 
 40 H       -2.9560    -4.2850    -1.3710 H     1 <1>   0.0800 
 41 H        3.6110    -1.2970     1.0580 H     1 <1>   0.4000 
@<TRIPOS>BOND
  1   1   2  1   
  2   1   3  1   
  3   2   4  1   
  4   2   5  1   
  5   2  18  1   
  6   3   6  1   
  7   3  19  1   
  8   3  20  1   
  9   4   7  1   
 10   4   8  1   
 11   4   9  1   
 12   5  10  1   
 13   5  11  1   
 14   5  21  1   
 15   6  11  1   
 16   6  12  1   
 17   6  13  1   
 18   7  14  1   
 19   7  22  1   
 20   7  23  1   
 21   8  24  1   
 22   8  25  1   
 23   8  26  1   
 24   9  27  1   
 25   9  28  1   
 26   9  29  1   
 27  10  15  2   
 28  10  16  1   
 29  11  30  1   
 30  11  31  1   
 31  12  15  1   
 32  12  32  1   
 33  12  33  1   
 34  13  17  1   
 35  13  34  1   
 36  13  35  1   
 37  14  36  1   
 38  15  37  1   
 39  16  38  1   
 40  16  39  1   
 41  16  40  1   
 42  17  41  1   
@<TRIPOS>SUBSTRUCTURE
  1 ****   2 GROUP 4 **** **** 0

# MOE 2024.06 (io_trps.svl 2023.06)
