@<TRIPOS>MOLECULE
NONAME
47 49 1 0 0 
SMALL
USER_CHARGES


@<TRIPOS>ATOM
  1 CL       2.7650     1.0800     1.0280 Cl    1 <1>  -0.1770 
  2 C        1.7740     2.2800     0.2370 C.ar  1 <1>   0.1770 
  3 C        0.7460     2.8800     0.9360 C.ar  1 <1>  -0.1500 
  4 C        2.0410     2.6090    -1.0780 C.ar  1 <1>  -0.1500 
  5 C       -0.0470     3.8360     0.3130 C.ar  1 <1>   0.1170 
  6 C        1.2590     3.5620    -1.7100 C.ar  1 <1>  -0.1500 
  7 N       -1.1040     4.4840     0.9740 N.am  1 <1>  -0.5470 
  8 C        0.2160     4.1770    -1.0210 C.ar  1 <1>   0.0830 
  9 C       -1.8140     4.2240     2.1080 C.2   1 <1>   0.5690 
 10 O       -0.5910     5.1220    -1.5910 O.3   1 <1>  -0.3630 
 11 O       -1.5800     3.3100     2.8620 O.2   1 <1>  -0.5700 
 12 C       -2.9880     5.1600     2.4080 C.3   1 <1>   0.1710 
 13 C       -0.3650     5.5890    -2.9040 C.3   1 <1>   0.0400 
 14 N       -3.4910     5.9020     1.2130 N.3   1 <1>  -0.8100 
 15 C       -4.3590     7.0320     1.6100 C.3   1 <1>   0.1100 
 16 C       -4.2380     5.0060     0.2940 C.3   1 <1>   0.1100 
 17 C       -4.8590     7.8410     0.3960 C.3   1 <1>   0.2090 
 18 C       -4.7380     5.7410    -0.9660 C.3   1 <1>   0.2090 
 19 N       -5.5080     6.9780    -0.6350 N.pl3 1 <1>  -0.8380 
 20 C       -6.8970     6.9280    -0.6740 C.ar  1 <1>   0.1000 
 21 C       -7.5700     7.6020    -1.6880 C.ar  1 <1>  -0.1500 
 22 C       -7.6280     6.2220     0.2790 C.ar  1 <1>  -0.1500 
 23 C       -8.9520     7.5770    -1.7590 C.ar  1 <1>  -0.1500 
 24 C       -9.0110     6.1870     0.2230 C.ar  1 <1>  -0.1500 
 25 C       -9.6470     6.8670    -0.7980 C.ar  1 <1>   0.1900 
 26 F      -10.9550     6.8380    -0.8570 F     1 <1>  -0.1900 
 27 H        0.5740     2.5990     1.9570 H     1 <1>   0.1500 
 28 H        2.8490     2.1240    -1.5950 H     1 <1>   0.1500 
 29 H        1.4780     3.8050    -2.7320 H     1 <1>   0.1500 
 30 H       -1.5160     5.2560     0.4340 H     1 <1>   0.3700 
 31 H       -2.6430     5.8660     3.1430 H     1 <1>   0.0800 
 32 H       -3.7850     4.5880     2.8490 H     1 <1>   0.0800 
 33 H       -1.0980     6.3450    -3.1200 H     1 <1>   0.0800 
 34 H       -0.4730     4.7690    -3.5910 H     1 <1>   0.0800 
 35 H        0.6220     6.0130    -2.9590 H     1 <1>   0.0800 
 36 H       -3.8080     7.6940     2.2540 H     1 <1>   0.0800 
 37 H       -5.2100     6.6670     2.1580 H     1 <1>   0.0800 
 38 H       -5.0840     4.5810     0.8040 H     1 <1>   0.0800 
 39 H       -3.6060     4.1940    -0.0210 H     1 <1>   0.0800 
 40 H       -4.0240     8.3490    -0.0550 H     1 <1>   0.0800 
 41 H       -5.5580     8.5890     0.7280 H     1 <1>   0.0800 
 42 H       -5.3570     5.0780    -1.5450 H     1 <1>   0.0800 
 43 H       -3.8910     6.0120    -1.5710 H     1 <1>   0.0800 
 44 H       -6.9940     8.1430    -2.4160 H     1 <1>   0.1500 
 45 H       -7.1090     5.7040     1.0620 H     1 <1>   0.1500 
 46 H       -9.4810     8.0940    -2.5380 H     1 <1>   0.1500 
 47 H       -9.5870     5.6460     0.9520 H     1 <1>   0.1500 
@<TRIPOS>BOND
  1   1   2  1   
  2   2   3  ar  
  3   2   4  ar  
  4   3   5  ar  
  5   3  27  1   
  6   4   6  ar  
  7   4  28  1   
  8   5   7  1   
  9   5   8  ar  
 10   6   8  ar  
 11   6  29  1   
 12   7   9  am  
 13   7  30  1   
 14   8  10  1   
 15   9  11  2   
 16   9  12  1   
 17  10  13  1   
 18  12  14  1   
 19  12  31  1   
 20  12  32  1   
 21  13  33  1   
 22  13  34  1   
 23  13  35  1   
 24  14  15  1   
 25  14  16  1   
 26  15  17  1   
 27  15  36  1   
 28  15  37  1   
 29  16  18  1   
 30  16  38  1   
 31  16  39  1   
 32  17  19  1   
 33  17  40  1   
 34  17  41  1   
 35  18  19  1   
 36  18  42  1   
 37  18  43  1   
 38  19  20  1   
 39  20  21  ar  
 40  20  22  ar  
 41  21  23  ar  
 42  21  44  1   
 43  22  24  ar  
 44  22  45  1   
 45  23  25  ar  
 46  23  46  1   
 47  24  25  ar  
 48  24  47  1   
 49  25  26  1   
@<TRIPOS>SUBSTRUCTURE
  1 ****  16 GROUP 4 **** **** 0

# MOE 2024.06 (io_trps.svl 2023.06)
