@<TRIPOS>MOLECULE
NONAME
42 43 1 0 0 
SMALL
USER_CHARGES


@<TRIPOS>ATOM
  1 O       -0.7390     0.4530     0.8220 O.3   1 <1>  -0.5600 
  2 C       -0.4810     1.8160     0.6120 C.3   1 <1>   0.1200 
  3 C       -1.2850    -0.2050    -0.2890 C.3   1 <1>   0.1200 
  4 C       -1.7530     2.5680     0.1550 C.3   1 <1>   0.3430 
  5 C       -2.6290     0.4340    -0.7110 C.3   1 <1>   0.3430 
  6 N       -2.9450     1.6550     0.1110 N.4   1 <1>  -0.9590 
  7 C       -4.1890     2.3630    -0.2940 C.3   1 <1>   0.3430 
  8 C       -5.4220     1.5140     0.0250 C.3   1 <1>  -0.1600 
  9 C       -6.7040     2.2930    -0.3000 C.3   1 <1>  -0.1600 
 10 C       -7.9630     1.4820     0.0170 C.3   1 <1>   0.1200 
 11 O       -9.0710     2.2760    -0.3250 O.3   1 <1>  -0.3630 
 12 C      -10.3400     1.8270    -0.1570 C.ar  1 <1>   0.0820 
 13 C      -11.3600     2.6870    -0.5300 C.ar  1 <1>  -0.1500 
 14 C      -10.6600     0.5740     0.3600 C.ar  1 <1>  -0.1500 
 15 C      -12.6840     2.3090    -0.3920 C.ar  1 <1>  -0.1500 
 16 C      -11.9860     0.2000     0.4970 C.ar  1 <1>  -0.1500 
 17 C      -13.0040     1.0630     0.1240 C.ar  1 <1>  -0.1430 
 18 C      -14.4560     0.6470     0.2740 C.3   1 <1>  -0.0970 
 19 H        0.3020     1.9100    -0.1220 H     1 <1>   0.0800 
 20 H       -0.1200     2.2260     1.5390 H     1 <1>   0.0800 
 21 H       -1.4320    -1.2370    -0.0200 H     1 <1>   0.0800 
 22 H       -0.5730    -0.1670    -1.0960 H     1 <1>   0.0800 
 23 H       -1.5770     2.9900    -0.8210 H     1 <1>   0.0800 
 24 H       -1.9370     3.3860     0.8330 H     1 <1>   0.0800 
 25 H       -3.4100    -0.2990    -0.5970 H     1 <1>   0.0800 
 26 H       -2.5780     0.6940    -1.7550 H     1 <1>   0.0800 
 27 H       -3.0450     1.3090     1.0780 H     1 <1>   0.4500 
 28 H       -4.1610     2.5890    -1.3480 H     1 <1>   0.0800 
 29 H       -4.2640     3.2940     0.2460 H     1 <1>   0.0800 
 30 H       -5.4250     1.2580     1.0700 H     1 <1>   0.0800 
 31 H       -5.4120     0.6090    -0.5580 H     1 <1>   0.0800 
 32 H       -6.7190     2.5490    -1.3460 H     1 <1>   0.0800 
 33 H       -6.7330     3.2030     0.2760 H     1 <1>   0.0800 
 34 H       -8.0220     1.2520     1.0670 H     1 <1>   0.0800 
 35 H       -8.0010     0.5790    -0.5690 H     1 <1>   0.0800 
 36 H      -11.1100     3.6520    -0.9300 H     1 <1>   0.1500 
 37 H       -9.9000    -0.1200     0.6600 H     1 <1>   0.1500 
 38 H      -13.4630     2.9890    -0.6890 H     1 <1>   0.1500 
 39 H      -12.2250    -0.7710     0.8960 H     1 <1>   0.1500 
 40 H      -15.0770     1.5070     0.4460 H     1 <1>   0.0800 
 41 H      -14.5700    -0.0250     1.1060 H     1 <1>   0.0800 
 42 H      -14.7860     0.1520    -0.6210 H     1 <1>   0.0800 
@<TRIPOS>BOND
  1   1   2  1   
  2   1   3  1   
  3   2   4  1   
  4   2  19  1   
  5   2  20  1   
  6   3   5  1   
  7   3  21  1   
  8   3  22  1   
  9   4   6  1   
 10   4  23  1   
 11   4  24  1   
 12   5   6  1   
 13   5  25  1   
 14   5  26  1   
 15   6   7  1   
 16   6  27  1   
 17   7   8  1   
 18   7  28  1   
 19   7  29  1   
 20   8   9  1   
 21   8  30  1   
 22   8  31  1   
 23   9  10  1   
 24   9  32  1   
 25   9  33  1   
 26  10  11  1   
 27  10  34  1   
 28  10  35  1   
 29  11  12  1   
 30  12  13  ar  
 31  12  14  ar  
 32  13  15  ar  
 33  13  36  1   
 34  14  16  ar  
 35  14  37  1   
 36  15  17  ar  
 37  15  38  1   
 38  16  17  ar  
 39  16  39  1   
 40  17  18  1   
 41  18  40  1   
 42  18  41  1   
 43  18  42  1   
@<TRIPOS>SUBSTRUCTURE
  1 ****  10 GROUP 4 **** **** 0

# MOE 2024.06 (io_trps.svl 2023.06)
