@<TRIPOS>MOLECULE
NONAME
38 41 1 0 0 
SMALL
USER_CHARGES


@<TRIPOS>ATOM
  1 S       -0.1600     0.8090     3.0880 S.3   1 <1>  -0.0800 
  2 C       -0.3810     1.5300     1.4950 C.2   1 <1>   0.3250 
  3 C        1.4620     1.4200     3.1550 C.2   1 <1>  -0.1100 
  4 N        0.6770     2.1510     1.0940 N.2   1 <1>  -0.5650 
  5 C       -1.6470     1.3810     0.8100 C.ar  1 <1>   0.0530 
  6 C        1.7060     2.0950     2.0220 C.2   1 <1>   0.0460 
  7 C       -1.9140     2.1680    -0.3180 C.ar  1 <1>  -0.1500 
  8 C       -2.6380     0.4690     1.2190 C.ar  1 <1>  -0.1500 
  9 C        3.0070     2.7930     1.6470 C.3   1 <1>   0.5240 
 10 C       -3.1150     2.0240    -0.9780 C.ar  1 <1>   0.0830 
 11 C       -3.8430     0.3370     0.5440 C.ar  1 <1>  -0.1500 
 12 N        3.2910     2.4820     0.2190 N.4   1 <1>  -0.9590 
 13 O       -3.5460     2.6760    -2.0630 O.3   1 <1>  -0.3630 
 14 C       -4.0580     1.1330    -0.5610 C.ar  1 <1>   0.0830 
 15 C        3.7240     1.0570     0.0210 C.3   1 <1>   0.3430 
 16 C        4.2330     3.4520    -0.4290 C.3   1 <1>   0.3430 
 17 C       -4.8490     2.1720    -2.3510 C.3   1 <1>   0.4000 
 18 O       -5.1250     1.1840    -1.3600 O.3   1 <1>  -0.3630 
 19 C        4.0620     0.7760    -1.4550 C.3   1 <1>   0.1200 
 20 C        4.5470     3.0420    -1.8820 C.3   1 <1>   0.1200 
 21 O        4.9870     1.7150    -1.9250 O.3   1 <1>  -0.5600 
 22 H        2.0390     1.2030     4.0370 H     1 <1>   0.1500 
 23 H       -1.2000     2.8850    -0.6770 H     1 <1>   0.1500 
 24 H       -2.4750    -0.1570     2.0770 H     1 <1>   0.1500 
 25 H        3.8140     2.4700     2.2830 H     1 <1>   0.0800 
 26 H        2.8680     3.8540     1.7660 H     1 <1>   0.0800 
 27 H       -4.5980    -0.3610     0.8610 H     1 <1>   0.1500 
 28 H        2.3580     2.5630    -0.2220 H     1 <1>   0.4500 
 29 H        2.9420     0.3870     0.3400 H     1 <1>   0.0800 
 30 H        4.6010     0.8540     0.6130 H     1 <1>   0.0800 
 31 H        5.1600     3.4830     0.1190 H     1 <1>   0.0800 
 32 H        3.8080     4.4420    -0.4240 H     1 <1>   0.0800 
 33 H       -4.8530     1.7170    -3.3260 H     1 <1>   0.0800 
 34 H       -5.5690     2.9670    -2.2780 H     1 <1>   0.0800 
 35 H        3.1800     0.8160    -2.0710 H     1 <1>   0.0800 
 36 H        4.5060    -0.1990    -1.5560 H     1 <1>   0.0800 
 37 H        5.3320     3.6600    -2.2810 H     1 <1>   0.0800 
 38 H        3.6790     3.1410    -2.5110 H     1 <1>   0.0800 
@<TRIPOS>BOND
  1   1   2  1   
  2   1   3  1   
  3   2   4  2   
  4   2   5  1   
  5   3   6  2   
  6   3  22  1   
  7   4   6  1   
  8   5   7  ar  
  9   5   8  ar  
 10   6   9  1   
 11   7  10  ar  
 12   7  23  1   
 13   8  11  ar  
 14   8  24  1   
 15   9  12  1   
 16   9  25  1   
 17   9  26  1   
 18  10  13  1   
 19  10  14  ar  
 20  11  14  ar  
 21  11  27  1   
 22  12  15  1   
 23  12  16  1   
 24  12  28  1   
 25  13  17  1   
 26  14  18  1   
 27  15  19  1   
 28  15  29  1   
 29  15  30  1   
 30  16  20  1   
 31  16  31  1   
 32  16  32  1   
 33  17  18  1   
 34  17  33  1   
 35  17  34  1   
 36  19  21  1   
 37  19  35  1   
 38  19  36  1   
 39  20  21  1   
 40  20  37  1   
 41  20  38  1   
@<TRIPOS>SUBSTRUCTURE
  1 ****   4 GROUP 4 **** **** 0

# MOE 2024.06 (io_trps.svl 2023.06)
