@<TRIPOS>MOLECULE
NONAME
46 47 1 0 0 
SMALL
USER_CHARGES


@<TRIPOS>ATOM
  1 O      -10.7720     2.9340    -0.1730 O.3   1 <1>  -0.2800 
  2 C      -11.5400     3.9170    -0.6270 C.2   1 <1>   0.0870 
  3 C       -9.5130     3.2100    -0.4450 C.2   1 <1>  -0.0400 
  4 C      -12.9770     3.8640    -0.4550 C.ar  1 <1>   0.0530 
  5 C      -10.7410     4.8510    -1.2100 C.2   1 <1>  -0.1500 
  6 C       -9.4280     4.3910    -1.0920 C.2   1 <1>  -0.1500 
  7 C       -8.4500     2.2170    -0.0120 C.3   1 <1>   0.2900 
  8 C      -13.8020     4.8910    -0.9130 C.ar  1 <1>  -0.1500 
  9 C      -13.5970     2.7870     0.1750 C.ar  1 <1>  -0.1500 
 10 N       -7.1100     2.8060    -0.1550 N.3   1 <1>  -0.9000 
 11 C      -15.1740     4.8440    -0.7490 C.ar  1 <1>  -0.1500 
 12 C      -14.9690     2.7350     0.3420 C.ar  1 <1>  -0.1500 
 13 C       -6.0540     1.9310     0.3510 C.3   1 <1>   0.1100 
 14 C      -15.7750     3.7640    -0.1190 C.ar  1 <1>  -0.1430 
 15 C       -4.6820     2.4850    -0.0700 C.3   1 <1>   0.3430 
 16 C      -17.2850     3.6970     0.0710 C.3   1 <1>   0.3430 
 17 N       -3.5400     1.6110     0.3630 N.4   1 <1>  -0.9590 
 18 O      -17.8800     3.9120    -1.1510 O.3   1 <1>  -0.6800 
 19 C      -17.8050     4.7560     1.0350 C.3   1 <1>  -0.2400 
 20 C       -2.2440     2.3310     0.1660 C.3   1 <1>   0.2630 
 21 C       -3.5210     0.3080    -0.3780 C.3   1 <1>   0.2630 
 22 H      -11.0280     5.7730    -1.6800 H     1 <1>   0.1500 
 23 H       -8.5510     4.8950    -1.4580 H     1 <1>   0.1500 
 24 H       -8.5330     1.3290    -0.6160 H     1 <1>   0.0800 
 25 H       -8.6270     1.9530     1.0170 H     1 <1>   0.0800 
 26 H      -13.3660     5.7410    -1.4050 H     1 <1>   0.1500 
 27 H      -12.9930     1.9760     0.5420 H     1 <1>   0.1500 
 28 H       -7.1380     3.6930     0.3690 H     1 <1>   0.3600 
 29 H      -15.7820     5.6550    -1.1150 H     1 <1>   0.1500 
 30 H      -15.4050     1.8840     0.8370 H     1 <1>   0.1500 
 31 H       -6.1900     0.9500    -0.0720 H     1 <1>   0.0800 
 32 H       -6.1210     1.8690     1.4240 H     1 <1>   0.0800 
 33 H       -4.5670     3.4640     0.3650 H     1 <1>   0.0800 
 34 H       -4.6680     2.5920    -1.1430 H     1 <1>   0.0800 
 35 H      -17.5780     2.7160     0.4060 H     1 <1>   0.0800 
 36 H       -3.6460     1.4170     1.3710 H     1 <1>   0.4500 
 37 H      -17.3410     3.4690    -1.8330 H     1 <1>   0.4000 
 38 H      -17.5670     5.7410     0.6770 H     1 <1>   0.0800 
 39 H      -17.3480     4.6220     1.9980 H     1 <1>   0.0800 
 40 H      -18.8700     4.6630     1.1440 H     1 <1>   0.0800 
 41 H       -2.0960     2.5590    -0.8780 H     1 <1>   0.0800 
 42 H       -1.4210     1.7220     0.5050 H     1 <1>   0.0800 
 43 H       -2.2380     3.2530     0.7230 H     1 <1>   0.0800 
 44 H       -3.4360     0.4820    -1.4390 H     1 <1>   0.0800 
 45 H       -4.4270    -0.2460    -0.1920 H     1 <1>   0.0800 
 46 H       -2.6840    -0.2920    -0.0590 H     1 <1>   0.0800 
@<TRIPOS>BOND
  1   1   2  1   
  2   1   3  1   
  3   2   4  1   
  4   2   5  2   
  5   3   6  2   
  6   3   7  1   
  7   4   8  ar  
  8   4   9  ar  
  9   5   6  1   
 10   5  22  1   
 11   6  23  1   
 12   7  10  1   
 13   7  24  1   
 14   7  25  1   
 15   8  11  ar  
 16   8  26  1   
 17   9  12  ar  
 18   9  27  1   
 19  10  13  1   
 20  10  28  1   
 21  11  14  ar  
 22  11  29  1   
 23  12  14  ar  
 24  12  30  1   
 25  13  15  1   
 26  13  31  1   
 27  13  32  1   
 28  14  16  1   
 29  15  17  1   
 30  15  33  1   
 31  15  34  1   
 32  16  18  1   
 33  16  19  1   
 34  16  35  1   
 35  17  20  1   
 36  17  21  1   
 37  17  36  1   
 38  18  37  1   
 39  19  38  1   
 40  19  39  1   
 41  19  40  1   
 42  20  41  1   
 43  20  42  1   
 44  20  43  1   
 45  21  44  1   
 46  21  45  1   
 47  21  46  1   
@<TRIPOS>SUBSTRUCTURE
  1 ****   1 GROUP 4 **** **** 0

# MOE 2024.06 (io_trps.svl 2023.06)
