@<TRIPOS>MOLECULE
NONAME
55 57 1 0 0 
SMALL
USER_CHARGES


@<TRIPOS>ATOM
  1 P        0.1780    -0.2570     0.5250 P.3   1 <1>   1.5100 
  2 O        0.7730    -1.4440    -0.0860 O.2   1 <1>  -0.7000 
  3 O        0.0720     1.0140    -0.4910 O.3   1 <1>  -0.3540 
  4 O       -1.2850    -0.4480     1.2100 O.3   1 <1>  -0.3540 
  5 N        1.1780     0.2690     1.7640 N.3   1 <1>  -0.8980 
  6 C       -0.3820     2.2640    -0.2340 C.ar  1 <1>   0.0830 
  7 C       -2.4330    -0.7110     0.5440 C.ar  1 <1>   0.0830 
  8 C        2.4990     0.7880     1.3900 C.3   1 <1>   0.1100 
  9 C       -0.7930     2.6990     1.0220 C.ar  1 <1>  -0.1500 
 10 C       -0.4230     3.1410    -1.3060 C.ar  1 <1>  -0.1500 
 11 C       -2.4660    -1.2500    -0.7380 C.ar  1 <1>  -0.1500 
 12 C       -3.6200    -0.4120     1.1930 C.ar  1 <1>  -0.1500 
 13 C        3.3760    -0.2380     0.6350 C.3   1 <1>   0.3430 
 14 C       -1.2300     4.0010     1.1920 C.ar  1 <1>  -0.1500 
 15 C       -0.8600     4.4420    -1.1300 C.ar  1 <1>  -0.1500 
 16 C       -3.6830    -1.4730    -1.3590 C.ar  1 <1>  -0.1500 
 17 C       -4.8330    -0.6390     0.5680 C.ar  1 <1>  -0.1500 
 18 N        4.7060     0.3250     0.2490 N.4   1 <1>  -0.9590 
 19 C       -1.2630     4.8790     0.1210 C.ar  1 <1>  -0.1430 
 20 C       -4.8700    -1.1700    -0.7110 C.ar  1 <1>  -0.1430 
 21 C        4.6280     1.4590    -0.7390 C.3   1 <1>   0.3430 
 22 C        5.6310    -0.7400    -0.2700 C.3   1 <1>   0.3430 
 23 C       -1.7480     6.3040     0.3150 C.3   1 <1>  -0.0970 
 24 C       -6.2000    -1.4130    -1.4000 C.3   1 <1>  -0.0970 
 25 C        6.0360     1.9430    -1.1590 C.3   1 <1>   0.1200 
 26 C        7.0010    -0.1500    -0.6790 C.3   1 <1>   0.1200 
 27 O        7.0390     1.2380    -0.4780 O.3   1 <1>  -0.5600 
 28 H        1.2710    -0.5180     2.4100 H     1 <1>   0.3600 
 29 H        3.0060     1.0920     2.2900 H     1 <1>   0.0800 
 30 H        2.3520     1.6630     0.7800 H     1 <1>   0.0800 
 31 H       -0.7870     2.0520     1.8790 H     1 <1>   0.1500 
 32 H       -0.1190     2.8060    -2.2810 H     1 <1>   0.1500 
 33 H       -1.5700    -1.5110    -1.2690 H     1 <1>   0.1500 
 34 H       -3.5930     0.0010     2.1850 H     1 <1>   0.1500 
 35 H        2.8650    -0.5620    -0.2570 H     1 <1>   0.0800 
 36 H        3.5210    -1.0980     1.2690 H     1 <1>   0.0800 
 37 H       -1.5490     4.3290     2.1660 H     1 <1>   0.1500 
 38 H       -0.8900     5.1120    -1.9710 H     1 <1>   0.1500 
 39 H       -3.7020    -1.8880    -2.3520 H     1 <1>   0.1500 
 40 H       -5.7470    -0.3980     1.0810 H     1 <1>   0.1500 
 41 H        5.1870     0.7130     1.0750 H     1 <1>   0.4500 
 42 H        4.0910     2.2890    -0.3110 H     1 <1>   0.0800 
 43 H        4.0910     1.1460    -1.6190 H     1 <1>   0.0800 
 44 H        5.1910    -1.2230    -1.1270 H     1 <1>   0.0800 
 45 H        5.7860    -1.4950     0.4830 H     1 <1>   0.0800 
 46 H       -2.8120     6.3480     0.1690 H     1 <1>   0.0800 
 47 H       -1.2730     6.9640    -0.3890 H     1 <1>   0.0800 
 48 H       -1.5200     6.6480     1.3080 H     1 <1>   0.0800 
 49 H       -6.4900    -0.5360    -1.9500 H     1 <1>   0.0800 
 50 H       -6.9630    -1.6380    -0.6760 H     1 <1>   0.0800 
 51 H       -6.1250    -2.2420    -2.0810 H     1 <1>   0.0800 
 52 H        6.1540     2.9880    -0.9260 H     1 <1>   0.0800 
 53 H        6.1840     1.8170    -2.2180 H     1 <1>   0.0800 
 54 H        7.2120    -0.3550    -1.7150 H     1 <1>   0.0800 
 55 H        7.7850    -0.5870    -0.0850 H     1 <1>   0.0800 
@<TRIPOS>BOND
  1   1   2  2   
  2   1   3  1   
  3   1   4  1   
  4   1   5  1   
  5   3   6  1   
  6   4   7  1   
  7   5   8  1   
  8   5  28  1   
  9   6   9  ar  
 10   6  10  ar  
 11   7  11  ar  
 12   7  12  ar  
 13   8  13  1   
 14   8  29  1   
 15   8  30  1   
 16   9  14  ar  
 17   9  31  1   
 18  10  15  ar  
 19  10  32  1   
 20  11  16  ar  
 21  11  33  1   
 22  12  17  ar  
 23  12  34  1   
 24  13  18  1   
 25  13  35  1   
 26  13  36  1   
 27  14  19  ar  
 28  14  37  1   
 29  15  19  ar  
 30  15  38  1   
 31  16  20  ar  
 32  16  39  1   
 33  17  20  ar  
 34  17  40  1   
 35  18  21  1   
 36  18  22  1   
 37  18  41  1   
 38  19  23  1   
 39  20  24  1   
 40  21  25  1   
 41  21  42  1   
 42  21  43  1   
 43  22  26  1   
 44  22  44  1   
 45  22  45  1   
 46  23  46  1   
 47  23  47  1   
 48  23  48  1   
 49  24  49  1   
 50  24  50  1   
 51  24  51  1   
 52  25  27  1   
 53  25  52  1   
 54  25  53  1   
 55  26  27  1   
 56  26  54  1   
 57  26  55  1   
@<TRIPOS>SUBSTRUCTURE
  1 ****   3 GROUP 4 **** **** 0

# MOE 2024.06 (io_trps.svl 2023.06)
