@<TRIPOS>MOLECULE
NONAME
50 51 1 0 0 
SMALL
USER_CHARGES


@<TRIPOS>ATOM
  1 S        0.2590    -0.3480     0.5280 S.o2  1 <1>   1.4470 
  2 O        0.8500    -1.1100    -0.5520 O.2   1 <1>  -0.6500 
  3 O        0.0890    -0.9730     1.8220 O.2   1 <1>  -0.6500 
  4 N       -1.2640     0.1690    -0.0140 N.am  1 <1>  -0.8490 
  5 C        1.1600     1.2120     0.7530 C.ar  1 <1>  -0.0090 
  6 C       -2.2990    -0.8460     0.1970 C.3   1 <1>   0.1960 
  7 C       -1.2250     0.6430    -1.3980 C.3   1 <1>   0.1960 
  8 C        2.3720     1.4460     0.1210 C.ar  1 <1>  -0.1500 
  9 C        0.6500     2.2150     1.5650 C.ar  1 <1>  -0.1500 
 10 C       -3.1030    -0.4680     1.4350 C.3   1 <1>  -0.2400 
 11 C       -2.3760     1.6160    -1.6450 C.3   1 <1>  -0.2400 
 12 C        3.0850     2.6360     0.2720 C.ar  1 <1>   0.0860 
 13 C        1.3290     3.4070     1.7360 C.ar  1 <1>  -0.1500 
 14 C        2.5390     3.6240     1.0990 C.ar  1 <1>  -0.1440 
 15 C        4.3510     2.7930    -0.4180 C.2   1 <1>   0.5440 
 16 C        3.2580     4.9500     1.3180 C.3   1 <1>  -0.0970 
 17 O        4.5330     3.7240    -1.1770 O.2   1 <1>  -0.5700 
 18 N        5.3290     1.8550    -0.2000 N.am  1 <1>  -0.5470 
 19 C        6.6200     1.6390    -0.7160 C.ar  1 <1>   0.1170 
 20 C        7.2790     0.4610    -0.3440 C.ar  1 <1>   0.0820 
 21 C        7.2690     2.5280    -1.5650 C.ar  1 <1>  -0.1500 
 22 O        6.6100    -0.3900     0.4930 O.3   1 <1>  -0.3620 
 23 C        8.5590     0.1950    -0.8220 C.ar  1 <1>  -0.1500 
 24 C        8.5410     2.2590    -2.0380 C.ar  1 <1>  -0.1500 
 25 C        7.1480    -1.6460     0.8440 C.3   1 <1>   0.0400 
 26 C        9.1870     1.0940    -1.6680 C.ar  1 <1>  -0.1500 
 27 H       -1.8590    -1.8230     0.3210 H     1 <1>   0.0800 
 28 H       -2.9680    -0.8980    -0.6450 H     1 <1>   0.0800 
 29 H       -1.2660    -0.1890    -2.0830 H     1 <1>   0.0800 
 30 H       -0.3020     1.1710    -1.5780 H     1 <1>   0.0800 
 31 H        2.7770     0.6800    -0.5200 H     1 <1>   0.1500 
 32 H       -0.2910     2.0570     2.0670 H     1 <1>   0.1500 
 33 H       -2.4720    -0.4520     2.3050 H     1 <1>   0.0800 
 34 H       -3.8820    -1.1910     1.5960 H     1 <1>   0.0800 
 35 H       -3.5540     0.4990     1.3040 H     1 <1>   0.0800 
 36 H       -3.3280     1.1280    -1.5530 H     1 <1>   0.0800 
 37 H       -2.2990     2.0170    -2.6390 H     1 <1>   0.0800 
 38 H       -2.3240     2.4310    -0.9450 H     1 <1>   0.0800 
 39 H        0.9050     4.1650     2.3720 H     1 <1>   0.1500 
 40 H        4.2810     4.7770     1.6030 H     1 <1>   0.0800 
 41 H        2.7860     5.5280     2.0910 H     1 <1>   0.0800 
 42 H        3.2490     5.5250     0.4080 H     1 <1>   0.0800 
 43 H        5.0760     1.1170     0.4600 H     1 <1>   0.3700 
 44 H        6.7900     3.4410    -1.8640 H     1 <1>   0.1500 
 45 H        9.0860    -0.6990    -0.5520 H     1 <1>   0.1500 
 46 H        9.0260     2.9600    -2.6950 H     1 <1>   0.1500 
 47 H        6.4360    -2.1520     1.4710 H     1 <1>   0.0800 
 48 H        8.0660    -1.4960     1.3830 H     1 <1>   0.0800 
 49 H        7.3140    -2.2180    -0.0520 H     1 <1>   0.0800 
 50 H       10.1760     0.8870    -2.0370 H     1 <1>   0.1500 
@<TRIPOS>BOND
  1   1   2  2   
  2   1   3  2   
  3   1   4  am  
  4   1   5  1   
  5   4   6  1   
  6   4   7  1   
  7   5   8  ar  
  8   5   9  ar  
  9   6  10  1   
 10   6  27  1   
 11   6  28  1   
 12   7  11  1   
 13   7  29  1   
 14   7  30  1   
 15   8  12  ar  
 16   8  31  1   
 17   9  13  ar  
 18   9  32  1   
 19  10  33  1   
 20  10  34  1   
 21  10  35  1   
 22  11  36  1   
 23  11  37  1   
 24  11  38  1   
 25  12  14  ar  
 26  12  15  1   
 27  13  14  ar  
 28  13  39  1   
 29  14  16  1   
 30  15  17  2   
 31  15  18  am  
 32  16  40  1   
 33  16  41  1   
 34  16  42  1   
 35  18  19  1   
 36  18  43  1   
 37  19  20  ar  
 38  19  21  ar  
 39  20  22  1   
 40  20  23  ar  
 41  21  24  ar  
 42  21  44  1   
 43  22  25  1   
 44  23  26  ar  
 45  23  45  1   
 46  24  26  ar  
 47  24  46  1   
 48  25  47  1   
 49  25  48  1   
 50  25  49  1   
 51  26  50  1   
@<TRIPOS>SUBSTRUCTURE
  1 ****   8 GROUP 4 **** **** 0

# MOE 2024.06 (io_trps.svl 2023.06)
