@<TRIPOS>MOLECULE
NONAME
38 39 1 0 0 
SMALL
USER_CHARGES


@<TRIPOS>ATOM
  1 S        0.1720    -0.3130    -0.1890 S.o2  1 <1>   1.3330 
  2 O       -0.6650    -0.8980    -1.2070 O.2   1 <1>  -0.6500 
  3 O        1.5370    -0.7300    -0.0050 O.2   1 <1>  -0.6500 
  4 N        0.1770     1.3930    -0.4870 N.am  1 <1>  -0.6930 
  5 C       -0.6450    -0.4410     1.3880 C.3   1 <1>  -0.1350 
  6 C       -0.9840     2.1220    -0.2650 C.ar  1 <1>   0.1990 
  7 C        0.9500     1.7840    -1.7140 C.3   1 <1>   0.2570 
  8 C       -2.0960     1.9720    -1.0930 C.ar  1 <1>  -0.1500 
  9 C       -1.0450     3.0150     0.8030 C.ar  1 <1>  -0.1500 
 10 C        2.4670     1.5340    -1.6890 C.2   1 <1>   0.5690 
 11 C       -3.2500     2.7020    -0.8660 C.ar  1 <1>  -0.1500 
 12 C       -2.1920     3.7520     1.0430 C.ar  1 <1>  -0.1500 
 13 O        2.9390     0.9700    -2.6490 O.2   1 <1>  -0.5700 
 14 N        3.2640     1.9650    -0.6550 N.am  1 <1>  -0.6600 
 15 C       -3.2750     3.5810     0.2010 C.ar  1 <1>   0.1900 
 16 C        4.6640     1.4680    -0.5050 C.3   1 <1>   0.1400 
 17 C        2.8110     2.8020     0.4930 C.3   1 <1>   0.1400 
 18 F       -4.3610     4.2740     0.4220 F     1 <1>  -0.1900 
 19 C        5.6110     2.6030    -0.0840 C.3   1 <1>   0.1200 
 20 C        3.8680     3.8610     0.8510 C.3   1 <1>   0.1200 
 21 O        5.1200     3.2690     1.0460 O.3   1 <1>  -0.5600 
 22 H       -0.6830    -1.4670     1.6960 H     1 <1>   0.0800 
 23 H       -1.6480    -0.0680     1.3240 H     1 <1>   0.0800 
 24 H       -0.1090     0.1190     2.1290 H     1 <1>   0.0800 
 25 H        0.8000     2.8300    -1.9080 H     1 <1>   0.0800 
 26 H        0.5470     1.2430    -2.5530 H     1 <1>   0.0800 
 27 H       -2.0550     1.2770    -1.9150 H     1 <1>   0.1500 
 28 H       -0.1920     3.1270     1.4450 H     1 <1>   0.1500 
 29 H       -4.1140     2.5940    -1.4970 H     1 <1>   0.1500 
 30 H       -2.2540     4.4460     1.8630 H     1 <1>   0.1500 
 31 H        5.0140     1.0380    -1.4270 H     1 <1>   0.0800 
 32 H        4.6810     0.6950     0.2440 H     1 <1>   0.0800 
 33 H        2.6400     2.1660     1.3440 H     1 <1>   0.0800 
 34 H        1.8930     3.3030     0.2530 H     1 <1>   0.0800 
 35 H        5.7240     3.3140    -0.8840 H     1 <1>   0.0800 
 36 H        6.5780     2.2040     0.1630 H     1 <1>   0.0800 
 37 H        3.5990     4.3620     1.7630 H     1 <1>   0.0800 
 38 H        3.9530     4.5920     0.0660 H     1 <1>   0.0800 
@<TRIPOS>BOND
  1   1   2  2   
  2   1   3  2   
  3   1   4  am  
  4   1   5  1   
  5   4   6  1   
  6   4   7  1   
  7   5  22  1   
  8   5  23  1   
  9   5  24  1   
 10   6   8  ar  
 11   6   9  ar  
 12   7  10  1   
 13   7  25  1   
 14   7  26  1   
 15   8  11  ar  
 16   8  27  1   
 17   9  12  ar  
 18   9  28  1   
 19  10  13  2   
 20  10  14  am  
 21  11  15  ar  
 22  11  29  1   
 23  12  15  ar  
 24  12  30  1   
 25  14  16  1   
 26  14  17  1   
 27  15  18  1   
 28  16  19  1   
 29  16  31  1   
 30  16  32  1   
 31  17  20  1   
 32  17  33  1   
 33  17  34  1   
 34  19  21  1   
 35  19  35  1   
 36  19  36  1   
 37  20  21  1   
 38  20  37  1   
 39  20  38  1   
@<TRIPOS>SUBSTRUCTURE
  1 ****   4 GROUP 4 **** **** 0

# MOE 2024.06 (io_trps.svl 2023.06)
