@<TRIPOS>MOLECULE
NONAME
50 52 1 0 0 
SMALL
USER_CHARGES


@<TRIPOS>ATOM
  1 S        0.3350     1.8910     2.6500 S.o2  1 <1>   1.3330 
  2 O        1.5080     2.3880     3.3300 O.2   1 <1>  -0.6500 
  3 O       -0.9660     2.0050     3.2600 O.2   1 <1>  -0.6500 
  4 N        0.2650     2.6510     1.1020 N.am  1 <1>  -0.6930 
  5 C        0.6250     0.1950     2.1970 C.3   1 <1>  -0.1350 
  6 C       -0.8430     2.5290     0.2760 C.ar  1 <1>   0.1990 
  7 C        1.3890     3.5170     0.6970 C.3   1 <1>   0.3390 
  8 C       -0.8130     1.6880    -0.8290 C.ar  1 <1>  -0.1500 
  9 C       -2.0020     3.2440     0.5350 C.ar  1 <1>  -0.1500 
 10 C        2.4980     2.6850     0.0660 C.ar  1 <1>  -0.1430 
 11 C       -1.9030     1.5680    -1.6750 C.ar  1 <1>  -0.1430 
 12 C       -3.0970     3.1320    -0.3000 C.ar  1 <1>  -0.1500 
 13 C        3.5450     2.1960     0.8310 C.ar  1 <1>  -0.1500 
 14 C        2.4800     2.4130    -1.2920 C.ar  1 <1>  -0.1500 
 15 C       -3.0570     2.2990    -1.4090 C.ar  1 <1>  -0.1430 
 16 C       -1.8120     0.6360    -2.8740 C.3   1 <1>  -0.0970 
 17 C        4.5440     1.4360     0.2510 C.ar  1 <1>  -0.1500 
 18 C        3.4790     1.6500    -1.8660 C.ar  1 <1>  -0.1500 
 19 C       -4.2840     2.2040    -2.3040 C.3   1 <1>  -0.0970 
 20 C        4.5320     1.1320    -1.1120 C.ar  1 <1>   0.0860 
 21 C        5.5620     0.3180    -1.7370 C.2   1 <1>   0.5440 
 22 O        5.7790     0.4080    -2.9310 O.2   1 <1>  -0.5700 
 23 N        6.2890    -0.5750    -0.9970 N.am  1 <1>  -0.5790 
 24 C        7.3630    -1.4420    -1.5030 C.3   1 <1>   0.0490 
 25 C        7.4900    -2.8130    -0.9260 C.3   1 <1>  -0.2000 
 26 C        8.5000    -1.7570    -0.5880 C.3   1 <1>  -0.2000 
 27 H        0.7140    -0.4100     3.0780 H     1 <1>   0.0800 
 28 H        1.5290     0.1140     1.6260 H     1 <1>   0.0800 
 29 H       -0.1920    -0.1720     1.6080 H     1 <1>   0.0800 
 30 H        1.7630     4.0610     1.5480 H     1 <1>   0.0800 
 31 H        1.0350     4.2420    -0.0160 H     1 <1>   0.0800 
 32 H        0.0790     1.1210    -1.0170 H     1 <1>   0.1500 
 33 H       -2.0410     3.8830     1.3990 H     1 <1>   0.1500 
 34 H       -3.9840     3.6970    -0.0760 H     1 <1>   0.1500 
 35 H        3.5890     2.4120     1.8870 H     1 <1>   0.1500 
 36 H        1.6850     2.7950    -1.9100 H     1 <1>   0.1500 
 37 H       -0.8490     0.1600    -2.9230 H     1 <1>   0.0800 
 38 H       -1.9600     1.1890    -3.7840 H     1 <1>   0.0800 
 39 H       -2.5630    -0.1300    -2.8030 H     1 <1>   0.0800 
 40 H        5.3480     1.0860     0.8720 H     1 <1>   0.1500 
 41 H        3.4490     1.4470    -2.9240 H     1 <1>   0.1500 
 42 H       -4.6460     1.1920    -2.3270 H     1 <1>   0.0800 
 43 H       -4.0360     2.5120    -3.3040 H     1 <1>   0.0800 
 44 H       -5.0750     2.8360    -1.9440 H     1 <1>   0.0800 
 45 H        6.0560    -0.7150    -0.0170 H     1 <1>   0.3700 
 46 H        7.5690    -1.3020    -2.5540 H     1 <1>   0.1000 
 47 H        7.7910    -3.6160    -1.5750 H     1 <1>   0.1000 
 48 H        6.7890    -3.1290    -0.1750 H     1 <1>   0.1000 
 49 H        8.5060    -1.3320     0.4000 H     1 <1>   0.1000 
 50 H        9.4860    -1.8440    -1.0080 H     1 <1>   0.1000 
@<TRIPOS>BOND
  1   1   2  2   
  2   1   3  2   
  3   1   4  am  
  4   1   5  1   
  5   4   6  1   
  6   4   7  1   
  7   5  27  1   
  8   5  28  1   
  9   5  29  1   
 10   6   8  ar  
 11   6   9  ar  
 12   7  10  1   
 13   7  30  1   
 14   7  31  1   
 15   8  11  ar  
 16   8  32  1   
 17   9  12  ar  
 18   9  33  1   
 19  10  13  ar  
 20  10  14  ar  
 21  11  15  ar  
 22  11  16  1   
 23  12  15  ar  
 24  12  34  1   
 25  13  17  ar  
 26  13  35  1   
 27  14  18  ar  
 28  14  36  1   
 29  15  19  1   
 30  16  37  1   
 31  16  38  1   
 32  16  39  1   
 33  17  20  ar  
 34  17  40  1   
 35  18  20  ar  
 36  18  41  1   
 37  19  42  1   
 38  19  43  1   
 39  19  44  1   
 40  20  21  1   
 41  21  22  2   
 42  21  23  am  
 43  23  24  1   
 44  23  45  1   
 45  24  25  1   
 46  24  26  1   
 47  24  46  1   
 48  25  26  1   
 49  25  47  1   
 50  25  48  1   
 51  26  49  1   
 52  26  50  1   
@<TRIPOS>SUBSTRUCTURE
  1 ****  10 GROUP 4 **** **** 0

# MOE 2024.06 (io_trps.svl 2023.06)
