@<TRIPOS>MOLECULE
NONAME
49 51 1 0 0 
SMALL
USER_CHARGES


@<TRIPOS>ATOM
  1 O       -0.6440    -0.2910     0.2180 O.2   1 <1>  -0.5700 
  2 C       -1.0090    -1.4480     0.1320 C.2   1 <1>   0.6900 
  3 N       -2.3080    -1.7820     0.4180 N.am  1 <1>  -0.6600 
  4 N       -0.1410    -2.4430    -0.2170 N.am  1 <1>  -0.5470 
  5 C       -3.2080    -0.7620     1.0430 C.3   1 <1>   0.1400 
  6 C       -2.9630    -3.0370    -0.0670 C.3   1 <1>   0.1400 
  7 C        1.1810    -2.4000    -0.6870 C.ar  1 <1>   0.1170 
  8 C       -4.4330    -1.4020     1.7130 C.3   1 <1>   0.1400 
  9 C       -4.4520    -2.8330    -0.3900 C.3   1 <1>   0.1400 
 10 C        2.0590    -3.4580    -0.4210 C.ar  1 <1>  -0.1440 
 11 C        1.6280    -1.3230    -1.4470 C.ar  1 <1>  -0.1500 
 12 N       -5.2150    -2.2650     0.7680 N.am  1 <1>  -0.6600 
 13 C        3.3530    -3.4050    -0.9280 C.ar  1 <1>  -0.1500 
 14 C        1.5740    -4.6430     0.4250 C.3   1 <1>  -0.0170 
 15 C        2.9160    -1.2810    -1.9400 C.ar  1 <1>  -0.1500 
 16 C       -6.5720    -2.4320     0.9410 C.2   1 <1>   0.5690 
 17 C        3.7810    -2.3260    -1.6820 C.ar  1 <1>  -0.1500 
 18 C        2.6340    -5.6890     0.7910 C.3   1 <1>  -0.2400 
 19 O       -7.1220    -1.9500     1.9080 O.2   1 <1>  -0.5700 
 20 C       -7.4210    -3.2560    -0.0660 C.3   1 <1>   0.2610 
 21 O       -7.2060    -2.8430    -1.3910 O.3   1 <1>  -0.5600 
 22 C       -8.9380    -3.1220     0.0820 C.3   1 <1>  -0.1600 
 23 C       -8.0480    -1.7760    -1.6980 C.3   1 <1>   0.1200 
 24 C       -9.2690    -1.9220    -0.7930 C.3   1 <1>  -0.1600 
 25 H       -0.4750    -3.3610     0.0410 H     1 <1>   0.3700 
 26 H       -3.5370    -0.0720     0.2850 H     1 <1>   0.0800 
 27 H       -2.6570    -0.2020     1.7790 H     1 <1>   0.0800 
 28 H       -2.8720    -3.7960     0.6900 H     1 <1>   0.0800 
 29 H       -2.4680    -3.3850    -0.9580 H     1 <1>   0.0800 
 30 H       -5.0650    -0.6190     2.0960 H     1 <1>   0.0800 
 31 H       -4.1090    -2.0000     2.5460 H     1 <1>   0.0800 
 32 H       -4.8740    -3.7790    -0.6780 H     1 <1>   0.0800 
 33 H       -4.5430    -2.1630    -1.2280 H     1 <1>   0.0800 
 34 H        0.9610    -0.5070    -1.6570 H     1 <1>   0.1500 
 35 H        4.0570    -4.1960    -0.7500 H     1 <1>   0.1500 
 36 H        0.7810    -5.1400    -0.1050 H     1 <1>   0.0800 
 37 H        1.1660    -4.2570     1.3440 H     1 <1>   0.0800 
 38 H        3.2440    -0.4380    -2.5230 H     1 <1>   0.1500 
 39 H        4.7860    -2.3000    -2.0640 H     1 <1>   0.1500 
 40 H        3.0200    -6.1620    -0.0950 H     1 <1>   0.0800 
 41 H        2.1980    -6.4490     1.4150 H     1 <1>   0.0800 
 42 H        3.4420    -5.2300     1.3320 H     1 <1>   0.0800 
 43 H       -7.1320    -4.2880     0.0120 H     1 <1>   0.0800 
 44 H       -9.2550    -2.9960     1.1020 H     1 <1>   0.0800 
 45 H       -9.4030    -4.0060    -0.3170 H     1 <1>   0.0800 
 46 H       -8.3050    -1.8320    -2.7420 H     1 <1>   0.0800 
 47 H       -7.5200    -0.8600    -1.4950 H     1 <1>   0.0800 
 48 H       -9.3820    -1.0340    -0.1960 H     1 <1>   0.0800 
 49 H      -10.1660    -2.0810    -1.3640 H     1 <1>   0.0800 
@<TRIPOS>BOND
  1   1   2  2   
  2   2   3  am  
  3   2   4  am  
  4   3   5  1   
  5   3   6  1   
  6   4   7  1   
  7   4  25  1   
  8   5   8  1   
  9   5  26  1   
 10   5  27  1   
 11   6   9  1   
 12   6  28  1   
 13   6  29  1   
 14   7  10  ar  
 15   7  11  ar  
 16   8  12  1   
 17   8  30  1   
 18   8  31  1   
 19   9  12  1   
 20   9  32  1   
 21   9  33  1   
 22  10  13  ar  
 23  10  14  1   
 24  11  15  ar  
 25  11  34  1   
 26  12  16  am  
 27  13  17  ar  
 28  13  35  1   
 29  14  18  1   
 30  14  36  1   
 31  14  37  1   
 32  15  17  ar  
 33  15  38  1   
 34  16  19  2   
 35  16  20  1   
 36  17  39  1   
 37  18  40  1   
 38  18  41  1   
 39  18  42  1   
 40  20  21  1   
 41  20  22  1   
 42  20  43  1   
 43  21  23  1   
 44  22  24  1   
 45  22  44  1   
 46  22  45  1   
 47  23  24  1   
 48  23  46  1   
 49  23  47  1   
 50  24  48  1   
 51  24  49  1   
@<TRIPOS>SUBSTRUCTURE
  1 ****   6 GROUP 4 **** **** 0

# MOE 2024.06 (io_trps.svl 2023.06)
