@<TRIPOS>MOLECULE
NONAME
47 48 1 0 0 
SMALL
USER_CHARGES


@<TRIPOS>ATOM
  1 O       -1.0230     0.8970     2.4190 O.2   1 <1>  -0.5700 
  2 C       -1.4990     1.5870     1.5490 C.2   1 <1>   0.5690 
  3 N       -0.8380     1.9080     0.3960 N.am  1 <1>  -0.5470 
  4 C       -2.9320     2.1080     1.7330 C.3   1 <1>   0.2610 
  5 C        0.4240     1.5490    -0.1080 C.ar  1 <1>   0.1170 
  6 O       -3.5400     2.4040     0.4790 O.3   1 <1>  -0.3630 
  7 C       -2.9600     3.3870     2.5890 C.3   1 <1>  -0.1600 
  8 C        0.6340     1.6170    -1.4870 C.ar  1 <1>   0.0820 
  9 C        1.4780     1.1410     0.6990 C.ar  1 <1>  -0.1500 
 10 C       -3.8800     1.4390    -0.4140 C.ar  1 <1>   0.0820 
 11 C       -4.3800     3.9170     2.8410 C.3   1 <1>  -0.2400 
 12 O       -0.3750     2.0090    -2.3070 O.3   1 <1>  -0.3630 
 13 C        1.8640     1.3000    -2.0390 C.ar  1 <1>  -0.1500 
 14 C        2.7110     0.8130     0.1560 C.ar  1 <1>   0.0820 
 15 C       -3.7220     0.0740    -0.1880 C.ar  1 <1>  -0.1500 
 16 C       -4.4040     1.8720    -1.6210 C.ar  1 <1>  -0.1500 
 17 C       -1.1410     0.9590    -2.8550 C.3   1 <1>   0.0400 
 18 C        2.9040     0.8960    -1.2210 C.ar  1 <1>  -0.1500 
 19 O        3.6790     0.4260     1.0290 O.3   1 <1>  -0.3620 
 20 C       -4.0790    -0.8340    -1.1700 C.ar  1 <1>  -0.1500 
 21 C       -4.7610     0.9600    -2.5980 C.ar  1 <1>  -0.1500 
 22 C        4.9660     0.0660     0.5810 C.3   1 <1>   0.0400 
 23 C       -4.5960    -0.3980    -2.3790 C.ar  1 <1>  -0.1430 
 24 C       -4.9890    -1.3990    -3.4500 C.3   1 <1>  -0.0970 
 25 H       -1.4220     2.3820    -0.3000 H     1 <1>   0.3700 
 26 H       -3.5230     1.3520     2.2180 H     1 <1>   0.0800 
 27 H       -2.3670     4.1460     2.1090 H     1 <1>   0.0800 
 28 H       -2.4990     3.1690     3.5370 H     1 <1>   0.0800 
 29 H        1.3520     1.0770     1.7630 H     1 <1>   0.1500 
 30 H       -4.8530     4.1900     1.9130 H     1 <1>   0.0800 
 31 H       -4.3420     4.7870     3.4710 H     1 <1>   0.0800 
 32 H       -4.9820     3.1680     3.3260 H     1 <1>   0.0800 
 33 H        2.0010     1.3740    -3.1020 H     1 <1>   0.1500 
 34 H       -3.3240    -0.3060     0.7340 H     1 <1>   0.1500 
 35 H       -4.5310     2.9260    -1.7910 H     1 <1>   0.1500 
 36 H       -1.9420     1.3890    -3.4290 H     1 <1>   0.0800 
 37 H       -1.5440     0.3630    -2.0550 H     1 <1>   0.0800 
 38 H       -0.5120     0.3600    -3.4880 H     1 <1>   0.0800 
 39 H        3.8480     0.6530    -1.6700 H     1 <1>   0.1500 
 40 H       -3.9520    -1.8870    -0.9860 H     1 <1>   0.1500 
 41 H       -5.1700     1.3130    -3.5290 H     1 <1>   0.1500 
 42 H        5.5540    -0.2050     1.4390 H     1 <1>   0.0800 
 43 H        5.4120     0.9100     0.0850 H     1 <1>   0.0800 
 44 H        4.8810    -0.7750    -0.0850 H     1 <1>   0.0800 
 45 H       -6.0220    -1.6730    -3.3300 H     1 <1>   0.0800 
 46 H       -4.3850    -2.2850    -3.3780 H     1 <1>   0.0800 
 47 H       -4.8540    -0.9750    -4.4290 H     1 <1>   0.0800 
@<TRIPOS>BOND
  1   1   2  2   
  2   2   3  am  
  3   2   4  1   
  4   3   5  1   
  5   3  25  1   
  6   4   6  1   
  7   4   7  1   
  8   4  26  1   
  9   5   8  ar  
 10   5   9  ar  
 11   6  10  1   
 12   7  11  1   
 13   7  27  1   
 14   7  28  1   
 15   8  12  1   
 16   8  13  ar  
 17   9  14  ar  
 18   9  29  1   
 19  10  15  ar  
 20  10  16  ar  
 21  11  30  1   
 22  11  31  1   
 23  11  32  1   
 24  12  17  1   
 25  13  18  ar  
 26  13  33  1   
 27  14  18  ar  
 28  14  19  1   
 29  15  20  ar  
 30  15  34  1   
 31  16  21  ar  
 32  16  35  1   
 33  17  36  1   
 34  17  37  1   
 35  17  38  1   
 36  18  39  1   
 37  19  22  1   
 38  20  23  ar  
 39  20  40  1   
 40  21  23  ar  
 41  21  41  1   
 42  22  42  1   
 43  22  43  1   
 44  22  44  1   
 45  23  24  1   
 46  24  45  1   
 47  24  46  1   
 48  24  47  1   
@<TRIPOS>SUBSTRUCTURE
  1 ****   3 GROUP 4 **** **** 0

# MOE 2024.06 (io_trps.svl 2023.06)
