@<TRIPOS>MOLECULE
NONAME
58 60 1 0 0 
SMALL
USER_CHARGES


@<TRIPOS>ATOM
  1 O       -0.9810     1.2150     2.1660 O.2   1 <1>  -0.5700 
  2 C       -0.7190     2.1510     1.4470 C.2   1 <1>   0.6900 
  3 N        0.4810     2.7770     1.5470 N.am  1 <1>  -0.5390 
  4 N       -1.6160     2.6050     0.5550 N.am  1 <1>  -0.7300 
  5 C        0.8280     3.9040     0.8280 C.2   1 <1>  -0.0290 
  6 C       -1.4180     3.8070    -0.2790 C.3   1 <1>   0.5020 
  7 C       -0.0510     4.4500    -0.0510 C.2   1 <1>  -0.1240 
  8 C        2.2280     4.4250     1.1090 C.3   1 <1>  -0.1020 
  9 C       -2.5100     4.8190     0.0530 C.ar  1 <1>  -0.1440 
 10 C        0.0980     5.6320    -0.8330 C.2   1 <1>   0.6160 
 11 C       -3.2590     5.3880    -0.9650 C.ar  1 <1>  -0.1500 
 12 C       -2.7290     5.2260     1.3620 C.ar  1 <1>  -0.1500 
 13 O       -0.0860     5.5980    -2.0340 O.2   1 <1>  -0.5700 
 14 N        0.3910     6.8150    -0.2020 N.am  1 <1>  -0.5470 
 15 C       -4.1970     6.3720    -0.7000 C.ar  1 <1>   0.0830 
 16 C       -3.6620     6.2160     1.6540 C.ar  1 <1>   0.0830 
 17 C       -0.0140     8.1170    -0.5240 C.ar  1 <1>   0.1170 
 18 O       -4.8700     6.8480    -1.7850 O.3   1 <1>  -0.3630 
 19 C       -4.3750     6.8180     0.6140 C.ar  1 <1>   0.0830 
 20 O       -3.8960     6.6320     2.9320 O.3   1 <1>  -0.3630 
 21 C       -1.1020     8.3770    -1.3500 C.ar  1 <1>  -0.1500 
 22 C        0.6610     9.1940     0.0390 C.ar  1 <1>  -0.1500 
 23 C       -6.2410     7.1630    -1.6760 C.3   1 <1>   0.0400 
 24 O       -5.2120     7.8540     0.8920 O.3   1 <1>  -0.3630 
 25 C       -3.5150     5.8430     4.0380 C.3   1 <1>   0.0400 
 26 C       -1.5150     9.6720    -1.6040 C.ar  1 <1>  -0.1430 
 27 C        0.2620    10.4960    -0.2090 C.ar  1 <1>  -0.1430 
 28 C       -4.5700     9.0970     1.0660 C.3   1 <1>   0.0400 
 29 C       -0.8280    10.7300    -1.0320 C.ar  1 <1>  -0.1500 
 30 C       -2.7100     9.9230    -2.5050 C.3   1 <1>  -0.0970 
 31 C        1.0030    11.6700     0.4040 C.3   1 <1>  -0.0970 
 32 H        1.1150     2.3420     2.2160 H     1 <1>   0.3700 
 33 H       -2.5480     2.1970     0.5660 H     1 <1>   0.3700 
 34 H       -1.4960     3.5140    -1.3130 H     1 <1>   0.0800 
 35 H        2.9420     3.6280     0.9910 H     1 <1>   0.0800 
 36 H        2.2890     4.7960     2.1160 H     1 <1>   0.0800 
 37 H        2.5040     5.2110     0.4300 H     1 <1>   0.0800 
 38 H       -3.1110     5.0890    -1.9880 H     1 <1>   0.1500 
 39 H       -2.1500     4.7730     2.1450 H     1 <1>   0.1500 
 40 H        0.7250     6.7080     0.7510 H     1 <1>   0.3700 
 41 H       -1.6370     7.5590    -1.7960 H     1 <1>   0.1500 
 42 H        1.5050     9.0060     0.6750 H     1 <1>   0.1500 
 43 H       -6.6760     7.1150    -2.6570 H     1 <1>   0.0800 
 44 H       -6.3400     8.1590    -1.2840 H     1 <1>   0.0800 
 45 H       -6.7160     6.4510    -1.0240 H     1 <1>   0.0800 
 46 H       -3.8950     4.8460     3.9040 H     1 <1>   0.0800 
 47 H       -3.9430     6.2810     4.9220 H     1 <1>   0.0800 
 48 H       -2.4430     5.8420     4.1150 H     1 <1>   0.0800 
 49 H       -5.3240     9.8500     1.2080 H     1 <1>   0.0800 
 50 H       -3.9870     9.3130     0.1880 H     1 <1>   0.0800 
 51 H       -3.9340     9.0440     1.9310 H     1 <1>   0.0800 
 52 H       -1.1410    11.7390    -1.2300 H     1 <1>   0.1500 
 53 H       -3.3970     9.0970    -2.4570 H     1 <1>   0.0800 
 54 H       -2.3780    10.0370    -3.5220 H     1 <1>   0.0800 
 55 H       -3.2290    10.8140    -2.2040 H     1 <1>   0.0800 
 56 H        1.8010    11.3330     1.0410 H     1 <1>   0.0800 
 57 H        0.3260    12.2650     0.9890 H     1 <1>   0.0800 
 58 H        1.4210    12.2830    -0.3740 H     1 <1>   0.0800 
@<TRIPOS>BOND
  1   1   2  2   
  2   2   3  am  
  3   2   4  am  
  4   3   5  1   
  5   3  32  1   
  6   4   6  1   
  7   4  33  1   
  8   5   7  2   
  9   5   8  1   
 10   6   7  1   
 11   6   9  1   
 12   6  34  1   
 13   7  10  1   
 14   8  35  1   
 15   8  36  1   
 16   8  37  1   
 17   9  11  ar  
 18   9  12  ar  
 19  10  13  2   
 20  10  14  am  
 21  11  15  ar  
 22  11  38  1   
 23  12  16  ar  
 24  12  39  1   
 25  14  17  1   
 26  14  40  1   
 27  15  18  1   
 28  15  19  ar  
 29  16  19  ar  
 30  16  20  1   
 31  17  21  ar  
 32  17  22  ar  
 33  18  23  1   
 34  19  24  1   
 35  20  25  1   
 36  21  26  ar  
 37  21  41  1   
 38  22  27  ar  
 39  22  42  1   
 40  23  43  1   
 41  23  44  1   
 42  23  45  1   
 43  24  28  1   
 44  25  46  1   
 45  25  47  1   
 46  25  48  1   
 47  26  29  ar  
 48  26  30  1   
 49  27  29  ar  
 50  27  31  1   
 51  28  49  1   
 52  28  50  1   
 53  28  51  1   
 54  29  52  1   
 55  30  53  1   
 56  30  54  1   
 57  30  55  1   
 58  31  56  1   
 59  31  57  1   
 60  31  58  1   
@<TRIPOS>SUBSTRUCTURE
  1 ****   9 GROUP 4 **** **** 0

# MOE 2024.06 (io_trps.svl 2023.06)
