@<TRIPOS>MOLECULE
NONAME
36 37 1 0 0 
SMALL
USER_CHARGES


@<TRIPOS>ATOM
  1 CL       4.6140    -2.2460    -0.6920 Cl    1 <1>  -0.1770 
  2 C        4.9210    -0.5400    -0.4910 C.ar  1 <1>   0.1770 
  3 C        5.3120    -0.0630     0.7450 C.ar  1 <1>  -0.1500 
  4 C        4.7750     0.3070    -1.5730 C.ar  1 <1>  -0.1500 
  5 C        5.5660     1.2900     0.9000 C.ar  1 <1>  -0.1500 
  6 C        5.0270     1.6590    -1.4110 C.ar  1 <1>  -0.1500 
  7 C        5.4240     2.1560    -0.1760 C.ar  1 <1>  -0.1430 
  8 C        5.6820     3.6440     0.0050 C.3   1 <1>   0.2140 
  9 S        6.9740     4.1700    -1.1600 S.3   1 <1>  -0.4600 
 10 C        8.3830     4.6010    -0.0740 C.3   1 <1>   0.1310 
 11 C        9.0930     3.3700     0.4740 C.2   1 <1>   0.5690 
 12 O        9.6330     3.4500     1.5510 O.2   1 <1>  -0.5700 
 13 N        9.1200     2.2340    -0.2650 N.am  1 <1>  -0.7300 
 14 C        9.9050     1.0250     0.0300 C.3   1 <1>   0.2200 
 15 C       10.6970     0.6450    -1.2150 C.3   1 <1>  -0.1600 
 16 C        8.9590    -0.1530     0.2100 C.3   1 <1>  -0.1600 
 17 C        9.7250    -0.1320    -2.1130 C.3   1 <1>  -0.1600 
 18 C        8.5700    -0.5810    -1.2090 C.3   1 <1>  -0.1600 
 19 H        5.4190    -0.7430     1.5710 H     1 <1>   0.1500 
 20 H        4.4690    -0.0880    -2.5250 H     1 <1>   0.1500 
 21 H        5.8770     1.6610     1.8620 H     1 <1>   0.1500 
 22 H        4.9160     2.3250    -2.2500 H     1 <1>   0.1500 
 23 H        6.0200     3.8750     0.9990 H     1 <1>   0.0800 
 24 H        4.8000     4.2150    -0.2220 H     1 <1>   0.0800 
 25 H        8.0040     5.2060     0.7290 H     1 <1>   0.0800 
 26 H        9.0690     5.1780    -0.6650 H     1 <1>   0.0800 
 27 H        8.5370     2.1780    -1.1040 H     1 <1>   0.3700 
 28 H       10.5360     1.1800     0.8900 H     1 <1>   0.0800 
 29 H       11.4970    -0.0100    -0.9200 H     1 <1>   0.0800 
 30 H       11.1200     1.5050    -1.7050 H     1 <1>   0.0800 
 31 H        8.1130     0.0990     0.8220 H     1 <1>   0.0800 
 32 H        9.4970    -0.9550     0.6820 H     1 <1>   0.0800 
 33 H       10.2180    -0.9760    -2.5640 H     1 <1>   0.0800 
 34 H        9.3480     0.5070    -2.8940 H     1 <1>   0.0800 
 35 H        7.6690    -0.0710    -1.5030 H     1 <1>   0.0800 
 36 H        8.4030    -1.6420    -1.2660 H     1 <1>   0.0800 
@<TRIPOS>BOND
  1   1   2  1   
  2   2   3  ar  
  3   2   4  ar  
  4   3   5  ar  
  5   3  19  1   
  6   4   6  ar  
  7   4  20  1   
  8   5   7  ar  
  9   5  21  1   
 10   6   7  ar  
 11   6  22  1   
 12   7   8  1   
 13   8   9  1   
 14   8  23  1   
 15   8  24  1   
 16   9  10  1   
 17  10  11  1   
 18  10  25  1   
 19  10  26  1   
 20  11  12  2   
 21  11  13  am  
 22  13  14  1   
 23  13  27  1   
 24  14  15  1   
 25  14  16  1   
 26  14  28  1   
 27  15  17  1   
 28  15  29  1   
 29  15  30  1   
 30  16  18  1   
 31  16  31  1   
 32  16  32  1   
 33  17  18  1   
 34  17  33  1   
 35  17  34  1   
 36  18  35  1   
 37  18  36  1   
@<TRIPOS>SUBSTRUCTURE
  1 ****  13 GROUP 4 **** **** 0

# MOE 2024.06 (io_trps.svl 2023.06)
