@<TRIPOS>MOLECULE
NONAME
34 35 1 0 0 
SMALL
USER_CHARGES


@<TRIPOS>ATOM
  1 S       -0.4150    -0.0060     1.2820 S.2   1 <1>  -0.3800 
  2 C       -1.8150     0.6900     0.8340 C.2   1 <1>   0.5000 
  3 N       -1.8350     2.0370     0.8800 N.am  1 <1>  -0.5390 
  4 N       -2.9380     0.0020     0.4290 N.am  1 <1>  -0.4200 
  5 C       -2.9080     2.8070     0.5520 C.2   1 <1>  -0.0410 
  6 C       -4.0890     0.7610     0.0880 C.2   1 <1>   0.6160 
  7 C       -3.0260    -1.4980     0.3150 C.3   1 <1>   0.2200 
  8 O       -2.7320     4.0190     0.6560 O.3   1 <1>  -0.8500 
  9 C       -4.0650     2.1580     0.1470 C.2   1 <1>  -0.1240 
 10 O       -5.1180     0.1520    -0.2630 O.2   1 <1>  -0.5700 
 11 C       -2.8990    -2.2100     1.6730 C.3   1 <1>  -0.1600 
 12 C       -2.0750    -2.0760    -0.7470 C.3   1 <1>  -0.1600 
 13 C       -5.2880     2.9900    -0.2250 C.3   1 <1>  -0.0220 
 14 C       -3.0930    -3.7260     1.5120 C.3   1 <1>  -0.1600 
 15 C       -2.2770    -3.5930    -0.8890 C.3   1 <1>  -0.1600 
 16 C       -5.3350     3.2420    -1.7340 C.3   1 <1>  -0.2400 
 17 C       -2.1270    -4.3020     0.4660 C.3   1 <1>  -0.1600 
 18 H       -1.0230     2.5760     1.1710 H     1 <1>   0.3700 
 19 H       -4.0060    -1.7630    -0.0340 H     1 <1>   0.0800 
 20 H       -3.6440    -1.8240     2.3450 H     1 <1>   0.0800 
 21 H       -1.9330    -2.0410     2.1070 H     1 <1>   0.0800 
 22 H       -1.0510    -1.8990    -0.4840 H     1 <1>   0.0800 
 23 H       -2.2700    -1.6000    -1.6920 H     1 <1>   0.0800 
 24 H       -5.2400     3.9340     0.2910 H     1 <1>   0.0800 
 25 H       -6.1830     2.4880     0.0930 H     1 <1>   0.0800 
 26 H       -4.1070    -3.9250     1.2090 H     1 <1>   0.0800 
 27 H       -2.9300    -4.2110     2.4590 H     1 <1>   0.0800 
 28 H       -1.5560    -3.9870    -1.5850 H     1 <1>   0.0800 
 29 H       -3.2590    -3.7870    -1.2860 H     1 <1>   0.0800 
 30 H       -4.4360     3.7530    -2.0340 H     1 <1>   0.0800 
 31 H       -6.1840     3.8510    -1.9830 H     1 <1>   0.0800 
 32 H       -5.3990     2.3080    -2.2630 H     1 <1>   0.0800 
 33 H       -2.3150    -5.3550     0.3430 H     1 <1>   0.0800 
 34 H       -1.1150    -4.1860     0.8160 H     1 <1>   0.0800 
@<TRIPOS>BOND
  1   1   2  2   
  2   2   3  am  
  3   2   4  am  
  4   3   5  1   
  5   3  18  1   
  6   4   6  am  
  7   4   7  1   
  8   5   8  1   
  9   5   9  2   
 10   6   9  1   
 11   6  10  2   
 12   7  11  1   
 13   7  12  1   
 14   7  19  1   
 15   9  13  1   
 16  11  14  1   
 17  11  20  1   
 18  11  21  1   
 19  12  15  1   
 20  12  22  1   
 21  12  23  1   
 22  13  16  1   
 23  13  24  1   
 24  13  25  1   
 25  14  17  1   
 26  14  26  1   
 27  14  27  1   
 28  15  17  1   
 29  15  28  1   
 30  15  29  1   
 31  16  30  1   
 32  16  31  1   
 33  16  32  1   
 34  17  33  1   
 35  17  34  1   
@<TRIPOS>SUBSTRUCTURE
  1 ****   4 GROUP 4 **** **** 0

# MOE 2024.06 (io_trps.svl 2023.06)
