@<TRIPOS>MOLECULE
NONAME
50 52 1 0 0 
SMALL
USER_CHARGES


@<TRIPOS>ATOM
  1 F       -0.1930    -1.8330     1.5170 F     1 <1>  -0.1900 
  2 C       -1.1520    -1.8000     0.6200 C.ar  1 <1>   0.1900 
  3 C       -1.0380    -2.5790    -0.5380 C.ar  1 <1>   0.1000 
  4 C       -2.2370    -0.9850     0.8730 C.ar  1 <1>  -0.1500 
  5 N        0.0460    -3.4190    -0.8330 N.pl3 1 <1>  -0.8380 
  6 C       -2.0830    -2.5020    -1.4500 C.ar  1 <1>  -0.1500 
  7 C       -3.2630    -0.9320    -0.0570 C.ar  1 <1>  -0.1500 
  8 C        1.3300    -2.7660    -1.2370 C.3   1 <1>   0.2090 
  9 C        0.1660    -4.6860    -0.0490 C.3   1 <1>   0.2090 
 10 C       -3.1820    -1.6900    -1.2140 C.ar  1 <1>  -0.1500 
 11 C        2.3450    -2.7000    -0.0770 C.3   1 <1>   0.3430 
 12 C        1.2080    -4.5780     1.0860 C.3   1 <1>   0.3430 
 13 N        2.5280    -4.0290     0.6160 N.4   1 <1>  -0.9590 
 14 C        3.5180    -3.9330     1.7200 C.3   1 <1>   0.4860 
 15 C        4.8650    -3.5840     1.1160 C.ar  1 <1>  -0.1430 
 16 C        5.6230    -4.4950     0.3780 C.ar  1 <1>  -0.1430 
 17 C        5.3300    -2.2920     1.3080 C.ar  1 <1>  -0.1500 
 18 C        6.8240    -4.0800    -0.2000 C.ar  1 <1>  -0.1430 
 19 C        5.1690    -5.9480     0.2010 C.3   1 <1>  -0.0970 
 20 C        6.5280    -1.8890     0.7590 C.ar  1 <1>  -0.1500 
 21 C        7.2820    -2.7770     0.0020 C.ar  1 <1>   0.0830 
 22 C        7.6660    -5.0400    -1.0490 C.3   1 <1>  -0.0970 
 23 O        8.4710    -2.4160    -0.5510 O.3   1 <1>  -0.3620 
 24 C        9.0860    -1.1740    -0.2860 C.3   1 <1>   0.0400 
 25 H       -2.2830    -0.4040     1.7760 H     1 <1>   0.1500 
 26 H       -2.0300    -3.0860    -2.3510 H     1 <1>   0.1500 
 27 H       -4.1200    -0.3040     0.1180 H     1 <1>   0.1500 
 28 H        1.1280    -1.7670    -1.5870 H     1 <1>   0.0800 
 29 H        1.7570    -3.3130    -2.0590 H     1 <1>   0.0800 
 30 H        0.4410    -5.4840    -0.7170 H     1 <1>   0.0800 
 31 H       -0.7930    -4.9360     0.3740 H     1 <1>   0.0800 
 32 H       -3.9790    -1.6480    -1.9370 H     1 <1>   0.1500 
 33 H        1.9980    -1.9690     0.6330 H     1 <1>   0.0800 
 34 H        3.2900    -2.3560    -0.4650 H     1 <1>   0.0800 
 35 H        1.3490    -5.5530     1.5220 H     1 <1>   0.0800 
 36 H        0.8040    -3.9350     1.8500 H     1 <1>   0.0800 
 37 H        2.9320    -4.6660    -0.0810 H     1 <1>   0.4500 
 38 H        3.5910    -4.8710     2.2460 H     1 <1>   0.0800 
 39 H        3.2180    -3.1730     2.4230 H     1 <1>   0.0800 
 40 H        4.7670    -1.5800     1.8880 H     1 <1>   0.1500 
 41 H        6.0020    -6.6130     0.3530 H     1 <1>   0.0800 
 42 H        4.7940    -6.0990    -0.7950 H     1 <1>   0.0800 
 43 H        4.4170    -6.2440     0.9050 H     1 <1>   0.0800 
 44 H        6.8600    -0.8830     0.9310 H     1 <1>   0.1500 
 45 H        7.0470    -5.6810    -1.6480 H     1 <1>   0.0800 
 46 H        8.2820    -5.6440    -0.4080 H     1 <1>   0.0800 
 47 H        8.3080    -4.5130    -1.7300 H     1 <1>   0.0800 
 48 H       10.0340    -1.1580    -0.7920 H     1 <1>   0.0800 
 49 H        9.2370    -1.0770     0.7740 H     1 <1>   0.0800 
 50 H        8.4590    -0.3860    -0.6630 H     1 <1>   0.0800 
@<TRIPOS>BOND
  1   1   2  1   
  2   2   3  ar  
  3   2   4  ar  
  4   3   5  1   
  5   3   6  ar  
  6   4   7  ar  
  7   4  25  1   
  8   5   8  1   
  9   5   9  1   
 10   6  10  ar  
 11   6  26  1   
 12   7  10  ar  
 13   7  27  1   
 14   8  11  1   
 15   8  28  1   
 16   8  29  1   
 17   9  12  1   
 18   9  30  1   
 19   9  31  1   
 20  10  32  1   
 21  11  13  1   
 22  11  33  1   
 23  11  34  1   
 24  12  13  1   
 25  12  35  1   
 26  12  36  1   
 27  13  14  1   
 28  13  37  1   
 29  14  15  1   
 30  14  38  1   
 31  14  39  1   
 32  15  16  ar  
 33  15  17  ar  
 34  16  18  ar  
 35  16  19  1   
 36  17  20  ar  
 37  17  40  1   
 38  18  21  ar  
 39  18  22  1   
 40  19  41  1   
 41  19  42  1   
 42  19  43  1   
 43  20  21  ar  
 44  20  44  1   
 45  21  23  1   
 46  22  45  1   
 47  22  46  1   
 48  22  47  1   
 49  23  24  1   
 50  24  48  1   
 51  24  49  1   
 52  24  50  1   
@<TRIPOS>SUBSTRUCTURE
  1 ****  11 GROUP 4 **** **** 0

# MOE 2024.06 (io_trps.svl 2023.06)
