@<TRIPOS>MOLECULE
NONAME
59 60 1 0 0 
SMALL
USER_CHARGES


@<TRIPOS>ATOM
  1 O        9.1170    -1.3730     0.8100 O.2   1 <1>  -0.5700 
  2 C        8.2740    -2.0750     0.2880 C.2   1 <1>   0.7800 
  3 O        8.5030    -2.6230    -0.9030 O.3   1 <1>  -0.4300 
  4 N        7.0560    -2.3060     0.8720 N.am  1 <1>  -0.6600 
  5 C        9.7390    -2.4390    -1.5570 C.3   1 <1>   0.1200 
  6 C        6.6960    -1.7050     2.1890 C.3   1 <1>   0.1400 
  7 C        5.9360    -3.0130     0.1850 C.3   1 <1>   0.1400 
  8 C        9.6880    -3.1870    -2.8860 C.3   1 <1>  -0.2400 
  9 C        5.4890    -0.7620     2.0320 C.3   1 <1>   0.3430 
 10 C        4.7240    -2.0730     0.0340 C.3   1 <1>   0.3430 
 11 N        4.3320    -1.4340     1.3420 N.4   1 <1>  -0.9590 
 12 C        3.1270    -0.5470     1.2440 C.3   1 <1>   0.3430 
 13 C        1.8180    -1.3720     1.2770 C.3   1 <1>   0.2000 
 14 O        2.0560    -2.5760     1.9490 O.3   1 <1>  -0.6800 
 15 C        1.2510    -1.6580    -0.1240 C.3   1 <1>   0.1200 
 16 O        0.3850    -2.7740    -0.0650 O.3   1 <1>  -0.3630 
 17 C       -0.1520    -3.3310    -1.1830 C.ar  1 <1>   0.0820 
 18 C       -0.5970    -4.6630    -1.1480 C.ar  1 <1>  -0.1440 
 19 C       -0.2590    -2.5790    -2.3540 C.ar  1 <1>  -0.1500 
 20 C       -1.1270    -5.1870    -2.3290 C.ar  1 <1>  -0.1500 
 21 C       -0.5090    -5.5470     0.1320 C.3   1 <1>   0.1430 
 22 C       -0.7880    -3.1300    -3.5010 C.ar  1 <1>  -0.1500 
 23 C       -1.2210    -4.4380    -3.4870 C.ar  1 <1>  -0.1500 
 24 C       -1.1360    -6.9450    -0.0450 C.3   1 <1>  -0.2400 
 25 C        0.9630    -5.7880     0.5060 C.3   1 <1>  -0.2400 
 26 C       -1.2640    -4.9000     1.3080 C.3   1 <1>  -0.2400 
 27 H       10.5210    -2.8270    -0.9250 H     1 <1>   0.0800 
 28 H        9.8920    -1.3840    -1.7120 H     1 <1>   0.0800 
 29 H        7.5270    -1.1520     2.5950 H     1 <1>   0.0800 
 30 H        6.4600    -2.4900     2.8850 H     1 <1>   0.0800 
 31 H        5.6560    -3.8780     0.7610 H     1 <1>   0.0800 
 32 H        6.2380    -3.3570    -0.7900 H     1 <1>   0.0800 
 33 H        9.5280    -4.2360    -2.7150 H     1 <1>   0.0800 
 34 H       10.6220    -3.0640    -3.4040 H     1 <1>   0.0800 
 35 H        8.9010    -2.7950    -3.5040 H     1 <1>   0.0800 
 36 H        5.8040     0.0960     1.4600 H     1 <1>   0.0800 
 37 H        5.1860    -0.4180     3.0070 H     1 <1>   0.0800 
 38 H        3.8970    -2.6420    -0.3570 H     1 <1>   0.0800 
 39 H        4.9740    -1.3090    -0.6830 H     1 <1>   0.0800 
 40 H        3.9910    -2.2080     1.9470 H     1 <1>   0.4500 
 41 H        3.1690     0.0670     0.3600 H     1 <1>   0.0800 
 42 H        3.1090     0.1140     2.0950 H     1 <1>   0.0800 
 43 H        1.0720    -0.8300     1.8340 H     1 <1>   0.0800 
 44 H        1.2770    -3.1650     1.8020 H     1 <1>   0.4000 
 45 H        2.0310    -1.8830    -0.8280 H     1 <1>   0.0800 
 46 H        0.6910    -0.8060    -0.4690 H     1 <1>   0.0800 
 47 H        0.0520    -1.5550    -2.4000 H     1 <1>   0.1500 
 48 H       -1.4870    -6.1950    -2.3930 H     1 <1>   0.1500 
 49 H       -0.8690    -2.5460    -4.4020 H     1 <1>   0.1500 
 50 H       -1.6360    -4.8770    -4.3780 H     1 <1>   0.1500 
 51 H       -1.0690    -7.5120     0.8660 H     1 <1>   0.0800 
 52 H       -0.6250    -7.5010    -0.8100 H     1 <1>   0.0800 
 53 H       -2.1770    -6.8620    -0.3040 H     1 <1>   0.0800 
 54 H        1.4680    -6.2800    -0.3060 H     1 <1>   0.0800 
 55 H        1.0350    -6.4110     1.3800 H     1 <1>   0.0800 
 56 H        1.4760    -4.8710     0.7070 H     1 <1>   0.0800 
 57 H       -2.2750    -4.6810     1.0130 H     1 <1>   0.0800 
 58 H       -0.8070    -3.9890     1.6360 H     1 <1>   0.0800 
 59 H       -1.2950    -5.5650     2.1540 H     1 <1>   0.0800 
@<TRIPOS>BOND
  1   1   2  2   
  2   2   3  1   
  3   2   4  am  
  4   3   5  1   
  5   4   6  1   
  6   4   7  1   
  7   5   8  1   
  8   5  27  1   
  9   5  28  1   
 10   6   9  1   
 11   6  29  1   
 12   6  30  1   
 13   7  10  1   
 14   7  31  1   
 15   7  32  1   
 16   8  33  1   
 17   8  34  1   
 18   8  35  1   
 19   9  11  1   
 20   9  36  1   
 21   9  37  1   
 22  10  11  1   
 23  10  38  1   
 24  10  39  1   
 25  11  12  1   
 26  11  40  1   
 27  12  13  1   
 28  12  41  1   
 29  12  42  1   
 30  13  14  1   
 31  13  15  1   
 32  13  43  1   
 33  14  44  1   
 34  15  16  1   
 35  15  45  1   
 36  15  46  1   
 37  16  17  1   
 38  17  18  ar  
 39  17  19  ar  
 40  18  20  ar  
 41  18  21  1   
 42  19  22  ar  
 43  19  47  1   
 44  20  23  ar  
 45  20  48  1   
 46  21  24  1   
 47  21  25  1   
 48  21  26  1   
 49  22  23  ar  
 50  22  49  1   
 51  23  50  1   
 52  24  51  1   
 53  24  52  1   
 54  24  53  1   
 55  25  54  1   
 56  25  55  1   
 57  25  56  1   
 58  26  57  1   
 59  26  58  1   
 60  26  59  1   
@<TRIPOS>SUBSTRUCTURE
  1 ****  10 GROUP 4 **** **** 0

# MOE 2024.06 (io_trps.svl 2023.06)
