@<TRIPOS>MOLECULE
NONAME
49 50 1 0 0 
SMALL
USER_CHARGES


@<TRIPOS>ATOM
  1 O       -0.3430    -0.2170     0.5580 O.3   1 <1>  -0.3630 
  2 C       -1.5290    -0.6000     0.0160 C.ar  1 <1>   0.0830 
  3 C        0.7840    -0.8900     0.0440 C.3   1 <1>   0.0400 
  4 C       -2.0730     0.0930    -1.0740 C.ar  1 <1>   0.0830 
  5 C       -2.2020    -1.7240     0.5150 C.ar  1 <1>   0.0830 
  6 O       -1.5570     1.2240    -1.6290 O.3   1 <1>  -0.3630 
  7 C       -3.2260    -0.3770    -1.6800 C.ar  1 <1>  -0.1500 
  8 O       -1.8040    -2.4490     1.5940 O.3   1 <1>  -0.3630 
  9 C       -3.3540    -2.1730    -0.1090 C.ar  1 <1>  -0.1500 
 10 C       -0.9100     2.1920    -0.8300 C.3   1 <1>   0.0400 
 11 C       -3.8740    -1.5060    -1.2070 C.ar  1 <1>  -0.1430 
 12 C       -1.3560    -1.7840     2.7570 C.3   1 <1>   0.0400 
 13 C       -5.1440    -1.9970    -1.8740 C.3   1 <1>   0.4860 
 14 N       -6.2990    -1.6670    -1.0010 N.4   1 <1>  -0.9590 
 15 C       -7.6020    -2.2400    -1.4680 C.3   1 <1>   0.3430 
 16 C       -6.4350    -0.2060    -0.6890 C.3   1 <1>   0.3430 
 17 C       -8.7420    -1.9420    -0.4620 C.3   1 <1>   0.1100 
 18 C       -7.5770     0.0440     0.3270 C.3   1 <1>   0.1100 
 19 N       -8.2660    -1.2050     0.7380 N.3   1 <1>  -0.8100 
 20 C       -9.3650    -0.9050     1.6820 C.3   1 <1>   0.1100 
 21 C       -9.8340    -2.1590     2.4310 C.3   1 <1>   0.1200 
 22 O      -10.8390    -1.8070     3.3170 O.3   1 <1>  -0.6800 
 23 H        0.8470    -0.7060    -1.0140 H     1 <1>   0.0800 
 24 H        0.6800    -1.9440     0.2360 H     1 <1>   0.0800 
 25 H        1.6600    -0.5100     0.5380 H     1 <1>   0.0800 
 26 H       -3.6010     0.1640    -2.5320 H     1 <1>   0.1500 
 27 H       -3.8280    -3.0540     0.2870 H     1 <1>   0.1500 
 28 H       -0.9370     3.1310    -1.3520 H     1 <1>   0.0800 
 29 H        0.1110     1.8940    -0.6770 H     1 <1>   0.0800 
 30 H       -1.4250     2.2780     0.1110 H     1 <1>   0.0800 
 31 H       -1.4950    -2.4420     3.5950 H     1 <1>   0.0800 
 32 H       -1.9290    -0.8840     2.8950 H     1 <1>   0.0800 
 33 H       -0.3120    -1.5540     2.6500 H     1 <1>   0.0800 
 34 H       -5.0800    -3.0630    -2.0190 H     1 <1>   0.0800 
 35 H       -5.2570    -1.5250    -2.8360 H     1 <1>   0.0800 
 36 H       -6.1440    -2.0900    -0.0740 H     1 <1>   0.4500 
 37 H       -7.5120    -3.3080    -1.5830 H     1 <1>   0.0800 
 38 H       -7.8640    -1.8280    -2.4290 H     1 <1>   0.0800 
 39 H       -6.6330     0.3490    -1.5900 H     1 <1>   0.0800 
 40 H       -5.5150     0.1690    -0.2710 H     1 <1>   0.0800 
 41 H       -9.1820    -2.8780    -0.1650 H     1 <1>   0.0800 
 42 H       -9.5090    -1.3720    -0.9600 H     1 <1>   0.0800 
 43 H       -8.2880     0.7290    -0.1070 H     1 <1>   0.0800 
 44 H       -7.1610     0.5230     1.1970 H     1 <1>   0.0800 
 45 H      -10.1970    -0.4690     1.1540 H     1 <1>   0.0800 
 46 H       -9.0150    -0.1970     2.4130 H     1 <1>   0.0800 
 47 H       -9.0280    -2.6010     2.9900 H     1 <1>   0.0800 
 48 H      -10.2490    -2.8830     1.7530 H     1 <1>   0.0800 
 49 H      -10.4810    -1.3080     4.0780 H     1 <1>   0.4000 
@<TRIPOS>BOND
  1   1   2  1   
  2   1   3  1   
  3   2   4  ar  
  4   2   5  ar  
  5   3  23  1   
  6   3  24  1   
  7   3  25  1   
  8   4   6  1   
  9   4   7  ar  
 10   5   8  1   
 11   5   9  ar  
 12   6  10  1   
 13   7  11  ar  
 14   7  26  1   
 15   8  12  1   
 16   9  11  ar  
 17   9  27  1   
 18  10  28  1   
 19  10  29  1   
 20  10  30  1   
 21  11  13  1   
 22  12  31  1   
 23  12  32  1   
 24  12  33  1   
 25  13  14  1   
 26  13  34  1   
 27  13  35  1   
 28  14  15  1   
 29  14  16  1   
 30  14  36  1   
 31  15  17  1   
 32  15  37  1   
 33  15  38  1   
 34  16  18  1   
 35  16  39  1   
 36  16  40  1   
 37  17  19  1   
 38  17  41  1   
 39  17  42  1   
 40  18  19  1   
 41  18  43  1   
 42  18  44  1   
 43  19  20  1   
 44  20  21  1   
 45  20  45  1   
 46  20  46  1   
 47  21  22  1   
 48  21  47  1   
 49  21  48  1   
 50  22  49  1   
@<TRIPOS>SUBSTRUCTURE
  1 ****  11 GROUP 4 **** **** 0

# MOE 2024.06 (io_trps.svl 2023.06)
