@<TRIPOS>MOLECULE
NONAME
43 44 1 0 0 
SMALL
USER_CHARGES


@<TRIPOS>ATOM
  1 S       -0.3610     0.0120     1.6640 S.3   1 <1>  -0.2860 
  2 C       -0.7750     0.3590    -0.0520 C.2   1 <1>   0.2420 
  3 C        1.4240     0.5070     1.7870 C.3   1 <1>   0.1310 
  4 N       -0.1540     1.2030    -0.7780 N.2   1 <1>  -0.3380 
  5 N       -1.7650    -0.2360    -0.7050 N.pl3 1 <1>   0.5930 
  6 C        2.2700    -0.3220     0.8200 C.2   1 <1>   0.5690 
  7 N       -0.7740     1.1440    -1.9530 N.2   1 <1>   0.0000 
  8 N       -1.7370     0.2910    -1.9270 N.2   1 <1>  -0.4180 
  9 C       -2.6710    -1.2430    -0.2650 C.ar  1 <1>  -0.0230 
 10 O        2.2070    -1.5250     0.9380 O.2   1 <1>  -0.5700 
 11 N        3.0780     0.2620    -0.1320 N.am  1 <1>  -0.6600 
 12 C       -3.9730    -0.9020     0.1120 C.ar  1 <1>  -0.1430 
 13 C       -2.2620    -2.5780    -0.2010 C.ar  1 <1>  -0.1430 
 14 C        3.7480    -0.5830    -1.1610 C.3   1 <1>   0.1400 
 15 C        3.2140     1.7310    -0.3410 C.3   1 <1>   0.1400 
 16 C       -4.8440    -1.8880     0.5450 C.ar  1 <1>  -0.1500 
 17 C       -4.4620     0.5410     0.0590 C.3   1 <1>  -0.0970 
 18 C       -3.1490    -3.5480     0.2370 C.ar  1 <1>  -0.1500 
 19 C       -0.8520    -3.0040    -0.5990 C.3   1 <1>  -0.0970 
 20 C        5.2340    -0.7200    -0.8450 C.3   1 <1>  -0.2400 
 21 C        4.1540     2.3290     0.7060 C.3   1 <1>  -0.2400 
 22 C       -4.4350    -3.2060     0.6080 C.ar  1 <1>  -0.1500 
 23 H        1.7310     0.3120     2.7960 H     1 <1>   0.0800 
 24 H        1.4670     1.5580     1.5890 H     1 <1>   0.0800 
 25 H        3.6120    -0.1470    -2.1360 H     1 <1>   0.0800 
 26 H        3.3000    -1.5630    -1.1850 H     1 <1>   0.0800 
 27 H        2.2490     2.2040    -0.2890 H     1 <1>   0.0800 
 28 H        3.6070     1.9240    -1.3250 H     1 <1>   0.0800 
 29 H       -5.8490    -1.6380     0.8370 H     1 <1>   0.1500 
 30 H       -3.8480     1.1660     0.6830 H     1 <1>   0.0800 
 31 H       -5.4770     0.6180     0.4040 H     1 <1>   0.0800 
 32 H       -4.4230     0.9080    -0.9510 H     1 <1>   0.0800 
 33 H       -2.8440    -4.5780     0.2940 H     1 <1>   0.1500 
 34 H       -0.5860    -2.5910    -1.5560 H     1 <1>   0.0800 
 35 H       -0.7780    -4.0740    -0.6690 H     1 <1>   0.0800 
 36 H       -0.1410    -2.6680     0.1350 H     1 <1>   0.0800 
 37 H        5.7300     0.2280    -0.9280 H     1 <1>   0.0800 
 38 H        5.6880    -1.4010    -1.5410 H     1 <1>   0.0800 
 39 H        5.3630    -1.1130     0.1480 H     1 <1>   0.0800 
 40 H        3.7720     2.1810     1.6980 H     1 <1>   0.0800 
 41 H        4.2540     3.3850     0.5360 H     1 <1>   0.0800 
 42 H        5.1290     1.8830     0.6350 H     1 <1>   0.0800 
 43 H       -5.1180    -3.9660     0.9470 H     1 <1>   0.1500 
@<TRIPOS>BOND
  1   1   2  1   
  2   1   3  1   
  3   2   4  2   
  4   2   5  1   
  5   3   6  1   
  6   3  23  1   
  7   3  24  1   
  8   4   7  1   
  9   5   8  1   
 10   5   9  1   
 11   6  10  2   
 12   6  11  am  
 13   7   8  2   
 14   9  12  ar  
 15   9  13  ar  
 16  11  14  1   
 17  11  15  1   
 18  12  16  ar  
 19  12  17  1   
 20  13  18  ar  
 21  13  19  1   
 22  14  20  1   
 23  14  25  1   
 24  14  26  1   
 25  15  21  1   
 26  15  27  1   
 27  15  28  1   
 28  16  22  ar  
 29  16  29  1   
 30  17  30  1   
 31  17  31  1   
 32  17  32  1   
 33  18  22  ar  
 34  18  33  1   
 35  19  34  1   
 36  19  35  1   
 37  19  36  1   
 38  20  37  1   
 39  20  38  1   
 40  20  39  1   
 41  21  40  1   
 42  21  41  1   
 43  21  42  1   
 44  22  43  1   
@<TRIPOS>SUBSTRUCTURE
  1 ****   2 GROUP 4 **** **** 0

# MOE 2024.06 (io_trps.svl 2023.06)
