@<TRIPOS>MOLECULE
NONAME
39 40 1 0 0 
SMALL
USER_CHARGES


@<TRIPOS>ATOM
  1 O        1.0390    -1.6640     1.0770 O.2   1 <1>  -0.5700 
  2 C        0.5050    -1.9450     0.0200 C.2   1 <1>   0.6900 
  3 N       -0.7940    -2.3600    -0.0180 N.am  1 <1>  -0.6600 
  4 N        1.1980    -1.8420    -1.1400 N.am  1 <1>  -0.7300 
  5 C       -1.4750    -2.9800    -1.1730 C.3   1 <1>   0.1400 
  6 C       -1.6090    -2.4780     1.2090 C.3   1 <1>   0.1400 
  7 C        2.5650    -1.2770    -1.2590 C.3   1 <1>   0.1400 
  8 C       -2.6570    -3.7310    -0.5690 C.3   1 <1>  -0.1600 
  9 C       -2.9630    -2.9900     0.7300 C.3   1 <1>  -0.1600 
 10 C        3.5970    -2.2220    -0.6440 C.3   1 <1>   0.1200 
 11 O        4.8880    -1.7640    -0.9910 O.3   1 <1>  -0.3630 
 12 C        5.9980    -2.4280    -0.5760 C.ar  1 <1>   0.0820 
 13 C        7.2160    -1.9510    -1.0320 C.ar  1 <1>  -0.1500 
 14 C        5.9700    -3.5390     0.2640 C.ar  1 <1>  -0.1500 
 15 C        8.3950    -2.5710    -0.6600 C.ar  1 <1>  -0.1500 
 16 C        7.1510    -4.1600     0.6370 C.ar  1 <1>  -0.1500 
 17 C        8.3730    -3.6770     0.1750 C.ar  1 <1>   0.0820 
 18 O        9.5750    -4.2270     0.4920 O.3   1 <1>  -0.3630 
 19 C        9.6590    -5.3500     1.3400 C.3   1 <1>   0.0400 
 20 H        0.6550    -1.9000    -1.9970 H     1 <1>   0.3700 
 21 H       -0.8160    -3.6480    -1.7010 H     1 <1>   0.0800 
 22 H       -1.8230    -2.2040    -1.8330 H     1 <1>   0.0800 
 23 H       -1.6920    -1.5250     1.7050 H     1 <1>   0.0800 
 24 H       -1.1440    -3.1890     1.8710 H     1 <1>   0.0800 
 25 H        2.6020    -0.3290    -0.7490 H     1 <1>   0.0800 
 26 H        2.7920    -1.1270    -2.3000 H     1 <1>   0.0800 
 27 H       -2.3530    -4.7400    -0.3490 H     1 <1>   0.0800 
 28 H       -3.5000    -3.7560    -1.2360 H     1 <1>   0.0800 
 29 H       -3.6020    -2.1470     0.5300 H     1 <1>   0.0800 
 30 H       -3.4330    -3.6200     1.4640 H     1 <1>   0.0800 
 31 H        3.4770    -3.2160    -1.0360 H     1 <1>   0.0800 
 32 H        3.5100    -2.2220     0.4290 H     1 <1>   0.0800 
 33 H        7.2340    -1.0920    -1.6780 H     1 <1>   0.1500 
 34 H        5.0440    -3.9310     0.6390 H     1 <1>   0.1500 
 35 H        9.3400    -2.2010    -1.0130 H     1 <1>   0.1500 
 36 H        7.0990    -5.0130     1.2860 H     1 <1>   0.1500 
 37 H       10.6980    -5.6050     1.4520 H     1 <1>   0.0800 
 38 H        9.1280    -6.1690     0.8890 H     1 <1>   0.0800 
 39 H        9.2400    -5.0960     2.2980 H     1 <1>   0.0800 
@<TRIPOS>BOND
  1   1   2  2   
  2   2   3  am  
  3   2   4  am  
  4   3   5  1   
  5   3   6  1   
  6   4   7  1   
  7   4  20  1   
  8   5   8  1   
  9   5  21  1   
 10   5  22  1   
 11   6   9  1   
 12   6  23  1   
 13   6  24  1   
 14   7  10  1   
 15   7  25  1   
 16   7  26  1   
 17   8   9  1   
 18   8  27  1   
 19   8  28  1   
 20   9  29  1   
 21   9  30  1   
 22  10  11  1   
 23  10  31  1   
 24  10  32  1   
 25  11  12  1   
 26  12  13  ar  
 27  12  14  ar  
 28  13  15  ar  
 29  13  33  1   
 30  14  16  ar  
 31  14  34  1   
 32  15  17  ar  
 33  15  35  1   
 34  16  17  ar  
 35  16  36  1   
 36  17  18  1   
 37  18  19  1   
 38  19  37  1   
 39  19  38  1   
 40  19  39  1   
@<TRIPOS>SUBSTRUCTURE
  1 ****  10 GROUP 4 **** **** 0

# MOE 2024.06 (io_trps.svl 2023.06)
