@<TRIPOS>MOLECULE
NONAME
55 57 1 0 0 
SMALL
USER_CHARGES


@<TRIPOS>ATOM
  1 O       -0.4420    -0.2430     1.0000 O.2   1 <1>  -0.5700 
  2 C       -0.8980    -1.1290     0.3060 C.2   1 <1>   0.6900 
  3 N       -2.2260    -1.0870    -0.0530 N.am  1 <1>  -0.6600 
  4 N       -0.1200    -2.1720    -0.1060 N.am  1 <1>  -0.5470 
  5 C       -2.7440    -1.6930    -1.3190 C.3   1 <1>   0.1400 
  6 C       -3.1010    -0.0340     0.5570 C.3   1 <1>   0.1400 
  7 C        1.2750    -2.3330    -0.0570 C.ar  1 <1>   0.1170 
  8 C       -4.2280    -2.1000    -1.1950 C.3   1 <1>   0.3430 
  9 C       -4.5700    -0.4810     0.6450 C.3   1 <1>   0.3430 
 10 C        1.8040    -3.6150     0.0140 C.ar  1 <1>  -0.1500 
 11 C        2.1490    -1.2540    -0.1040 C.ar  1 <1>  -0.1500 
 12 N       -5.0890    -0.9790    -0.6810 N.4   1 <1>  -0.9590 
 13 C        3.1790    -3.8240     0.0420 C.ar  1 <1>   0.0830 
 14 C        3.5190    -1.4450    -0.0790 C.ar  1 <1>  -0.1500 
 15 C       -6.5340    -1.3550    -0.6760 C.3   1 <1>   0.4230 
 16 O        3.7260    -5.0730     0.1160 O.3   1 <1>  -0.3620 
 17 C        4.0470    -2.7300    -0.0070 C.ar  1 <1>   0.0830 
 18 C       -7.4020    -0.1000    -0.5240 C.3   1 <1>  -0.1600 
 19 C       -6.8760    -2.3960     0.4040 C.3   1 <1>  -0.1600 
 20 C        2.9520    -6.2030     0.4480 C.3   1 <1>   0.0400 
 21 O        5.3930    -2.9730     0.0200 O.3   1 <1>  -0.3630 
 22 C       -8.8940    -0.4600    -0.5830 C.3   1 <1>  -0.1600 
 23 C       -8.3650    -2.7650     0.3450 C.3   1 <1>  -0.1600 
 24 C        6.3270    -1.9170     0.0540 C.3   1 <1>   0.0400 
 25 C       -9.2510    -1.5180     0.4710 C.3   1 <1>  -0.1600 
 26 H       -0.6380    -3.0100    -0.3350 H     1 <1>   0.3700 
 27 H       -2.1690    -2.5620    -1.5840 H     1 <1>   0.0800 
 28 H       -2.6340    -0.9780    -2.1160 H     1 <1>   0.0800 
 29 H       -3.0260     0.8680    -0.0260 H     1 <1>   0.0800 
 30 H       -2.7570     0.1960     1.5520 H     1 <1>   0.0800 
 31 H       -4.2940    -2.9420    -0.5250 H     1 <1>   0.0800 
 32 H       -4.5840    -2.4210    -2.1610 H     1 <1>   0.0800 
 33 H       -5.1650     0.3480     0.9890 H     1 <1>   0.0800 
 34 H       -4.6400    -1.2650     1.3810 H     1 <1>   0.0800 
 35 H        1.1290    -4.4450     0.0470 H     1 <1>   0.1500 
 36 H        1.7620    -0.2530    -0.1610 H     1 <1>   0.1500 
 37 H       -4.9960    -0.2000    -1.3440 H     1 <1>   0.4500 
 38 H        4.1520    -0.5800    -0.1170 H     1 <1>   0.1500 
 39 H       -6.7750    -1.7910    -1.6330 H     1 <1>   0.0800 
 40 H       -7.1860     0.5960    -1.3160 H     1 <1>   0.0800 
 41 H       -7.2120     0.3800     0.4190 H     1 <1>   0.0800 
 42 H       -6.6710    -2.0070     1.3850 H     1 <1>   0.0800 
 43 H       -6.3010    -3.2930     0.2610 H     1 <1>   0.0800 
 44 H        3.6190    -7.0390     0.5590 H     1 <1>   0.0800 
 45 H        2.2560    -6.3970    -0.3470 H     1 <1>   0.0800 
 46 H        2.4440    -6.0170     1.3780 H     1 <1>   0.0800 
 47 H       -9.1400    -0.8370    -1.5620 H     1 <1>   0.0800 
 48 H       -9.4880     0.4230    -0.4170 H     1 <1>   0.0800 
 49 H       -8.6020    -3.4510     1.1420 H     1 <1>   0.0800 
 50 H       -8.5820    -3.2620    -0.5860 H     1 <1>   0.0800 
 51 H        7.3110    -2.3460     0.1040 H     1 <1>   0.0800 
 52 H        6.1440    -1.3180     0.9280 H     1 <1>   0.0800 
 53 H        6.2270    -1.3350    -0.8450 H     1 <1>   0.0800 
 54 H      -10.2850    -1.8000     0.3580 H     1 <1>   0.0800 
 55 H       -9.1390    -1.0950     1.4550 H     1 <1>   0.0800 
@<TRIPOS>BOND
  1   1   2  2   
  2   2   3  am  
  3   2   4  am  
  4   3   5  1   
  5   3   6  1   
  6   4   7  1   
  7   4  26  1   
  8   5   8  1   
  9   5  27  1   
 10   5  28  1   
 11   6   9  1   
 12   6  29  1   
 13   6  30  1   
 14   7  10  ar  
 15   7  11  ar  
 16   8  12  1   
 17   8  31  1   
 18   8  32  1   
 19   9  12  1   
 20   9  33  1   
 21   9  34  1   
 22  10  13  ar  
 23  10  35  1   
 24  11  14  ar  
 25  11  36  1   
 26  12  15  1   
 27  12  37  1   
 28  13  16  1   
 29  13  17  ar  
 30  14  17  ar  
 31  14  38  1   
 32  15  18  1   
 33  15  19  1   
 34  15  39  1   
 35  16  20  1   
 36  17  21  1   
 37  18  22  1   
 38  18  40  1   
 39  18  41  1   
 40  19  23  1   
 41  19  42  1   
 42  19  43  1   
 43  20  44  1   
 44  20  45  1   
 45  20  46  1   
 46  21  24  1   
 47  22  25  1   
 48  22  47  1   
 49  22  48  1   
 50  23  25  1   
 51  23  49  1   
 52  23  50  1   
 53  24  51  1   
 54  24  52  1   
 55  24  53  1   
 56  25  54  1   
 57  25  55  1   
@<TRIPOS>SUBSTRUCTURE
  1 ****   2 GROUP 4 **** **** 0

# MOE 2024.06 (io_trps.svl 2023.06)
