@<TRIPOS>MOLECULE
NONAME
40 40 1 0 0 
SMALL
USER_CHARGES


@<TRIPOS>ATOM
  1 CL       0.7140     0.4170     2.8490 Cl    1 <1>  -0.1770 
  2 C       -0.3390     0.9520     1.5520 C.ar  1 <1>   0.1770 
  3 C       -0.0340     2.0500     0.7410 C.ar  1 <1>   0.0820 
  4 C       -1.5100     0.2400     1.3770 C.ar  1 <1>  -0.1500 
  5 O        1.1120     2.7810     0.8450 O.3   1 <1>  -0.3630 
  6 C       -0.9500     2.4380    -0.2340 C.ar  1 <1>  -0.1440 
  7 C       -2.4080     0.6160     0.3940 C.ar  1 <1>  -0.1430 
  8 C        2.3550     2.1330     0.9630 C.3   1 <1>   0.1200 
  9 C       -2.1230     1.7150    -0.4000 C.ar  1 <1>  -0.1500 
 10 C       -0.6880     3.6450    -1.1230 C.3   1 <1>  -0.0960 
 11 C       -3.6990    -0.1570     0.1910 C.3   1 <1>  -0.0970 
 12 C        3.4040     3.0250     0.3010 C.3   1 <1>   0.3430 
 13 N        4.7740     2.4290     0.4090 N.4   1 <1>  -0.9060 
 14 C        5.8700     3.1990    -0.1860 C.3   1 <1>   0.5030 
 15 C        5.9830     4.5570     0.5070 C.3   1 <1>  -0.2400 
 16 C        7.1390     2.3880     0.0520 C.3   1 <1>  -0.2400 
 17 C        5.6320     3.3640    -1.6860 C.3   1 <1>  -0.2400 
 18 H       -1.7160    -0.6010     2.0140 H     1 <1>   0.1500 
 19 H        2.2920     1.1770     0.4710 H     1 <1>   0.0800 
 20 H        2.5670     2.0170     2.0100 H     1 <1>   0.0800 
 21 H       -2.8300     2.0110    -1.1560 H     1 <1>   0.1500 
 22 H        0.1660     3.4630    -1.7490 H     1 <1>   0.0800 
 23 H       -0.5000     4.5130    -0.5160 H     1 <1>   0.0800 
 24 H       -1.5340     3.8530    -1.7540 H     1 <1>   0.0800 
 25 H       -3.6150    -1.1510     0.5910 H     1 <1>   0.0800 
 26 H       -3.9280    -0.2330    -0.8570 H     1 <1>   0.0800 
 27 H       -4.5070     0.3490     0.6870 H     1 <1>   0.0800 
 28 H        3.3860     3.9890     0.7830 H     1 <1>   0.0800 
 29 H        3.1410     3.1530    -0.7360 H     1 <1>   0.0800 
 30 H        4.7820     1.5040    -0.0320 H     1 <1>   0.4500 
 31 H        5.0080     2.2880     1.3970 H     1 <1>   0.4500 
 32 H        5.1300     5.1780     0.3070 H     1 <1>   0.0800 
 33 H        6.8490     5.0790     0.1370 H     1 <1>   0.0800 
 34 H        6.1000     4.4430     1.5700 H     1 <1>   0.0800 
 35 H        7.3270     2.2550     1.1030 H     1 <1>   0.0800 
 36 H        7.9860     2.9060    -0.3650 H     1 <1>   0.0800 
 37 H        7.0820     1.4250    -0.4240 H     1 <1>   0.0800 
 38 H        4.7780     3.9860    -1.8880 H     1 <1>   0.0800 
 39 H        5.5010     2.4110    -2.1670 H     1 <1>   0.0800 
 40 H        6.4840     3.8430    -2.1360 H     1 <1>   0.0800 
@<TRIPOS>BOND
  1   1   2  1   
  2   2   3  ar  
  3   2   4  ar  
  4   3   5  1   
  5   3   6  ar  
  6   4   7  ar  
  7   4  18  1   
  8   5   8  1   
  9   6   9  ar  
 10   6  10  1   
 11   7   9  ar  
 12   7  11  1   
 13   8  12  1   
 14   8  19  1   
 15   8  20  1   
 16   9  21  1   
 17  10  22  1   
 18  10  23  1   
 19  10  24  1   
 20  11  25  1   
 21  11  26  1   
 22  11  27  1   
 23  12  13  1   
 24  12  28  1   
 25  12  29  1   
 26  13  14  1   
 27  13  30  1   
 28  13  31  1   
 29  14  15  1   
 30  14  16  1   
 31  14  17  1   
 32  15  32  1   
 33  15  33  1   
 34  15  34  1   
 35  16  35  1   
 36  16  36  1   
 37  16  37  1   
 38  17  38  1   
 39  17  39  1   
 40  17  40  1   
@<TRIPOS>SUBSTRUCTURE
  1 ****   5 GROUP 4 **** **** 0

# MOE 2024.06 (io_trps.svl 2023.06)
