@<TRIPOS>MOLECULE
NONAME
41 42 1 0 0 
SMALL
USER_CHARGES


@<TRIPOS>ATOM
  1 S        0.1330     1.3950    -1.5850 S.o2  1 <1>   1.4470 
  2 O       -0.1130     2.4210    -2.5760 O.2   1 <1>  -0.6500 
  3 O        0.1180     0.0110    -2.0080 O.2   1 <1>  -0.6500 
  4 N       -1.0890     1.5330    -0.4220 N.am  1 <1>  -0.8490 
  5 C        1.6510     1.7570    -0.6410 C.ar  1 <1>  -0.0090 
  6 C       -1.0900     0.4430     0.5600 C.3   1 <1>   0.1960 
  7 C       -2.4200     1.6860    -1.0370 C.3   1 <1>   0.1960 
  8 C        1.9640     3.0260    -0.1450 C.ar  1 <1>  -0.1440 
  9 C        2.5350     0.7210    -0.3680 C.ar  1 <1>  -0.1500 
 10 C       -2.1430     0.6860     1.6670 C.3   1 <1>   0.1200 
 11 C       -3.5880     1.2660    -0.1140 C.3   1 <1>   0.1200 
 12 C        3.1280     3.2200     0.5830 C.ar  1 <1>  -0.1500 
 13 C        1.0530     4.2260    -0.3770 C.3   1 <1>  -0.0960 
 14 C        3.7070     0.8890     0.3650 C.ar  1 <1>   0.0860 
 15 O       -3.2570     1.4270     1.2350 O.3   1 <1>  -0.5600 
 16 C        3.9850     2.1680     0.8360 C.ar  1 <1>  -0.1500 
 17 C        4.5870    -0.2350     0.6240 C.2   1 <1>   0.5440 
 18 O        4.1270    -1.3440     0.8140 O.2   1 <1>  -0.5700 
 19 N        5.9430    -0.0640     0.6490 N.am  1 <1>  -0.7300 
 20 C        6.9380    -1.1340     0.8580 C.3   1 <1>   0.1400 
 21 C        7.9440    -1.0880    -0.2860 C.3   1 <1>  -0.2400 
 22 H       -0.1200     0.3500     1.0180 H     1 <1>   0.0800 
 23 H       -1.3070    -0.4910     0.0670 H     1 <1>   0.0800 
 24 H       -2.4810     1.1010    -1.9400 H     1 <1>   0.0800 
 25 H       -2.5480     2.7180    -1.3170 H     1 <1>   0.0800 
 26 H        2.3130    -0.2690    -0.7340 H     1 <1>   0.1500 
 27 H       -1.6950     1.2370     2.4740 H     1 <1>   0.0800 
 28 H       -2.4940    -0.2540     2.0550 H     1 <1>   0.0800 
 29 H       -3.8400     0.2320    -0.2760 H     1 <1>   0.0800 
 30 H       -4.4580     1.8630    -0.3190 H     1 <1>   0.0800 
 31 H        3.3710     4.1970     0.9640 H     1 <1>   0.1500 
 32 H        1.0370     4.4840    -1.4210 H     1 <1>   0.0800 
 33 H        1.3930     5.0850     0.1740 H     1 <1>   0.0800 
 34 H        0.0500     4.0070    -0.0570 H     1 <1>   0.0800 
 35 H        4.8740     2.3400     1.4160 H     1 <1>   0.1500 
 36 H        6.3310     0.8460     0.4020 H     1 <1>   0.3700 
 37 H        6.4530    -2.0970     0.8810 H     1 <1>   0.0800 
 38 H        7.4360    -0.9820     1.8010 H     1 <1>   0.0800 
 39 H        7.4420    -1.2370    -1.2250 H     1 <1>   0.0800 
 40 H        8.6670    -1.8730    -0.1590 H     1 <1>   0.0800 
 41 H        8.4630    -0.1460    -0.2970 H     1 <1>   0.0800 
@<TRIPOS>BOND
  1   1   2  2   
  2   1   3  2   
  3   1   4  am  
  4   1   5  1   
  5   4   6  1   
  6   4   7  1   
  7   5   8  ar  
  8   5   9  ar  
  9   6  10  1   
 10   6  22  1   
 11   6  23  1   
 12   7  11  1   
 13   7  24  1   
 14   7  25  1   
 15   8  12  ar  
 16   8  13  1   
 17   9  14  ar  
 18   9  26  1   
 19  10  15  1   
 20  10  27  1   
 21  10  28  1   
 22  11  15  1   
 23  11  29  1   
 24  11  30  1   
 25  12  16  ar  
 26  12  31  1   
 27  13  32  1   
 28  13  33  1   
 29  13  34  1   
 30  14  16  ar  
 31  14  17  1   
 32  16  35  1   
 33  17  18  2   
 34  17  19  am  
 35  19  20  1   
 36  19  36  1   
 37  20  21  1   
 38  20  37  1   
 39  20  38  1   
 40  21  39  1   
 41  21  40  1   
 42  21  41  1   
@<TRIPOS>SUBSTRUCTURE
  1 ****   5 GROUP 4 **** **** 0

# MOE 2024.06 (io_trps.svl 2023.06)
