@<TRIPOS>MOLECULE
NONAME
48 50 1 0 0 
SMALL
USER_CHARGES


@<TRIPOS>ATOM
  1 O        1.2550    -0.0070    -2.6270 O.2   1 <1>  -0.5700 
  2 C        0.9430    -0.7550    -1.7320 C.2   1 <1>   0.5690 
  3 N        1.4640    -0.6830    -0.4660 N.am  1 <1>  -0.5470 
  4 C       -0.0530    -1.8870    -2.0250 C.3   1 <1>   0.1710 
  5 C        2.4110     0.1710     0.1240 C.ar  1 <1>   0.1170 
  6 N       -1.4610    -1.6800    -1.5770 N.3   1 <1>  -0.8100 
  7 C        2.4430     0.3100     1.5160 C.ar  1 <1>  -0.1430 
  8 C        3.3430     0.8690    -0.6380 C.ar  1 <1>  -0.1500 
  9 C       -2.3030    -2.8330    -1.9780 C.3   1 <1>   0.1100 
 10 C       -1.6030    -1.4100    -0.1250 C.3   1 <1>   0.1100 
 11 C        3.3960     1.1270     2.1050 C.ar  1 <1>  -0.1500 
 12 C        1.4490    -0.4080     2.4270 C.3   1 <1>  -0.0170 
 13 C        4.2860     1.6860    -0.0430 C.ar  1 <1>  -0.1500 
 14 C       -3.7750    -2.6760    -1.5510 C.3   1 <1>   0.2090 
 15 C       -3.0710    -1.2540     0.3140 C.3   1 <1>   0.2090 
 16 C        4.3140     1.8140     1.3320 C.ar  1 <1>  -0.1500 
 17 C        1.8790    -1.8550     2.6840 C.3   1 <1>  -0.2400 
 18 N       -3.8720    -2.4470    -0.0840 N.pl3 1 <1>  -0.8380 
 19 C       -5.1070    -2.6400     0.5060 C.ar  1 <1>   0.4100 
 20 N       -5.7530    -1.5660     0.9490 N.ar  1 <1>  -0.6200 
 21 C       -5.6200    -3.9310     0.6080 C.ar  1 <1>  -0.1500 
 22 C       -6.9360    -1.7870     1.4960 C.ar  1 <1>   0.1600 
 23 C       -6.8520    -4.1470     1.1790 C.ar  1 <1>  -0.1500 
 24 C       -7.5250    -3.0310     1.6340 C.ar  1 <1>  -0.1500 
 25 H        1.0520    -1.3370     0.1930 H     1 <1>   0.3700 
 26 H        0.3290    -2.7900    -1.5870 H     1 <1>   0.0800 
 27 H       -0.0580    -2.0260    -3.0920 H     1 <1>   0.0800 
 28 H        3.3420     0.7770    -1.7080 H     1 <1>   0.1500 
 29 H       -1.9170    -3.7360    -1.5370 H     1 <1>   0.0800 
 30 H       -2.2680    -2.9410    -3.0480 H     1 <1>   0.0800 
 31 H       -1.0950    -0.4940     0.1170 H     1 <1>   0.0800 
 32 H       -1.1630    -2.2120     0.4420 H     1 <1>   0.0800 
 33 H        3.4310     1.2370     3.1740 H     1 <1>   0.1500 
 34 H        0.4640    -0.3810     1.9970 H     1 <1>   0.0800 
 35 H        1.3870     0.1090     3.3700 H     1 <1>   0.0800 
 36 H        4.9960     2.2180    -0.6510 H     1 <1>   0.1500 
 37 H       -4.3240    -3.5600    -1.8210 H     1 <1>   0.0800 
 38 H       -4.2090    -1.8400    -2.0720 H     1 <1>   0.0800 
 39 H       -3.4890    -0.3720    -0.1410 H     1 <1>   0.0800 
 40 H       -3.1170    -1.1320     1.3830 H     1 <1>   0.0800 
 41 H        5.0480     2.4480     1.7990 H     1 <1>   0.1500 
 42 H        1.9460    -2.4070     1.7640 H     1 <1>   0.0800 
 43 H        1.1710    -2.3430     3.3300 H     1 <1>   0.0800 
 44 H        2.8440    -1.8710     3.1590 H     1 <1>   0.0800 
 45 H       -5.0340    -4.7490     0.2380 H     1 <1>   0.1500 
 46 H       -7.4690    -0.9240     1.8560 H     1 <1>   0.1500 
 47 H       -7.2710    -5.1340     1.2690 H     1 <1>   0.1500 
 48 H       -8.4920    -3.1260     2.0920 H     1 <1>   0.1500 
@<TRIPOS>BOND
  1   1   2  2   
  2   2   3  am  
  3   2   4  1   
  4   3   5  1   
  5   3  25  1   
  6   4   6  1   
  7   4  26  1   
  8   4  27  1   
  9   5   7  ar  
 10   5   8  ar  
 11   6   9  1   
 12   6  10  1   
 13   7  11  ar  
 14   7  12  1   
 15   8  13  ar  
 16   8  28  1   
 17   9  14  1   
 18   9  29  1   
 19   9  30  1   
 20  10  15  1   
 21  10  31  1   
 22  10  32  1   
 23  11  16  ar  
 24  11  33  1   
 25  12  17  1   
 26  12  34  1   
 27  12  35  1   
 28  13  16  ar  
 29  13  36  1   
 30  14  18  1   
 31  14  37  1   
 32  14  38  1   
 33  15  18  1   
 34  15  39  1   
 35  15  40  1   
 36  16  41  1   
 37  17  42  1   
 38  17  43  1   
 39  17  44  1   
 40  18  19  1   
 41  19  20  ar  
 42  19  21  ar  
 43  20  22  ar  
 44  21  23  ar  
 45  21  45  1   
 46  22  24  ar  
 47  22  46  1   
 48  23  24  ar  
 49  23  47  1   
 50  24  48  1   
@<TRIPOS>SUBSTRUCTURE
  1 ****  10 GROUP 4 **** **** 0

# MOE 2024.06 (io_trps.svl 2023.06)
