@<TRIPOS>MOLECULE
NONAME
44 45 1 0 0 
SMALL
USER_CHARGES


@<TRIPOS>ATOM
  1 O       -1.3320     1.4100    -1.4080 O.3   1 <1>  -0.3630 
  2 C       -0.9530     2.1080    -0.3040 C.ar  1 <1>   0.0830 
  3 C       -0.4830     1.2460    -2.5230 C.3   1 <1>   0.0400 
  4 C       -1.8480     2.1620     0.7750 C.ar  1 <1>   0.0280 
  5 C        0.2740     2.7640    -0.2280 C.ar  1 <1>  -0.1500 
  6 C       -1.4720     2.8860     1.9040 C.ar  1 <1>  -0.1500 
  7 C       -3.1280     1.4860     0.7310 C.2   1 <1>  -0.1780 
  8 C        0.6210     3.4760     0.9050 C.ar  1 <1>  -0.1500 
  9 C       -0.2550     3.5370     1.9730 C.ar  1 <1>  -0.1500 
 10 C       -4.2570     1.8170     1.3800 C.2   1 <1>  -0.2880 
 11 C       -5.5670     1.0710     1.2620 C.3   1 <1>   0.2480 
 12 N       -6.5520     1.9410     0.6010 N.3   1 <1>  -0.8100 
 13 C       -6.1340     2.2900    -0.7840 C.3   1 <1>   0.1100 
 14 C       -7.8990     1.3280     0.5940 C.3   1 <1>   0.1100 
 15 C       -7.1960     3.1280    -1.5360 C.3   1 <1>   0.3430 
 16 C       -8.9590     2.2540    -0.0550 C.3   1 <1>   0.3430 
 17 N       -8.3300     3.4940    -0.6270 N.4   1 <1>  -0.9590 
 18 C       -9.2780     4.4540    -1.2410 C.3   1 <1>   0.3430 
 19 C      -10.1630     5.0660    -0.1620 C.3   1 <1>  -0.2400 
 20 H       -0.9940     0.6370    -3.2460 H     1 <1>   0.0800 
 21 H        0.4200     0.7550    -2.2050 H     1 <1>   0.0800 
 22 H       -0.2700     2.2120    -2.9440 H     1 <1>   0.0800 
 23 H        0.9740     2.7360    -1.0400 H     1 <1>   0.1500 
 24 H       -2.1370     2.9360     2.7460 H     1 <1>   0.1500 
 25 H       -3.1290     0.6280     0.0800 H     1 <1>   0.1500 
 26 H        1.5690     3.9820     0.9580 H     1 <1>   0.1500 
 27 H        0.0120     4.0890     2.8570 H     1 <1>   0.1500 
 28 H       -4.3310     2.6670     2.0350 H     1 <1>   0.1500 
 29 H       -5.9110     0.8090     2.2490 H     1 <1>   0.0800 
 30 H       -5.4320     0.1650     0.6960 H     1 <1>   0.0800 
 31 H       -5.2210     2.8610    -0.7520 H     1 <1>   0.0800 
 32 H       -5.9280     1.3940    -1.3450 H     1 <1>   0.0800 
 33 H       -7.8720     0.3930     0.0590 H     1 <1>   0.0800 
 34 H       -8.2010     1.1130     1.6060 H     1 <1>   0.0800 
 35 H       -7.5640     2.5610    -2.3740 H     1 <1>   0.0800 
 36 H       -6.7260     4.0180    -1.9200 H     1 <1>   0.0800 
 37 H       -9.6810     2.5260     0.6970 H     1 <1>   0.0800 
 38 H       -9.4780     1.7110    -0.8270 H     1 <1>   0.0800 
 39 H       -7.8580     3.9280     0.1820 H     1 <1>   0.4500 
 40 H       -8.7270     5.2420    -1.7280 H     1 <1>   0.0800 
 41 H       -9.8850     3.9570    -1.9820 H     1 <1>   0.0800 
 42 H       -9.5660     5.5360     0.6000 H     1 <1>   0.0800 
 43 H      -10.8070     4.3300     0.2830 H     1 <1>   0.0800 
 44 H      -10.7880     5.8200    -0.6060 H     1 <1>   0.0800 
@<TRIPOS>BOND
  1   1   2  1   
  2   1   3  1   
  3   2   4  ar  
  4   2   5  ar  
  5   3  20  1   
  6   3  21  1   
  7   3  22  1   
  8   4   6  ar  
  9   4   7  1   
 10   5   8  ar  
 11   5  23  1   
 12   6   9  ar  
 13   6  24  1   
 14   7  10  2   
 15   7  25  1   
 16   8   9  ar  
 17   8  26  1   
 18   9  27  1   
 19  10  11  1   
 20  10  28  1   
 21  11  12  1   
 22  11  29  1   
 23  11  30  1   
 24  12  13  1   
 25  12  14  1   
 26  13  15  1   
 27  13  31  1   
 28  13  32  1   
 29  14  16  1   
 30  14  33  1   
 31  14  34  1   
 32  15  17  1   
 33  15  35  1   
 34  15  36  1   
 35  16  17  1   
 36  16  37  1   
 37  16  38  1   
 38  17  18  1   
 39  17  39  1   
 40  18  19  1   
 41  18  40  1   
 42  18  41  1   
 43  19  42  1   
 44  19  43  1   
 45  19  44  1   
@<TRIPOS>SUBSTRUCTURE
  1 ****  10 GROUP 4 **** **** 0

# MOE 2024.06 (io_trps.svl 2023.06)
