@<TRIPOS>MOLECULE
NONAME
51 53 1 0 0 
SMALL
USER_CHARGES


@<TRIPOS>ATOM
  1 O       -0.2230     1.6440    -2.5170 O.2   1 <1>  -0.5700 
  2 C       -0.1500     1.8750    -1.3320 C.2   1 <1>   0.5690 
  3 N        0.9840     1.5890    -0.6100 N.am  1 <1>  -0.5470 
  4 C       -1.3590     2.5350    -0.6100 C.3   1 <1>   0.2050 
  5 C        2.2080     1.0080    -0.9810 C.ar  1 <1>   0.1170 
  6 C       -2.2630     1.4180    -0.0310 C.ar  1 <1>  -0.1440 
  7 C       -2.1150     3.4650    -1.5960 C.3   1 <1>  -0.1600 
  8 C       -0.9100     3.4600     0.5510 C.3   1 <1>  -0.1600 
  9 C        3.3600     1.3070    -0.2480 C.ar  1 <1>  -0.1430 
 10 C        2.3050     0.1200    -2.0480 C.ar  1 <1>  -0.1500 
 11 C       -3.5870     1.2340    -0.4270 C.ar  1 <1>  -0.1500 
 12 C       -1.7490     0.5460     0.9260 C.ar  1 <1>  -0.1500 
 13 C       -1.2490     4.6560    -2.0170 C.3   1 <1>   0.1200 
 14 C       -0.1110     4.6670     0.0400 C.3   1 <1>   0.1200 
 15 C        4.5680     0.7240    -0.5950 C.ar  1 <1>  -0.1500 
 16 C        3.3240     2.2720     0.9310 C.3   1 <1>  -0.0970 
 17 C        3.5140    -0.4560    -2.3890 C.ar  1 <1>  -0.1500 
 18 C       -4.3740     0.2330     0.1180 C.ar  1 <1>   0.0830 
 19 C       -2.5210    -0.4700     1.4640 C.ar  1 <1>  -0.1500 
 20 O       -0.8850     5.3690    -0.8770 O.3   1 <1>  -0.5600 
 21 C        4.6490    -0.1540    -1.6610 C.ar  1 <1>  -0.1500 
 22 O       -5.6630     0.1590    -0.2970 O.3   1 <1>  -0.3620 
 23 C       -3.8290    -0.6460     1.0570 C.ar  1 <1>   0.0830 
 24 C       -6.6490     0.4340     0.6740 C.3   1 <1>   0.0400 
 25 O       -4.5210    -1.6800     1.5950 O.3   1 <1>  -0.3630 
 26 C       -4.8940    -2.7100     0.7060 C.3   1 <1>   0.0400 
 27 H        0.9610     1.8860     0.3600 H     1 <1>   0.3700 
 28 H       -3.0040     3.8570    -1.1340 H     1 <1>   0.0800 
 29 H       -2.4120     2.9190    -2.4750 H     1 <1>   0.0800 
 30 H       -0.3270     2.9310     1.2800 H     1 <1>   0.0800 
 31 H       -1.7810     3.8300     1.0640 H     1 <1>   0.0800 
 32 H        1.4300    -0.1320    -2.6190 H     1 <1>   0.1500 
 33 H       -4.0540     1.8570    -1.1650 H     1 <1>   0.1500 
 34 H       -0.7350     0.6320     1.2680 H     1 <1>   0.1500 
 35 H       -1.8070     5.3200    -2.6550 H     1 <1>   0.0800 
 36 H       -0.3570     4.3440    -2.5360 H     1 <1>   0.0800 
 37 H        0.8070     4.3750    -0.4430 H     1 <1>   0.0800 
 38 H        0.1190     5.3380     0.8500 H     1 <1>   0.0800 
 39 H        5.4620     0.9480    -0.0390 H     1 <1>   0.1500 
 40 H        2.9360     3.2240     0.6170 H     1 <1>   0.0800 
 41 H        4.3120     2.4300     1.3270 H     1 <1>   0.0800 
 42 H        2.7080     1.8750     1.7170 H     1 <1>   0.0800 
 43 H        3.5690    -1.1380    -3.2190 H     1 <1>   0.1500 
 44 H       -2.1080    -1.1390     2.1980 H     1 <1>   0.1500 
 45 H        5.5920    -0.6000    -1.9240 H     1 <1>   0.1500 
 46 H       -7.6060     0.4450     0.1870 H     1 <1>   0.0800 
 47 H       -6.4460     1.3950     1.1130 H     1 <1>   0.0800 
 48 H       -6.6300    -0.3310     1.4290 H     1 <1>   0.0800 
 49 H       -5.3300    -3.5080     1.2790 H     1 <1>   0.0800 
 50 H       -4.0150    -3.0610     0.1930 H     1 <1>   0.0800 
 51 H       -5.6110    -2.3310     0.0010 H     1 <1>   0.0800 
@<TRIPOS>BOND
  1   1   2  2   
  2   2   3  am  
  3   2   4  1   
  4   3   5  1   
  5   3  27  1   
  6   4   6  1   
  7   4   7  1   
  8   4   8  1   
  9   5   9  ar  
 10   5  10  ar  
 11   6  11  ar  
 12   6  12  ar  
 13   7  13  1   
 14   7  28  1   
 15   7  29  1   
 16   8  14  1   
 17   8  30  1   
 18   8  31  1   
 19   9  15  ar  
 20   9  16  1   
 21  10  17  ar  
 22  10  32  1   
 23  11  18  ar  
 24  11  33  1   
 25  12  19  ar  
 26  12  34  1   
 27  13  20  1   
 28  13  35  1   
 29  13  36  1   
 30  14  20  1   
 31  14  37  1   
 32  14  38  1   
 33  15  21  ar  
 34  15  39  1   
 35  16  40  1   
 36  16  41  1   
 37  16  42  1   
 38  17  21  ar  
 39  17  43  1   
 40  18  22  1   
 41  18  23  ar  
 42  19  23  ar  
 43  19  44  1   
 44  21  45  1   
 45  22  24  1   
 46  23  25  1   
 47  24  46  1   
 48  24  47  1   
 49  24  48  1   
 50  25  26  1   
 51  26  49  1   
 52  26  50  1   
 53  26  51  1   
@<TRIPOS>SUBSTRUCTURE
  1 ****   2 GROUP 4 **** **** 0

# MOE 2024.06 (io_trps.svl 2023.06)
