@<TRIPOS>MOLECULE
NONAME
39 40 1 0 0 
SMALL
USER_CHARGES


@<TRIPOS>ATOM
  1 CL      -1.8320     1.0780    -1.7870 Cl    1 <1>  -0.1770 
  2 C       -0.9950     2.2260    -0.7690 C.ar  1 <1>   0.1770 
  3 C       -1.5970     2.6720     0.4010 C.ar  1 <1>  -0.1440 
  4 C        0.2500     2.6750    -1.1630 C.ar  1 <1>  -0.1500 
  5 C       -0.9230     3.5930     1.1940 C.ar  1 <1>  -0.1500 
  6 C       -2.9630     2.1490     0.8100 C.3   1 <1>   0.4870 
  7 C        0.8990     3.5930    -0.3610 C.ar  1 <1>   0.1770 
  8 C        0.3270     4.0550     0.8100 C.ar  1 <1>  -0.1500 
  9 N       -3.9950     2.6500    -0.1400 N.4   1 <1>  -0.9590 
 10 CL       2.4700     4.1820    -0.8350 Cl    1 <1>  -0.1770 
 11 C       -4.1000     4.1570    -0.1220 C.3   1 <1>   0.3430 
 12 C       -5.3270     1.9870     0.0980 C.3   1 <1>   0.3430 
 13 C       -5.1760     4.6720    -1.0950 C.3   1 <1>   0.1400 
 14 C       -6.4140     2.4950    -0.8700 C.3   1 <1>   0.1400 
 15 N       -6.4750     3.9850    -0.8390 N.am  1 <1>  -0.6600 
 16 C       -7.5900     4.6850    -0.4590 C.2   1 <1>   0.7800 
 17 O       -7.5710     5.8880    -0.2970 O.2   1 <1>  -0.5700 
 18 O       -8.7080     3.9960    -0.2360 O.3   1 <1>  -0.4300 
 19 C       -9.8970     4.6520     0.1450 C.3   1 <1>   0.1200 
 20 C      -10.9840     3.5970     0.3220 C.3   1 <1>  -0.2400 
 21 H        0.7090     2.3230    -2.0700 H     1 <1>   0.1500 
 22 H       -1.3510     3.9580     2.1150 H     1 <1>   0.1500 
 23 H       -3.1940     2.4710     1.8130 H     1 <1>   0.0800 
 24 H       -2.9430     1.0710     0.7960 H     1 <1>   0.0800 
 25 H        0.8640     4.7680     1.4140 H     1 <1>   0.1500 
 26 H       -3.6750     2.3760    -1.0810 H     1 <1>   0.4500 
 27 H       -3.1520     4.5970    -0.3850 H     1 <1>   0.0800 
 28 H       -4.3550     4.4920     0.8700 H     1 <1>   0.0800 
 29 H       -5.6560     2.1850     1.1050 H     1 <1>   0.0800 
 30 H       -5.2320     0.9190    -0.0140 H     1 <1>   0.0800 
 31 H       -4.8710     4.4900    -2.1110 H     1 <1>   0.0800 
 32 H       -5.2780     5.7380    -0.9760 H     1 <1>   0.0800 
 33 H       -7.3610     2.0650    -0.5910 H     1 <1>   0.0800 
 34 H       -6.1950     2.1690    -1.8720 H     1 <1>   0.0800 
 35 H      -10.1630     5.3540    -0.6280 H     1 <1>   0.0800 
 36 H       -9.7180     5.1810     1.0660 H     1 <1>   0.0800 
 37 H      -11.1480     3.0730    -0.6030 H     1 <1>   0.0800 
 38 H      -11.9040     4.0720     0.6120 H     1 <1>   0.0800 
 39 H      -10.7040     2.8990     1.0900 H     1 <1>   0.0800 
@<TRIPOS>BOND
  1   1   2  1   
  2   2   3  ar  
  3   2   4  ar  
  4   3   5  ar  
  5   3   6  1   
  6   4   7  ar  
  7   4  21  1   
  8   5   8  ar  
  9   5  22  1   
 10   6   9  1   
 11   6  23  1   
 12   6  24  1   
 13   7   8  ar  
 14   7  10  1   
 15   8  25  1   
 16   9  11  1   
 17   9  12  1   
 18   9  26  1   
 19  11  13  1   
 20  11  27  1   
 21  11  28  1   
 22  12  14  1   
 23  12  29  1   
 24  12  30  1   
 25  13  15  1   
 26  13  31  1   
 27  13  32  1   
 28  14  15  1   
 29  14  33  1   
 30  14  34  1   
 31  15  16  am  
 32  16  17  2   
 33  16  18  1   
 34  18  19  1   
 35  19  20  1   
 36  19  35  1   
 37  19  36  1   
 38  20  37  1   
 39  20  38  1   
 40  20  39  1   
@<TRIPOS>SUBSTRUCTURE
  1 ****  11 GROUP 4 **** **** 0

# MOE 2024.06 (io_trps.svl 2023.06)
