@<TRIPOS>MOLECULE
NONAME
35 35 1 0 0 
SMALL
USER_CHARGES


@<TRIPOS>ATOM
  1 O       -0.2390     0.8610     0.7980 O.2   1 <1>  -0.5700 
  2 C        0.0480     1.8750     0.2080 C.2   1 <1>   0.5690 
  3 N        1.3330     2.2720    -0.0380 N.am  1 <1>  -0.5470 
  4 C       -1.0780     2.7830    -0.2970 C.3   1 <1>  -0.0190 
  5 C        2.5940     1.7240     0.2600 C.ar  1 <1>   0.1170 
  6 C       -1.9130     3.3130     0.8940 C.3   1 <1>  -0.1600 
  7 C       -1.9170     2.0180    -1.3480 C.3   1 <1>  -0.1600 
  8 C        3.7290     2.4340    -0.1500 C.ar  1 <1>   0.0820 
  9 C        2.7660     0.5220     0.9380 C.ar  1 <1>  -0.1500 
 10 C       -2.3910     4.7620     0.7180 C.3   1 <1>  -0.2400 
 11 C       -2.9990     2.8530    -2.0430 C.3   1 <1>  -0.2400 
 12 O        3.5220     3.6120    -0.8140 O.3   1 <1>  -0.3630 
 13 C        5.0000     1.9350     0.1210 C.ar  1 <1>  -0.1500 
 14 C        4.0320     0.0310     1.2040 C.ar  1 <1>  -0.1500 
 15 C        4.6040     4.3970    -1.2660 C.3   1 <1>   0.0400 
 16 C        5.1490     0.7360     0.7960 C.ar  1 <1>  -0.1500 
 17 H        1.4310     3.1550    -0.5410 H     1 <1>   0.3700 
 18 H       -0.6190     3.6220    -0.7880 H     1 <1>   0.0800 
 19 H       -1.3080     3.2830     1.7860 H     1 <1>   0.0800 
 20 H       -2.7540     2.6630     1.0690 H     1 <1>   0.0800 
 21 H       -2.3790     1.1640    -0.8810 H     1 <1>   0.0800 
 22 H       -1.2490     1.6400    -2.1030 H     1 <1>   0.0800 
 23 H        1.9140    -0.0440     1.2640 H     1 <1>   0.1500 
 24 H       -1.5500     5.4240     0.6100 H     1 <1>   0.0800 
 25 H       -2.9490     5.0670     1.5860 H     1 <1>   0.0800 
 26 H       -3.0250     4.8700    -0.1420 H     1 <1>   0.0800 
 27 H       -3.7870     3.1000    -1.3540 H     1 <1>   0.0800 
 28 H       -3.4310     2.2880    -2.8500 H     1 <1>   0.0800 
 29 H       -2.5810     3.7580    -2.4460 H     1 <1>   0.0800 
 30 H        5.8860     2.4590    -0.1820 H     1 <1>   0.1500 
 31 H        4.1440    -0.9020     1.7300 H     1 <1>   0.1500 
 32 H        4.2050     5.2680    -1.7550 H     1 <1>   0.0800 
 33 H        5.1860     3.8220    -1.9650 H     1 <1>   0.0800 
 34 H        5.1980     4.6940    -0.4200 H     1 <1>   0.0800 
 35 H        6.1320     0.3520     1.0050 H     1 <1>   0.1500 
@<TRIPOS>BOND
  1   1   2  2   
  2   2   3  am  
  3   2   4  1   
  4   3   5  1   
  5   3  17  1   
  6   4   6  1   
  7   4   7  1   
  8   4  18  1   
  9   5   8  ar  
 10   5   9  ar  
 11   6  10  1   
 12   6  19  1   
 13   6  20  1   
 14   7  11  1   
 15   7  21  1   
 16   7  22  1   
 17   8  12  1   
 18   8  13  ar  
 19   9  14  ar  
 20   9  23  1   
 21  10  24  1   
 22  10  25  1   
 23  10  26  1   
 24  11  27  1   
 25  11  28  1   
 26  11  29  1   
 27  12  15  1   
 28  13  16  ar  
 29  13  30  1   
 30  14  16  ar  
 31  14  31  1   
 32  15  32  1   
 33  15  33  1   
 34  15  34  1   
 35  16  35  1   
@<TRIPOS>SUBSTRUCTURE
  1 ****   3 GROUP 4 **** **** 0

# MOE 2024.06 (io_trps.svl 2023.06)
