@<TRIPOS>MOLECULE
NONAME
45 46 1 0 0 
SMALL
USER_CHARGES


@<TRIPOS>ATOM
  1 CL       0.0100     0.2190     1.3460 Cl    1 <1>  -0.1770 
  2 C        1.2500    -0.8110     0.6540 C.ar  1 <1>   0.1770 
  3 C        1.0610    -2.1860     0.5570 C.ar  1 <1>   0.0830 
  4 C        2.4140    -0.2210     0.2100 C.ar  1 <1>  -0.1500 
  5 O       -0.0970    -2.7410     0.9910 O.3   1 <1>  -0.3630 
  6 C        2.0690    -2.9890     0.0240 C.ar  1 <1>  -0.1440 
  7 C        3.4060    -1.0140    -0.3380 C.ar  1 <1>  -0.1500 
  8 C       -1.2150    -2.6020     0.1500 C.3   1 <1>   0.1200 
  9 C        3.2420    -2.3890    -0.4350 C.ar  1 <1>  -0.1440 
 10 C        1.8870    -4.5050    -0.0580 C.3   1 <1>  -0.0960 
 11 C       -2.4640    -2.7320     1.0240 C.3   1 <1>  -0.1600 
 12 C        4.3710    -3.2070    -1.0500 C.3   1 <1>  -0.0970 
 13 C       -3.7480    -2.4680     0.2270 C.3   1 <1>  -0.1600 
 14 C       -4.9700    -2.5600     1.1440 C.3   1 <1>   0.3430 
 15 N       -6.2240    -2.3470     0.3700 N.4   1 <1>  -0.9590 
 16 C       -6.3910    -0.9140    -0.0710 C.3   1 <1>   0.3430 
 17 C       -7.4230    -2.7790     1.1720 C.3   1 <1>   0.3430 
 18 C       -7.7560    -0.6840    -0.7480 C.3   1 <1>   0.1200 
 19 C       -8.7410    -2.4680     0.4370 C.3   1 <1>   0.1200 
 20 O       -8.7910    -1.1160     0.0860 O.3   1 <1>  -0.5600 
 21 H        2.5420     0.8430     0.2920 H     1 <1>   0.1500 
 22 H        4.3120    -0.5490    -0.6870 H     1 <1>   0.1500 
 23 H       -1.1690    -3.3750    -0.5980 H     1 <1>   0.0800 
 24 H       -1.1790    -1.6380    -0.3260 H     1 <1>   0.0800 
 25 H        1.1110    -4.8470     0.6020 H     1 <1>   0.0800 
 26 H        2.7900    -5.0110     0.2280 H     1 <1>   0.0800 
 27 H        1.6310    -4.7860    -1.0630 H     1 <1>   0.0800 
 28 H       -2.3860    -2.0170     1.8270 H     1 <1>   0.0800 
 29 H       -2.4860    -3.7220     1.4470 H     1 <1>   0.0800 
 30 H        3.9880    -3.8530    -1.8190 H     1 <1>   0.0800 
 31 H        4.8460    -3.8040    -0.2920 H     1 <1>   0.0800 
 32 H        5.1150    -2.5680    -1.4920 H     1 <1>   0.0800 
 33 H       -3.8270    -3.1970    -0.5610 H     1 <1>   0.0800 
 34 H       -3.6820    -1.4860    -0.2080 H     1 <1>   0.0800 
 35 H       -4.8920    -1.8270     1.9320 H     1 <1>   0.0800 
 36 H       -4.9860    -3.5380     1.5980 H     1 <1>   0.0800 
 37 H       -6.1890    -2.9340    -0.4730 H     1 <1>   0.4500 
 38 H       -5.6070    -0.6430    -0.7580 H     1 <1>   0.0800 
 39 H       -6.3240    -0.2600     0.7830 H     1 <1>   0.0800 
 40 H       -7.4350    -2.2620     2.1170 H     1 <1>   0.0800 
 41 H       -7.3700    -3.8370     1.3740 H     1 <1>   0.0800 
 42 H       -7.8210    -1.2100    -1.6850 H     1 <1>   0.0800 
 43 H       -7.9040     0.3660    -0.9350 H     1 <1>   0.0800 
 44 H       -9.5810    -2.6690     1.0800 H     1 <1>   0.0800 
 45 H       -8.8420    -3.0630    -0.4540 H     1 <1>   0.0800 
@<TRIPOS>BOND
  1   1   2  1   
  2   2   3  ar  
  3   2   4  ar  
  4   3   5  1   
  5   3   6  ar  
  6   4   7  ar  
  7   4  21  1   
  8   5   8  1   
  9   6   9  ar  
 10   6  10  1   
 11   7   9  ar  
 12   7  22  1   
 13   8  11  1   
 14   8  23  1   
 15   8  24  1   
 16   9  12  1   
 17  10  25  1   
 18  10  26  1   
 19  10  27  1   
 20  11  13  1   
 21  11  28  1   
 22  11  29  1   
 23  12  30  1   
 24  12  31  1   
 25  12  32  1   
 26  13  14  1   
 27  13  33  1   
 28  13  34  1   
 29  14  15  1   
 30  14  35  1   
 31  14  36  1   
 32  15  16  1   
 33  15  17  1   
 34  15  37  1   
 35  16  18  1   
 36  16  38  1   
 37  16  39  1   
 38  17  19  1   
 39  17  40  1   
 40  17  41  1   
 41  18  20  1   
 42  18  42  1   
 43  18  43  1   
 44  19  20  1   
 45  19  44  1   
 46  19  45  1   
@<TRIPOS>SUBSTRUCTURE
  1 ****   8 GROUP 4 **** **** 0

# MOE 2024.06 (io_trps.svl 2023.06)
