@<TRIPOS>MOLECULE
NONAME
54 56 1 0 0 
SMALL
USER_CHARGES


@<TRIPOS>ATOM
  1 CL       5.0830     1.2260    -0.4070 Cl    1 <1>  -0.1770 
  2 C        3.3780     1.3910    -0.7420 C.ar  1 <1>   0.1770 
  3 C        2.5410     2.0250     0.1770 C.ar  1 <1>   0.0860 
  4 C        2.9060     0.8810    -1.9360 C.ar  1 <1>  -0.1500 
  5 C        3.0490     2.5600     1.4170 C.2   1 <1>   0.5440 
  6 C        1.1850     2.1250    -0.1450 C.ar  1 <1>  -0.1500 
  7 C        1.5610     1.0030    -2.2230 C.ar  1 <1>   0.1770 
  8 O        3.0300     1.8570     2.4080 O.2   1 <1>  -0.5700 
  9 N        3.5400     3.8470     1.5050 N.am  1 <1>  -0.6600 
 10 C        0.6950     1.6200    -1.3370 C.ar  1 <1>  -0.1500 
 11 CL       0.9460     0.3720    -3.7240 Cl    1 <1>  -0.1770 
 12 C        4.1470     4.3730     2.7570 C.3   1 <1>   0.1400 
 13 C        3.6500     4.7840     0.3580 C.3   1 <1>   0.1400 
 14 C        5.6490     4.5580     2.5310 C.3   1 <1>  -0.1600 
 15 C        5.1290     5.0040     0.0360 C.3   1 <1>  -0.1600 
 16 C        5.9390     5.4260     1.2840 C.3   1 <1>  -0.0190 
 17 C        7.4330     5.6170     0.9780 C.2   1 <1>   0.5690 
 18 O        7.8240     6.7610     0.9800 O.2   1 <1>  -0.5700 
 19 N        8.3050     4.5880     0.6940 N.am  1 <1>  -0.6600 
 20 C        9.7150     4.9370     0.3110 C.3   1 <1>   0.1400 
 21 C        7.9840     3.1230     0.6690 C.3   1 <1>   0.1400 
 22 C       10.6700     3.7320     0.2900 C.3   1 <1>   0.1400 
 23 C        8.6500     2.4130    -0.5190 C.3   1 <1>   0.1400 
 24 N       10.1300     2.6070    -0.5320 N.am  1 <1>  -0.6600 
 25 C       10.9260     1.7870    -1.2820 C.2   1 <1>   0.7800 
 26 O       10.4740     0.8990    -1.9800 O.2   1 <1>  -0.5700 
 27 O       12.2450     1.9830    -1.2290 O.3   1 <1>  -0.4300 
 28 C       13.1240     1.1760    -1.9760 C.3   1 <1>   0.1200 
 29 C       14.5480     1.6520    -1.7070 C.3   1 <1>  -0.2400 
 30 H        3.5700     0.3970    -2.6280 H     1 <1>   0.1500 
 31 H        0.5180     2.6010     0.5550 H     1 <1>   0.1500 
 32 H       -0.3510     1.6970    -1.5830 H     1 <1>   0.1500 
 33 H        3.9820     3.6990     3.5800 H     1 <1>   0.0800 
 34 H        3.6890     5.3160     3.0040 H     1 <1>   0.0800 
 35 H        3.1920     5.7210     0.6270 H     1 <1>   0.0800 
 36 H        3.1380     4.4040    -0.5090 H     1 <1>   0.0800 
 37 H        6.0850     3.5830     2.4520 H     1 <1>   0.0800 
 38 H        6.0790     5.0280     3.3970 H     1 <1>   0.0800 
 39 H        5.2140     5.7740    -0.7110 H     1 <1>   0.0800 
 40 H        5.5200     4.1060    -0.3990 H     1 <1>   0.0800 
 41 H        5.5730     6.4070     1.5380 H     1 <1>   0.0800 
 42 H       10.0970     5.6710     0.9990 H     1 <1>   0.0800 
 43 H        9.7020     5.3860    -0.6670 H     1 <1>   0.0800 
 44 H        6.9300     2.9580     0.6070 H     1 <1>   0.0800 
 45 H        8.3290     2.6720     1.5830 H     1 <1>   0.0800 
 46 H       10.8260     3.3870     1.2970 H     1 <1>   0.0800 
 47 H       11.6210     4.0530    -0.0980 H     1 <1>   0.0800 
 48 H        8.2380     2.7950    -1.4370 H     1 <1>   0.0800 
 49 H        8.4280     1.3600    -0.4720 H     1 <1>   0.0800 
 50 H       12.8740     1.2750    -3.0200 H     1 <1>   0.0800 
 51 H       12.9930     0.1520    -1.6680 H     1 <1>   0.0800 
 52 H       14.6590     2.6780    -2.0090 H     1 <1>   0.0800 
 53 H       15.2420     1.0530    -2.2670 H     1 <1>   0.0800 
 54 H       14.7780     1.5570    -0.6610 H     1 <1>   0.0800 
@<TRIPOS>BOND
  1   1   2  1   
  2   2   3  ar  
  3   2   4  ar  
  4   3   5  1   
  5   3   6  ar  
  6   4   7  ar  
  7   4  30  1   
  8   5   8  2   
  9   5   9  am  
 10   6  10  ar  
 11   6  31  1   
 12   7  10  ar  
 13   7  11  1   
 14   9  12  1   
 15   9  13  1   
 16  10  32  1   
 17  12  14  1   
 18  12  33  1   
 19  12  34  1   
 20  13  15  1   
 21  13  35  1   
 22  13  36  1   
 23  14  16  1   
 24  14  37  1   
 25  14  38  1   
 26  15  16  1   
 27  15  39  1   
 28  15  40  1   
 29  16  17  1   
 30  16  41  1   
 31  17  18  2   
 32  17  19  am  
 33  19  20  1   
 34  19  21  1   
 35  20  22  1   
 36  20  42  1   
 37  20  43  1   
 38  21  23  1   
 39  21  44  1   
 40  21  45  1   
 41  22  24  1   
 42  22  46  1   
 43  22  47  1   
 44  23  24  1   
 45  23  48  1   
 46  23  49  1   
 47  24  25  am  
 48  25  26  2   
 49  25  27  1   
 50  27  28  1   
 51  28  29  1   
 52  28  50  1   
 53  28  51  1   
 54  29  52  1   
 55  29  53  1   
 56  29  54  1   
@<TRIPOS>SUBSTRUCTURE
  1 ****  21 GROUP 4 **** **** 0

# MOE 2024.06 (io_trps.svl 2023.06)
