@<TRIPOS>MOLECULE
NONAME
50 52 1 0 0 
SMALL
USER_CHARGES


@<TRIPOS>ATOM
  1 N       -0.1410    -0.5380    -0.1100 N.4   1 <1>  -0.9590 
  2 C       -1.0410     0.3580     0.6700 C.3   1 <1>   0.3430 
  3 C       -0.5930    -1.9630    -0.1060 C.3   1 <1>   0.3430 
  4 C        1.2590    -0.4110     0.4040 C.3   1 <1>   0.3430 
  5 C       -2.4690     0.2790     0.1250 C.3   1 <1>  -0.1600 
  6 C       -2.0150    -2.0620    -0.6610 C.3   1 <1>  -0.1600 
  7 C        2.2580    -0.9730    -0.6100 C.3   1 <1>  -0.1600 
  8 C       -2.9790    -1.1650     0.1160 C.3   1 <1>   0.4230 
  9 C        3.6980    -0.7350    -0.1420 C.3   1 <1>  -0.2400 
 10 N       -4.3140    -1.2470    -0.5170 N.4   1 <1>  -0.9060 
 11 C       -5.4340    -0.6900     0.2630 C.3   1 <1>   0.5660 
 12 C       -6.4260    -1.8330     0.4450 C.ar  1 <1>  -0.1430 
 13 C       -5.9910     0.5180    -0.5070 C.3   1 <1>  -0.1600 
 14 C       -7.7570    -1.7110     0.0500 C.ar  1 <1>  -0.1430 
 15 C       -6.0020    -3.0210     1.0330 C.ar  1 <1>  -0.1500 
 16 C       -7.4570     0.7870    -0.1570 C.3   1 <1>  -0.1600 
 17 C       -8.6220    -2.7820     0.2060 C.ar  1 <1>  -0.1500 
 18 C       -8.3120    -0.4230    -0.5440 C.3   1 <1>  -0.0170 
 19 C       -6.8740    -4.0830     1.1870 C.ar  1 <1>  -0.1500 
 20 C       -8.1840    -3.9650     0.7670 C.ar  1 <1>  -0.1500 
 21 H       -0.1060    -0.2030    -1.0850 H     1 <1>   0.4500 
 22 H       -0.6870     1.3770     0.6080 H     1 <1>   0.0800 
 23 H       -1.0300     0.0680     1.7100 H     1 <1>   0.0800 
 24 H       -0.5630    -2.3510     0.9000 H     1 <1>   0.0800 
 25 H        0.0680    -2.5630    -0.7130 H     1 <1>   0.0800 
 26 H        1.3640    -0.9270     1.3460 H     1 <1>   0.0800 
 27 H        1.4920     0.6300     0.5680 H     1 <1>   0.0800 
 28 H       -2.4850     0.6960    -0.8670 H     1 <1>   0.0800 
 29 H       -3.0940     0.8880     0.7550 H     1 <1>   0.0800 
 30 H       -2.3320    -3.0880    -0.5850 H     1 <1>   0.0800 
 31 H       -1.9990    -1.7940    -1.7030 H     1 <1>   0.0800 
 32 H        2.1280    -0.4880    -1.5630 H     1 <1>   0.0800 
 33 H        2.1190    -2.0320    -0.7360 H     1 <1>   0.0800 
 34 H       -3.0440    -1.5250     1.1330 H     1 <1>   0.0800 
 35 H        3.8980     0.3170    -0.0310 H     1 <1>   0.0800 
 36 H        4.3900    -1.1320    -0.8650 H     1 <1>   0.0800 
 37 H        3.8830    -1.2230     0.8000 H     1 <1>   0.0800 
 38 H       -4.5930    -2.2290    -0.6550 H     1 <1>   0.4500 
 39 H       -4.3360    -0.8240    -1.4490 H     1 <1>   0.4500 
 40 H       -5.1070    -0.3720     1.2400 H     1 <1>   0.0800 
 41 H       -5.9410     0.3470    -1.5690 H     1 <1>   0.0800 
 42 H       -5.4110     1.3930    -0.2740 H     1 <1>   0.0800 
 43 H       -4.9970    -3.1480     1.3930 H     1 <1>   0.1500 
 44 H       -7.8120     1.6570    -0.6850 H     1 <1>   0.0800 
 45 H       -7.5610     0.9760     0.8990 H     1 <1>   0.0800 
 46 H       -9.6500    -2.7000    -0.1060 H     1 <1>   0.1500 
 47 H       -9.3190    -0.2650    -0.1940 H     1 <1>   0.0800 
 48 H       -8.3510    -0.5180    -1.6150 H     1 <1>   0.0800 
 49 H       -6.5430    -5.0040     1.6400 H     1 <1>   0.1500 
 50 H       -8.8660    -4.7910     0.8850 H     1 <1>   0.1500 
@<TRIPOS>BOND
  1   1   2  1   
  2   1   3  1   
  3   1   4  1   
  4   1  21  1   
  5   2   5  1   
  6   2  22  1   
  7   2  23  1   
  8   3   6  1   
  9   3  24  1   
 10   3  25  1   
 11   4   7  1   
 12   4  26  1   
 13   4  27  1   
 14   5   8  1   
 15   5  28  1   
 16   5  29  1   
 17   6   8  1   
 18   6  30  1   
 19   6  31  1   
 20   7   9  1   
 21   7  32  1   
 22   7  33  1   
 23   8  10  1   
 24   8  34  1   
 25   9  35  1   
 26   9  36  1   
 27   9  37  1   
 28  10  11  1   
 29  10  38  1   
 30  10  39  1   
 31  11  12  1   
 32  11  13  1   
 33  11  40  1   
 34  12  14  ar  
 35  12  15  ar  
 36  13  16  1   
 37  13  41  1   
 38  13  42  1   
 39  14  17  ar  
 40  14  18  1   
 41  15  19  ar  
 42  15  43  1   
 43  16  18  1   
 44  16  44  1   
 45  16  45  1   
 46  17  20  ar  
 47  17  46  1   
 48  18  47  1   
 49  18  48  1   
 50  19  20  ar  
 51  19  49  1   
 52  20  50  1   
@<TRIPOS>SUBSTRUCTURE
  1 ****  10 GROUP 4 **** **** 0

# MOE 2024.06 (io_trps.svl 2023.06)
