@<TRIPOS>MOLECULE
NONAME
37 39 1 0 0 
SMALL
USER_CHARGES


@<TRIPOS>ATOM
  1 CL       0.0600     0.0180    -0.2110 Cl    1 <1>  -0.1770 
  2 C        1.6160    -0.7590    -0.1550 C.ar  1 <1>   0.1770 
  3 C        2.7030    -0.0650     0.3070 C.ar  1 <1>  -0.1500 
  4 C        1.7280    -2.0760    -0.5820 C.ar  1 <1>  -0.1500 
  5 C        3.9540    -0.6870     0.3530 C.ar  1 <1>   0.3610 
  6 C        2.9530    -2.6970    -0.5410 C.ar  1 <1>  -0.1500 
  7 N        5.0680    -0.0060     0.8160 N.ar  1 <1>  -0.1790 
  8 C        4.0970    -2.0230    -0.0740 C.ar  1 <1>   0.0000 
  9 C        6.2920    -0.5330     0.8930 C.ar  1 <1>   0.4610 
 10 C        5.3980    -2.6090    -0.0060 C.ar  1 <1>  -0.1430 
 11 N        7.3000     0.2210     1.3600 N.pl3 1 <1>  -0.8690 
 12 C        6.4450    -1.8740     0.4630 C.ar  1 <1>  -0.1500 
 13 C        5.6180    -4.0490    -0.4560 C.3   1 <1>  -0.0970 
 14 C        8.7190    -0.2150     1.5860 C.3   1 <1>   0.2090 
 15 C        9.5890    -0.0100     0.3360 C.3   1 <1>   0.2000 
 16 O       10.8820    -0.4180     0.6210 O.3   1 <1>  -0.5600 
 17 C        9.7420     1.4370    -0.1140 C.3   1 <1>  -0.1600 
 18 C       11.7950     0.1990    -0.2340 C.3   1 <1>   0.1200 
 19 C       11.0910     1.4250    -0.8120 C.3   1 <1>  -0.1600 
 20 H        2.5730     0.9530     0.6280 H     1 <1>   0.1500 
 21 H        0.8500    -2.5890    -0.9380 H     1 <1>   0.1500 
 22 H        3.0270    -3.7180    -0.8750 H     1 <1>   0.1500 
 23 H        4.9460     0.9520     1.1290 H     1 <1>   0.4570 
 24 H        7.1860     1.2060     1.6230 H     1 <1>   0.4000 
 25 H        7.4260    -2.3090     0.5120 H     1 <1>   0.1500 
 26 H        5.0170    -4.7200     0.1320 H     1 <1>   0.0800 
 27 H        6.6480    -4.3400    -0.3440 H     1 <1>   0.0800 
 28 H        5.3530    -4.1610    -1.4930 H     1 <1>   0.0800 
 29 H        8.7500    -1.2530     1.8680 H     1 <1>   0.0800 
 30 H        9.1360     0.3540     2.3980 H     1 <1>   0.0800 
 31 H        9.2370    -0.6230    -0.4760 H     1 <1>   0.0800 
 32 H        9.7790     2.0870     0.7430 H     1 <1>   0.0800 
 33 H        8.9440     1.7450    -0.7660 H     1 <1>   0.0800 
 34 H       12.0680    -0.5010    -1.0060 H     1 <1>   0.0800 
 35 H       12.6650     0.4680     0.3410 H     1 <1>   0.0800 
 36 H       11.6510     2.3240    -0.6250 H     1 <1>   0.0800 
 37 H       10.9740     1.3010    -1.8740 H     1 <1>   0.0800 
@<TRIPOS>BOND
  1   1   2  1   
  2   2   3  ar  
  3   2   4  ar  
  4   3   5  ar  
  5   3  20  1   
  6   4   6  ar  
  7   4  21  1   
  8   5   7  ar  
  9   5   8  ar  
 10   6   8  ar  
 11   6  22  1   
 12   7   9  ar  
 13   7  23  1   
 14   8  10  ar  
 15   9  11  1   
 16   9  12  ar  
 17  10  12  ar  
 18  10  13  1   
 19  11  14  1   
 20  11  24  1   
 21  12  25  1   
 22  13  26  1   
 23  13  27  1   
 24  13  28  1   
 25  14  15  1   
 26  14  29  1   
 27  14  30  1   
 28  15  16  1   
 29  15  17  1   
 30  15  31  1   
 31  16  18  1   
 32  17  19  1   
 33  17  32  1   
 34  17  33  1   
 35  18  19  1   
 36  18  34  1   
 37  18  35  1   
 38  19  36  1   
 39  19  37  1   
@<TRIPOS>SUBSTRUCTURE
  1 ****   9 GROUP 4 **** **** 0

# MOE 2024.06 (io_trps.svl 2023.06)
