@<TRIPOS>MOLECULE
NONAME
29 29 1 0 0 
SMALL
USER_CHARGES


@<TRIPOS>ATOM
  1 CL       0.1760     0.4070    -0.4910 Cl    1 <1>  -0.1770 
  2 C       -1.4300     1.0490    -0.2590 C.ar  1 <1>   0.1770 
  3 C       -1.7370     2.3010    -0.7570 C.ar  1 <1>  -0.1500 
  4 C       -2.3710     0.2960     0.4170 C.ar  1 <1>  -0.1500 
  5 C       -3.0120     2.8100    -0.5700 C.ar  1 <1>  -0.1500 
  6 C       -3.6440     0.8100     0.6000 C.ar  1 <1>  -0.1500 
  7 C       -3.9690     2.0680     0.1110 C.ar  1 <1>  -0.1430 
  8 C       -5.3660     2.6290     0.3260 C.3   1 <1>   0.2140 
  9 S       -6.5130     1.7500    -0.7710 S.3   1 <1>  -0.4600 
 10 C       -8.1050     2.5490    -0.4270 C.3   1 <1>   0.0700 
 11 C       -9.2070     1.7220    -1.0900 C.3   1 <1>   0.1400 
 12 N      -10.5140     2.4170    -0.9830 N.am  1 <1>  -0.7300 
 13 C      -11.2150     2.5640     0.1670 C.2   1 <1>   0.5690 
 14 O      -10.7950     2.1900     1.2330 O.2   1 <1>  -0.5700 
 15 C      -12.5640     3.2280     0.0980 C.3   1 <1>  -0.1790 
 16 H       -0.9880     2.8660    -1.2820 H     1 <1>   0.1500 
 17 H       -2.1090    -0.6770     0.7910 H     1 <1>   0.1500 
 18 H       -3.2560     3.7830    -0.9600 H     1 <1>   0.1500 
 19 H       -4.3850     0.2270     1.1200 H     1 <1>   0.1500 
 20 H       -5.4210     3.6740     0.0790 H     1 <1>   0.0800 
 21 H       -5.7000     2.4690     1.3360 H     1 <1>   0.0800 
 22 H       -8.0590     3.5430    -0.8340 H     1 <1>   0.0800 
 23 H       -8.2330     2.5770     0.6410 H     1 <1>   0.0800 
 24 H       -9.2730     0.7630    -0.6030 H     1 <1>   0.0800 
 25 H       -8.9710     1.5660    -2.1280 H     1 <1>   0.0800 
 26 H      -10.9170     2.7460    -1.8620 H     1 <1>   0.3700 
 27 H      -12.4600     4.2250    -0.2870 H     1 <1>   0.0800 
 28 H      -12.9950     3.2770     1.0810 H     1 <1>   0.0800 
 29 H      -13.2160     2.6610    -0.5390 H     1 <1>   0.0800 
@<TRIPOS>BOND
  1   1   2  1   
  2   2   3  ar  
  3   2   4  ar  
  4   3   5  ar  
  5   3  16  1   
  6   4   6  ar  
  7   4  17  1   
  8   5   7  ar  
  9   5  18  1   
 10   6   7  ar  
 11   6  19  1   
 12   7   8  1   
 13   8   9  1   
 14   8  20  1   
 15   8  21  1   
 16   9  10  1   
 17  10  11  1   
 18  10  22  1   
 19  10  23  1   
 20  11  12  1   
 21  11  24  1   
 22  11  25  1   
 23  12  13  am  
 24  12  26  1   
 25  13  14  2   
 26  13  15  1   
 27  15  27  1   
 28  15  28  1   
 29  15  29  1   
@<TRIPOS>SUBSTRUCTURE
  1 ****   9 GROUP 4 **** **** 0

# MOE 2024.06 (io_trps.svl 2023.06)
