@<TRIPOS>MOLECULE
NONAME
53 55 1 0 0 
SMALL
USER_CHARGES


@<TRIPOS>ATOM
  1 O       -0.1400    -2.0470    -2.1190 O.2   1 <1>  -0.5700 
  2 C       -0.1810    -2.0370    -0.9180 C.2   1 <1>   0.6590 
  3 O       -1.3190    -1.9080    -0.2470 O.3   1 <1>  -0.4300 
  4 C        1.0780    -2.1600    -0.0920 C.3   1 <1>  -0.0990 
  5 C       -2.5550    -1.6850    -0.9030 C.3   1 <1>   0.2000 
  6 C        2.2990    -2.0310    -1.0040 C.3   1 <1>   0.3430 
  7 C       -3.4550    -0.9010     0.1030 C.3   1 <1>  -0.1600 
  8 C       -3.1180    -3.0820    -1.3360 C.3   1 <1>  -0.1600 
  9 N        3.5750    -2.0830    -0.2280 N.4   1 <1>  -0.9590 
 10 C       -4.1750    -1.9340     0.9720 C.3   1 <1>   0.4230 
 11 C       -4.2050    -3.7270    -0.4270 C.3   1 <1>   0.4230 
 12 C        4.7070    -1.5860    -1.0570 C.3   1 <1>   0.3430 
 13 C        3.8870    -3.4480     0.2740 C.3   1 <1>   0.3430 
 14 N       -5.0730    -2.6460     0.0130 N.4   1 <1>  -0.9590 
 15 C       -4.1180    -3.0990     1.9440 C.3   1 <1>  -0.1600 
 16 C       -3.7680    -4.2540     0.9590 C.3   1 <1>  -0.1600 
 17 C        5.8240    -1.0180    -0.1770 C.3   1 <1>  -0.1600 
 18 C        4.3880    -3.3760     1.7170 C.3   1 <1>  -0.1600 
 19 C       -5.8550    -1.9270    -1.0540 C.3   1 <1>   0.2630 
 20 C        6.3900    -1.9610     0.9010 C.3   1 <1>  -0.1600 
 21 C        5.3920    -2.2530     2.0330 C.3   1 <1>  -0.1600 
 22 H        1.0620    -3.1140     0.4010 H     1 <1>   0.0800 
 23 H        1.0800    -1.3750     0.6410 H     1 <1>   0.0800 
 24 H       -2.3620    -1.0690    -1.7680 H     1 <1>   0.0800 
 25 H        2.2350    -1.0900    -1.5270 H     1 <1>   0.0800 
 26 H        2.2850    -2.8150    -1.7460 H     1 <1>   0.0800 
 27 H       -4.1320    -0.2340    -0.3950 H     1 <1>   0.0800 
 28 H       -2.8340    -0.2810     0.7260 H     1 <1>   0.0800 
 29 H       -2.3160    -3.7820    -1.4840 H     1 <1>   0.0800 
 30 H       -3.5640    -2.9540    -2.3060 H     1 <1>   0.0800 
 31 H        3.5100    -1.4610     0.5890 H     1 <1>   0.4500 
 32 H       -3.1570    -2.2720     0.9530 H     1 <1>   0.0800 
 33 H       -4.7520    -4.4850    -0.9670 H     1 <1>   0.0800 
 34 H        4.3630    -0.8040    -1.7140 H     1 <1>   0.0800 
 35 H        5.0940    -2.3860    -1.6690 H     1 <1>   0.0800 
 36 H        4.6470    -3.8980    -0.3450 H     1 <1>   0.0800 
 37 H        3.0150    -4.0800     0.2350 H     1 <1>   0.0800 
 38 H       -5.7750    -3.0970     0.6130 H     1 <1>   0.4500 
 39 H       -5.0650    -3.2490     2.4350 H     1 <1>   0.0800 
 40 H       -3.3570    -2.9630     2.6950 H     1 <1>   0.0800 
 41 H       -2.7140    -4.4730     0.9590 H     1 <1>   0.0800 
 42 H       -4.3020    -5.1530     1.2150 H     1 <1>   0.0800 
 43 H        5.4820    -0.1070     0.2830 H     1 <1>   0.0800 
 44 H        6.6340    -0.7400    -0.8300 H     1 <1>   0.0800 
 45 H        4.8540    -4.3210     1.9380 H     1 <1>   0.0800 
 46 H        3.5460    -3.2910     2.3820 H     1 <1>   0.0800 
 47 H       -5.1950    -1.4780    -1.7770 H     1 <1>   0.0800 
 48 H       -6.4600    -1.1530    -0.6120 H     1 <1>   0.0800 
 49 H       -6.5030    -2.6180    -1.5690 H     1 <1>   0.0800 
 50 H        7.2460    -1.4730     1.3390 H     1 <1>   0.0800 
 51 H        6.7480    -2.8780     0.4630 H     1 <1>   0.0800 
 52 H        5.9460    -2.5450     2.9110 H     1 <1>   0.0800 
 53 H        4.8690    -1.3480     2.2930 H     1 <1>   0.0800 
@<TRIPOS>BOND
  1   1   2  2   
  2   2   3  1   
  3   2   4  1   
  4   3   5  1   
  5   4   6  1   
  6   4  22  1   
  7   4  23  1   
  8   5   7  1   
  9   5   8  1   
 10   5  24  1   
 11   6   9  1   
 12   6  25  1   
 13   6  26  1   
 14   7  10  1   
 15   7  27  1   
 16   7  28  1   
 17   8  11  1   
 18   8  29  1   
 19   8  30  1   
 20   9  12  1   
 21   9  13  1   
 22   9  31  1   
 23  10  14  1   
 24  10  15  1   
 25  10  32  1   
 26  11  14  1   
 27  11  16  1   
 28  11  33  1   
 29  12  17  1   
 30  12  34  1   
 31  12  35  1   
 32  13  18  1   
 33  13  36  1   
 34  13  37  1   
 35  14  19  1   
 36  14  38  1   
 37  15  16  1   
 38  15  39  1   
 39  15  40  1   
 40  16  41  1   
 41  16  42  1   
 42  17  20  1   
 43  17  43  1   
 44  17  44  1   
 45  18  21  1   
 46  18  45  1   
 47  18  46  1   
 48  19  47  1   
 49  19  48  1   
 50  19  49  1   
 51  20  21  1   
 52  20  50  1   
 53  20  51  1   
 54  21  52  1   
 55  21  53  1   
@<TRIPOS>SUBSTRUCTURE
  1 ****   2 GROUP 4 **** **** 0

# MOE 2024.06 (io_trps.svl 2023.06)
