@<TRIPOS>MOLECULE
NONAME
33 32 1 0 0 
SMALL
USER_CHARGES


@<TRIPOS>ATOM
  1 O       -1.0750     0.6990     1.3010 O.2   1 <1>  -0.5700 
  2 C       -1.6300     1.0690     0.2840 C.2   1 <1>   0.7060 
  3 O       -2.1860     0.1550    -0.5210 O.3   1 <1>  -0.4300 
  4 C       -1.7610     2.4460    -0.0810 C.2   1 <1>   0.0290 
  5 C       -2.0890    -1.2290    -0.2480 C.3   1 <1>   0.0400 
  6 C       -0.5150     3.1170    -0.2880 C.2   1 <1>   0.4950 
  7 C       -2.9800     3.0670    -0.2240 C.2   1 <1>  -0.1500 
  8 O        0.4850     2.5630    -0.6670 O.2   1 <1>  -0.5700 
  9 C       -0.4060     4.6110    -0.0570 C.3   1 <1>  -0.1790 
 10 C       -4.2690     2.5230    -0.0160 C.2   1 <1>  -0.1500 
 11 C       -5.4460     3.1850    -0.1830 C.2   1 <1>  -0.1500 
 12 C       -6.7400     2.6500     0.0230 C.2   1 <1>  -0.1500 
 13 C       -7.9110     3.3170    -0.1450 C.2   1 <1>  -0.0500 
 14 N       -9.1800     2.8220     0.0450 N.pl3 1 <1>  -0.8380 
 15 C       -9.4620     1.4110     0.4220 C.3   1 <1>   0.1290 
 16 C      -10.3730     3.6980    -0.0940 C.3   1 <1>   0.1290 
 17 H       -1.0490    -1.5050    -0.2230 H     1 <1>   0.0800 
 18 H       -2.5970    -1.7660    -1.0280 H     1 <1>   0.0800 
 19 H       -2.5500    -1.4300     0.7040 H     1 <1>   0.0800 
 20 H       -2.9910     4.0970    -0.5360 H     1 <1>   0.1500 
 21 H       -1.0380     4.9160     0.7570 H     1 <1>   0.0800 
 22 H       -0.6840     5.1380    -0.9500 H     1 <1>   0.0800 
 23 H        0.6100     4.8630     0.1890 H     1 <1>   0.0800 
 24 H       -4.3150     1.4950     0.3020 H     1 <1>   0.1500 
 25 H       -5.4240     4.2130    -0.5010 H     1 <1>   0.1500 
 26 H       -6.7680     1.6250     0.3410 H     1 <1>   0.1500 
 27 H       -7.8630     4.3480    -0.4570 H     1 <1>   0.1500 
 28 H      -10.4680     1.1450     0.1490 H     1 <1>   0.0800 
 29 H       -9.3400     1.2910     1.4840 H     1 <1>   0.0800 
 30 H       -8.7870     0.7490    -0.0900 H     1 <1>   0.0800 
 31 H      -11.0010     3.3340    -0.8880 H     1 <1>   0.0800 
 32 H      -10.0740     4.7060    -0.3220 H     1 <1>   0.0800 
 33 H      -10.9300     3.7020     0.8270 H     1 <1>   0.0800 
@<TRIPOS>BOND
  1   1   2  2   
  2   2   3  1   
  3   2   4  1   
  4   3   5  1   
  5   4   6  1   
  6   4   7  2   
  7   5  17  1   
  8   5  18  1   
  9   5  19  1   
 10   6   8  2   
 11   6   9  1   
 12   7  10  1   
 13   7  20  1   
 14   9  21  1   
 15   9  22  1   
 16   9  23  1   
 17  10  11  2   
 18  10  24  1   
 19  11  12  1   
 20  11  25  1   
 21  12  13  2   
 22  12  26  1   
 23  13  14  1   
 24  13  27  1   
 25  14  15  1   
 26  14  16  1   
 27  15  28  1   
 28  15  29  1   
 29  15  30  1   
 30  16  31  1   
 31  16  32  1   
 32  16  33  1   
@<TRIPOS>SUBSTRUCTURE
  1 ****  10 GROUP 4 **** **** 0

# MOE 2024.06 (io_trps.svl 2023.06)
