@<TRIPOS>MOLECULE
NONAME
47 49 1 0 0 
SMALL
USER_CHARGES


@<TRIPOS>ATOM
  1 S       -0.1640     0.1110     0.1810 S.3   1 <1>  -0.0800 
  2 C       -0.9740    -1.4400     0.2750 C.2   1 <1>   0.1040 
  3 C        1.4000    -0.6510    -0.0190 C.2   1 <1>  -0.1400 
  4 N       -2.3580    -1.3750     0.4190 N.am  1 <1>  -0.4940 
  5 C       -0.0670    -2.4530     0.2000 C.2   1 <1>   0.0190 
  6 C        1.2910    -2.0000     0.0090 C.2   1 <1>  -0.0540 
  7 C        2.5870     0.2750    -0.1990 C.3   1 <1>  -0.0600 
  8 C       -3.3030    -2.2360    -0.0650 C.2   1 <1>   0.5690 
  9 C       -0.3570    -3.8480     0.3540 C.1   1 <1>   0.5380 
 10 C        2.3980    -2.9200    -0.1320 C.ar  1 <1>   0.0540 
 11 O       -3.0230    -3.1370    -0.8140 O.2   1 <1>  -0.5700 
 12 C       -4.7590    -2.0080     0.3410 C.3   1 <1>  -0.0190 
 13 N       -0.5430    -4.9620     0.5250 N.1   1 <1>  -0.5570 
 14 C        2.5070    -3.7430    -1.2530 C.ar  1 <1>  -0.1500 
 15 C        3.3820    -2.9980     0.8540 C.ar  1 <1>  -0.1500 
 16 C       -5.5080    -3.3350     0.5840 C.3   1 <1>  -0.1600 
 17 C       -5.5030    -1.1700    -0.7150 C.3   1 <1>  -0.1600 
 18 C        3.5670    -4.6230    -1.3920 C.ar  1 <1>  -0.1500 
 19 C        4.4490    -3.8710     0.7300 C.ar  1 <1>  -0.1500 
 20 C       -6.9730    -3.0970     0.9560 C.3   1 <1>   0.1400 
 21 C       -6.9710    -0.9530    -0.3330 C.3   1 <1>   0.1400 
 22 C        4.5220    -4.6690    -0.3950 C.ar  1 <1>   0.1900 
 23 N       -7.6250    -2.2700    -0.0970 N.am  1 <1>  -0.6600 
 24 F        5.5270    -5.4930    -0.5200 F     1 <1>  -0.1900 
 25 C       -8.7210    -2.6490    -0.8310 C.2   1 <1>   0.5690 
 26 O       -9.2300    -1.9240    -1.6510 O.2   1 <1>  -0.5700 
 27 C       -9.3460    -4.0120    -0.6380 C.3   1 <1>  -0.1790 
 28 H       -2.7140    -0.5100     0.8250 H     1 <1>   0.3700 
 29 H        2.4330     0.9060    -1.0560 H     1 <1>   0.0800 
 30 H        3.4900    -0.2900    -0.3470 H     1 <1>   0.0800 
 31 H        2.7050     0.8950     0.6720 H     1 <1>   0.0800 
 32 H       -4.7630    -1.4620     1.2670 H     1 <1>   0.0800 
 33 H        1.7530    -3.6930    -2.0190 H     1 <1>   0.1500 
 34 H        3.3040    -2.3690     1.7230 H     1 <1>   0.1500 
 35 H       -5.0230    -3.8850     1.3700 H     1 <1>   0.0800 
 36 H       -5.4730    -3.9430    -0.3050 H     1 <1>   0.0800 
 37 H       -5.4660    -1.6720    -1.6670 H     1 <1>   0.0800 
 38 H       -5.0250    -0.2150    -0.8320 H     1 <1>   0.0800 
 39 H        3.6540    -5.2610    -2.2520 H     1 <1>   0.1500 
 40 H        5.2100    -3.9360     1.4870 H     1 <1>   0.1500 
 41 H       -7.0320    -2.5740     1.8950 H     1 <1>   0.0800 
 42 H       -7.4670    -4.0440     1.0750 H     1 <1>   0.0800 
 43 H       -7.4680    -0.4150    -1.1230 H     1 <1>   0.0800 
 44 H       -7.0390    -0.3620     0.5630 H     1 <1>   0.0800 
 45 H       -8.6210    -4.7770    -0.8410 H     1 <1>   0.0800 
 46 H      -10.1700    -4.1310    -1.3180 H     1 <1>   0.0800 
 47 H       -9.7130    -4.1070     0.3660 H     1 <1>   0.0800 
@<TRIPOS>BOND
  1   1   2  1   
  2   1   3  1   
  3   2   4  1   
  4   2   5  2   
  5   3   6  2   
  6   3   7  1   
  7   4   8  am  
  8   4  28  1   
  9   5   6  1   
 10   5   9  1   
 11   6  10  1   
 12   7  29  1   
 13   7  30  1   
 14   7  31  1   
 15   8  11  2   
 16   8  12  1   
 17   9  13  3   
 18  10  14  ar  
 19  10  15  ar  
 20  12  16  1   
 21  12  17  1   
 22  12  32  1   
 23  14  18  ar  
 24  14  33  1   
 25  15  19  ar  
 26  15  34  1   
 27  16  20  1   
 28  16  35  1   
 29  16  36  1   
 30  17  21  1   
 31  17  37  1   
 32  17  38  1   
 33  18  22  ar  
 34  18  39  1   
 35  19  22  ar  
 36  19  40  1   
 37  20  23  1   
 38  20  41  1   
 39  20  42  1   
 40  21  23  1   
 41  21  43  1   
 42  21  44  1   
 43  22  24  1   
 44  23  25  am  
 45  25  26  2   
 46  25  27  1   
 47  27  45  1   
 48  27  46  1   
 49  27  47  1   
@<TRIPOS>SUBSTRUCTURE
  1 ****   2 GROUP 4 **** **** 0

# MOE 2024.06 (io_trps.svl 2023.06)
