@<TRIPOS>MOLECULE
ka-07697
25 25 1 0 0 
SMALL
USER_CHARGES


@<TRIPOS>ATOM
  1 O        0.0140    -0.4720     0.7720 O.3   1 <1>  -0.5600 
  2 C        0.7280    -0.7930    -0.3710 C.3   1 <1>   0.4800 
  3 C       -1.2960    -1.0100     0.8210 C.3   1 <1>   0.2000 
  4 O        1.8380     0.0020    -0.2770 O.3   1 <1>  -0.6800 
  5 C        1.0840    -2.3140    -0.3930 C.3   1 <1>   0.1900 
  6 C       -1.3790    -2.4440     0.2250 C.3   1 <1>   0.2000 
  7 C       -2.2920    -0.0080     0.2090 C.3   1 <1>   0.1200 
  8 N        2.4150    -2.6740     0.1550 N.3   1 <1>  -0.9900 
  9 C       -0.0060    -3.1240     0.3410 C.3   1 <1>   0.2000 
 10 O       -1.7450    -2.4270    -1.1210 O.3   1 <1>  -0.6800 
 11 O       -2.0910     1.2420     0.7760 O.3   1 <1>  -0.6800 
 12 O       -0.0450    -4.4120    -0.1880 O.3   1 <1>  -0.6800 
 13 H        0.1580    -0.5060    -1.2400 H     1 <1>   0.0800 
 14 H       -1.5300    -1.0910     1.8680 H     1 <1>   0.0800 
 15 H        2.0300     0.0830     0.6740 H     1 <1>   0.4000 
 16 H        1.0660    -2.5990    -1.4320 H     1 <1>   0.0800 
 17 H       -2.1240    -3.0120     0.7550 H     1 <1>   0.0800 
 18 H       -3.3080    -0.3070     0.3990 H     1 <1>   0.0800 
 19 H       -2.1480     0.0790    -0.8540 H     1 <1>   0.0800 
 20 H        2.4620    -2.3610     1.1310 H     1 <1>   0.3600 
 21 H        3.1070    -2.1020    -0.3480 H     1 <1>   0.3600 
 22 H        0.2490    -3.2030     1.3830 H     1 <1>   0.0800 
 23 H       -1.6350    -3.3400    -1.4690 H     1 <1>   0.4000 
 24 H       -1.1250     1.4130     0.8130 H     1 <1>   0.4000 
 25 H        0.8730    -4.7620    -0.1910 H     1 <1>   0.4000 
@<TRIPOS>BOND
  1   1   2  1   
  2   1   3  1   
  3   2   4  1   
  4   2   5  1   
  5   2  13  1   
  6   3   6  1   
  7   3   7  1   
  8   3  14  1   
  9   4  15  1   
 10   5   8  1   
 11   5   9  1   
 12   5  16  1   
 13   6   9  1   
 14   6  10  1   
 15   6  17  1   
 16   7  11  1   
 17   7  18  1   
 18   7  19  1   
 19   8  20  1   
 20   8  21  1   
 21   9  12  1   
 22   9  22  1   
 23  10  23  1   
 24  11  24  1   
 25  12  25  1   
@<TRIPOS>SUBSTRUCTURE
  1 ****   1 GROUP 4 **** **** 0

# MOE 2024.06 (io_trps.svl 2023.06)
