@<TRIPOS>MOLECULE
NONAME
42 43 1 0 0 
SMALL
USER_CHARGES


@<TRIPOS>ATOM
  1 O       -0.3040     2.1650     1.0750 O.2   1 <1>  -0.5700 
  2 C       -0.3170     1.4330     0.1130 C.2   1 <1>   0.5690 
  3 N        0.7610     0.7110    -0.3180 N.am  1 <1>  -0.5470 
  4 C       -1.6530     1.3040    -0.6380 C.3   1 <1>   0.4040 
  5 C        2.0770     0.5760     0.1650 C.ar  1 <1>   0.1170 
  6 N       -2.8540     1.6040     0.2300 N.4   1 <1>  -0.9590 
  7 C        2.8990    -0.3570    -0.4760 C.ar  1 <1>   0.0830 
  8 C        2.5940     1.3110     1.2270 C.ar  1 <1>  -0.1500 
  9 C       -3.0340     0.5760     1.2980 C.3   1 <1>   0.3430 
 10 C       -4.0940     1.8410    -0.5620 C.3   1 <1>   0.3430 
 11 O        2.3480    -1.0520    -1.5180 O.3   1 <1>  -0.3630 
 12 C        4.2100    -0.5420    -0.0480 C.ar  1 <1>  -0.1500 
 13 C        3.8980     1.1220     1.6470 C.ar  1 <1>  -0.1500 
 14 C       -4.1440     1.0180     2.2530 C.3   1 <1>  -0.1600 
 15 C       -5.2180     2.3010     0.3680 C.3   1 <1>  -0.1600 
 16 C        3.1030    -1.9990    -2.2410 C.3   1 <1>   0.1200 
 17 C        4.7060     0.1970     1.0120 C.ar  1 <1>  -0.1500 
 18 C       -5.4560     1.3060     1.5120 C.3   1 <1>  -0.1600 
 19 C        2.2090    -2.5800    -3.3320 C.3   1 <1>  -0.2400 
 20 H        0.6470     0.1090    -1.1390 H     1 <1>   0.3700 
 21 H       -1.7340     0.3090    -1.0390 H     1 <1>   0.0800 
 22 H       -1.6270     1.9970    -1.4610 H     1 <1>   0.0800 
 23 H       -2.6120     2.4750     0.7320 H     1 <1>   0.4500 
 24 H        1.9930     2.0390     1.7370 H     1 <1>   0.1500 
 25 H       -2.1160     0.4550     1.8540 H     1 <1>   0.0800 
 26 H       -3.2950    -0.3720     0.8570 H     1 <1>   0.0800 
 27 H       -4.3900     0.9310    -1.0580 H     1 <1>   0.0800 
 28 H       -3.9180     2.5970    -1.3110 H     1 <1>   0.0800 
 29 H        4.8640    -1.2510    -0.5200 H     1 <1>   0.1500 
 30 H        4.2850     1.6980     2.4710 H     1 <1>   0.1500 
 31 H       -3.8230     1.8960     2.7880 H     1 <1>   0.0800 
 32 H       -4.3090     0.2430     2.9820 H     1 <1>   0.0800 
 33 H       -6.1240     2.4110    -0.2020 H     1 <1>   0.0800 
 34 H       -4.9740     3.2690     0.7710 H     1 <1>   0.0800 
 35 H        3.4250    -2.7710    -1.5630 H     1 <1>   0.0800 
 36 H        3.9550    -1.5010    -2.6730 H     1 <1>   0.0800 
 37 H        5.7200     0.0530     1.3430 H     1 <1>   0.1500 
 38 H       -6.1840     1.7060     2.1990 H     1 <1>   0.0800 
 39 H       -5.8530     0.3870     1.1130 H     1 <1>   0.0800 
 40 H        1.3560    -3.0660    -2.8950 H     1 <1>   0.0800 
 41 H        2.7610    -3.3070    -3.9010 H     1 <1>   0.0800 
 42 H        1.8840    -1.8020    -4.0000 H     1 <1>   0.0800 
@<TRIPOS>BOND
  1   1   2  2   
  2   2   3  am  
  3   2   4  1   
  4   3   5  1   
  5   3  20  1   
  6   4   6  1   
  7   4  21  1   
  8   4  22  1   
  9   5   7  ar  
 10   5   8  ar  
 11   6   9  1   
 12   6  10  1   
 13   6  23  1   
 14   7  11  1   
 15   7  12  ar  
 16   8  13  ar  
 17   8  24  1   
 18   9  14  1   
 19   9  25  1   
 20   9  26  1   
 21  10  15  1   
 22  10  27  1   
 23  10  28  1   
 24  11  16  1   
 25  12  17  ar  
 26  12  29  1   
 27  13  17  ar  
 28  13  30  1   
 29  14  18  1   
 30  14  31  1   
 31  14  32  1   
 32  15  18  1   
 33  15  33  1   
 34  15  34  1   
 35  16  19  1   
 36  16  35  1   
 37  16  36  1   
 38  17  37  1   
 39  18  38  1   
 40  18  39  1   
 41  19  40  1   
 42  19  41  1   
 43  19  42  1   
@<TRIPOS>SUBSTRUCTURE
  1 ****   3 GROUP 4 **** **** 0

# MOE 2024.06 (io_trps.svl 2023.06)
