@<TRIPOS>MOLECULE
NONAME
44 44 1 0 0 
SMALL
USER_CHARGES


@<TRIPOS>ATOM
  1 O       -6.5100     2.9940    -1.3620 O.3   1 <1>  -0.3630 
  2 C       -6.9340     1.8440    -0.7900 C.ar  1 <1>   0.0820 
  3 C       -5.8000     3.8740    -0.5250 C.3   1 <1>   0.1200 
  4 C       -8.2420     1.7600    -0.3150 C.ar  1 <1>  -0.1440 
  5 C       -6.0630     0.7620    -0.6790 C.ar  1 <1>  -0.1440 
  6 C       -6.2910     5.2910    -0.8330 C.3   1 <1>   0.3430 
  7 C       -8.6570     0.5960     0.3100 C.ar  1 <1>  -0.1500 
  8 C       -9.2280     2.9120    -0.4630 C.3   1 <1>   0.1220 
  9 C       -6.5020    -0.3920    -0.0510 C.ar  1 <1>  -0.1500 
 10 C       -4.6470     0.8070    -1.2350 C.3   1 <1>  -0.0970 
 11 N       -5.6400     6.3470     0.0150 N.4   1 <1>  -0.9590 
 12 C       -7.7910    -0.4740     0.4450 C.ar  1 <1>  -0.1500 
 13 C       -9.2540     3.7530     0.8040 C.2   1 <1>  -0.2880 
 14 C       -6.0240     6.2290     1.4500 C.3   1 <1>   0.3430 
 15 C       -5.9720     7.6920    -0.5290 C.3   1 <1>   0.3430 
 16 C      -10.3570     4.2400     1.3800 C.2   1 <1>  -0.3000 
 17 C       -4.8050     5.7740     2.2400 C.3   1 <1>  -0.2400 
 18 C       -4.9920     8.7230     0.0190 C.3   1 <1>  -0.2400 
 19 H       -4.7540     3.7640    -0.7460 H     1 <1>   0.0800 
 20 H       -5.9950     3.6060     0.4990 H     1 <1>   0.0800 
 21 H       -7.3590     5.3250    -0.6880 H     1 <1>   0.0800 
 22 H       -6.0870     5.4930    -1.8720 H     1 <1>   0.0800 
 23 H       -9.6590     0.5160     0.6950 H     1 <1>   0.1500 
 24 H      -10.2110     2.5220    -0.6630 H     1 <1>   0.0800 
 25 H       -8.9590     3.5260    -1.3030 H     1 <1>   0.0800 
 26 H       -5.8460    -1.2380     0.0530 H     1 <1>   0.1500 
 27 H       -3.9960     1.3140    -0.5470 H     1 <1>   0.0800 
 28 H       -4.6330     1.3200    -2.1800 H     1 <1>   0.0800 
 29 H       -4.2700    -0.1880    -1.3940 H     1 <1>   0.0800 
 30 H       -4.6190     6.2390    -0.0490 H     1 <1>   0.4500 
 31 H       -8.1230    -1.3740     0.9320 H     1 <1>   0.1500 
 32 H       -8.2750     3.9090     1.2150 H     1 <1>   0.1500 
 33 H       -6.8300     5.5240     1.5700 H     1 <1>   0.0800 
 34 H       -6.3560     7.1830     1.8290 H     1 <1>   0.0800 
 35 H       -6.9840     7.9620    -0.2690 H     1 <1>   0.0800 
 36 H       -5.8940     7.6790    -1.6050 H     1 <1>   0.0800 
 37 H      -10.3620     4.8230     2.2860 H     1 <1>   0.1500 
 38 H      -11.3540     4.0940     0.9990 H     1 <1>   0.1500 
 39 H       -4.4570     4.8120     1.9080 H     1 <1>   0.0800 
 40 H       -5.0720     5.6860     3.2790 H     1 <1>   0.0800 
 41 H       -4.0090     6.4940     2.1640 H     1 <1>   0.0800 
 42 H       -5.0800     8.8270     1.0850 H     1 <1>   0.0800 
 43 H       -5.2080     9.6810    -0.4210 H     1 <1>   0.0800 
 44 H       -3.9800     8.4640    -0.2380 H     1 <1>   0.0800 
@<TRIPOS>BOND
  1   1   2  1   
  2   1   3  1   
  3   2   4  ar  
  4   2   5  ar  
  5   3   6  1   
  6   3  19  1   
  7   3  20  1   
  8   4   7  ar  
  9   4   8  1   
 10   5   9  ar  
 11   5  10  1   
 12   6  11  1   
 13   6  21  1   
 14   6  22  1   
 15   7  12  ar  
 16   7  23  1   
 17   8  13  1   
 18   8  24  1   
 19   8  25  1   
 20   9  12  ar  
 21   9  26  1   
 22  10  27  1   
 23  10  28  1   
 24  10  29  1   
 25  11  14  1   
 26  11  15  1   
 27  11  30  1   
 28  12  31  1   
 29  13  16  2   
 30  13  32  1   
 31  14  17  1   
 32  14  33  1   
 33  14  34  1   
 34  15  18  1   
 35  15  35  1   
 36  15  36  1   
 37  16  37  1   
 38  16  38  1   
 39  17  39  1   
 40  17  40  1   
 41  17  41  1   
 42  18  42  1   
 43  18  43  1   
 44  18  44  1   
@<TRIPOS>SUBSTRUCTURE
  1 ****   3 GROUP 4 **** **** 0

# MOE 2024.06 (io_trps.svl 2023.06)
