@<TRIPOS>MOLECULE
NONAME
39 41 1 0 0 
SMALL
USER_CHARGES


@<TRIPOS>ATOM
  1 O       -0.3950    -0.7740     1.4950 O.2   1 <1>  -0.5700 
  2 C       -0.4800    -1.8220     0.8790 C.2   1 <1>   0.5440 
  3 N       -1.6050    -2.2240     0.1910 N.am  1 <1>  -0.4770 
  4 C        0.5490    -2.8130     0.7200 C.ar  1 <1>   0.0860 
  5 C       -1.3370    -3.4530    -0.4220 C.ar  1 <1>   0.1170 
  6 C       -2.8970    -1.4830     0.2460 C.3   1 <1>   0.2810 
  7 C       -0.0280    -3.7890    -0.0860 C.ar  1 <1>   0.0000 
  8 C        1.8470    -2.9960     1.1410 C.ar  1 <1>  -0.1500 
  9 C       -2.0500    -4.3140    -1.2230 C.ar  1 <1>  -0.1500 
 10 C       -4.1090    -2.3970     0.5240 C.2   1 <1>   0.5690 
 11 C       -3.0130    -0.6390    -1.0340 C.3   1 <1>  -0.2400 
 12 C        0.6200    -4.9480    -0.5050 C.ar  1 <1>   0.0000 
 13 C        2.5420    -4.1510     0.7460 C.ar  1 <1>  -0.1500 
 14 C       -1.4390    -5.4980    -1.6690 C.ar  1 <1>  -0.1500 
 15 O       -4.2390    -2.8550     1.6350 O.2   1 <1>  -0.5700 
 16 N       -5.0160    -2.6520    -0.4720 N.am  1 <1>  -0.7300 
 17 C       -0.1410    -5.8090    -1.3220 C.ar  1 <1>  -0.1500 
 18 C        1.9470    -5.1030    -0.0550 C.ar  1 <1>  -0.1500 
 19 C       -6.2310    -3.4870    -0.4150 C.3   1 <1>   0.2200 
 20 C       -7.2200    -2.9090     0.5940 C.3   1 <1>  -0.2400 
 21 C       -5.8640    -4.9350    -0.0970 C.3   1 <1>  -0.2400 
 22 H       -2.8490    -0.8030     1.0790 H     1 <1>   0.0800 
 23 H        2.3210    -2.2590     1.7660 H     1 <1>   0.1500 
 24 H       -3.0600    -4.1010    -1.5110 H     1 <1>   0.1500 
 25 H       -3.0120    -1.2660    -1.9070 H     1 <1>   0.0800 
 26 H       -2.1810     0.0410    -1.0910 H     1 <1>   0.0800 
 27 H       -3.9180    -0.0600    -1.0120 H     1 <1>   0.0800 
 28 H        3.5560    -4.2840     1.0820 H     1 <1>   0.1500 
 29 H       -2.0050    -6.1670    -2.2930 H     1 <1>   0.1500 
 30 H       -4.8690    -2.2000    -1.3740 H     1 <1>   0.3700 
 31 H        0.3150    -6.7190    -1.6700 H     1 <1>   0.1500 
 32 H        2.4880    -5.9840    -0.3520 H     1 <1>   0.1500 
 33 H       -6.6940    -3.4650    -1.3880 H     1 <1>   0.0800 
 34 H       -6.8220    -2.9610     1.5920 H     1 <1>   0.0800 
 35 H       -8.1360    -3.4700     0.5700 H     1 <1>   0.0800 
 36 H       -7.4410    -1.8850     0.3550 H     1 <1>   0.0800 
 37 H       -5.4330    -5.0150     0.8840 H     1 <1>   0.0800 
 38 H       -5.1670    -5.3130    -0.8220 H     1 <1>   0.0800 
 39 H       -6.7460    -5.5490    -0.1250 H     1 <1>   0.0800 
@<TRIPOS>BOND
  1   1   2  2   
  2   2   3  am  
  3   2   4  1   
  4   3   5  1   
  5   3   6  1   
  6   4   7  ar  
  7   4   8  ar  
  8   5   7  ar  
  9   5   9  ar  
 10   6  10  1   
 11   6  11  1   
 12   6  22  1   
 13   7  12  ar  
 14   8  13  ar  
 15   8  23  1   
 16   9  14  ar  
 17   9  24  1   
 18  10  15  2   
 19  10  16  am  
 20  11  25  1   
 21  11  26  1   
 22  11  27  1   
 23  12  17  ar  
 24  12  18  ar  
 25  13  18  ar  
 26  13  28  1   
 27  14  17  ar  
 28  14  29  1   
 29  16  19  1   
 30  16  30  1   
 31  17  31  1   
 32  18  32  1   
 33  19  20  1   
 34  19  21  1   
 35  19  33  1   
 36  20  34  1   
 37  20  35  1   
 38  20  36  1   
 39  21  37  1   
 40  21  38  1   
 41  21  39  1   
@<TRIPOS>SUBSTRUCTURE
  1 ****   5 GROUP 4 **** **** 0

# MOE 2024.06 (io_trps.svl 2023.06)
