@<TRIPOS>MOLECULE
NONAME
34 36 1 0 0 
SMALL
USER_CHARGES


@<TRIPOS>ATOM
  1 I       -0.9360    -0.2430    -3.8170 I     1 <1>  -0.0080 
  2 C       -2.3600    -0.6000    -2.2590 C.1   1 <1>   0.0080 
  3 C       -3.1480    -0.7970    -1.3900 C.1   1 <1>  -0.2000 
  4 C       -4.1510    -1.0310    -0.3010 C.3   1 <1>   0.4800 
  5 O       -3.8720    -2.2870     0.2910 O.3   1 <1>  -0.4300 
  6 C       -4.1580     0.0990     0.7740 C.3   1 <1>  -0.0800 
  7 C       -5.5830    -1.1210    -0.8980 C.3   1 <1>  -0.0800 
  8 C       -2.8660    -2.6010     1.0950 C.2   1 <1>   0.6590 
  9 C       -5.1860    -0.2200     1.8880 C.3   1 <1>  -0.1600 
 10 C       -4.5610     1.4490     0.1310 C.3   1 <1>  -0.1600 
 11 C       -6.6120    -1.4460     0.2120 C.3   1 <1>  -0.1600 
 12 C       -5.9930     0.2260    -1.5430 C.3   1 <1>  -0.1600 
 13 O       -3.0670    -3.2930     2.0540 O.2   1 <1>  -0.5700 
 14 C       -1.4530    -2.1650     0.7710 C.3   1 <1>  -0.1790 
 15 C       -6.5990    -0.3390     1.2850 C.3   1 <1>  -0.0800 
 16 C       -5.9700     1.3450    -0.4840 C.3   1 <1>  -0.0800 
 17 C       -6.9770     1.0010     0.6280 C.3   1 <1>  -0.1600 
 18 H       -3.1820     0.2090     1.2050 H     1 <1>   0.0800 
 19 H       -5.6040    -1.8920    -1.6480 H     1 <1>   0.0800 
 20 H       -4.9300    -1.1380     2.3890 H     1 <1>   0.0800 
 21 H       -5.1730     0.5600     2.6290 H     1 <1>   0.0800 
 22 H       -3.8520     1.7320    -0.6280 H     1 <1>   0.0800 
 23 H       -4.5510     2.2230     0.8780 H     1 <1>   0.0800 
 24 H       -6.3860    -2.3950     0.6670 H     1 <1>   0.0800 
 25 H       -7.5970    -1.5250    -0.2150 H     1 <1>   0.0800 
 26 H       -6.9830     0.1420    -1.9580 H     1 <1>   0.0800 
 27 H       -5.3310     0.4770    -2.3540 H     1 <1>   0.0800 
 28 H       -1.3570    -1.0980     0.8210 H     1 <1>   0.0800 
 29 H       -1.1860    -2.5090    -0.2100 H     1 <1>   0.0800 
 30 H       -0.7750    -2.6010     1.4810 H     1 <1>   0.0800 
 31 H       -7.3060    -0.5760     2.0610 H     1 <1>   0.0800 
 32 H       -6.2400     2.2840    -0.9390 H     1 <1>   0.0800 
 33 H       -6.9840     1.7810     1.3690 H     1 <1>   0.0800 
 34 H       -7.9690     0.9370     0.2150 H     1 <1>   0.0800 
@<TRIPOS>BOND
  1   1   2  1   
  2   2   3  3   
  3   3   4  1   
  4   4   5  1   
  5   4   6  1   
  6   4   7  1   
  7   5   8  1   
  8   6   9  1   
  9   6  10  1   
 10   6  18  1   
 11   7  11  1   
 12   7  12  1   
 13   7  19  1   
 14   8  13  2   
 15   8  14  1   
 16   9  15  1   
 17   9  20  1   
 18   9  21  1   
 19  10  16  1   
 20  10  22  1   
 21  10  23  1   
 22  11  15  1   
 23  11  24  1   
 24  11  25  1   
 25  12  16  1   
 26  12  26  1   
 27  12  27  1   
 28  14  28  1   
 29  14  29  1   
 30  14  30  1   
 31  15  17  1   
 32  15  31  1   
 33  16  17  1   
 34  16  32  1   
 35  17  33  1   
 36  17  34  1   
@<TRIPOS>SUBSTRUCTURE
  1 ****   4 GROUP 4 **** **** 0

# MOE 2024.06 (io_trps.svl 2023.06)
