@<TRIPOS>MOLECULE
NONAME
41 41 1 0 0 
SMALL
USER_CHARGES


@<TRIPOS>ATOM
  1 BR      -0.3220     1.1550     1.6880 Br    1 <1>  -0.1110 
  2 C        0.7510     2.4540     0.7470 C.ar  1 <1>   0.1110 
  3 C        0.2240     3.7030     0.4520 C.ar  1 <1>   0.0820 
  4 C        2.0340     2.0820     0.3890 C.ar  1 <1>  -0.1500 
  5 O       -1.0510     3.9880     0.8130 O.3   1 <1>  -0.3630 
  6 C        1.0420     4.6220    -0.2170 C.ar  1 <1>   0.0830 
  7 C        2.8330     2.9900    -0.2910 C.ar  1 <1>  -0.1440 
  8 C       -2.0280     3.7500    -0.1750 C.3   1 <1>   0.1200 
  9 O        0.6850     5.8920    -0.5450 O.3   1 <1>  -0.3630 
 10 C        2.3250     4.2480    -0.5920 C.ar  1 <1>  -0.1500 
 11 C        4.2450     2.6280    -0.6910 C.3   1 <1>   0.4860 
 12 C       -3.3910     4.1380     0.3970 C.3   1 <1>  -0.1600 
 13 C       -0.1120     6.6580     0.3320 C.3   1 <1>   0.1200 
 14 N        5.1320     3.1410     0.3760 N.4   1 <1>  -0.9060 
 15 C       -4.5070     3.9160    -0.6310 C.3   1 <1>  -0.1600 
 16 C        0.1400     8.1320     0.0320 C.3   1 <1>  -0.2400 
 17 C        6.5810     2.8910     0.1210 C.3   1 <1>   0.2630 
 18 C       -5.8710     4.3070    -0.0550 C.3   1 <1>  -0.2400 
 19 H        2.3770     1.0940     0.6440 H     1 <1>   0.1500 
 20 H       -2.0050     2.7050    -0.4330 H     1 <1>   0.0800 
 21 H       -1.7900     4.3440    -1.0410 H     1 <1>   0.0800 
 22 H        2.9140     4.9740    -1.1270 H     1 <1>   0.1500 
 23 H        4.4870     3.0850    -1.6380 H     1 <1>   0.0800 
 24 H        4.3420     1.5580    -0.7840 H     1 <1>   0.0800 
 25 H       -3.3710     5.1740     0.6850 H     1 <1>   0.0800 
 26 H       -3.5860     3.5400     1.2710 H     1 <1>   0.0800 
 27 H        0.1600     6.4210     1.3470 H     1 <1>   0.0800 
 28 H       -1.1440     6.4110     0.1620 H     1 <1>   0.0800 
 29 H        4.8360     2.7160     1.2640 H     1 <1>   0.4500 
 30 H        4.9470     4.1480     0.4780 H     1 <1>   0.4500 
 31 H       -4.5310     2.8800    -0.9230 H     1 <1>   0.0800 
 32 H       -4.3130     4.5070    -1.5110 H     1 <1>   0.0800 
 33 H        1.1750     8.3730     0.1940 H     1 <1>   0.0800 
 34 H       -0.4600     8.7410     0.6840 H     1 <1>   0.0800 
 35 H       -0.1270     8.3530    -0.9860 H     1 <1>   0.0800 
 36 H        6.7730     1.8320     0.0430 H     1 <1>   0.0800 
 37 H        7.1760     3.2880     0.9280 H     1 <1>   0.0800 
 38 H        6.8890     3.3660    -0.7970 H     1 <1>   0.0800 
 39 H       -6.0960     3.7140     0.8140 H     1 <1>   0.0800 
 40 H       -6.6410     4.1450    -0.7890 H     1 <1>   0.0800 
 41 H       -5.8780     5.3460     0.2240 H     1 <1>   0.0800 
@<TRIPOS>BOND
  1   1   2  1   
  2   2   3  ar  
  3   2   4  ar  
  4   3   5  1   
  5   3   6  ar  
  6   4   7  ar  
  7   4  19  1   
  8   5   8  1   
  9   6   9  1   
 10   6  10  ar  
 11   7  10  ar  
 12   7  11  1   
 13   8  12  1   
 14   8  20  1   
 15   8  21  1   
 16   9  13  1   
 17  10  22  1   
 18  11  14  1   
 19  11  23  1   
 20  11  24  1   
 21  12  15  1   
 22  12  25  1   
 23  12  26  1   
 24  13  16  1   
 25  13  27  1   
 26  13  28  1   
 27  14  17  1   
 28  14  29  1   
 29  14  30  1   
 30  15  18  1   
 31  15  31  1   
 32  15  32  1   
 33  16  33  1   
 34  16  34  1   
 35  16  35  1   
 36  17  36  1   
 37  17  37  1   
 38  17  38  1   
 39  18  39  1   
 40  18  40  1   
 41  18  41  1   
@<TRIPOS>SUBSTRUCTURE
  1 ****   3 GROUP 4 **** **** 0

# MOE 2024.06 (io_trps.svl 2023.06)
