@<TRIPOS>MOLECULE
NONAME
35 35 1 0 0 
SMALL
USER_CHARGES


@<TRIPOS>ATOM
  1 O        4.2180    -6.0490    -0.0380 O.3   1 <1>  -0.3630 
  2 C        5.4590    -5.4930    -0.0300 C.ar  1 <1>   0.0830 
  3 C        3.0560    -5.2620    -0.0120 C.3   1 <1>   0.1200 
  4 C        6.5510    -6.3570    -0.0570 C.ar  1 <1>  -0.1440 
  5 C        5.6710    -4.1160     0.0040 C.ar  1 <1>  -0.1500 
  6 C        1.8680    -6.2240    -0.0300 C.3   1 <1>   0.3430 
  7 C        7.8350    -5.8380    -0.0500 C.ar  1 <1>  -0.1500 
  8 C        6.3550    -7.8670    -0.0950 C.3   1 <1>  -0.0960 
  9 C        6.9580    -3.6090     0.0110 C.ar  1 <1>  -0.1500 
 10 N        0.5600    -5.4990    -0.0040 N.4   1 <1>  -0.9060 
 11 C        8.0400    -4.4700    -0.0160 C.ar  1 <1>  -0.1500 
 12 C       -0.5860    -6.4580    -0.0230 C.3   1 <1>   0.3430 
 13 C       -1.9370    -5.7380     0.0040 C.3   1 <1>   0.1200 
 14 O       -2.9130    -6.7210    -0.0160 O.3   1 <1>  -0.5600 
 15 C       -4.2210    -6.2390     0.0040 C.3   1 <1>   0.0400 
 16 H        3.0620    -4.6320    -0.8840 H     1 <1>   0.0800 
 17 H        3.0710    -4.6780     0.8920 H     1 <1>   0.0800 
 18 H        4.8590    -3.4160     0.0260 H     1 <1>   0.1500 
 19 H        1.9390    -6.8740     0.8270 H     1 <1>   0.0800 
 20 H        1.9290    -6.8290    -0.9210 H     1 <1>   0.0800 
 21 H        8.6870    -6.4940    -0.0710 H     1 <1>   0.1500 
 22 H        5.8010    -8.1410    -0.9740 H     1 <1>   0.0800 
 23 H        5.8100    -8.1860     0.7750 H     1 <1>   0.0800 
 24 H        7.2990    -8.3800    -0.1130 H     1 <1>   0.0800 
 25 H        7.1230    -2.5460     0.0380 H     1 <1>   0.1500 
 26 H        0.4940    -4.8750    -0.8190 H     1 <1>   0.4500 
 27 H        0.5030    -4.9180     0.8430 H     1 <1>   0.4500 
 28 H        9.0420    -4.0770    -0.0110 H     1 <1>   0.1500 
 29 H       -0.5300    -7.1100     0.8350 H     1 <1>   0.0800 
 30 H       -0.5390    -7.0640    -0.9130 H     1 <1>   0.0800 
 31 H       -2.0640    -5.1170    -0.8660 H     1 <1>   0.0800 
 32 H       -2.0540    -5.1640     0.9070 H     1 <1>   0.0800 
 33 H       -4.8890    -7.0830    -0.0150 H     1 <1>   0.0800 
 34 H       -4.3930    -5.6270    -0.8650 H     1 <1>   0.0800 
 35 H       -4.3830    -5.6730     0.9050 H     1 <1>   0.0800 
@<TRIPOS>BOND
  1   1   2  1   
  2   1   3  1   
  3   2   4  ar  
  4   2   5  ar  
  5   3   6  1   
  6   3  16  1   
  7   3  17  1   
  8   4   7  ar  
  9   4   8  1   
 10   5   9  ar  
 11   5  18  1   
 12   6  10  1   
 13   6  19  1   
 14   6  20  1   
 15   7  11  ar  
 16   7  21  1   
 17   8  22  1   
 18   8  23  1   
 19   8  24  1   
 20   9  11  ar  
 21   9  25  1   
 22  10  12  1   
 23  10  26  1   
 24  10  27  1   
 25  11  28  1   
 26  12  13  1   
 27  12  29  1   
 28  12  30  1   
 29  13  14  1   
 30  13  31  1   
 31  13  32  1   
 32  14  15  1   
 33  15  33  1   
 34  15  34  1   
 35  15  35  1   
@<TRIPOS>SUBSTRUCTURE
  1 ****   3 GROUP 4 **** **** 0

# MOE 2024.06 (io_trps.svl 2023.06)
