@<TRIPOS>MOLECULE
NONAME
44 46 1 0 0 
SMALL
USER_CHARGES


@<TRIPOS>ATOM
  1 BR       1.9130    -1.1480    -2.1330 Br    1 <1>  -0.1110 
  2 C        0.7140    -2.3110    -1.1780 C.ar  1 <1>   0.1110 
  3 C       -0.4470    -2.7220    -1.8010 C.ar  1 <1>  -0.1500 
  4 C        1.0450    -2.7030     0.1040 C.ar  1 <1>  -0.1500 
  5 C       -1.3160    -3.5580    -1.1140 C.ar  1 <1>  -0.1440 
  6 C        0.1790    -3.5380     0.7870 C.ar  1 <1>  -0.1500 
  7 C       -1.0040    -3.9680     0.1830 C.ar  1 <1>   0.0830 
  8 C       -2.5990    -4.0220    -1.7780 C.3   1 <1>   0.4870 
  9 O       -1.8960    -4.7820     0.8130 O.3   1 <1>  -0.3630 
 10 N       -3.7450    -3.5620    -0.9560 N.4   1 <1>  -0.9590 
 11 C       -1.5450    -5.4590     2.0060 C.3   1 <1>   0.0400 
 12 C       -5.0460    -4.1980    -1.3690 C.3   1 <1>   0.3430 
 13 C       -3.8470    -2.0570    -0.9040 C.3   1 <1>   0.3430 
 14 C       -6.2320    -3.7270    -0.5000 C.3   1 <1>   0.2090 
 15 C       -5.0280    -1.5780    -0.0340 C.3   1 <1>   0.2090 
 16 N       -6.3000    -2.2370    -0.4560 N.pl3 1 <1>  -0.8380 
 17 C       -7.4730    -1.6920     0.0550 C.ar  1 <1>   0.1000 
 18 C       -7.7860    -1.7860     1.4100 C.ar  1 <1>  -0.1500 
 19 C       -8.3520    -1.0420    -0.8050 C.ar  1 <1>  -0.1500 
 20 C       -8.9580    -1.2380     1.9010 C.ar  1 <1>  -0.1500 
 21 C       -9.5280    -0.4890    -0.3290 C.ar  1 <1>  -0.1500 
 22 C       -9.8090    -0.5990     1.0190 C.ar  1 <1>   0.1900 
 23 F      -10.9190    -0.0800     1.4780 F     1 <1>  -0.1900 
 24 H       -0.6470    -2.3870    -2.8050 H     1 <1>   0.1500 
 25 H        1.9620    -2.3620     0.5540 H     1 <1>   0.1500 
 26 H        0.4440    -3.8360     1.7850 H     1 <1>   0.1500 
 27 H       -2.5920    -5.0990    -1.8310 H     1 <1>   0.0800 
 28 H       -2.6700    -3.6260    -2.7780 H     1 <1>   0.0800 
 29 H       -3.5070    -3.8860    -0.0030 H     1 <1>   0.4500 
 30 H       -2.3450    -6.1280     2.2650 H     1 <1>   0.0800 
 31 H       -1.4050    -4.7390     2.7940 H     1 <1>   0.0800 
 32 H       -0.6420    -6.0210     1.8390 H     1 <1>   0.0800 
 33 H       -4.9680    -5.2710    -1.3040 H     1 <1>   0.0800 
 34 H       -5.2630    -3.9420    -2.3930 H     1 <1>   0.0800 
 35 H       -3.9880    -1.6710    -1.8990 H     1 <1>   0.0800 
 36 H       -2.9330    -1.6400    -0.5130 H     1 <1>   0.0800 
 37 H       -6.1310    -4.1160     0.4980 H     1 <1>   0.0800 
 38 H       -7.1510    -4.1100    -0.9120 H     1 <1>   0.0800 
 39 H       -5.1340    -0.5100    -0.1330 H     1 <1>   0.0800 
 40 H       -4.8300    -1.7960     1.0010 H     1 <1>   0.0800 
 41 H       -7.1130    -2.2870     2.0800 H     1 <1>   0.1500 
 42 H       -8.1060    -0.9720    -1.8490 H     1 <1>   0.1500 
 43 H       -9.2150    -1.3020     2.9440 H     1 <1>   0.1500 
 44 H      -10.2160     0.0160    -0.9840 H     1 <1>   0.1500 
@<TRIPOS>BOND
  1   1   2  1   
  2   2   3  ar  
  3   2   4  ar  
  4   3   5  ar  
  5   3  24  1   
  6   4   6  ar  
  7   4  25  1   
  8   5   7  ar  
  9   5   8  1   
 10   6   7  ar  
 11   6  26  1   
 12   7   9  1   
 13   8  10  1   
 14   8  27  1   
 15   8  28  1   
 16   9  11  1   
 17  10  12  1   
 18  10  13  1   
 19  10  29  1   
 20  11  30  1   
 21  11  31  1   
 22  11  32  1   
 23  12  14  1   
 24  12  33  1   
 25  12  34  1   
 26  13  15  1   
 27  13  35  1   
 28  13  36  1   
 29  14  16  1   
 30  14  37  1   
 31  14  38  1   
 32  15  16  1   
 33  15  39  1   
 34  15  40  1   
 35  16  17  1   
 36  17  18  ar  
 37  17  19  ar  
 38  18  20  ar  
 39  18  41  1   
 40  19  21  ar  
 41  19  42  1   
 42  20  22  ar  
 43  20  43  1   
 44  21  22  ar  
 45  21  44  1   
 46  22  23  1   
@<TRIPOS>SUBSTRUCTURE
  1 ****  13 GROUP 4 **** **** 0

# MOE 2024.06 (io_trps.svl 2023.06)
