@<TRIPOS>MOLECULE
NONAME
36 37 1 0 0 
SMALL
USER_CHARGES


@<TRIPOS>ATOM
  1 O       -0.0360     0.5650    -0.9590 O.2   1 <1>  -0.5700 
  2 C        0.3110     1.6510    -0.5660 C.2   1 <1>   0.5690 
  3 N       -0.4930     2.6880    -0.1870 N.am  1 <1>  -0.4770 
  4 C        1.7650     2.0090    -0.4350 C.3   1 <1>  -0.0990 
  5 C       -1.9020     2.7280    -0.1240 C.ar  1 <1>   0.1170 
  6 C        0.3200     3.8480     0.2310 C.3   1 <1>   0.1400 
  7 C        1.7320     3.2790     0.4280 C.3   1 <1>  -0.0190 
  8 C       -2.5960     3.8960    -0.4290 C.ar  1 <1>  -0.1500 
  9 C       -2.6360     1.6090     0.2560 C.ar  1 <1>  -0.1500 
 10 C        2.8400     4.2660     0.1050 C.2   1 <1>   0.6590 
 11 C       -3.9760     3.9520    -0.3490 C.ar  1 <1>  -0.1500 
 12 C       -4.0150     1.6580     0.3380 C.ar  1 <1>  -0.1500 
 13 O        2.6130     5.4080    -0.2020 O.2   1 <1>  -0.5700 
 14 O        4.0750     3.7910     0.1910 O.3   1 <1>  -0.4300 
 15 C       -4.6970     2.8260     0.0400 C.ar  1 <1>   0.0820 
 16 C        5.2030     4.5990    -0.0770 C.3   1 <1>   0.0400 
 17 O       -6.0510     2.7890     0.1480 O.3   1 <1>  -0.3630 
 18 C       -6.8340     3.9140    -0.1730 C.3   1 <1>   0.1200 
 19 C       -8.2990     3.5420     0.0340 C.3   1 <1>  -0.2400 
 20 H        2.1600     2.2060    -1.4150 H     1 <1>   0.0800 
 21 H        2.3180     1.2170     0.0340 H     1 <1>   0.0800 
 22 H       -0.0610     4.2770     1.1420 H     1 <1>   0.0800 
 23 H        0.3020     4.5830    -0.5550 H     1 <1>   0.0800 
 24 H        1.8320     2.9970     1.4600 H     1 <1>   0.0800 
 25 H       -2.0580     4.7720    -0.7400 H     1 <1>   0.1500 
 26 H       -2.1250     0.6930     0.4900 H     1 <1>   0.1500 
 27 H       -4.4700     4.8730    -0.5920 H     1 <1>   0.1500 
 28 H       -4.5730     0.7870     0.6320 H     1 <1>   0.1500 
 29 H        6.0890     4.0040     0.0550 H     1 <1>   0.0800 
 30 H        5.2080     5.4290     0.6080 H     1 <1>   0.0800 
 31 H        5.1440     4.9560    -1.0910 H     1 <1>   0.0800 
 32 H       -6.6500     4.1760    -1.2000 H     1 <1>   0.0800 
 33 H       -6.5520     4.7230     0.4780 H     1 <1>   0.0800 
 34 H       -8.5650     2.7220    -0.6080 H     1 <1>   0.0800 
 35 H       -8.9260     4.3830    -0.2040 H     1 <1>   0.0800 
 36 H       -8.4690     3.2660     1.0590 H     1 <1>   0.0800 
@<TRIPOS>BOND
  1   1   2  2   
  2   2   3  am  
  3   2   4  1   
  4   3   5  1   
  5   3   6  1   
  6   4   7  1   
  7   4  20  1   
  8   4  21  1   
  9   5   8  ar  
 10   5   9  ar  
 11   6   7  1   
 12   6  22  1   
 13   6  23  1   
 14   7  10  1   
 15   7  24  1   
 16   8  11  ar  
 17   8  25  1   
 18   9  12  ar  
 19   9  26  1   
 20  10  13  2   
 21  10  14  1   
 22  11  15  ar  
 23  11  27  1   
 24  12  15  ar  
 25  12  28  1   
 26  14  16  1   
 27  15  17  1   
 28  16  29  1   
 29  16  30  1   
 30  16  31  1   
 31  17  18  1   
 32  18  19  1   
 33  18  32  1   
 34  18  33  1   
 35  19  34  1   
 36  19  35  1   
 37  19  36  1   
@<TRIPOS>SUBSTRUCTURE
  1 ****   5 GROUP 4 **** **** 0

# MOE 2024.06 (io_trps.svl 2023.06)
