@<TRIPOS>MOLECULE
NONAME
37 38 1 0 0 
SMALL
USER_CHARGES


@<TRIPOS>ATOM
  1 S        0.4480     0.2480    -0.2330 S.3   1 <1>  -0.0800 
  2 C        2.0360    -0.2780     0.3030 C.2   1 <1>  -0.1400 
  3 C        0.4610    -0.9060    -1.5540 C.2   1 <1>  -0.1100 
  4 C        2.4980    -1.2620    -0.4930 C.2   1 <1>  -0.1500 
  5 C        2.6210     0.4220     1.5180 C.3   1 <1>   0.2000 
  6 C        1.6020    -1.6190    -1.5510 C.2   1 <1>  -0.1500 
  7 C        4.1310     0.2580     1.5840 C.2   1 <1>   0.0060 
  8 N        4.7460    -0.4050     2.5090 N.2   1 <1>  -0.3380 
  9 N        4.9870     0.7830     0.6920 N.pl3 1 <1>   0.0480 
 10 N        6.0540    -0.3370     2.2460 N.2   1 <1>  -0.3380 
 11 C        6.1570     0.3660     1.1740 C.2   1 <1>   0.2430 
 12 C        4.7320     1.6050    -0.5140 C.3   1 <1>   0.0960 
 13 S        7.7260     0.7540     0.3930 S.3   1 <1>  -0.2860 
 14 C        4.7330     3.0960    -0.1620 C.3   1 <1>  -0.2400 
 15 C        8.9480    -0.0810     1.5110 C.3   1 <1>   0.1310 
 16 C       10.3510     0.0640     0.9570 C.2   1 <1>   0.6590 
 17 O       11.1720     0.7670     1.4890 O.2   1 <1>  -0.5700 
 18 O       10.6250    -0.6400    -0.1350 O.3   1 <1>  -0.4300 
 19 C       11.8930    -0.5830    -0.7460 C.3   1 <1>   0.1200 
 20 C       11.8710    -1.4990    -1.9660 C.3   1 <1>  -0.2400 
 21 H       -0.3990    -0.9300    -2.2000 H     1 <1>   0.1500 
 22 H        3.4430    -1.7670    -0.3780 H     1 <1>   0.1500 
 23 H        2.1740     0.0130     2.4070 H     1 <1>   0.0800 
 24 H        2.3860     1.4690     1.4810 H     1 <1>   0.0800 
 25 H        1.8590    -2.3930    -2.2530 H     1 <1>   0.1500 
 26 H        3.7840     1.3290    -0.9390 H     1 <1>   0.0800 
 27 H        5.4940     1.4000    -1.2440 H     1 <1>   0.0800 
 28 H        3.9630     3.3180     0.5560 H     1 <1>   0.0800 
 29 H        4.5500     3.6780    -1.0470 H     1 <1>   0.0800 
 30 H        5.6890     3.3840     0.2410 H     1 <1>   0.0800 
 31 H        8.6710    -1.1160     1.5750 H     1 <1>   0.0800 
 32 H        8.8690     0.3860     2.4750 H     1 <1>   0.0800 
 33 H       12.6310    -0.9070    -0.0310 H     1 <1>   0.0800 
 34 H       12.0880     0.4370    -1.0310 H     1 <1>   0.0800 
 35 H       11.6650    -2.5110    -1.6660 H     1 <1>   0.0800 
 36 H       12.8280    -1.4750    -2.4550 H     1 <1>   0.0800 
 37 H       11.1210    -1.1700    -2.6620 H     1 <1>   0.0800 
@<TRIPOS>BOND
  1   1   2  1   
  2   1   3  1   
  3   2   4  2   
  4   2   5  1   
  5   3   6  2   
  6   3  21  1   
  7   4   6  1   
  8   4  22  1   
  9   5   7  1   
 10   5  23  1   
 11   5  24  1   
 12   6  25  1   
 13   7   8  2   
 14   7   9  1   
 15   8  10  1   
 16   9  11  1   
 17   9  12  1   
 18  10  11  2   
 19  11  13  1   
 20  12  14  1   
 21  12  26  1   
 22  12  27  1   
 23  13  15  1   
 24  14  28  1   
 25  14  29  1   
 26  14  30  1   
 27  15  16  1   
 28  15  31  1   
 29  15  32  1   
 30  16  17  2   
 31  16  18  1   
 32  18  19  1   
 33  19  20  1   
 34  19  33  1   
 35  19  34  1   
 36  20  35  1   
 37  20  36  1   
 38  20  37  1   
@<TRIPOS>SUBSTRUCTURE
  1 ****  11 GROUP 4 **** **** 0

# MOE 2024.06 (io_trps.svl 2023.06)
