@<TRIPOS>MOLECULE
NONAME
40 41 1 0 0 
SMALL
USER_CHARGES


@<TRIPOS>ATOM
  1 O       -0.2420    -0.2370    -1.8860 O.2   1 <1>  -0.5700 
  2 C        0.1430     0.4350    -0.9580 C.2   1 <1>   0.5690 
  3 N       -0.7240     1.0410    -0.1070 N.am  1 <1>  -0.7300 
  4 C        1.6430     0.6240    -0.7620 C.3   1 <1>   0.1810 
  5 C       -2.1980     1.0920    -0.2300 C.3   1 <1>   0.1400 
  6 O        1.9270     1.3700     0.4150 O.3   1 <1>  -0.3620 
  7 C       -2.6730     2.5480    -0.3460 C.3   1 <1>   0.2000 
  8 C        2.9090     2.2930     0.3120 C.ar  1 <1>   0.0830 
  9 O       -2.1570     3.3160     0.6970 O.3   1 <1>  -0.5600 
 10 C       -4.1800     2.7270    -0.2350 C.3   1 <1>  -0.1600 
 11 C        4.2430     1.9090     0.4260 C.ar  1 <1>  -0.1430 
 12 C        2.5640     3.6250     0.0960 C.ar  1 <1>  -0.1430 
 13 C       -2.9480     4.4410     0.9140 C.3   1 <1>   0.1200 
 14 C       -4.3070     4.1500     0.2790 C.3   1 <1>  -0.1600 
 15 C        5.2320     2.8700     0.2930 C.ar  1 <1>  -0.1500 
 16 C        4.6400     0.4660     0.7020 C.3   1 <1>  -0.0970 
 17 C        3.5690     4.5690    -0.0320 C.ar  1 <1>  -0.1500 
 18 C        1.1060     4.0550     0.0040 C.3   1 <1>  -0.0970 
 19 C        4.8980     4.1930     0.0620 C.ar  1 <1>  -0.1500 
 20 H       -0.3410     1.6510     0.6250 H     1 <1>   0.3700 
 21 H        2.0440     1.1430    -1.6130 H     1 <1>   0.0800 
 22 H        2.1180    -0.3340    -0.6720 H     1 <1>   0.0800 
 23 H       -2.6380     0.6360     0.6390 H     1 <1>   0.0800 
 24 H       -2.5150     0.5390    -1.0980 H     1 <1>   0.0800 
 25 H       -2.3190     2.9760    -1.2680 H     1 <1>   0.0800 
 26 H       -4.5780     2.0370     0.4890 H     1 <1>   0.0800 
 27 H       -4.6730     2.5800    -1.1790 H     1 <1>   0.0800 
 28 H       -2.4690     5.2870     0.4520 H     1 <1>   0.0800 
 29 H       -3.0250     4.5970     1.9770 H     1 <1>   0.0800 
 30 H       -5.1050     4.2510     0.9940 H     1 <1>   0.0800 
 31 H       -4.4760     4.8360    -0.5320 H     1 <1>   0.0800 
 32 H        6.2690     2.5960     0.3710 H     1 <1>   0.1500 
 33 H        3.9670     0.0260     1.4160 H     1 <1>   0.0800 
 34 H        5.6350     0.4140     1.1050 H     1 <1>   0.0800 
 35 H        4.6060    -0.1040    -0.2090 H     1 <1>   0.0800 
 36 H        3.3250     5.6020    -0.2040 H     1 <1>   0.1500 
 37 H        0.6380     3.5980    -0.8490 H     1 <1>   0.0800 
 38 H        1.0210     5.1220    -0.0900 H     1 <1>   0.0800 
 39 H        0.5800     3.7520     0.8920 H     1 <1>   0.0800 
 40 H        5.6730     4.9320    -0.0400 H     1 <1>   0.1500 
@<TRIPOS>BOND
  1   1   2  2   
  2   2   3  am  
  3   2   4  1   
  4   3   5  1   
  5   3  20  1   
  6   4   6  1   
  7   4  21  1   
  8   4  22  1   
  9   5   7  1   
 10   5  23  1   
 11   5  24  1   
 12   6   8  1   
 13   7   9  1   
 14   7  10  1   
 15   7  25  1   
 16   8  11  ar  
 17   8  12  ar  
 18   9  13  1   
 19  10  14  1   
 20  10  26  1   
 21  10  27  1   
 22  11  15  ar  
 23  11  16  1   
 24  12  17  ar  
 25  12  18  1   
 26  13  14  1   
 27  13  28  1   
 28  13  29  1   
 29  14  30  1   
 30  14  31  1   
 31  15  19  ar  
 32  15  32  1   
 33  16  33  1   
 34  16  34  1   
 35  16  35  1   
 36  17  19  ar  
 37  17  36  1   
 38  18  37  1   
 39  18  38  1   
 40  18  39  1   
 41  19  40  1   
@<TRIPOS>SUBSTRUCTURE
  1 ****   6 GROUP 4 **** **** 0

# MOE 2024.06 (io_trps.svl 2023.06)
