@<TRIPOS>MOLECULE
NONAME
33 33 1 0 0 
SMALL
USER_CHARGES


@<TRIPOS>ATOM
  1 O       -0.0930    -0.3410    -1.1200 O.2   1 <1>  -0.5700 
  2 C       -0.1840    -0.9840    -0.0940 C.2   1 <1>   0.6900 
  3 N        0.9150    -1.3470     0.6260 N.am  1 <1>  -0.5470 
  4 N       -1.3880    -1.3890     0.3880 N.am  1 <1>  -0.7300 
  5 C        2.2640    -0.9860     0.4950 C.ar  1 <1>   0.1170 
  6 C       -2.7230    -1.1790    -0.1810 C.3   1 <1>   0.3000 
  7 C        2.6770     0.1930    -0.1160 C.ar  1 <1>  -0.1500 
  8 C        3.2370    -1.8310     1.0160 C.ar  1 <1>  -0.1500 
  9 C       -3.0370     0.3160    -0.2340 C.3   1 <1>  -0.2400 
 10 C       -3.7070    -1.8730     0.7600 C.3   1 <1>  -0.2400 
 11 C       -2.8090    -1.8200    -1.5670 C.3   1 <1>  -0.2400 
 12 C        4.0190     0.5150    -0.2060 C.ar  1 <1>  -0.1500 
 13 C        4.5800    -1.5120     0.9280 C.ar  1 <1>  -0.1500 
 14 C        4.9800    -0.3350     0.3170 C.ar  1 <1>  -0.1430 
 15 C        6.4530     0.0180     0.2150 C.3   1 <1>  -0.0970 
 16 H        0.7340    -2.0820     1.2980 H     1 <1>   0.3700 
 17 H       -1.4170    -1.7530     1.3340 H     1 <1>   0.3700 
 18 H        1.9480     0.8680    -0.5240 H     1 <1>   0.1500 
 19 H        2.9460    -2.7490     1.4910 H     1 <1>   0.1500 
 20 H       -2.9300     0.7600     0.7390 H     1 <1>   0.0800 
 21 H       -4.0440     0.4720    -0.5740 H     1 <1>   0.0800 
 22 H       -2.3770     0.8170    -0.9190 H     1 <1>   0.0800 
 23 H       -3.4920    -2.9240     0.8230 H     1 <1>   0.0800 
 24 H       -3.6610    -1.4400     1.7440 H     1 <1>   0.0800 
 25 H       -4.7110    -1.7580     0.3920 H     1 <1>   0.0800 
 26 H       -2.1560    -1.3200    -2.2590 H     1 <1>   0.0800 
 27 H       -3.8100    -1.7460    -1.9490 H     1 <1>   0.0800 
 28 H       -2.5360    -2.8590    -1.5190 H     1 <1>   0.0800 
 29 H        4.3110     1.4310    -0.6880 H     1 <1>   0.1500 
 30 H        5.3150    -2.1830     1.3360 H     1 <1>   0.1500 
 31 H        6.5850     1.0850     0.2410 H     1 <1>   0.0800 
 32 H        6.8530    -0.3590    -0.7090 H     1 <1>   0.0800 
 33 H        7.0010    -0.4110     1.0330 H     1 <1>   0.0800 
@<TRIPOS>BOND
  1   1   2  2   
  2   2   3  am  
  3   2   4  am  
  4   3   5  1   
  5   3  16  1   
  6   4   6  1   
  7   4  17  1   
  8   5   7  ar  
  9   5   8  ar  
 10   6   9  1   
 11   6  10  1   
 12   6  11  1   
 13   7  12  ar  
 14   7  18  1   
 15   8  13  ar  
 16   8  19  1   
 17   9  20  1   
 18   9  21  1   
 19   9  22  1   
 20  10  23  1   
 21  10  24  1   
 22  10  25  1   
 23  11  26  1   
 24  11  27  1   
 25  11  28  1   
 26  12  14  ar  
 27  12  29  1   
 28  13  14  ar  
 29  13  30  1   
 30  14  15  1   
 31  15  31  1   
 32  15  32  1   
 33  15  33  1   
@<TRIPOS>SUBSTRUCTURE
  1 ****   3 GROUP 4 **** **** 0

# MOE 2024.06 (io_trps.svl 2023.06)
