@<TRIPOS>MOLECULE
NONAME
38 40 1 0 0 
SMALL
USER_CHARGES


@<TRIPOS>ATOM
  1 S        0.1420     1.1090     1.6340 S.3   1 <1>  -0.3710 
  2 C       -1.2160     1.9220     0.8750 C.2   1 <1>   0.6510 
  3 C        1.0780     0.8750     0.0610 C.3   1 <1>   0.2300 
  4 N       -2.3260     2.2710     1.3610 N.2   1 <1>  -0.6960 
  5 N       -0.9490     2.1820    -0.4220 N.am  1 <1>  -0.4200 
  6 C        0.3350     1.7350    -0.9980 C.3   1 <1>   0.1400 
  7 C        1.0110    -0.6210    -0.2580 C.3   1 <1>  -0.2400 
  8 C        2.5130     1.3400     0.3170 C.3   1 <1>  -0.2400 
  9 C       -3.0750     2.8510     0.2050 C.3   1 <1>   0.6070 
 10 C       -2.0430     2.7750    -0.9390 C.2   1 <1>   0.5690 
 11 N       -4.2700     1.9440     0.0860 N.am  1 <1>  -0.7300 
 12 C       -3.4320     4.3740     0.3560 C.3   1 <1>   1.0200 
 13 O       -2.1450     3.1920    -2.0700 O.2   1 <1>  -0.5700 
 14 C       -4.3140     0.7210    -0.5170 C.2   1 <1>   0.5440 
 15 F       -4.1200     4.8660    -0.6710 F     1 <1>  -0.3400 
 16 F       -4.1960     4.6040     1.4240 F     1 <1>  -0.3400 
 17 F       -2.3660     5.1620     0.4990 F     1 <1>  -0.3400 
 18 O       -3.3050     0.2790    -1.0270 O.2   1 <1>  -0.5700 
 19 C       -5.5440    -0.0520    -0.5130 C.ar  1 <1>   0.0860 
 20 C       -6.8000     0.5610    -0.5160 C.ar  1 <1>  -0.1500 
 21 C       -5.5140    -1.4470    -0.5040 C.ar  1 <1>  -0.1500 
 22 C       -7.9660    -0.1830    -0.4980 C.ar  1 <1>  -0.1500 
 23 C       -6.6760    -2.1970    -0.4870 C.ar  1 <1>  -0.1500 
 24 C       -7.9060    -1.5650    -0.4810 C.ar  1 <1>  -0.1500 
 25 H        0.1480     1.1690    -1.8940 H     1 <1>   0.0800 
 26 H        0.9170     2.6020    -1.2580 H     1 <1>   0.0800 
 27 H       -0.0130    -0.9300    -0.3820 H     1 <1>   0.0800 
 28 H        1.4470    -1.1930     0.5410 H     1 <1>   0.0800 
 29 H        1.5460    -0.8360    -1.1650 H     1 <1>   0.0800 
 30 H        2.5250     2.3750     0.6100 H     1 <1>   0.0800 
 31 H        3.1070     1.2260    -0.5720 H     1 <1>   0.0800 
 32 H        2.9580     0.7570     1.1030 H     1 <1>   0.0800 
 33 H       -4.9840     2.1470     0.7850 H     1 <1>   0.3700 
 34 H       -6.8680     1.6340    -0.5430 H     1 <1>   0.1500 
 35 H       -4.5600    -1.9460    -0.5110 H     1 <1>   0.1500 
 36 H       -8.9230     0.3110    -0.5010 H     1 <1>   0.1500 
 37 H       -6.6240    -3.2720    -0.4780 H     1 <1>   0.1500 
 38 H       -8.8120    -2.1460    -0.4680 H     1 <1>   0.1500 
@<TRIPOS>BOND
  1   1   2  1   
  2   1   3  1   
  3   2   4  2   
  4   2   5  1   
  5   3   6  1   
  6   3   7  1   
  7   3   8  1   
  8   4   9  1   
  9   5   6  1   
 10   5  10  am  
 11   6  25  1   
 12   6  26  1   
 13   7  27  1   
 14   7  28  1   
 15   7  29  1   
 16   8  30  1   
 17   8  31  1   
 18   8  32  1   
 19   9  10  1   
 20   9  11  1   
 21   9  12  1   
 22  10  13  2   
 23  11  14  am  
 24  11  33  1   
 25  12  15  1   
 26  12  16  1   
 27  12  17  1   
 28  14  18  2   
 29  14  19  1   
 30  19  20  ar  
 31  19  21  ar  
 32  20  22  ar  
 33  20  34  1   
 34  21  23  ar  
 35  21  35  1   
 36  22  24  ar  
 37  22  36  1   
 38  23  24  ar  
 39  23  37  1   
 40  24  38  1   
@<TRIPOS>SUBSTRUCTURE
  1 ****  11 GROUP 4 **** **** 0

# MOE 2024.06 (io_trps.svl 2023.06)
