@<TRIPOS>MOLECULE
NONAME
37 39 1 0 0 
SMALL
USER_CHARGES


@<TRIPOS>ATOM
  1 BR       0.4340     0.7820    -1.9630 Br    1 <1>  -0.1100 
  2 C        1.9050     1.0860    -0.7530 C.2   1 <1>   0.1240 
  3 C        1.6320     1.0310     0.6440 C.2   1 <1>   0.3760 
  4 C        3.1440     1.3420    -1.2330 C.2   1 <1>  -0.1810 
  5 N        2.5530     1.2220     1.5320 N.2   1 <1>  -0.5760 
  6 N        4.1320     1.5470    -0.2940 N.pl3 1 <1>   0.6010 
  7 C        3.8230     1.4830     1.0460 C.2   1 <1>  -0.0260 
  8 N        5.4280     1.8190    -0.4990 N.2   1 <1>  -0.7070 
  9 C        4.9860     1.7180     1.6950 C.2   1 <1>  -0.1500 
 10 C        5.9610     1.9250     0.7170 C.2   1 <1>   0.2030 
 11 C        7.3620     2.1880     1.0520 C.2   1 <1>   0.7160 
 12 O        7.7950     1.7530     2.1090 O.2   1 <1>  -0.5700 
 13 N        8.2340     2.9020     0.2430 N.am  1 <1>  -0.6600 
 14 C        9.7130     2.8180     0.4540 C.3   1 <1>   0.2200 
 15 C        7.7820     3.8550    -0.8100 C.3   1 <1>   0.1400 
 16 C       10.4370     4.0730    -0.0780 C.3   1 <1>  -0.1600 
 17 C       10.2320     1.5270    -0.2000 C.3   1 <1>  -0.1600 
 18 C        8.2480     5.2810    -0.4760 C.3   1 <1>  -0.1600 
 19 C        9.6280     5.3440     0.2030 C.3   1 <1>  -0.1600 
 20 C       11.7240     1.2680     0.0560 C.3   1 <1>  -0.2400 
 21 H        0.6240     0.8230     0.9560 H     1 <1>   0.0600 
 22 H        3.4240     1.3980    -2.2660 H     1 <1>   0.1500 
 23 H        5.1460     1.7390     2.7580 H     1 <1>   0.1500 
 24 H        9.8990     2.7630     1.5150 H     1 <1>   0.0800 
 25 H        6.7130     3.8600    -0.9130 H     1 <1>   0.0800 
 26 H        8.2020     3.5430    -1.7510 H     1 <1>   0.0800 
 27 H       10.6010     3.9800    -1.1370 H     1 <1>   0.0800 
 28 H       11.4000     4.1500     0.3930 H     1 <1>   0.0800 
 29 H       10.0550     1.5660    -1.2610 H     1 <1>   0.0800 
 30 H        9.6770     0.6950     0.1980 H     1 <1>   0.0800 
 31 H        7.5200     5.7470     0.1640 H     1 <1>   0.0800 
 32 H        8.2720     5.8450    -1.3910 H     1 <1>   0.0800 
 33 H       10.1650     6.2140    -0.1330 H     1 <1>   0.0800 
 34 H        9.4900     5.4310     1.2680 H     1 <1>   0.0800 
 35 H       12.3330     2.0260    -0.4030 H     1 <1>   0.0800 
 36 H       12.0050     0.3150    -0.3570 H     1 <1>   0.0800 
 37 H       11.9240     1.2520     1.1130 H     1 <1>   0.0800 
@<TRIPOS>BOND
  1   1   2  1   
  2   2   3  1   
  3   2   4  2   
  4   3   5  2   
  5   3  21  1   
  6   4   6  1   
  7   4  22  1   
  8   5   7  1   
  9   6   7  1   
 10   6   8  1   
 11   7   9  2   
 12   8  10  2   
 13   9  10  1   
 14   9  23  1   
 15  10  11  1   
 16  11  12  2   
 17  11  13  am  
 18  13  14  1   
 19  13  15  1   
 20  14  16  1   
 21  14  17  1   
 22  14  24  1   
 23  15  18  1   
 24  15  25  1   
 25  15  26  1   
 26  16  19  1   
 27  16  27  1   
 28  16  28  1   
 29  17  20  1   
 30  17  29  1   
 31  17  30  1   
 32  18  19  1   
 33  18  31  1   
 34  18  32  1   
 35  19  33  1   
 36  19  34  1   
 37  20  35  1   
 38  20  36  1   
 39  20  37  1   
@<TRIPOS>SUBSTRUCTURE
  1 ****  10 GROUP 4 **** **** 0

# MOE 2024.06 (io_trps.svl 2023.06)
