@<TRIPOS>MOLECULE
NONAME
45 46 1 0 0 
SMALL
USER_CHARGES


@<TRIPOS>ATOM
  1 CL       1.4450     1.3990    -2.6280 Cl    1 <1>  -0.1770 
  2 C        2.3870     1.7830    -1.2040 C.ar  1 <1>   0.1770 
  3 C        2.1480     2.9510    -0.4910 C.ar  1 <1>   0.0820 
  4 C        3.3660     0.8840    -0.8200 C.ar  1 <1>  -0.1500 
  5 O        1.1640     3.7890    -0.9010 O.3   1 <1>  -0.3630 
  6 C        2.9400     3.2230     0.6330 C.ar  1 <1>   0.0820 
  7 C        4.1380     1.1470     0.3030 C.ar  1 <1>  -0.1440 
  8 C       -0.1240     3.5160    -0.3990 C.3   1 <1>   0.1200 
  9 O        2.8480     4.3340     1.4120 O.3   1 <1>  -0.3630 
 10 C        3.9110     2.3120     1.0210 C.ar  1 <1>  -0.1500 
 11 C        5.2240     0.1880     0.7370 C.3   1 <1>   0.4860 
 12 C       -1.0790     4.5690    -0.9510 C.3   1 <1>  -0.2400 
 13 C        2.5000     5.5830     0.8560 C.3   1 <1>   0.1200 
 14 N        6.4820     0.6790     0.1450 N.4   1 <1>  -0.9060 
 15 C        3.0080     6.6740     1.7940 C.3   1 <1>  -0.2400 
 16 C        7.6800    -0.1080     0.4920 C.3   1 <1>   0.4860 
 17 C        8.8370     0.5580    -0.2120 C.ar  1 <1>  -0.1430 
 18 C        9.5430     1.5770     0.4140 C.ar  1 <1>  -0.1500 
 19 C        9.1950     0.1650    -1.4940 C.ar  1 <1>  -0.1500 
 20 C       10.5900     2.2010    -0.2400 C.ar  1 <1>  -0.1500 
 21 C       10.2430     0.7910    -2.1460 C.ar  1 <1>  -0.1500 
 22 C       10.9390     1.8090    -1.5200 C.ar  1 <1>  -0.1500 
 23 H        3.5010    -0.0060    -1.4090 H     1 <1>   0.1500 
 24 H       -0.0870     3.5550     0.6760 H     1 <1>   0.0800 
 25 H       -0.4160     2.5300    -0.7190 H     1 <1>   0.0800 
 26 H        4.4840     2.5460     1.9020 H     1 <1>   0.1500 
 27 H        5.0020    -0.8080     0.3870 H     1 <1>   0.0800 
 28 H        5.2910     0.1740     1.8140 H     1 <1>   0.0800 
 29 H       -0.7740     5.5500    -0.6360 H     1 <1>   0.0800 
 30 H       -2.0730     4.3840    -0.5870 H     1 <1>   0.0800 
 31 H       -1.0950     4.5250    -2.0260 H     1 <1>   0.0800 
 32 H        1.4300     5.6320     0.7680 H     1 <1>   0.0800 
 33 H        2.9550     5.6710    -0.1160 H     1 <1>   0.0800 
 34 H        6.6350     1.6540     0.4280 H     1 <1>   0.4500 
 35 H        6.3940     0.7160    -0.8760 H     1 <1>   0.4500 
 36 H        2.5540     6.5710     2.7630 H     1 <1>   0.0800 
 37 H        2.7520     7.6400     1.3970 H     1 <1>   0.0800 
 38 H        4.0770     6.6150     1.8880 H     1 <1>   0.0800 
 39 H        7.5800    -1.1270     0.1530 H     1 <1>   0.0800 
 40 H        7.8450    -0.1040     1.5570 H     1 <1>   0.0800 
 41 H        9.2960     1.8980     1.4120 H     1 <1>   0.1500 
 42 H        8.6740    -0.6280    -2.0030 H     1 <1>   0.1500 
 43 H       11.1390     2.9910     0.2440 H     1 <1>   0.1500 
 44 H       10.5240     0.4870    -3.1410 H     1 <1>   0.1500 
 45 H       11.7550     2.2950    -2.0280 H     1 <1>   0.1500 
@<TRIPOS>BOND
  1   1   2  1   
  2   2   3  ar  
  3   2   4  ar  
  4   3   5  1   
  5   3   6  ar  
  6   4   7  ar  
  7   4  23  1   
  8   5   8  1   
  9   6   9  1   
 10   6  10  ar  
 11   7  10  ar  
 12   7  11  1   
 13   8  12  1   
 14   8  24  1   
 15   8  25  1   
 16   9  13  1   
 17  10  26  1   
 18  11  14  1   
 19  11  27  1   
 20  11  28  1   
 21  12  29  1   
 22  12  30  1   
 23  12  31  1   
 24  13  15  1   
 25  13  32  1   
 26  13  33  1   
 27  14  16  1   
 28  14  34  1   
 29  14  35  1   
 30  15  36  1   
 31  15  37  1   
 32  15  38  1   
 33  16  17  1   
 34  16  39  1   
 35  16  40  1   
 36  17  18  ar  
 37  17  19  ar  
 38  18  20  ar  
 39  18  41  1   
 40  19  21  ar  
 41  19  42  1   
 42  20  22  ar  
 43  20  43  1   
 44  21  22  ar  
 45  21  44  1   
 46  22  45  1   
@<TRIPOS>SUBSTRUCTURE
  1 ****   7 GROUP 4 **** **** 0

# MOE 2024.06 (io_trps.svl 2023.06)
