@<TRIPOS>MOLECULE
NONAME
30 31 1 0 0 
SMALL
USER_CHARGES


@<TRIPOS>ATOM
  1 CL       0.1770    -0.1070     1.0560 Cl    1 <1>  -0.1770 
  2 C        1.5050     0.7470     0.3060 C.ar  1 <1>   0.1770 
  3 C        1.3550     2.0740    -0.0720 C.ar  1 <1>  -0.1440 
  4 C        2.6900     0.0680     0.1070 C.ar  1 <1>  -0.1500 
  5 C        2.4320     2.7130    -0.6670 C.ar  1 <1>  -0.1500 
  6 C        0.0450     2.8160     0.1500 C.3   1 <1>  -0.0960 
  7 C        3.7810     0.7030    -0.4770 C.ar  1 <1>   0.0860 
  8 C        3.6230     2.0340    -0.8670 C.ar  1 <1>  -0.1500 
  9 C        5.0310    -0.0010    -0.6780 C.2   1 <1>   0.5440 
 10 O        5.0440    -0.9930    -1.3810 O.2   1 <1>  -0.5700 
 11 N        6.2060     0.4170    -0.0910 N.am  1 <1>  -0.6600 
 12 C        7.5230    -0.2040    -0.4270 C.3   1 <1>   0.1400 
 13 C        6.3010     1.4200     1.0120 C.3   1 <1>   0.1400 
 14 C        8.5980     0.8800    -0.6140 C.3   1 <1>   0.1200 
 15 C        7.4390     2.4160     0.7340 C.3   1 <1>   0.1200 
 16 O        8.6400     1.7390     0.4920 O.3   1 <1>  -0.5600 
 17 H        2.7720    -0.9630     0.4040 H     1 <1>   0.1500 
 18 H        2.3480     3.7390    -0.9800 H     1 <1>   0.1500 
 19 H       -0.1960     2.8310     1.1980 H     1 <1>   0.0800 
 20 H       -0.7500     2.3220    -0.3810 H     1 <1>   0.0800 
 21 H        0.1090     3.8300    -0.2010 H     1 <1>   0.0800 
 22 H        4.4490     2.5370    -1.3380 H     1 <1>   0.1500 
 23 H        7.4470    -0.7830    -1.3310 H     1 <1>   0.0800 
 24 H        7.8160    -0.8660     0.3680 H     1 <1>   0.0800 
 25 H        6.5070     0.9060     1.9350 H     1 <1>   0.0800 
 26 H        5.3780     1.9550     1.1330 H     1 <1>   0.0800 
 27 H        8.3970     1.4620    -1.4960 H     1 <1>   0.0800 
 28 H        9.5680     0.4250    -0.7140 H     1 <1>   0.0800 
 29 H        7.5900     3.0550     1.5860 H     1 <1>   0.0800 
 30 H        7.2090     3.0270    -0.1210 H     1 <1>   0.0800 
@<TRIPOS>BOND
  1   1   2  1   
  2   2   3  ar  
  3   2   4  ar  
  4   3   5  ar  
  5   3   6  1   
  6   4   7  ar  
  7   4  17  1   
  8   5   8  ar  
  9   5  18  1   
 10   6  19  1   
 11   6  20  1   
 12   6  21  1   
 13   7   8  ar  
 14   7   9  1   
 15   8  22  1   
 16   9  10  2   
 17   9  11  am  
 18  11  12  1   
 19  11  13  1   
 20  12  14  1   
 21  12  23  1   
 22  12  24  1   
 23  13  15  1   
 24  13  25  1   
 25  13  26  1   
 26  14  16  1   
 27  14  27  1   
 28  14  28  1   
 29  15  16  1   
 30  15  29  1   
 31  15  30  1   
@<TRIPOS>SUBSTRUCTURE
  1 ****   7 GROUP 4 **** **** 0

# MOE 2024.06 (io_trps.svl 2023.06)
