@<TRIPOS>MOLECULE
NONAME
35 34 1 0 0 
SMALL
USER_CHARGES


@<TRIPOS>ATOM
  1 F       -0.1740     0.5890     1.8320 F     1 <1>  -0.3400 
  2 C        1.0040     1.0830     1.4560 C.3   1 <1>   1.0200 
  3 F        1.4910     1.6530     2.5500 F     1 <1>  -0.3400 
  4 F        1.7630     0.0110     1.2440 F     1 <1>  -0.3400 
  5 C        0.8830     1.9920     0.1770 C.3   1 <1>   0.3000 
  6 N        2.1510     2.1260    -0.6800 N.am  1 <1>  -0.7300 
  7 C        0.3500     3.3650     0.7000 C.3   1 <1>   1.0200 
  8 C       -0.1600     1.3950    -0.8350 C.3   1 <1>  -0.1600 
  9 C        3.3960     2.3780    -0.2320 C.2   1 <1>   0.6900 
 10 F        0.0640     4.1810    -0.3130 F     1 <1>  -0.3400 
 11 F       -0.7850     3.2640     1.3840 F     1 <1>  -0.3400 
 12 F        1.1780     4.0600     1.4670 F     1 <1>  -0.3400 
 13 C        0.1720     0.0080    -1.4190 C.3   1 <1>  -0.2400 
 14 O        3.5940     2.5360     0.9490 O.2   1 <1>  -0.5700 
 15 N        4.3810     2.4410    -1.1540 N.am  1 <1>  -0.7300 
 16 C        5.8270     2.6440    -0.9120 C.3   1 <1>   0.2200 
 17 C        6.4200     1.5140    -0.0550 C.3   1 <1>  -0.1600 
 18 C        6.0650     4.0200    -0.2940 C.3   1 <1>  -0.2400 
 19 C        6.2280     0.1180    -0.6680 C.3   1 <1>  -0.2400 
 20 H        1.9950     2.2030    -1.6820 H     1 <1>   0.3700 
 21 H       -0.2800     2.0780    -1.6600 H     1 <1>   0.0800 
 22 H       -1.1280     1.3290    -0.3640 H     1 <1>   0.0800 
 23 H        1.1320    -0.0010    -1.9060 H     1 <1>   0.0800 
 24 H       -0.5720    -0.2650    -2.1480 H     1 <1>   0.0800 
 25 H        0.1690    -0.7490    -0.6540 H     1 <1>   0.0800 
 26 H        4.1730     2.0910    -2.0830 H     1 <1>   0.3700 
 27 H        6.3220     2.6270    -1.8690 H     1 <1>   0.0800 
 28 H        5.9850     1.5380     0.9290 H     1 <1>   0.0800 
 29 H        7.4740     1.6940     0.0610 H     1 <1>   0.0800 
 30 H        5.6430     4.0740     0.6940 H     1 <1>   0.0800 
 31 H        5.6240     4.7850    -0.9070 H     1 <1>   0.0800 
 32 H        7.1200     4.2100    -0.2180 H     1 <1>   0.0800 
 33 H        5.1830    -0.1320    -0.7170 H     1 <1>   0.0800 
 34 H        6.7190    -0.6180    -0.0560 H     1 <1>   0.0800 
 35 H        6.6460     0.0770    -1.6580 H     1 <1>   0.0800 
@<TRIPOS>BOND
  1   1   2  1   
  2   2   3  1   
  3   2   4  1   
  4   2   5  1   
  5   5   6  1   
  6   5   7  1   
  7   5   8  1   
  8   6   9  am  
  9   6  20  1   
 10   7  10  1   
 11   7  11  1   
 12   7  12  1   
 13   8  13  1   
 14   8  21  1   
 15   8  22  1   
 16   9  14  2   
 17   9  15  am  
 18  13  23  1   
 19  13  24  1   
 20  13  25  1   
 21  15  16  1   
 22  15  26  1   
 23  16  17  1   
 24  16  18  1   
 25  16  27  1   
 26  17  19  1   
 27  17  28  1   
 28  17  29  1   
 29  18  30  1   
 30  18  31  1   
 31  18  32  1   
 32  19  33  1   
 33  19  34  1   
 34  19  35  1   
@<TRIPOS>SUBSTRUCTURE
  1 ****   6 GROUP 4 **** **** 0

# MOE 2024.06 (io_trps.svl 2023.06)
