@<TRIPOS>MOLECULE
NONAME
43 45 1 0 0 
SMALL
USER_CHARGES


@<TRIPOS>ATOM
  1 O       -0.1400     0.4520     0.9190 O.2   1 <1>  -0.5700 
  2 C       -0.4980     1.5600     0.6070 C.2   1 <1>   0.5690 
  3 N        0.2940     2.6300     0.2990 N.am  1 <1>  -0.4770 
  4 C       -1.9550     1.9090     0.4980 C.3   1 <1>  -0.0990 
  5 C        1.7010     2.6990     0.2450 C.ar  1 <1>   0.1170 
  6 C       -0.5430     3.8060    -0.0190 C.3   1 <1>   0.1400 
  7 C       -1.9420     3.2280    -0.2870 C.3   1 <1>  -0.0190 
  8 C        2.3730     3.8660     0.6000 C.ar  1 <1>  -0.1500 
  9 C        2.4590     1.6100    -0.1740 C.ar  1 <1>  -0.1500 
 10 C       -3.0910     4.1780     0.0570 C.2   1 <1>   0.5690 
 11 C        3.7530     3.9450     0.5310 C.ar  1 <1>  -0.1500 
 12 C        3.8390     1.6830    -0.2430 C.ar  1 <1>  -0.1500 
 13 O       -2.8090     5.1870     0.6620 O.2   1 <1>  -0.5700 
 14 N       -4.3910     3.9180    -0.3180 N.am  1 <1>  -0.6600 
 15 C        4.4890     2.8530     0.1080 C.ar  1 <1>  -0.1500 
 16 C       -5.4340     4.9480    -0.0060 C.3   1 <1>   0.1400 
 17 C       -4.8200     2.7390    -1.1260 C.3   1 <1>   0.1400 
 18 C       -6.8800     4.4350     0.0670 C.3   1 <1>  -0.1600 
 19 C       -5.4000     1.6450    -0.2220 C.3   1 <1>  -0.1600 
 20 C       -7.0720     3.2020     0.9630 C.3   1 <1>  -0.1600 
 21 C       -6.8530     1.8850     0.2080 C.3   1 <1>  -0.1600 
 22 H       -2.3540     2.0450     1.4860 H     1 <1>   0.0800 
 23 H       -2.4880     1.1320    -0.0180 H     1 <1>   0.0800 
 24 H       -0.1630     4.3290    -0.8790 H     1 <1>   0.0800 
 25 H       -0.5410     4.4620     0.8350 H     1 <1>   0.0800 
 26 H       -1.9780     3.0130    -1.3390 H     1 <1>   0.0800 
 27 H        1.8200     4.7210     0.9410 H     1 <1>   0.1500 
 28 H        1.9670     0.6950    -0.4490 H     1 <1>   0.1500 
 29 H        4.2550     4.8550     0.8090 H     1 <1>   0.1500 
 30 H        4.4060     0.8280    -0.5690 H     1 <1>   0.1500 
 31 H        5.5620     2.9110     0.0540 H     1 <1>   0.1500 
 32 H       -5.3750     5.7280    -0.7460 H     1 <1>   0.0800 
 33 H       -5.2010     5.3950     0.9460 H     1 <1>   0.0800 
 34 H       -3.9840     2.3350    -1.6650 H     1 <1>   0.0800 
 35 H       -5.5440     3.0400    -1.8640 H     1 <1>   0.0800 
 36 H       -7.2590     4.2500    -0.9220 H     1 <1>   0.0800 
 37 H       -7.4730     5.2370     0.4710 H     1 <1>   0.0800 
 38 H       -4.7850     1.5310     0.6520 H     1 <1>   0.0800 
 39 H       -5.3690     0.7150    -0.7600 H     1 <1>   0.0800 
 40 H       -8.0840     3.2070     1.3290 H     1 <1>   0.0800 
 41 H       -6.4200     3.2570     1.8190 H     1 <1>   0.0800 
 42 H       -7.1540     1.0730     0.8490 H     1 <1>   0.0800 
 43 H       -7.4930     1.8590    -0.6570 H     1 <1>   0.0800 
@<TRIPOS>BOND
  1   1   2  2   
  2   2   3  am  
  3   2   4  1   
  4   3   5  1   
  5   3   6  1   
  6   4   7  1   
  7   4  22  1   
  8   4  23  1   
  9   5   8  ar  
 10   5   9  ar  
 11   6   7  1   
 12   6  24  1   
 13   6  25  1   
 14   7  10  1   
 15   7  26  1   
 16   8  11  ar  
 17   8  27  1   
 18   9  12  ar  
 19   9  28  1   
 20  10  13  2   
 21  10  14  am  
 22  11  15  ar  
 23  11  29  1   
 24  12  15  ar  
 25  12  30  1   
 26  14  16  1   
 27  14  17  1   
 28  15  31  1   
 29  16  18  1   
 30  16  32  1   
 31  16  33  1   
 32  17  19  1   
 33  17  34  1   
 34  17  35  1   
 35  18  20  1   
 36  18  36  1   
 37  18  37  1   
 38  19  21  1   
 39  19  38  1   
 40  19  39  1   
 41  20  21  1   
 42  20  40  1   
 43  20  41  1   
 44  21  42  1   
 45  21  43  1   
@<TRIPOS>SUBSTRUCTURE
  1 ****   7 GROUP 4 **** **** 0

# MOE 2024.06 (io_trps.svl 2023.06)
