@<TRIPOS>MOLECULE
NONAME
47 48 1 0 0 
SMALL
USER_CHARGES


@<TRIPOS>ATOM
  1 O      -11.7870    -0.0310     0.6890 O.3   1 <1>  -0.3630 
  2 C      -12.9570    -0.4010     0.1210 C.ar  1 <1>   0.0830 
  3 C      -10.6370    -0.2750    -0.0790 C.3   1 <1>   0.1200 
  4 C      -13.4560    -1.6830     0.3430 C.ar  1 <1>  -0.1440 
  5 C      -13.6550     0.5070    -0.6720 C.ar  1 <1>  -0.1440 
  6 C       -9.4330     0.2420     0.7110 C.3   1 <1>  -0.1600 
  7 C      -14.6400    -2.0610    -0.2680 C.ar  1 <1>  -0.1500 
  8 C      -12.7340    -2.6740     1.2460 C.3   1 <1>  -0.0960 
  9 C      -14.8370     0.1070    -1.2730 C.ar  1 <1>  -0.1500 
 10 C      -13.1530     1.9280    -0.8870 C.3   1 <1>  -0.0970 
 11 C       -8.1180     0.0260    -0.0520 C.3   1 <1>  -0.1600 
 12 C      -15.3260    -1.1720    -1.0760 C.ar  1 <1>  -0.1500 
 13 C       -6.9360     0.5610     0.7610 C.3   1 <1>   0.3430 
 14 N       -5.6720     0.4590    -0.0210 N.4   1 <1>  -0.9590 
 15 C       -5.2030    -0.9530    -0.1650 C.3   1 <1>   0.3430 
 16 C       -4.6150     1.3200     0.5880 C.3   1 <1>   0.3430 
 17 C       -3.9740    -0.9990    -1.0740 C.3   1 <1>  -0.1600 
 18 C       -3.3740     1.3250    -0.3060 C.3   1 <1>  -0.1600 
 19 C       -2.8480    -0.0940    -0.5570 C.3   1 <1>  -0.1600 
 20 H      -10.7400     0.2410    -1.0180 H     1 <1>   0.0800 
 21 H      -10.5660    -1.3340    -0.2550 H     1 <1>   0.0800 
 22 H       -9.3970    -0.2760     1.6550 H     1 <1>   0.0800 
 23 H       -9.5770     1.2920     0.9010 H     1 <1>   0.0800 
 24 H      -15.0370    -3.0490    -0.1170 H     1 <1>   0.1500 
 25 H      -12.3420    -2.1690     2.1110 H     1 <1>   0.0800 
 26 H      -11.9240    -3.1340     0.7110 H     1 <1>   0.0800 
 27 H      -13.4060    -3.4410     1.5820 H     1 <1>   0.0800 
 28 H      -15.3870     0.7900    -1.8960 H     1 <1>   0.1500 
 29 H      -12.7560     2.3230     0.0310 H     1 <1>   0.0800 
 30 H      -13.9530     2.5700    -1.2080 H     1 <1>   0.0800 
 31 H      -12.3830     1.9360    -1.6350 H     1 <1>   0.0800 
 32 H       -8.1740     0.5450    -0.9930 H     1 <1>   0.0800 
 33 H       -7.9990    -1.0260    -0.2380 H     1 <1>   0.0800 
 34 H      -16.2440    -1.4740    -1.5480 H     1 <1>   0.1500 
 35 H       -6.8460     0.0130     1.6850 H     1 <1>   0.0800 
 36 H       -7.1260     1.5940     1.0020 H     1 <1>   0.0800 
 37 H       -5.8470     0.8230    -0.9660 H     1 <1>   0.4500 
 38 H       -5.9810    -1.5650    -0.5910 H     1 <1>   0.0800 
 39 H       -4.9490    -1.3540     0.8040 H     1 <1>   0.0800 
 40 H       -4.3530     0.9420     1.5630 H     1 <1>   0.0800 
 41 H       -4.9780     2.3290     0.7010 H     1 <1>   0.0800 
 42 H       -4.2540    -0.7030    -2.0700 H     1 <1>   0.0800 
 43 H       -3.6160    -2.0130    -1.1310 H     1 <1>   0.0800 
 44 H       -2.6030     1.9100     0.1650 H     1 <1>   0.0800 
 45 H       -3.6090     1.8010    -1.2430 H     1 <1>   0.0800 
 46 H       -2.0420    -0.0660    -1.2720 H     1 <1>   0.0800 
 47 H       -2.4560    -0.4990     0.3620 H     1 <1>   0.0800 
@<TRIPOS>BOND
  1   1   2  1   
  2   1   3  1   
  3   2   4  ar  
  4   2   5  ar  
  5   3   6  1   
  6   3  20  1   
  7   3  21  1   
  8   4   7  ar  
  9   4   8  1   
 10   5   9  ar  
 11   5  10  1   
 12   6  11  1   
 13   6  22  1   
 14   6  23  1   
 15   7  12  ar  
 16   7  24  1   
 17   8  25  1   
 18   8  26  1   
 19   8  27  1   
 20   9  12  ar  
 21   9  28  1   
 22  10  29  1   
 23  10  30  1   
 24  10  31  1   
 25  11  13  1   
 26  11  32  1   
 27  11  33  1   
 28  12  34  1   
 29  13  14  1   
 30  13  35  1   
 31  13  36  1   
 32  14  15  1   
 33  14  16  1   
 34  14  37  1   
 35  15  17  1   
 36  15  38  1   
 37  15  39  1   
 38  16  18  1   
 39  16  40  1   
 40  16  41  1   
 41  17  19  1   
 42  17  42  1   
 43  17  43  1   
 44  18  19  1   
 45  18  44  1   
 46  18  45  1   
 47  19  46  1   
 48  19  47  1   
@<TRIPOS>SUBSTRUCTURE
  1 ****   6 GROUP 4 **** **** 0

# MOE 2024.06 (io_trps.svl 2023.06)
