@<TRIPOS>MOLECULE
NONAME
30 30 1 0 0 
SMALL
USER_CHARGES


@<TRIPOS>ATOM
  1 S        0.0740    -0.6840     1.0180 S.o2  1 <1>   1.4470 
  2 O        0.9850    -1.7940     1.2010 O.2   1 <1>  -0.6500 
  3 O        0.1270     0.4300     1.9380 O.2   1 <1>  -0.6500 
  4 N        0.3620    -0.0670    -0.5410 N.am  1 <1>  -0.8490 
  5 C       -1.6350    -1.2970     0.9330 C.ar  1 <1>  -0.0090 
  6 C        1.5300     0.8150    -0.5750 C.3   1 <1>   0.1160 
  7 C        0.4880    -1.1130    -1.5610 C.3   1 <1>   0.1160 
  8 C       -2.6160    -0.6020     0.2380 C.ar  1 <1>  -0.1500 
  9 C       -2.0050    -2.4700     1.5780 C.ar  1 <1>  -0.1500 
 10 C       -3.9380    -1.0390     0.1580 C.ar  1 <1>   0.0860 
 11 C       -3.3060    -2.9350     1.5190 C.ar  1 <1>  -0.1500 
 12 C       -4.9280    -0.2810    -0.5870 C.2   1 <1>   0.5440 
 13 C       -4.2590    -2.2280     0.8130 C.ar  1 <1>  -0.1500 
 14 O       -4.6110     0.3280    -1.5890 O.2   1 <1>  -0.5700 
 15 N       -6.2290    -0.2320    -0.1650 N.am  1 <1>  -0.7300 
 16 C       -7.3280     0.5020    -0.8440 C.3   1 <1>   0.0600 
 17 H        1.3860     1.6420     0.1020 H     1 <1>   0.0800 
 18 H        1.6670     1.2130    -1.5660 H     1 <1>   0.0800 
 19 H        2.4160     0.2770    -0.2810 H     1 <1>   0.0800 
 20 H       -0.3920    -1.7330    -1.5670 H     1 <1>   0.0800 
 21 H        1.3480    -1.7310    -1.3650 H     1 <1>   0.0800 
 22 H        0.5910    -0.6660    -2.5350 H     1 <1>   0.0800 
 23 H       -2.3500     0.3140    -0.2650 H     1 <1>   0.1500 
 24 H       -1.2640    -3.0260     2.1300 H     1 <1>   0.1500 
 25 H       -3.5720    -3.8500     2.0220 H     1 <1>   0.1500 
 26 H       -5.2650    -2.6070     0.7620 H     1 <1>   0.1500 
 27 H       -6.4660    -0.6470     0.7380 H     1 <1>   0.3700 
 28 H       -6.9940     0.8870    -1.7930 H     1 <1>   0.0800 
 29 H       -7.6470     1.3270    -0.2310 H     1 <1>   0.0800 
 30 H       -8.1590    -0.1600    -1.0130 H     1 <1>   0.0800 
@<TRIPOS>BOND
  1   1   2  2   
  2   1   3  2   
  3   1   4  am  
  4   1   5  1   
  5   4   6  1   
  6   4   7  1   
  7   5   8  ar  
  8   5   9  ar  
  9   6  17  1   
 10   6  18  1   
 11   6  19  1   
 12   7  20  1   
 13   7  21  1   
 14   7  22  1   
 15   8  10  ar  
 16   8  23  1   
 17   9  11  ar  
 18   9  24  1   
 19  10  12  1   
 20  10  13  ar  
 21  11  13  ar  
 22  11  25  1   
 23  12  14  2   
 24  12  15  am  
 25  13  26  1   
 26  15  16  1   
 27  15  27  1   
 28  16  28  1   
 29  16  29  1   
 30  16  30  1   
@<TRIPOS>SUBSTRUCTURE
  1 ****   8 GROUP 4 **** **** 0

# MOE 2024.06 (io_trps.svl 2023.06)
