@<TRIPOS>MOLECULE
NONAME
27 27 1 0 0 
SMALL
USER_CHARGES


@<TRIPOS>ATOM
  1 S       -0.2310     0.1870     0.3220 S.o2  1 <1>   1.4470 
  2 O       -0.4640     0.9290    -0.8940 O.2   1 <1>  -0.6500 
  3 O       -0.3500     0.8240     1.6110 O.2   1 <1>  -0.6500 
  4 N       -1.4100    -1.0040     0.4150 N.am  1 <1>  -0.9140 
  5 C        1.3170    -0.7380     0.1910 C.ar  1 <1>  -0.0090 
  6 C       -2.6980    -0.5720    -0.1300 C.3   1 <1>   0.1960 
  7 C        2.5300    -0.0970     0.4030 C.ar  1 <1>   0.1900 
  8 C        1.3680    -2.0890    -0.1430 C.ar  1 <1>  -0.1500 
  9 C       -3.7490    -1.6650     0.0650 C.3   1 <1>   0.1200 
 10 F        2.5340     1.1740     0.7000 F     1 <1>  -0.1900 
 11 C        3.7600    -0.7320     0.3150 C.ar  1 <1>  -0.1500 
 12 C        2.5940    -2.7270    -0.2320 C.ar  1 <1>   0.1900 
 13 O       -4.9760    -1.1860    -0.3860 O.3   1 <1>  -0.5600 
 14 C        3.7940    -2.0770    -0.0080 C.ar  1 <1>  -0.1500 
 15 F        2.6170    -3.9950    -0.5400 F     1 <1>  -0.1900 
 16 C       -6.0150    -2.1060    -0.2910 C.3   1 <1>   0.0400 
 17 H       -1.5380    -1.0910     1.4230 H     1 <1>   0.4200 
 18 H       -2.5990    -0.3710    -1.1840 H     1 <1>   0.0800 
 19 H       -3.0200     0.3290     0.3680 H     1 <1>   0.0800 
 20 H        0.4700    -2.6490    -0.3370 H     1 <1>   0.1500 
 21 H       -3.8460    -1.9150     1.1070 H     1 <1>   0.0800 
 22 H       -3.4870    -2.5370    -0.5100 H     1 <1>   0.0800 
 23 H        4.6660    -0.1790     0.4940 H     1 <1>   0.1500 
 24 H        4.7240    -2.6120    -0.0880 H     1 <1>   0.1500 
 25 H       -6.9100    -1.6390    -0.6610 H     1 <1>   0.0800 
 26 H       -6.1510    -2.3850     0.7400 H     1 <1>   0.0800 
 27 H       -5.7820    -2.9690    -0.8910 H     1 <1>   0.0800 
@<TRIPOS>BOND
  1   1   2  2   
  2   1   3  2   
  3   1   4  am  
  4   1   5  1   
  5   4   6  1   
  6   4  17  1   
  7   5   7  ar  
  8   5   8  ar  
  9   6   9  1   
 10   6  18  1   
 11   6  19  1   
 12   7  10  1   
 13   7  11  ar  
 14   8  12  ar  
 15   8  20  1   
 16   9  13  1   
 17   9  21  1   
 18   9  22  1   
 19  11  14  ar  
 20  11  23  1   
 21  12  14  ar  
 22  12  15  1   
 23  13  16  1   
 24  14  24  1   
 25  16  25  1   
 26  16  26  1   
 27  16  27  1   
@<TRIPOS>SUBSTRUCTURE
  1 ****   1 GROUP 4 **** **** 0

# MOE 2024.06 (io_trps.svl 2023.06)
