@<TRIPOS>MOLECULE
NONAME
34 34 1 0 0 
SMALL
USER_CHARGES


@<TRIPOS>ATOM
  1 O       -0.3480     1.1740     1.6770 O.2   1 <1>  -0.5700 
  2 C        0.0910     1.5870     0.6320 C.2   1 <1>   0.5690 
  3 N        1.4180     1.6450     0.3810 N.am  1 <1>  -0.7300 
  4 C       -0.8680     2.0650    -0.4420 C.3   1 <1>  -0.0990 
  5 C        2.4670     1.3180     1.3490 C.3   1 <1>   0.3640 
  6 C       -0.9250     1.1180    -1.6510 C.3   1 <1>  -0.2400 
  7 C        3.6890     2.1690     1.0210 C.ar  1 <1>  -0.1440 
  8 C        2.7670    -0.1770     1.2740 C.3   1 <1>  -0.2400 
  9 C        4.3750     2.0250    -0.1770 C.ar  1 <1>  -0.1500 
 10 C        4.1270     3.1180     1.9300 C.ar  1 <1>  -0.1500 
 11 C        5.4810     2.8080    -0.4710 C.ar  1 <1>  -0.1440 
 12 C        5.2290     3.9030     1.6450 C.ar  1 <1>  -0.1500 
 13 C        5.9130     3.7560     0.4490 C.ar  1 <1>  -0.1440 
 14 C        6.1980     2.6060    -1.7980 C.3   1 <1>  -0.0970 
 15 C        7.1220     4.6400     0.1750 C.3   1 <1>  -0.0970 
 16 H        1.7680     2.0700    -0.4760 H     1 <1>   0.3700 
 17 H       -0.5690     3.0470    -0.7600 H     1 <1>   0.0800 
 18 H       -1.8490     2.1460    -0.0090 H     1 <1>   0.0800 
 19 H        2.1150     1.5530     2.3400 H     1 <1>   0.0800 
 20 H        0.0410     1.0430    -2.1180 H     1 <1>   0.0800 
 21 H       -1.6320     1.4840    -2.3750 H     1 <1>   0.0800 
 22 H       -1.2320     0.1360    -1.3340 H     1 <1>   0.0800 
 23 H        3.0430    -0.4690     0.2780 H     1 <1>   0.0800 
 24 H        1.9000    -0.7340     1.5790 H     1 <1>   0.0800 
 25 H        3.5750    -0.4130     1.9410 H     1 <1>   0.0800 
 26 H        4.0440     1.2920    -0.8910 H     1 <1>   0.1500 
 27 H        3.6120     3.2540     2.8650 H     1 <1>   0.1500 
 28 H        5.5510     4.6330     2.3670 H     1 <1>   0.1500 
 29 H        5.7280     1.8350    -2.3800 H     1 <1>   0.0800 
 30 H        7.2190     2.3210    -1.6240 H     1 <1>   0.0800 
 31 H        6.1800     3.5170    -2.3690 H     1 <1>   0.0800 
 32 H        6.9550     5.2280    -0.7090 H     1 <1>   0.0800 
 33 H        7.9970     4.0330     0.0340 H     1 <1>   0.0800 
 34 H        7.3040     5.3090     0.9960 H     1 <1>   0.0800 
@<TRIPOS>BOND
  1   1   2  2   
  2   2   3  am  
  3   2   4  1   
  4   3   5  1   
  5   3  16  1   
  6   4   6  1   
  7   4  17  1   
  8   4  18  1   
  9   5   7  1   
 10   5   8  1   
 11   5  19  1   
 12   6  20  1   
 13   6  21  1   
 14   6  22  1   
 15   7   9  ar  
 16   7  10  ar  
 17   8  23  1   
 18   8  24  1   
 19   8  25  1   
 20   9  11  ar  
 21   9  26  1   
 22  10  12  ar  
 23  10  27  1   
 24  11  13  ar  
 25  11  14  1   
 26  12  13  ar  
 27  12  28  1   
 28  13  15  1   
 29  14  29  1   
 30  14  30  1   
 31  14  31  1   
 32  15  32  1   
 33  15  33  1   
 34  15  34  1   
@<TRIPOS>SUBSTRUCTURE
  1 ****   7 GROUP 4 **** **** 0

# MOE 2024.06 (io_trps.svl 2023.06)
