@<TRIPOS>MOLECULE
NONAME
34 37 1 0 0 
SMALL
USER_CHARGES


@<TRIPOS>ATOM
  1 O        5.7640    -1.2870    -0.0470 O.3   1 <1>  -0.2800 
  2 C        4.4800    -1.1800     0.3530 C.ar  1 <1>   0.1400 
  3 C        6.2130    -0.0370    -0.2290 C.ar  1 <1>   0.1400 
  4 C        3.5400    -2.1580     0.6840 C.ar  1 <1>   0.4100 
  5 C        4.1000     0.1300     0.4330 C.ar  1 <1>   0.2560 
  6 C        5.2270     0.8930     0.0500 C.ar  1 <1>   0.0000 
  7 C        7.4810     0.3420    -0.6420 C.ar  1 <1>  -0.1500 
  8 N        2.3310    -1.8120     1.0670 N.ar  1 <1>  -0.6200 
  9 N        3.7590    -3.5090     0.6600 N.pl3 1 <1>  -0.8690 
 10 N        2.8780     0.5050     0.8120 N.ar  1 <1>  -0.5660 
 11 C        5.5060     2.2520    -0.0840 C.ar  1 <1>  -0.1500 
 12 C        7.7520     1.6920    -0.7730 C.ar  1 <1>  -0.1500 
 13 C        2.0800    -0.5010     1.1060 C.ar  1 <1>   0.4700 
 14 C        4.6490    -4.2030    -0.2850 C.3   1 <1>   0.2890 
 15 C        6.7680     2.6410    -0.4950 C.ar  1 <1>  -0.1500 
 16 C        3.8310    -5.2310    -1.0560 C.3   1 <1>  -0.1600 
 17 C        5.6300    -5.0560     0.5070 C.3   1 <1>  -0.1600 
 18 C        3.7280    -6.4610    -0.1450 C.3   1 <1>  -0.1600 
 19 C        4.8680    -6.3340     0.8750 C.3   1 <1>  -0.1600 
 20 H        8.2230    -0.4070    -0.8490 H     1 <1>   0.1500 
 21 H        2.9530    -4.0660     0.9470 H     1 <1>   0.4000 
 22 H        4.7380     2.9730     0.1350 H     1 <1>   0.1500 
 23 H        8.7280     2.0180    -1.0910 H     1 <1>   0.1500 
 24 H        1.0840    -0.2350     1.4210 H     1 <1>   0.1500 
 25 H        5.1430    -3.5100    -0.9430 H     1 <1>   0.0800 
 26 H        6.9980     3.6880    -0.6020 H     1 <1>   0.1500 
 27 H        4.3770    -5.5010    -1.9420 H     1 <1>   0.0800 
 28 H        2.8690    -4.8480    -1.3490 H     1 <1>   0.0800 
 29 H        6.0080    -4.5350     1.3690 H     1 <1>   0.0800 
 30 H        6.4560    -5.3100    -0.1330 H     1 <1>   0.0800 
 31 H        3.8120    -7.3690    -0.7160 H     1 <1>   0.0800 
 32 H        2.7830    -6.4600     0.3700 H     1 <1>   0.0800 
 33 H        4.4550    -6.2330     1.8640 H     1 <1>   0.0800 
 34 H        5.5180    -7.1920     0.8550 H     1 <1>   0.0800 
@<TRIPOS>BOND
  1   1   2  1   
  2   1   3  1   
  3   2   4  ar  
  4   2   5  ar  
  5   3   6  ar  
  6   3   7  ar  
  7   4   8  ar  
  8   4   9  1   
  9   5   6  1   
 10   5  10  ar  
 11   6  11  ar  
 12   7  12  ar  
 13   7  20  1   
 14   8  13  ar  
 15   9  14  1   
 16   9  21  1   
 17  10  13  ar  
 18  11  15  ar  
 19  11  22  1   
 20  12  15  ar  
 21  12  23  1   
 22  13  24  1   
 23  14  16  1   
 24  14  17  1   
 25  14  25  1   
 26  15  26  1   
 27  16  18  1   
 28  16  27  1   
 29  16  28  1   
 30  17  19  1   
 31  17  29  1   
 32  17  30  1   
 33  18  19  1   
 34  18  31  1   
 35  18  32  1   
 36  19  33  1   
 37  19  34  1   
@<TRIPOS>SUBSTRUCTURE
  1 ****   2 GROUP 4 **** **** 0

# MOE 2024.06 (io_trps.svl 2023.06)
