@<TRIPOS>MOLECULE
NONAME
54 56 1 0 0 
SMALL
USER_CHARGES


@<TRIPOS>ATOM
  1 O       -0.2380    -1.0940    -2.0050 O.2   1 <1>  -0.5700 
  2 C       -0.1160    -1.6610    -0.9490 C.2   1 <1>   0.4950 
  3 C        1.1170    -1.7910    -0.2300 C.2   1 <1>  -0.1240 
  4 C       -1.3520    -2.3020    -0.3400 C.3   1 <1>  -0.0990 
  5 C        1.2490    -2.6260     0.8220 C.2   1 <1>  -0.0620 
  6 C        2.3280    -0.9690    -0.6810 C.3   1 <1>   0.1960 
  7 C       -1.0380    -3.6440     0.3570 C.3   1 <1>   0.0000 
  8 O        2.4100    -2.8200     1.4530 O.3   1 <1>  -0.1530 
  9 C        0.1030    -3.4550     1.3830 C.3   1 <1>  -0.0220 
 10 C        3.6270    -1.6450    -0.2110 C.2   1 <1>  -0.1240 
 11 C        2.2960     0.5010    -0.1580 C.3   1 <1>  -0.0800 
 12 C       -2.2980    -4.1550     1.0730 C.3   1 <1>  -0.2400 
 13 C       -0.6240    -4.6910    -0.6950 C.3   1 <1>  -0.2400 
 14 C        3.5710    -2.4890     0.8670 C.2   1 <1>   0.1770 
 15 C        4.7970    -1.2960    -0.9480 C.2   1 <1>   0.7060 
 16 C        2.2290     0.6080     1.3820 C.3   1 <1>  -0.1600 
 17 C        1.1760     1.3550    -0.7840 C.3   1 <1>  -0.1600 
 18 N        4.6360    -3.0970     1.4630 N.pl3 1 <1>  -0.9000 
 19 O        4.7830    -0.5580    -1.9220 O.2   1 <1>  -0.5700 
 20 O        5.9890    -1.7920    -0.5750 O.3   1 <1>  -0.4300 
 21 C        2.3020     2.0680     1.8500 C.3   1 <1>  -0.1600 
 22 C        1.2670     2.8180    -0.3320 C.3   1 <1>  -0.1600 
 23 C        7.1710    -1.4780    -1.2780 C.3   1 <1>   0.1200 
 24 C        1.2100     2.9230     1.1960 C.3   1 <1>  -0.1600 
 25 C        8.3290    -2.2000    -0.5960 C.3   1 <1>  -0.2400 
 26 H       -2.0850    -2.4500    -1.1120 H     1 <1>   0.0800 
 27 H       -1.7620    -1.6070     0.3700 H     1 <1>   0.0800 
 28 H        2.3260    -0.9550    -1.7580 H     1 <1>   0.0800 
 29 H       -0.2660    -2.9540     2.2620 H     1 <1>   0.0800 
 30 H        0.4720    -4.4180     1.6900 H     1 <1>   0.0800 
 31 H        3.2210     0.9580    -0.4650 H     1 <1>   0.0800 
 32 H       -2.6310    -3.4480     1.8130 H     1 <1>   0.0800 
 33 H       -2.0990    -5.0910     1.5660 H     1 <1>   0.0800 
 34 H       -3.0980    -4.3080     0.3700 H     1 <1>   0.0800 
 35 H        0.2750    -4.3980    -1.2080 H     1 <1>   0.0800 
 36 H       -1.4010    -4.8180    -1.4280 H     1 <1>   0.0800 
 37 H       -0.4440    -5.6440    -0.2300 H     1 <1>   0.0800 
 38 H        3.0440     0.0680     1.8300 H     1 <1>   0.0800 
 39 H        1.3110     0.1720     1.7380 H     1 <1>   0.0800 
 40 H        0.2130     0.9760    -0.4910 H     1 <1>   0.0800 
 41 H        1.2380     1.3100    -1.8580 H     1 <1>   0.0800 
 42 H        5.5930    -2.9660     1.1100 H     1 <1>   0.4000 
 43 H        4.5320    -3.7300     2.2600 H     1 <1>   0.4000 
 44 H        3.2680     2.4730     1.5970 H     1 <1>   0.0800 
 45 H        2.1990     2.1090     2.9200 H     1 <1>   0.0800 
 46 H        0.4560     3.3790    -0.7630 H     1 <1>   0.0800 
 47 H        2.1890     3.2460    -0.6880 H     1 <1>   0.0800 
 48 H        7.3110    -0.4100    -1.2520 H     1 <1>   0.0800 
 49 H        7.0590    -1.8040    -2.2980 H     1 <1>   0.0800 
 50 H        1.3300     3.9510     1.4920 H     1 <1>   0.0800 
 51 H        0.2450     2.5910     1.5390 H     1 <1>   0.0800 
 52 H        8.4240    -1.8700     0.4230 H     1 <1>   0.0800 
 53 H        9.2460    -1.9790    -1.1130 H     1 <1>   0.0800 
 54 H        8.1710    -3.2630    -0.6210 H     1 <1>   0.0800 
@<TRIPOS>BOND
  1   1   2  2   
  2   2   3  1   
  3   2   4  1   
  4   3   5  2   
  5   3   6  1   
  6   4   7  1   
  7   4  26  1   
  8   4  27  1   
  9   5   8  1   
 10   5   9  1   
 11   6  10  1   
 12   6  11  1   
 13   6  28  1   
 14   7   9  1   
 15   7  12  1   
 16   7  13  1   
 17   8  14  1   
 18   9  29  1   
 19   9  30  1   
 20  10  14  2   
 21  10  15  1   
 22  11  16  1   
 23  11  17  1   
 24  11  31  1   
 25  12  32  1   
 26  12  33  1   
 27  12  34  1   
 28  13  35  1   
 29  13  36  1   
 30  13  37  1   
 31  14  18  1   
 32  15  19  2   
 33  15  20  1   
 34  16  21  1   
 35  16  38  1   
 36  16  39  1   
 37  17  22  1   
 38  17  40  1   
 39  17  41  1   
 40  18  42  1   
 41  18  43  1   
 42  20  23  1   
 43  21  24  1   
 44  21  44  1   
 45  21  45  1   
 46  22  24  1   
 47  22  46  1   
 48  22  47  1   
 49  23  25  1   
 50  23  48  1   
 51  23  49  1   
 52  24  50  1   
 53  24  51  1   
 54  25  52  1   
 55  25  53  1   
 56  25  54  1   
@<TRIPOS>SUBSTRUCTURE
  1 ****   6 GROUP 4 **** **** 0

# MOE 2024.06 (io_trps.svl 2023.06)
