@<TRIPOS>MOLECULE
NONAME
44 46 1 0 0 
SMALL
USER_CHARGES


@<TRIPOS>ATOM
  1 F       -3.5950     1.5350    -3.6990 F     1 <1>  -0.1900 
  2 C       -3.3930     1.6120    -2.4120 C.ar  1 <1>   0.1900 
  3 C       -4.2750     0.9690    -1.5640 C.ar  1 <1>  -0.1500 
  4 C       -2.3110     2.3320    -1.9480 C.ar  1 <1>  -0.1500 
  5 C       -4.0690     1.0540    -0.1930 C.ar  1 <1>  -0.1440 
  6 C       -2.1060     2.4090    -0.5810 C.ar  1 <1>  -0.1500 
  7 C       -2.9790     1.7720     0.2890 C.ar  1 <1>  -0.1500 
  8 C       -5.0250     0.3750     0.7710 C.3   1 <1>   0.4870 
  9 N       -6.3250     1.0910     0.7500 N.4   1 <1>  -0.9590 
 10 C       -6.2430     2.5630     1.0410 C.3   1 <1>   0.3430 
 11 C       -7.4020     0.4360     1.5640 C.3   1 <1>   0.3430 
 12 C       -7.6030     3.2540     0.7580 C.3   1 <1>   0.1100 
 13 C       -8.7400     1.2050     1.4410 C.3   1 <1>   0.1100 
 14 N       -8.6590     2.2750     0.4160 N.3   1 <1>  -0.8100 
 15 C       -9.9800     2.9040     0.1110 C.3   1 <1>   0.1710 
 16 C      -11.0620     1.9800    -0.4860 C.2   1 <1>   0.5690 
 17 O      -10.7680     0.8780    -0.8940 O.2   1 <1>  -0.5700 
 18 N      -12.3430     2.4410    -0.5290 N.am  1 <1>  -0.5790 
 19 C      -13.4960     1.7000    -1.0610 C.3   1 <1>   0.0490 
 20 C      -14.5670     2.4740    -1.7560 C.3   1 <1>  -0.2000 
 21 C      -14.8200     1.8910    -0.3980 C.3   1 <1>  -0.2000 
 22 H       -5.0960     0.4180    -1.9890 H     1 <1>   0.1500 
 23 H       -1.6470     2.8170    -2.6420 H     1 <1>   0.1500 
 24 H       -1.2640     2.9610    -0.1970 H     1 <1>   0.1500 
 25 H       -2.7920     1.8440     1.3480 H     1 <1>   0.1500 
 26 H       -4.6110     0.3880     1.7660 H     1 <1>   0.0800 
 27 H       -5.1640    -0.6510     0.4720 H     1 <1>   0.0800 
 28 H       -6.7040     1.0690    -0.2100 H     1 <1>   0.4500 
 29 H       -5.4870     3.0240     0.4260 H     1 <1>   0.0800 
 30 H       -5.9700     2.7200     2.0710 H     1 <1>   0.0800 
 31 H       -7.1130     0.3890     2.6010 H     1 <1>   0.0800 
 32 H       -7.5550    -0.5730     1.2180 H     1 <1>   0.0800 
 33 H       -7.4760     3.9390    -0.0630 H     1 <1>   0.0800 
 34 H       -7.8950     3.8300     1.6200 H     1 <1>   0.0800 
 35 H       -8.9990     1.6320     2.3960 H     1 <1>   0.0800 
 36 H       -9.5100     0.4970     1.1870 H     1 <1>   0.0800 
 37 H       -9.8220     3.6930    -0.6020 H     1 <1>   0.0800 
 38 H      -10.3730     3.3460     1.0090 H     1 <1>   0.0800 
 39 H      -12.5700     3.3780    -0.1970 H     1 <1>   0.3700 
 40 H      -13.2420     0.7200    -1.4360 H     1 <1>   0.1000 
 41 H      -15.0600     2.0250    -2.6010 H     1 <1>   0.1000 
 42 H      -14.4620     3.5390    -1.8580 H     1 <1>   0.1000 
 43 H      -14.8920     2.5490     0.4490 H     1 <1>   0.1000 
 44 H      -15.4850     1.0480    -0.3250 H     1 <1>   0.1000 
@<TRIPOS>BOND
  1   1   2  1   
  2   2   3  ar  
  3   2   4  ar  
  4   3   5  ar  
  5   3  22  1   
  6   4   6  ar  
  7   4  23  1   
  8   5   7  ar  
  9   5   8  1   
 10   6   7  ar  
 11   6  24  1   
 12   7  25  1   
 13   8   9  1   
 14   8  26  1   
 15   8  27  1   
 16   9  10  1   
 17   9  11  1   
 18   9  28  1   
 19  10  12  1   
 20  10  29  1   
 21  10  30  1   
 22  11  13  1   
 23  11  31  1   
 24  11  32  1   
 25  12  14  1   
 26  12  33  1   
 27  12  34  1   
 28  13  14  1   
 29  13  35  1   
 30  13  36  1   
 31  14  15  1   
 32  15  16  1   
 33  15  37  1   
 34  15  38  1   
 35  16  17  2   
 36  16  18  am  
 37  18  19  1   
 38  18  39  1   
 39  19  20  1   
 40  19  21  1   
 41  19  40  1   
 42  20  21  1   
 43  20  41  1   
 44  20  42  1   
 45  21  43  1   
 46  21  44  1   
@<TRIPOS>SUBSTRUCTURE
  1 ****  14 GROUP 4 **** **** 0

# MOE 2024.06 (io_trps.svl 2023.06)
