@<TRIPOS>MOLECULE
NONAME
37 37 1 0 0 
SMALL
USER_CHARGES


@<TRIPOS>ATOM
  1 O       -3.4780     1.2980     1.4340 O.2   1 <1>  -0.5700 
  2 C       -2.8250     1.6280     0.4630 C.2   1 <1>   0.5440 
  3 N       -2.5850     0.7090    -0.5250 N.am  1 <1>  -0.7300 
  4 C       -2.3220     2.9840     0.3410 C.ar  1 <1>   0.0860 
  5 C       -2.9520    -0.7290    -0.5560 C.3   1 <1>   0.2200 
  6 C       -1.1820     3.2880    -0.4030 C.ar  1 <1>  -0.1500 
  7 C       -2.9650     4.0470     0.9720 C.ar  1 <1>  -0.1500 
  8 C       -4.4330    -0.9610    -0.2060 C.3   1 <1>   0.1200 
  9 C       -2.0040    -1.4950     0.3670 C.3   1 <1>  -0.2400 
 10 C       -0.7060     4.5800    -0.5360 C.ar  1 <1>   0.0830 
 11 C       -2.5140     5.3480     0.8490 C.ar  1 <1>  -0.1500 
 12 O       -4.7910    -2.2680    -0.5490 O.3   1 <1>  -0.5600 
 13 O        0.4210     4.6930    -1.2950 O.3   1 <1>  -0.3630 
 14 C       -1.3860     5.6410     0.0860 C.ar  1 <1>   0.0830 
 15 C       -6.0950    -2.5970    -0.1990 C.3   1 <1>   0.0400 
 16 C        1.3780     5.6990    -1.0450 C.3   1 <1>   0.0400 
 17 O       -0.9540     6.9210    -0.0740 O.3   1 <1>  -0.3620 
 18 C       -1.6500     8.0320     0.4470 C.3   1 <1>   0.0400 
 19 H       -2.0700     1.0200    -1.3490 H     1 <1>   0.3700 
 20 H       -2.8080    -1.0770    -1.5650 H     1 <1>   0.0800 
 21 H       -0.6350     2.5010    -0.8870 H     1 <1>   0.1500 
 22 H       -3.8390     3.8420     1.5680 H     1 <1>   0.1500 
 23 H       -5.0540    -0.2830    -0.7630 H     1 <1>   0.0800 
 24 H       -4.5940    -0.8280     0.8500 H     1 <1>   0.0800 
 25 H       -2.1350    -1.1730     1.3850 H     1 <1>   0.0800 
 26 H       -2.2190    -2.5470     0.3140 H     1 <1>   0.0800 
 27 H       -0.9840    -1.3380     0.0700 H     1 <1>   0.0800 
 28 H       -3.0610     6.1180     1.3580 H     1 <1>   0.1500 
 29 H       -6.2790    -3.6120    -0.5060 H     1 <1>   0.0800 
 30 H       -6.7770    -1.9350    -0.7050 H     1 <1>   0.0800 
 31 H       -6.2080    -2.5140     0.8680 H     1 <1>   0.0800 
 32 H        2.3060     5.3980    -1.4960 H     1 <1>   0.0800 
 33 H        1.5030     5.8110     0.0180 H     1 <1>   0.0800 
 34 H        1.0400     6.6180    -1.4890 H     1 <1>   0.0800 
 35 H       -1.1270     8.9230     0.1500 H     1 <1>   0.0800 
 36 H       -1.6700     7.9610     1.5200 H     1 <1>   0.0800 
 37 H       -2.6460     8.0420     0.0400 H     1 <1>   0.0800 
@<TRIPOS>BOND
  1   1   2  2   
  2   2   3  am  
  3   2   4  1   
  4   3   5  1   
  5   3  19  1   
  6   4   6  ar  
  7   4   7  ar  
  8   5   8  1   
  9   5   9  1   
 10   5  20  1   
 11   6  10  ar  
 12   6  21  1   
 13   7  11  ar  
 14   7  22  1   
 15   8  12  1   
 16   8  23  1   
 17   8  24  1   
 18   9  25  1   
 19   9  26  1   
 20   9  27  1   
 21  10  13  1   
 22  10  14  ar  
 23  11  14  ar  
 24  11  28  1   
 25  12  15  1   
 26  13  16  1   
 27  14  17  1   
 28  15  29  1   
 29  15  30  1   
 30  15  31  1   
 31  16  32  1   
 32  16  33  1   
 33  16  34  1   
 34  17  18  1   
 35  18  35  1   
 36  18  36  1   
 37  18  37  1   
@<TRIPOS>SUBSTRUCTURE
  1 ****   4 GROUP 4 **** **** 0

# MOE 2024.06 (io_trps.svl 2023.06)
