@<TRIPOS>MOLECULE
NONAME
41 42 1 0 0 
SMALL
USER_CHARGES


@<TRIPOS>ATOM
  1 O       -1.6260     0.6730     0.8550 O.3   1 <1>  -0.3630 
  2 C       -0.8990     1.7370     0.4170 C.ar  1 <1>   0.0830 
  3 C       -1.0280    -0.3550     1.6200 C.3   1 <1>   0.0400 
  4 C       -1.4970     2.5910    -0.5060 C.ar  1 <1>  -0.1440 
  5 C        0.3950     2.0010     0.8580 C.ar  1 <1>  -0.1500 
  6 C       -0.8020     3.6920    -0.9820 C.ar  1 <1>  -0.1500 
  7 C       -2.9060     2.3130    -0.9930 C.3   1 <1>   0.4870 
  8 C        1.0800     3.1040     0.3810 C.ar  1 <1>  -0.1500 
  9 C        0.4830     3.9480    -0.5380 C.ar  1 <1>  -0.1500 
 10 N       -3.8300     2.3390     0.1770 N.4   1 <1>  -0.9590 
 11 C       -5.1720     1.7390    -0.0960 C.3   1 <1>   0.4230 
 12 C       -3.8670     3.7180     0.7650 C.3   1 <1>   0.2630 
 13 C       -6.0590     1.8240     1.1620 C.3   1 <1>  -0.1600 
 14 C       -5.0140     0.2680    -0.5320 C.3   1 <1>  -0.1600 
 15 C       -7.4090     1.1170     0.9740 C.3   1 <1>  -0.1600 
 16 C       -6.3660    -0.4360    -0.7140 C.3   1 <1>  -0.1600 
 17 C       -7.2180    -0.3420     0.5540 C.3   1 <1>  -0.1600 
 18 H       -0.7170     0.0460     2.5690 H     1 <1>   0.0800 
 19 H       -0.1860    -0.7510     1.0790 H     1 <1>   0.0800 
 20 H       -1.7560    -1.1310     1.7750 H     1 <1>   0.0800 
 21 H        0.8880     1.3680     1.5710 H     1 <1>   0.1500 
 22 H       -1.2440     4.3610    -1.7020 H     1 <1>   0.1500 
 23 H       -2.9070     1.3420    -1.4570 H     1 <1>   0.0800 
 24 H       -3.2030     3.0460    -1.7250 H     1 <1>   0.0800 
 25 H        2.0810     3.3060     0.7220 H     1 <1>   0.1500 
 26 H        1.0240     4.8040    -0.9080 H     1 <1>   0.1500 
 27 H       -3.3520     1.7210     0.8550 H     1 <1>   0.4500 
 28 H       -5.6570     2.2840    -0.8900 H     1 <1>   0.0800 
 29 H       -4.3730     4.3970     0.0990 H     1 <1>   0.0800 
 30 H       -2.8660     4.0810     0.9340 H     1 <1>   0.0800 
 31 H       -4.3810     3.7110     1.7120 H     1 <1>   0.0800 
 32 H       -6.2710     2.8490     1.4060 H     1 <1>   0.0800 
 33 H       -5.5490     1.3690     1.9940 H     1 <1>   0.0800 
 34 H       -4.4460    -0.2680     0.2080 H     1 <1>   0.0800 
 35 H       -4.5000     0.2010    -1.4720 H     1 <1>   0.0800 
 36 H       -7.9870     1.6310     0.2240 H     1 <1>   0.0800 
 37 H       -7.9680     1.1520     1.8950 H     1 <1>   0.0800 
 38 H       -6.2040    -1.4730    -0.9580 H     1 <1>   0.0800 
 39 H       -6.9020     0.0110    -1.5360 H     1 <1>   0.0800 
 40 H       -8.1790    -0.7950     0.3780 H     1 <1>   0.0800 
 41 H       -6.7420    -0.8890     1.3510 H     1 <1>   0.0800 
@<TRIPOS>BOND
  1   1   2  1   
  2   1   3  1   
  3   2   4  ar  
  4   2   5  ar  
  5   3  18  1   
  6   3  19  1   
  7   3  20  1   
  8   4   6  ar  
  9   4   7  1   
 10   5   8  ar  
 11   5  21  1   
 12   6   9  ar  
 13   6  22  1   
 14   7  10  1   
 15   7  23  1   
 16   7  24  1   
 17   8   9  ar  
 18   8  25  1   
 19   9  26  1   
 20  10  11  1   
 21  10  12  1   
 22  10  27  1   
 23  11  13  1   
 24  11  14  1   
 25  11  28  1   
 26  12  29  1   
 27  12  30  1   
 28  12  31  1   
 29  13  15  1   
 30  13  32  1   
 31  13  33  1   
 32  14  16  1   
 33  14  34  1   
 34  14  35  1   
 35  15  17  1   
 36  15  36  1   
 37  15  37  1   
 38  16  17  1   
 39  16  38  1   
 40  16  39  1   
 41  17  40  1   
 42  17  41  1   
@<TRIPOS>SUBSTRUCTURE
  1 ****  10 GROUP 4 **** **** 0

# MOE 2024.06 (io_trps.svl 2023.06)
