@<TRIPOS>MOLECULE
NONAME
38 39 1 0 0 
SMALL
USER_CHARGES


@<TRIPOS>ATOM
  1 O       -0.0590     1.2410     1.9620 O.2   1 <1>  -0.5700 
  2 C        0.2840     1.8620     0.9850 C.2   1 <1>   0.5770 
  3 N        1.5870     1.9520     0.6220 N.am  1 <1>  -0.7300 
  4 C       -0.7640     2.5840     0.1470 C.3   1 <1>   0.0530 
  5 C        2.7130     1.4060     1.3800 C.3   1 <1>   0.3640 
  6 C       -2.0880     1.8030    -0.0740 C.3   1 <1>   0.0000 
  7 C       -0.5590     2.5030    -1.3910 C.3   1 <1>   0.0000 
  8 C        3.9580     2.2470     1.0780 C.ar  1 <1>  -0.1440 
  9 C        2.8800    -0.0840     1.0820 C.3   1 <1>  -0.2400 
 10 C       -2.1000     2.3880    -1.5100 C.3   1 <1>   0.0000 
 11 C        4.5830     2.3540    -0.1700 C.ar  1 <1>  -0.1430 
 12 C        4.4860     2.9610     2.1470 C.ar  1 <1>  -0.1500 
 13 C        5.7060     3.1590    -0.3030 C.ar  1 <1>  -0.1500 
 14 C        4.1220     1.6270    -1.4290 C.3   1 <1>  -0.0970 
 15 C        5.6030     3.7610     2.0000 C.ar  1 <1>  -0.1500 
 16 C        6.2210     3.8650     0.7690 C.ar  1 <1>  -0.1430 
 17 C        7.4510     4.7370     0.5940 C.3   1 <1>  -0.0970 
 18 H        1.8770     2.5720    -0.1320 H     1 <1>   0.3700 
 19 H       -0.9420     3.5940     0.4780 H     1 <1>   0.0000 
 20 H        2.4800     1.4960     2.4280 H     1 <1>   0.0800 
 21 H       -2.9030     2.1430     0.5410 H     1 <1>   0.0000 
 22 H       -1.9590     0.7340    -0.0680 H     1 <1>   0.0000 
 23 H       -0.0560     1.6050    -1.7090 H     1 <1>   0.0000 
 24 H       -0.1540     3.4000    -1.8250 H     1 <1>   0.0000 
 25 H        2.9330    -0.2800     0.0310 H     1 <1>   0.0800 
 26 H        2.0460    -0.6240     1.4920 H     1 <1>   0.0800 
 27 H        3.7780    -0.4440     1.5500 H     1 <1>   0.0800 
 28 H       -2.5860     3.3470    -1.5650 H     1 <1>   0.0000 
 29 H       -2.4290     1.6930    -2.2620 H     1 <1>   0.0000 
 30 H        4.0260     2.9030     3.1180 H     1 <1>   0.1500 
 31 H        6.1960     3.2390    -1.2570 H     1 <1>   0.1500 
 32 H        3.0540     1.5600    -1.4880 H     1 <1>   0.0800 
 33 H        4.5380     0.6360    -1.4450 H     1 <1>   0.0800 
 34 H        4.4590     2.1450    -2.3100 H     1 <1>   0.0800 
 35 H        5.9880     4.2990     2.8480 H     1 <1>   0.1500 
 36 H        8.3380     4.1360     0.6860 H     1 <1>   0.0800 
 37 H        7.4760     5.5100     1.3410 H     1 <1>   0.0800 
 38 H        7.4440     5.2030    -0.3750 H     1 <1>   0.0800 
@<TRIPOS>BOND
  1   1   2  2   
  2   2   3  am  
  3   2   4  1   
  4   3   5  1   
  5   3  18  1   
  6   4   6  1   
  7   4   7  1   
  8   4  19  1   
  9   5   8  1   
 10   5   9  1   
 11   5  20  1   
 12   6  10  1   
 13   6  21  1   
 14   6  22  1   
 15   7  10  1   
 16   7  23  1   
 17   7  24  1   
 18   8  11  ar  
 19   8  12  ar  
 20   9  25  1   
 21   9  26  1   
 22   9  27  1   
 23  10  28  1   
 24  10  29  1   
 25  11  13  ar  
 26  11  14  1   
 27  12  15  ar  
 28  12  30  1   
 29  13  16  ar  
 30  13  31  1   
 31  14  32  1   
 32  14  33  1   
 33  14  34  1   
 34  15  16  ar  
 35  15  35  1   
 36  16  17  1   
 37  17  36  1   
 38  17  37  1   
 39  17  38  1   
@<TRIPOS>SUBSTRUCTURE
  1 ****   3 GROUP 4 **** **** 0

# MOE 2024.06 (io_trps.svl 2023.06)
