@<TRIPOS>MOLECULE
NONAME
37 38 1 0 0 
SMALL
USER_CHARGES


@<TRIPOS>ATOM
  1 BR       0.0110     0.3880     0.6770 Br    1 <1>  -0.1110 
  2 C        1.6090    -0.6580     0.3830 C.ar  1 <1>   0.1110 
  3 C        1.6110    -2.0460     0.5150 C.ar  1 <1>   0.0820 
  4 C        2.7530     0.0450     0.0650 C.ar  1 <1>  -0.1500 
  5 O        0.5300    -2.8000     0.8160 O.3   1 <1>  -0.3630 
  6 C        2.8140    -2.7090     0.3380 C.ar  1 <1>  -0.1500 
  7 C        3.9680    -0.6170    -0.1200 C.ar  1 <1>   0.0860 
  8 C       -0.6390    -2.6940     0.0340 C.3   1 <1>   0.1200 
  9 C        3.9670    -2.0100     0.0220 C.ar  1 <1>  -0.1500 
 10 C        5.1720     0.1270    -0.4430 C.2   1 <1>   0.5440 
 11 C       -1.2520    -4.0860    -0.0860 C.3   1 <1>  -0.2400 
 12 O        5.0930     1.1630    -1.0700 O.2   1 <1>  -0.5700 
 13 N        6.3860    -0.3310    -0.0160 N.am  1 <1>  -0.4930 
 14 C        7.6690     0.1410    -0.2460 C.2   1 <1>   0.5790 
 15 N        8.0180     1.0810    -1.1220 N.2   1 <1>  -0.2270 
 16 N        8.6430    -0.3610     0.4120 N.2   1 <1>  -0.7070 
 17 N        9.2840     1.1970    -1.0220 N.2   1 <1>  -0.4180 
 18 N        9.6500     0.3280    -0.0970 N.pl3 1 <1>   0.5800 
 19 C       11.0510     0.1420     0.3310 C.3   1 <1>   0.0960 
 20 C       11.7220    -1.0110    -0.4320 C.3   1 <1>  -0.1600 
 21 C       13.1780    -1.2000     0.0100 C.3   1 <1>  -0.2400 
 22 H        2.7100     1.1160    -0.0370 H     1 <1>   0.1500 
 23 H        2.8360    -3.7800     0.4450 H     1 <1>   0.1500 
 24 H       -0.3820    -2.3060    -0.9370 H     1 <1>   0.0800 
 25 H       -1.3190    -2.0260     0.5320 H     1 <1>   0.0800 
 26 H        4.8770    -2.5630    -0.1280 H     1 <1>   0.1500 
 27 H       -0.5630    -4.7530    -0.5710 H     1 <1>   0.0800 
 28 H       -2.1530    -4.0370    -0.6710 H     1 <1>   0.0800 
 29 H       -1.4970    -4.4670     0.8890 H     1 <1>   0.0800 
 30 H        6.3940    -1.0940     0.6490 H     1 <1>   0.3700 
 31 H       11.0530    -0.0590     1.3860 H     1 <1>   0.0800 
 32 H       11.5790     1.0610     0.1540 H     1 <1>   0.0800 
 33 H       11.6980    -0.8020    -1.4890 H     1 <1>   0.0800 
 34 H       11.1780    -1.9230    -0.2530 H     1 <1>   0.0800 
 35 H       13.7500    -0.3080    -0.1790 H     1 <1>   0.0800 
 36 H       13.6250    -2.0120    -0.5380 H     1 <1>   0.0800 
 37 H       13.2290    -1.4310     1.0600 H     1 <1>   0.0800 
@<TRIPOS>BOND
  1   1   2  1   
  2   2   3  ar  
  3   2   4  ar  
  4   3   5  1   
  5   3   6  ar  
  6   4   7  ar  
  7   4  22  1   
  8   5   8  1   
  9   6   9  ar  
 10   6  23  1   
 11   7   9  ar  
 12   7  10  1   
 13   8  11  1   
 14   8  24  1   
 15   8  25  1   
 16   9  26  1   
 17  10  12  2   
 18  10  13  am  
 19  11  27  1   
 20  11  28  1   
 21  11  29  1   
 22  13  14  1   
 23  13  30  1   
 24  14  15  1   
 25  14  16  2   
 26  15  17  2   
 27  16  18  1   
 28  17  18  1   
 29  18  19  1   
 30  19  20  1   
 31  19  31  1   
 32  19  32  1   
 33  20  21  1   
 34  20  33  1   
 35  20  34  1   
 36  21  35  1   
 37  21  36  1   
 38  21  37  1   
@<TRIPOS>SUBSTRUCTURE
  1 ****  10 GROUP 4 **** **** 0

# MOE 2024.06 (io_trps.svl 2023.06)
