@<TRIPOS>MOLECULE
NONAME
37 38 1 0 0 
SMALL
USER_CHARGES


@<TRIPOS>ATOM
  1 O       -2.0630     1.7390     0.5580 O.3   1 <1>  -0.5600 
  2 C       -3.2160     0.9580     0.4350 C.3   1 <1>   0.1200 
  3 C       -2.0040     2.8410    -0.2990 C.3   1 <1>   0.1200 
  4 C       -4.4690     1.8060     0.7260 C.3   1 <1>   0.3430 
  5 C       -3.1980     3.7810    -0.0400 C.3   1 <1>   0.3430 
  6 N       -4.5110     3.0490    -0.1290 N.4   1 <1>  -0.9590 
  7 C       -5.6480     3.9480     0.2200 C.3   1 <1>   0.3430 
  8 C       -6.9750     3.2950    -0.1600 C.3   1 <1>  -0.1600 
  9 C       -8.1520     4.2400     0.0780 C.3   1 <1>   0.1200 
 10 O       -9.3120     3.5250    -0.2640 O.3   1 <1>  -0.3630 
 11 C      -10.5640     4.0390    -0.1540 C.ar  1 <1>   0.0820 
 12 C      -11.6340     3.1980    -0.4660 C.ar  1 <1>   0.0730 
 13 C      -10.8010     5.3500     0.2520 C.ar  1 <1>  -0.1500 
 14 C      -11.4110     1.8440    -0.8820 C.1   1 <1>   0.4840 
 15 C      -12.9290     3.6960    -0.3630 C.ar  1 <1>  -0.1500 
 16 C      -12.0960     5.8250     0.3480 C.ar  1 <1>  -0.1500 
 17 N      -11.2350     0.7640    -1.2100 N.1   1 <1>  -0.5570 
 18 C      -13.1610     4.9980     0.0400 C.ar  1 <1>  -0.1500 
 19 H       -3.1410     0.1510     1.1440 H     1 <1>   0.0800 
 20 H       -3.2480     0.5380    -0.5560 H     1 <1>   0.0800 
 21 H       -1.9940     2.4910    -1.3170 H     1 <1>   0.0800 
 22 H       -1.0780     3.3560    -0.1050 H     1 <1>   0.0800 
 23 H       -4.4560     2.0800     1.7680 H     1 <1>   0.0800 
 24 H       -5.3460     1.2050     0.5520 H     1 <1>   0.0800 
 25 H       -3.1750     4.5880    -0.7540 H     1 <1>   0.0800 
 26 H       -3.0830     4.2060     0.9440 H     1 <1>   0.0800 
 27 H       -4.6290     2.7450    -1.1050 H     1 <1>   0.4500 
 28 H       -5.5500     4.8770    -0.3200 H     1 <1>   0.0800 
 29 H       -5.6350     4.1680     1.2760 H     1 <1>   0.0800 
 30 H       -7.1370     2.4120     0.4320 H     1 <1>   0.0800 
 31 H       -6.9630     3.0280    -1.2030 H     1 <1>   0.0800 
 32 H       -8.0930     5.1120    -0.5520 H     1 <1>   0.0800 
 33 H       -8.2260     4.5260     1.1150 H     1 <1>   0.0800 
 34 H       -9.9980     6.0190     0.4970 H     1 <1>   0.1500 
 35 H      -13.7640     3.0580    -0.6010 H     1 <1>   0.1500 
 36 H      -12.2790     6.8390     0.6620 H     1 <1>   0.1500 
 37 H      -14.1700     5.3690     0.1150 H     1 <1>   0.1500 
@<TRIPOS>BOND
  1   1   2  1   
  2   1   3  1   
  3   2   4  1   
  4   2  19  1   
  5   2  20  1   
  6   3   5  1   
  7   3  21  1   
  8   3  22  1   
  9   4   6  1   
 10   4  23  1   
 11   4  24  1   
 12   5   6  1   
 13   5  25  1   
 14   5  26  1   
 15   6   7  1   
 16   6  27  1   
 17   7   8  1   
 18   7  28  1   
 19   7  29  1   
 20   8   9  1   
 21   8  30  1   
 22   8  31  1   
 23   9  10  1   
 24   9  32  1   
 25   9  33  1   
 26  10  11  1   
 27  11  12  ar  
 28  11  13  ar  
 29  12  14  1   
 30  12  15  ar  
 31  13  16  ar  
 32  13  34  1   
 33  14  17  3   
 34  15  18  ar  
 35  15  35  1   
 36  16  18  ar  
 37  16  36  1   
 38  18  37  1   
@<TRIPOS>SUBSTRUCTURE
  1 ****   8 GROUP 4 **** **** 0

# MOE 2024.06 (io_trps.svl 2023.06)
