@<TRIPOS>MOLECULE
NONAME
40 42 1 0 0 
SMALL
USER_CHARGES


@<TRIPOS>ATOM
  1 BR      -2.1220     0.5730     3.4430 Br    1 <1>  -0.1110 
  2 C       -2.5810     1.1780     1.6760 C.ar  1 <1>   0.1110 
  3 C       -3.6770     0.6160     1.0500 C.ar  1 <1>  -0.1500 
  4 C       -1.8070     2.1550     1.0820 C.ar  1 <1>  -0.1500 
  5 C       -4.0190     1.0560    -0.2220 C.ar  1 <1>  -0.1440 
  6 C       -2.1460     2.5810    -0.1900 C.ar  1 <1>  -0.1500 
  7 C       -3.2440     2.0340    -0.8370 C.ar  1 <1>  -0.1500 
  8 C       -5.2290     0.4790    -0.9320 C.3   1 <1>   0.4870 
  9 N       -6.4570     1.0270    -0.2930 N.4   1 <1>  -0.9590 
 10 C       -7.7060     0.3600    -0.8180 C.3   1 <1>   0.3430 
 11 C       -6.5400     2.5310    -0.4420 C.3   1 <1>   0.3430 
 12 C       -8.9940     0.9350    -0.1900 C.3   1 <1>   0.2090 
 13 C       -7.8190     3.1210     0.1870 C.3   1 <1>   0.2090 
 14 N       -9.0310     2.4190    -0.3280 N.pl3 1 <1>  -0.8380 
 15 C      -10.2530     3.0290    -0.0680 C.ar  1 <1>   0.1000 
 16 C      -10.9850     3.5640    -1.1230 C.ar  1 <1>  -0.1500 
 17 C      -10.7610     3.1140     1.2280 C.ar  1 <1>  -0.1500 
 18 C      -12.2060     4.1770    -0.8990 C.ar  1 <1>  -0.1500 
 19 C      -11.9800     3.7240     1.4680 C.ar  1 <1>  -0.1500 
 20 C      -12.6810     4.2450     0.3970 C.ar  1 <1>   0.1900 
 21 F      -13.8340     4.8220     0.6180 F     1 <1>  -0.1900 
 22 H       -4.2320    -0.1490     1.5640 H     1 <1>   0.1500 
 23 H       -0.9590     2.5670     1.6010 H     1 <1>   0.1500 
 24 H       -1.5510     3.3380    -0.6750 H     1 <1>   0.1500 
 25 H       -3.4800     2.3830    -1.8290 H     1 <1>   0.1500 
 26 H       -5.2120    -0.5950    -0.8470 H     1 <1>   0.0800 
 27 H       -5.2030     0.7400    -1.9780 H     1 <1>   0.0800 
 28 H       -6.3840     0.8340     0.7130 H     1 <1>   0.4500 
 29 H       -7.6670    -0.7000    -0.6270 H     1 <1>   0.0800 
 30 H       -7.7680     0.5020    -1.8840 H     1 <1>   0.0800 
 31 H       -6.5340     2.7900    -1.4870 H     1 <1>   0.0800 
 32 H       -5.6810     2.9940     0.0170 H     1 <1>   0.0800 
 33 H       -9.0490     0.6650     0.8510 H     1 <1>   0.0800 
 34 H       -9.8530     0.5130    -0.6860 H     1 <1>   0.0800 
 35 H       -7.8870     4.1680    -0.0560 H     1 <1>   0.0800 
 36 H       -7.7750     3.0340     1.2590 H     1 <1>   0.0800 
 37 H      -10.5900     3.4970    -2.1200 H     1 <1>   0.1500 
 38 H      -10.2020     2.7030     2.0480 H     1 <1>   0.1500 
 39 H      -12.7800     4.5940    -1.7060 H     1 <1>   0.1500 
 40 H      -12.3860     3.7980     2.4610 H     1 <1>   0.1500 
@<TRIPOS>BOND
  1   1   2  1   
  2   2   3  ar  
  3   2   4  ar  
  4   3   5  ar  
  5   3  22  1   
  6   4   6  ar  
  7   4  23  1   
  8   5   7  ar  
  9   5   8  1   
 10   6   7  ar  
 11   6  24  1   
 12   7  25  1   
 13   8   9  1   
 14   8  26  1   
 15   8  27  1   
 16   9  10  1   
 17   9  11  1   
 18   9  28  1   
 19  10  12  1   
 20  10  29  1   
 21  10  30  1   
 22  11  13  1   
 23  11  31  1   
 24  11  32  1   
 25  12  14  1   
 26  12  33  1   
 27  12  34  1   
 28  13  14  1   
 29  13  35  1   
 30  13  36  1   
 31  14  15  1   
 32  15  16  ar  
 33  15  17  ar  
 34  16  18  ar  
 35  16  37  1   
 36  17  19  ar  
 37  17  38  1   
 38  18  20  ar  
 39  18  39  1   
 40  19  20  ar  
 41  19  40  1   
 42  20  21  1   
@<TRIPOS>SUBSTRUCTURE
  1 ****  13 GROUP 4 **** **** 0

# MOE 2024.06 (io_trps.svl 2023.06)
