@<TRIPOS>MOLECULE
NONAME
41 41 1 0 0 
SMALL
USER_CHARGES


@<TRIPOS>ATOM
  1 S       -0.1610     0.3280    -0.3630 S.o2  1 <1>   1.3330 
  2 O       -0.4850     1.1270    -1.5210 O.2   1 <1>  -0.6500 
  3 O       -0.1070     0.9210     0.9530 O.2   1 <1>  -0.6500 
  4 N        1.3350    -0.3300    -0.7300 N.am  1 <1>  -0.9140 
  5 C       -1.2210    -1.1190    -0.3150 C.3   1 <1>  -0.0550 
  6 C        2.4670     0.2090     0.0000 C.3   1 <1>   0.2760 
  7 C       -2.6990    -0.7930    -0.0470 C.3   1 <1>  -0.1600 
  8 C        2.8380     1.5930    -0.5650 C.3   1 <1>  -0.1600 
  9 C        3.5890    -0.8280    -0.1370 C.3   1 <1>  -0.1600 
 10 C       -3.5540    -2.0650    -0.0170 C.3   1 <1>  -0.1600 
 11 C        3.5330     2.5110     0.4610 C.3   1 <1>  -0.1600 
 12 C        4.8510    -0.5480     0.6970 C.3   1 <1>  -0.1600 
 13 C       -5.0240    -1.7310     0.2510 C.3   1 <1>  -0.2400 
 14 C        5.0040     2.8090     0.1390 C.3   1 <1>  -0.1600 
 15 C        5.8780     0.3720     0.0100 C.3   1 <1>  -0.1600 
 16 C        6.0040     1.7620     0.6500 C.3   1 <1>  -0.1600 
 17 H        1.4760    -0.0850    -1.7080 H     1 <1>   0.4200 
 18 H       -0.8660    -1.7790     0.4520 H     1 <1>   0.0800 
 19 H       -1.1440    -1.6360    -1.2520 H     1 <1>   0.0800 
 20 H        2.2090     0.2880     1.0440 H     1 <1>   0.0800 
 21 H       -3.0600    -0.1310    -0.8170 H     1 <1>   0.0800 
 22 H       -2.7810    -0.2790     0.8970 H     1 <1>   0.0800 
 23 H        1.9420     2.1070    -0.8620 H     1 <1>   0.0800 
 24 H        3.4390     1.4810    -1.4490 H     1 <1>   0.0800 
 25 H        3.8550    -0.9530    -1.1710 H     1 <1>   0.0800 
 26 H        3.1910    -1.7670     0.2050 H     1 <1>   0.0800 
 27 H       -3.1970    -2.7260     0.7550 H     1 <1>   0.0800 
 28 H       -3.4760    -2.5790    -0.9600 H     1 <1>   0.0800 
 29 H        3.4420     2.1260     1.4620 H     1 <1>   0.0800 
 30 H        3.0090     3.4520     0.4520 H     1 <1>   0.0800 
 31 H        5.3350    -1.4960     0.8590 H     1 <1>   0.0800 
 32 H        4.5800    -0.1770     1.6710 H     1 <1>   0.0800 
 33 H       -5.1310    -1.2360     1.2000 H     1 <1>   0.0800 
 34 H       -5.6100    -2.6330     0.2690 H     1 <1>   0.0800 
 35 H       -5.4110    -1.0880    -0.5200 H     1 <1>   0.0800 
 36 H        5.2570     3.7440     0.6110 H     1 <1>   0.0800 
 37 H        5.1320     2.9560    -0.9200 H     1 <1>   0.0800 
 38 H        5.6860     0.4610    -1.0450 H     1 <1>   0.0800 
 39 H        6.8400    -0.1030     0.1040 H     1 <1>   0.0800 
 40 H        5.9390     1.6860     1.7220 H     1 <1>   0.0800 
 41 H        6.9890     2.1340     0.4270 H     1 <1>   0.0800 
@<TRIPOS>BOND
  1   1   2  2   
  2   1   3  2   
  3   1   4  am  
  4   1   5  1   
  5   4   6  1   
  6   4  17  1   
  7   5   7  1   
  8   5  18  1   
  9   5  19  1   
 10   6   8  1   
 11   6   9  1   
 12   6  20  1   
 13   7  10  1   
 14   7  21  1   
 15   7  22  1   
 16   8  11  1   
 17   8  23  1   
 18   8  24  1   
 19   9  12  1   
 20   9  25  1   
 21   9  26  1   
 22  10  13  1   
 23  10  27  1   
 24  10  28  1   
 25  11  14  1   
 26  11  29  1   
 27  11  30  1   
 28  12  15  1   
 29  12  31  1   
 30  12  32  1   
 31  13  33  1   
 32  13  34  1   
 33  13  35  1   
 34  14  16  1   
 35  14  36  1   
 36  14  37  1   
 37  15  16  1   
 38  15  38  1   
 39  15  39  1   
 40  16  40  1   
 41  16  41  1   
@<TRIPOS>SUBSTRUCTURE
  1 ****   4 GROUP 4 **** **** 0

# MOE 2024.06 (io_trps.svl 2023.06)
