@<TRIPOS>MOLECULE
NONAME
45 46 1 0 0 
SMALL
USER_CHARGES


@<TRIPOS>ATOM
  1 CL       1.4840    -0.3160    -1.0600 Cl    1 <1>  -0.1770 
  2 C        0.8780    -1.8500    -0.4810 C.ar  1 <1>   0.1770 
  3 C        1.5770    -2.5270     0.5080 C.ar  1 <1>  -0.1440 
  4 C       -0.2830    -2.3600    -1.0290 C.ar  1 <1>  -0.1500 
  5 C        1.0970    -3.7560     0.9380 C.ar  1 <1>  -0.1500 
  6 C        2.8330    -1.9340     1.1020 C.3   1 <1>   0.4870 
  7 C       -0.7660    -3.5780    -0.5840 C.ar  1 <1>   0.0830 
  8 C       -0.0570    -4.2950     0.3890 C.ar  1 <1>   0.0830 
  9 N        3.9130    -2.0730     0.1010 N.4   1 <1>  -0.9060 
 10 O       -1.9270    -4.0170    -1.1210 O.3   1 <1>  -0.3620 
 11 O       -0.4270    -5.5170     0.8490 O.3   1 <1>  -0.3620 
 12 C        5.2160    -1.5280     0.5170 C.3   1 <1>   0.4230 
 13 C       -3.0550    -3.9760    -0.2760 C.3   1 <1>   0.1200 
 14 C       -0.6820    -6.5400    -0.0930 C.3   1 <1>   0.0400 
 15 C        5.1830    -0.0040     0.4320 C.3   1 <1>  -0.1600 
 16 C        6.2380    -1.9010    -0.5480 C.3   1 <1>  -0.1600 
 17 C       -4.2560    -4.5190    -1.0510 C.3   1 <1>  -0.1600 
 18 C        5.3780     0.3370    -1.0510 C.3   1 <1>  -0.1600 
 19 C        6.0490    -0.8880    -1.6840 C.3   1 <1>  -0.1600 
 20 C       -5.5240    -4.5100    -0.1920 C.3   1 <1>  -0.2400 
 21 H       -0.8150    -1.8170    -1.7900 H     1 <1>   0.1500 
 22 H        1.6020    -4.3220     1.7030 H     1 <1>   0.1500 
 23 H        3.0930    -2.4550     2.0090 H     1 <1>   0.0800 
 24 H        2.6670    -0.8940     1.3350 H     1 <1>   0.0800 
 25 H        3.6300    -1.5750    -0.7520 H     1 <1>   0.4500 
 26 H        4.0090    -3.0600    -0.1530 H     1 <1>   0.4500 
 27 H        5.5000    -1.8870     1.4950 H     1 <1>   0.0800 
 28 H       -3.2200    -2.9540     0.0190 H     1 <1>   0.0800 
 29 H       -2.8600    -4.5760     0.5960 H     1 <1>   0.0800 
 30 H       -0.6240    -7.4850     0.4150 H     1 <1>   0.0800 
 31 H        0.0570    -6.4960    -0.8740 H     1 <1>   0.0800 
 32 H       -1.6670    -6.4120    -0.5020 H     1 <1>   0.0800 
 33 H        6.0270     0.3790     0.9800 H     1 <1>   0.0800 
 34 H        4.2950     0.4410     0.8430 H     1 <1>   0.0800 
 35 H        6.1560    -2.9210    -0.8820 H     1 <1>   0.0800 
 36 H        7.2230    -1.7650    -0.1320 H     1 <1>   0.0800 
 37 H       -4.0480    -5.5270    -1.3650 H     1 <1>   0.0800 
 38 H       -4.4160    -3.9120    -1.9260 H     1 <1>   0.0800 
 39 H        5.9910     1.2170    -1.1620 H     1 <1>   0.0800 
 40 H        4.4290     0.5260    -1.5260 H     1 <1>   0.0800 
 41 H        5.4160    -1.2960    -2.4550 H     1 <1>   0.0800 
 42 H        6.9960    -0.6280    -2.1280 H     1 <1>   0.0800 
 43 H       -5.3920    -5.1240     0.6820 H     1 <1>   0.0800 
 44 H       -6.3540    -4.8970    -0.7580 H     1 <1>   0.0800 
 45 H       -5.7620    -3.5080     0.1200 H     1 <1>   0.0800 
@<TRIPOS>BOND
  1   1   2  1   
  2   2   3  ar  
  3   2   4  ar  
  4   3   5  ar  
  5   3   6  1   
  6   4   7  ar  
  7   4  21  1   
  8   5   8  ar  
  9   5  22  1   
 10   6   9  1   
 11   6  23  1   
 12   6  24  1   
 13   7   8  ar  
 14   7  10  1   
 15   8  11  1   
 16   9  12  1   
 17   9  25  1   
 18   9  26  1   
 19  10  13  1   
 20  11  14  1   
 21  12  15  1   
 22  12  16  1   
 23  12  27  1   
 24  13  17  1   
 25  13  28  1   
 26  13  29  1   
 27  14  30  1   
 28  14  31  1   
 29  14  32  1   
 30  15  18  1   
 31  15  33  1   
 32  15  34  1   
 33  16  19  1   
 34  16  35  1   
 35  16  36  1   
 36  17  20  1   
 37  17  37  1   
 38  17  38  1   
 39  18  19  1   
 40  18  39  1   
 41  18  40  1   
 42  19  41  1   
 43  19  42  1   
 44  20  43  1   
 45  20  44  1   
 46  20  45  1   
@<TRIPOS>SUBSTRUCTURE
  1 ****   3 GROUP 4 **** **** 0

# MOE 2024.06 (io_trps.svl 2023.06)
