@<TRIPOS>MOLECULE
NONAME
49 53 1 0 0 
SMALL
USER_CHARGES


@<TRIPOS>ATOM
  1 S        0.3720     0.1060    -1.8760 S.3   1 <1>  -0.0800 
  2 C        1.6580     1.0370    -1.0940 C.ar  1 <1>   0.2970 
  3 C       -0.8030     1.4080    -1.6180 C.2   1 <1>  -0.0450 
  4 N        2.8660     0.5300    -0.9640 N.ar  1 <1>  -0.5670 
  5 C        1.1850     2.2830    -0.6870 C.ar  1 <1>   0.0000 
  6 C       -2.1700     1.4110    -1.9850 C.2   1 <1>   0.8660 
  7 C       -0.2140     2.4490    -0.9840 C.2   1 <1>   0.0830 
  8 C        3.7190     1.3410    -0.3560 C.ar  1 <1>   0.4100 
  9 C        2.1140     3.1270    -0.0770 C.ar  1 <1>  -0.1430 
 10 O       -2.7010     0.4750    -2.5640 O.2   1 <1>  -0.5700 
 11 N       -2.9330     2.5120    -1.6760 N.2   1 <1>  -0.6610 
 12 N       -1.0430     3.5100    -0.6980 N.pl3 1 <1>  -0.5330 
 13 N        4.9940     0.8530    -0.1780 N.pl3 1 <1>  -0.8380 
 14 C        3.3870     2.6270     0.0970 C.ar  1 <1>  -0.1430 
 15 C        1.7920     4.5360     0.3990 C.3   1 <1>  -0.0170 
 16 C       -2.3630     3.4860    -1.0630 C.2   1 <1>   0.4400 
 17 C        5.7250     0.4030    -1.3980 C.3   1 <1>   0.2090 
 18 C        5.1720    -0.1220     0.9350 C.3   1 <1>   0.2090 
 19 C        4.4730     3.4620     0.7690 C.3   1 <1>   0.2630 
 20 C        3.0580     5.3930     0.6040 C.3   1 <1>   0.2800 
 21 C        7.1940     0.0840    -1.0660 C.3   1 <1>   0.1200 
 22 C        6.6650    -0.4190     1.1670 C.3   1 <1>   0.1200 
 23 O        3.9700     4.6400     1.3440 O.3   1 <1>  -0.5600 
 24 C        3.7260     5.8500    -0.7220 C.3   1 <1>  -0.1600 
 25 C        2.7370     6.5960     1.4970 C.3   1 <1>  -0.2400 
 26 O        7.2870    -0.8420    -0.0160 O.3   1 <1>  -0.5600 
 27 C        2.9530     6.9020    -1.5380 C.3   1 <1>  -0.2400 
 28 H       -0.6800     4.3160    -0.1880 H     1 <1>   0.4000 
 29 H        1.2620     4.4620     1.3320 H     1 <1>   0.0800 
 30 H        1.1550     5.0290    -0.3070 H     1 <1>   0.0800 
 31 H       -2.9450     4.3560    -0.8070 H     1 <1>   0.0600 
 32 H        5.6810     1.1740    -2.1470 H     1 <1>   0.0800 
 33 H        5.2530    -0.4790    -1.7980 H     1 <1>   0.0800 
 34 H        4.6590    -1.0380     0.6950 H     1 <1>   0.0800 
 35 H        4.7380     0.2770     1.8360 H     1 <1>   0.0800 
 36 H        5.2350     3.7250     0.0570 H     1 <1>   0.0800 
 37 H        4.9350     2.8980     1.5600 H     1 <1>   0.0800 
 38 H        7.7150     0.9800    -0.7790 H     1 <1>   0.0800 
 39 H        7.6830    -0.3430    -1.9230 H     1 <1>   0.0800 
 40 H        6.7770    -1.2030     1.8940 H     1 <1>   0.0800 
 41 H        7.1700     0.4610     1.5240 H     1 <1>   0.0800 
 42 H        3.8750     4.9990    -1.3620 H     1 <1>   0.0800 
 43 H        4.6940     6.2590    -0.4890 H     1 <1>   0.0800 
 44 H        2.4220     6.2640     2.4700 H     1 <1>   0.0800 
 45 H        1.9490     7.1910     1.0740 H     1 <1>   0.0800 
 46 H        3.6090     7.2140     1.6110 H     1 <1>   0.0800 
 47 H        1.9750     6.5470    -1.8080 H     1 <1>   0.0800 
 48 H        3.4900     7.1150    -2.4460 H     1 <1>   0.0800 
 49 H        2.8560     7.8230    -0.9920 H     1 <1>   0.0800 
@<TRIPOS>BOND
  1   1   2  1   
  2   1   3  1   
  3   2   4  ar  
  4   2   5  ar  
  5   3   6  1   
  6   3   7  2   
  7   4   8  ar  
  8   5   7  1   
  9   5   9  ar  
 10   6  10  2   
 11   6  11  1   
 12   7  12  1   
 13   8  13  1   
 14   8  14  ar  
 15   9  14  ar  
 16   9  15  1   
 17  11  16  2   
 18  12  16  1   
 19  12  28  1   
 20  13  17  1   
 21  13  18  1   
 22  14  19  1   
 23  15  20  1   
 24  15  29  1   
 25  15  30  1   
 26  16  31  1   
 27  17  21  1   
 28  17  32  1   
 29  17  33  1   
 30  18  22  1   
 31  18  34  1   
 32  18  35  1   
 33  19  23  1   
 34  19  36  1   
 35  19  37  1   
 36  20  23  1   
 37  20  24  1   
 38  20  25  1   
 39  21  26  1   
 40  21  38  1   
 41  21  39  1   
 42  22  26  1   
 43  22  40  1   
 44  22  41  1   
 45  24  27  1   
 46  24  42  1   
 47  24  43  1   
 48  25  44  1   
 49  25  45  1   
 50  25  46  1   
 51  27  47  1   
 52  27  48  1   
 53  27  49  1   
@<TRIPOS>SUBSTRUCTURE
  1 ****   9 GROUP 4 **** **** 0

# MOE 2024.06 (io_trps.svl 2023.06)
