@<TRIPOS>MOLECULE
NONAME
25 26 1 0 0 
SMALL
USER_CHARGES


@<TRIPOS>ATOM
  1 O       -0.4690    -0.9790    -1.3330 O.2   1 <1>  -0.5700 
  2 C       -1.3890    -1.4450    -0.7110 C.2   1 <1>   0.5690 
  3 N       -1.2190    -2.3390     0.3210 N.am  1 <1>  -0.4200 
  4 C       -2.7940    -0.9980    -1.0860 C.3   1 <1>  -0.0990 
  5 C       -2.2370    -2.7540     1.1480 C.2   1 <1>   0.5690 
  6 C        0.1240    -2.9400     0.5290 C.3   1 <1>   0.3200 
  7 C       -3.7390    -0.9840     0.1220 C.3   1 <1>  -0.1600 
  8 O       -2.0470    -3.4390     2.1210 O.2   1 <1>  -0.5700 
  9 C       -3.6670    -2.3340     0.8450 C.3   1 <1>  -0.0990 
 10 C        0.1530    -4.3430    -0.0540 C.2   1 <1>  -0.0400 
 11 O        0.1110    -4.5000    -1.3640 O.3   1 <1>  -0.2800 
 12 C        0.2110    -5.5440     0.5630 C.2   1 <1>  -0.1500 
 13 C        0.1450    -5.7940    -1.6120 C.2   1 <1>  -0.0100 
 14 C        0.2070    -6.4980    -0.4620 C.2   1 <1>  -0.1500 
 15 H       -3.1670    -1.6710    -1.8360 H     1 <1>   0.0800 
 16 H       -2.7450    -0.0150    -1.5190 H     1 <1>   0.0800 
 17 H        0.3370    -2.9840     1.5820 H     1 <1>   0.0800 
 18 H        0.8910    -2.3460     0.0650 H     1 <1>   0.0800 
 19 H       -4.7480    -0.7830    -0.1960 H     1 <1>   0.0800 
 20 H       -3.4380    -0.2020     0.7990 H     1 <1>   0.0800 
 21 H       -4.2200    -2.2820     1.7660 H     1 <1>   0.0800 
 22 H       -4.1150    -3.0990     0.2360 H     1 <1>   0.0800 
 23 H        0.2450    -5.7570     1.6170 H     1 <1>   0.1500 
 24 H        0.1200    -6.1260    -2.6350 H     1 <1>   0.1500 
 25 H        0.2460    -7.5640    -0.3240 H     1 <1>   0.1500 
@<TRIPOS>BOND
  1   1   2  2   
  2   2   3  am  
  3   2   4  1   
  4   3   5  am  
  5   3   6  1   
  6   4   7  1   
  7   4  15  1   
  8   4  16  1   
  9   5   8  2   
 10   5   9  1   
 11   6  10  1   
 12   6  17  1   
 13   6  18  1   
 14   7   9  1   
 15   7  19  1   
 16   7  20  1   
 17   9  21  1   
 18   9  22  1   
 19  10  11  1   
 20  10  12  2   
 21  11  13  1   
 22  12  14  1   
 23  12  23  1   
 24  13  14  2   
 25  13  24  1   
 26  14  25  1   
@<TRIPOS>SUBSTRUCTURE
  1 ****   3 GROUP 4 **** **** 0

# MOE 2024.06 (io_trps.svl 2023.06)
