@<TRIPOS>MOLECULE
NONAME
47 48 1 0 0 
SMALL
USER_CHARGES


@<TRIPOS>ATOM
  1 O       -0.4030    -0.4800     1.6100 O.2   1 <1>  -0.5700 
  2 C       -0.7330    -1.3580     0.8510 C.2   1 <1>   0.6300 
  3 N        0.1400    -2.0940     0.1010 N.am  1 <1>  -0.5470 
  4 C       -2.2050    -1.7090     0.7230 C.3   1 <1>  -0.1000 
  5 C        1.5400    -2.0600    -0.0210 C.ar  1 <1>   0.1170 
  6 C       -3.2230    -0.8390     0.0440 C.3   1 <1>  -0.1900 
  7 C       -2.7650    -2.0930    -0.6290 C.3   1 <1>  -0.0600 
  8 C        2.3240    -1.0040     0.4380 C.ar  1 <1>  -0.1500 
  9 C        2.1760    -3.1300    -0.6390 C.ar  1 <1>  -0.1500 
 10 C       -2.7880     0.5120    -0.5400 C.3   1 <1>  -0.1450 
 11 C       -4.6290    -0.7660     0.6530 C.3   1 <1>  -0.1450 
 12 C       -3.6920    -3.2840    -0.8010 C.2   1 <1>  -0.1900 
 13 C        3.7000    -1.0180     0.2920 C.ar  1 <1>  -0.1500 
 14 C        3.5510    -3.1500    -0.7890 C.ar  1 <1>  -0.1500 
 15 C       -3.6040    -4.5090    -0.2650 C.2   1 <1>  -0.2760 
 16 C        4.3240    -2.0980    -0.3250 C.ar  1 <1>   0.0830 
 17 C       -4.6600    -5.5700    -0.5350 C.3   1 <1>  -0.1020 
 18 C       -2.4970    -5.0250     0.6460 C.3   1 <1>  -0.1020 
 19 O        5.6670    -2.1970    -0.5070 O.3   1 <1>  -0.3620 
 20 C        6.5420    -1.1820    -0.0240 C.3   1 <1>   0.1810 
 21 C        8.0030    -1.5090    -0.3180 C.2   1 <1>   0.5690 
 22 O        8.8600    -0.7380     0.0310 O.2   1 <1>  -0.5700 
 23 N        8.3420    -2.6450    -0.9610 N.am  1 <1>  -0.8000 
 24 H       -0.3190    -2.8130    -0.4550 H     1 <1>   0.3700 
 25 H       -2.5480    -2.2420     1.5900 H     1 <1>   0.1000 
 26 H       -2.1610    -1.9420    -1.5080 H     1 <1>   0.1000 
 27 H        1.8630    -0.1580     0.9120 H     1 <1>   0.1500 
 28 H        1.5960    -3.9570    -1.0040 H     1 <1>   0.1500 
 29 H       -3.4840     0.8310    -1.2960 H     1 <1>   0.0800 
 30 H       -1.8110     0.4510    -0.9850 H     1 <1>   0.0800 
 31 H       -2.7560     1.2540     0.2370 H     1 <1>   0.0800 
 32 H       -4.6590    -0.0160     1.4230 H     1 <1>   0.0800 
 33 H       -4.9120    -1.7080     1.0900 H     1 <1>   0.0800 
 34 H       -5.3490    -0.5140    -0.1050 H     1 <1>   0.0800 
 35 H       -4.5050    -3.0260    -1.4590 H     1 <1>   0.1500 
 36 H        4.2570    -0.1800     0.6650 H     1 <1>   0.1500 
 37 H        4.0330    -3.9840    -1.2670 H     1 <1>   0.1500 
 38 H       -5.1090    -5.8890     0.3890 H     1 <1>   0.0800 
 39 H       -4.2170    -6.4220    -1.0190 H     1 <1>   0.0800 
 40 H       -5.4370    -5.1850    -1.1710 H     1 <1>   0.0800 
 41 H       -2.0960    -5.9430     0.2540 H     1 <1>   0.0800 
 42 H       -2.8890    -5.2140     1.6290 H     1 <1>   0.0800 
 43 H       -1.6880    -4.3270     0.7300 H     1 <1>   0.0800 
 44 H        6.2860    -0.2560    -0.5050 H     1 <1>   0.0800 
 45 H        6.4080    -1.0960     1.0380 H     1 <1>   0.0800 
 46 H        9.3200    -2.8580    -1.1550 H     1 <1>   0.3700 
 47 H        7.6390    -3.3180    -1.2700 H     1 <1>   0.3700 
@<TRIPOS>BOND
  1   1   2  2   
  2   2   3  am  
  3   2   4  1   
  4   3   5  1   
  5   3  24  1   
  6   4   6  1   
  7   4   7  1   
  8   4  25  1   
  9   5   8  ar  
 10   5   9  ar  
 11   6   7  1   
 12   6  10  1   
 13   6  11  1   
 14   7  12  1   
 15   7  26  1   
 16   8  13  ar  
 17   8  27  1   
 18   9  14  ar  
 19   9  28  1   
 20  10  29  1   
 21  10  30  1   
 22  10  31  1   
 23  11  32  1   
 24  11  33  1   
 25  11  34  1   
 26  12  15  2   
 27  12  35  1   
 28  13  16  ar  
 29  13  36  1   
 30  14  16  ar  
 31  14  37  1   
 32  15  17  1   
 33  15  18  1   
 34  16  19  1   
 35  17  38  1   
 36  17  39  1   
 37  17  40  1   
 38  18  41  1   
 39  18  42  1   
 40  18  43  1   
 41  19  20  1   
 42  20  21  1   
 43  20  44  1   
 44  20  45  1   
 45  21  22  2   
 46  21  23  am  
 47  23  46  1   
 48  23  47  1   
@<TRIPOS>SUBSTRUCTURE
  1 ****   5 GROUP 4 **** **** 0

# MOE 2024.06 (io_trps.svl 2023.06)
