@<TRIPOS>MOLECULE
NONAME
50 51 1 0 0 
SMALL
USER_CHARGES


@<TRIPOS>ATOM
  1 S        2.1390     3.1420    -2.0090 S.o2  1 <1>   1.3330 
  2 O        1.9910     1.7190    -1.8410 O.2   1 <1>  -0.6500 
  3 O        3.4370     3.7620    -1.8830 O.2   1 <1>  -0.6500 
  4 N        1.1270     3.9390    -0.8560 N.am  1 <1>  -0.6930 
  5 C        1.4130     3.6480    -3.5520 C.3   1 <1>  -0.1350 
  6 C       -0.1820     3.5320    -0.6370 C.ar  1 <1>   0.1990 
  7 C        1.8100     4.6880     0.2450 C.3   1 <1>   0.2570 
  8 C       -1.2350     4.3600    -0.9990 C.ar  1 <1>  -0.1500 
  9 C       -0.4680     2.3060    -0.0500 C.ar  1 <1>  -0.1500 
 10 C        2.4940     3.8030     1.2930 C.2   1 <1>   0.5690 
 11 C       -2.5460     3.9690    -0.7900 C.ar  1 <1>  -0.1500 
 12 C       -1.7770     1.9130     0.1600 C.ar  1 <1>  -0.1500 
 13 O        1.9930     3.7450     2.3920 O.2   1 <1>  -0.5700 
 14 N        3.6450     3.1430     0.9540 N.am  1 <1>  -0.5470 
 15 C       -2.8250     2.7410    -0.2110 C.ar  1 <1>  -0.1430 
 16 C        4.4780     2.2510     1.6580 C.ar  1 <1>   0.1170 
 17 C       -4.2640     2.3090     0.0210 C.3   1 <1>  -0.0170 
 18 C        5.4100     1.5040     0.9300 C.ar  1 <1>   0.0830 
 19 C        4.4210     2.0800     3.0370 C.ar  1 <1>  -0.1500 
 20 C       -4.7480     2.7720     1.3970 C.3   1 <1>  -0.2400 
 21 O        5.4470     1.6950    -0.4200 O.3   1 <1>  -0.3620 
 22 C        6.2560     0.6100     1.5780 C.ar  1 <1>  -0.1500 
 23 C        5.2610     1.1870     3.6790 C.ar  1 <1>  -0.1500 
 24 C        5.9780     0.7100    -1.2740 C.3   1 <1>   0.1200 
 25 C        6.1780     0.4510     2.9510 C.ar  1 <1>  -0.1500 
 26 C        5.6090     1.0810    -2.7060 C.3   1 <1>  -0.2400 
 27 H        1.9720     3.2400    -4.3710 H     1 <1>   0.0800 
 28 H        1.4160     4.7170    -3.6300 H     1 <1>   0.0800 
 29 H        0.4020     3.2970    -3.6160 H     1 <1>   0.0800 
 30 H        1.0800     5.2920     0.7530 H     1 <1>   0.0800 
 31 H        2.5410     5.3560    -0.1730 H     1 <1>   0.0800 
 32 H       -1.0240     5.3140    -1.4450 H     1 <1>   0.1500 
 33 H        0.3410     1.6600     0.2440 H     1 <1>   0.1500 
 34 H       -3.3510     4.6240    -1.0770 H     1 <1>   0.1500 
 35 H       -1.9750     0.9600     0.6180 H     1 <1>   0.1500 
 36 H        3.9250     3.2160    -0.0360 H     1 <1>   0.3700 
 37 H       -4.3350     1.2370    -0.0440 H     1 <1>   0.0800 
 38 H       -4.8960     2.7240    -0.7440 H     1 <1>   0.0800 
 39 H        3.7200     2.6430     3.6240 H     1 <1>   0.1500 
 40 H       -4.1310     2.3480     2.1690 H     1 <1>   0.0800 
 41 H       -5.7660     2.4620     1.5560 H     1 <1>   0.0800 
 42 H       -4.6970     3.8440     1.4660 H     1 <1>   0.0800 
 43 H        6.9810     0.0360     1.0350 H     1 <1>   0.1500 
 44 H        5.1980     1.0680     4.7470 H     1 <1>   0.1500 
 45 H        5.5500    -0.2420    -1.0070 H     1 <1>   0.0800 
 46 H        7.0460     0.6900    -1.1490 H     1 <1>   0.0800 
 47 H        6.8320    -0.2410     3.4530 H     1 <1>   0.1500 
 48 H        4.5400     1.0740    -2.8210 H     1 <1>   0.0800 
 49 H        6.0320     0.3680    -3.3900 H     1 <1>   0.0800 
 50 H        5.9880     2.0590    -2.9440 H     1 <1>   0.0800 
@<TRIPOS>BOND
  1   1   2  2   
  2   1   3  2   
  3   1   4  am  
  4   1   5  1   
  5   4   6  1   
  6   4   7  1   
  7   5  27  1   
  8   5  28  1   
  9   5  29  1   
 10   6   8  ar  
 11   6   9  ar  
 12   7  10  1   
 13   7  30  1   
 14   7  31  1   
 15   8  11  ar  
 16   8  32  1   
 17   9  12  ar  
 18   9  33  1   
 19  10  13  2   
 20  10  14  am  
 21  11  15  ar  
 22  11  34  1   
 23  12  15  ar  
 24  12  35  1   
 25  14  16  1   
 26  14  36  1   
 27  15  17  1   
 28  16  18  ar  
 29  16  19  ar  
 30  17  20  1   
 31  17  37  1   
 32  17  38  1   
 33  18  21  1   
 34  18  22  ar  
 35  19  23  ar  
 36  19  39  1   
 37  20  40  1   
 38  20  41  1   
 39  20  42  1   
 40  21  24  1   
 41  22  25  ar  
 42  22  43  1   
 43  23  25  ar  
 44  23  44  1   
 45  24  26  1   
 46  24  45  1   
 47  24  46  1   
 48  25  47  1   
 49  26  48  1   
 50  26  49  1   
 51  26  50  1   
@<TRIPOS>SUBSTRUCTURE
  1 ****  10 GROUP 4 **** **** 0

# MOE 2024.06 (io_trps.svl 2023.06)
