@<TRIPOS>MOLECULE
NONAME
46 48 1 0 0 
SMALL
USER_CHARGES


@<TRIPOS>ATOM
  1 O        0.7130     0.6140     0.9340 O.2   1 <1>  -0.5700 
  2 C        0.5030     1.7690     0.6440 C.2   1 <1>   0.4950 
  3 C        1.4800     2.6190     0.0250 C.2   1 <1>   0.0290 
  4 C       -0.8750     2.2830     1.0400 C.3   1 <1>  -0.0990 
  5 C        0.9800     3.8270    -0.5610 C.2   1 <1>   0.4950 
  6 C        2.7990     2.1950     0.0070 C.2   1 <1>  -0.0500 
  7 C       -1.4020     3.4130     0.1450 C.3   1 <1>   0.0000 
  8 O        1.4560     4.3900    -1.5200 O.2   1 <1>  -0.5700 
  9 C       -0.2880     4.4550    -0.0110 C.3   1 <1>  -0.0990 
 10 N        3.9830     2.8070    -0.2950 N.pl3 1 <1>  -0.8380 
 11 C       -1.8200     2.8550    -1.2280 C.3   1 <1>  -0.2400 
 12 C       -2.6300     4.0630     0.8000 C.3   1 <1>  -0.2400 
 13 C        5.2310     1.9930    -0.4610 C.3   1 <1>   0.2090 
 14 C        4.2150     4.2750    -0.5230 C.3   1 <1>   0.2090 
 15 C        6.3970     2.5240     0.3880 C.3   1 <1>   0.1400 
 16 C        5.3990     4.8080     0.3030 C.3   1 <1>   0.1400 
 17 N        6.6340     3.9780     0.1370 N.am  1 <1>  -0.6600 
 18 C        7.8120     4.5080    -0.3560 C.2   1 <1>   0.7150 
 19 O        7.7550     5.5780    -0.9390 O.2   1 <1>  -0.5700 
 20 C        9.1040     3.8610    -0.2220 C.2   1 <1>   0.0550 
 21 O        9.3600     2.9440     0.7100 O.3   1 <1>  -0.2800 
 22 C       10.2440     4.0600    -0.9420 C.2   1 <1>  -0.1500 
 23 C       10.6110     2.5580     0.5990 C.2   1 <1>  -0.0100 
 24 C       11.2180     3.2140    -0.4120 C.2   1 <1>  -0.1500 
 25 H       -1.5700     1.4620     1.0310 H     1 <1>   0.0800 
 26 H       -0.8040     2.6260     2.0570 H     1 <1>   0.0800 
 27 H        2.9330     1.1640     0.2990 H     1 <1>   0.1500 
 28 H       -0.0580     4.9050     0.9370 H     1 <1>   0.0800 
 29 H       -0.6140     5.2390    -0.6730 H     1 <1>   0.0800 
 30 H       -1.0060     2.3570    -1.7240 H     1 <1>   0.0800 
 31 H       -2.1620     3.6500    -1.8690 H     1 <1>   0.0800 
 32 H       -2.6230     2.1460    -1.1190 H     1 <1>   0.0800 
 33 H       -3.4140     3.3380     0.9370 H     1 <1>   0.0800 
 34 H       -3.0120     4.8570     0.1810 H     1 <1>   0.0800 
 35 H       -2.3820     4.4760     1.7620 H     1 <1>   0.0800 
 36 H        5.0410     0.9680    -0.1960 H     1 <1>   0.0800 
 37 H        5.5190     2.0120    -1.4980 H     1 <1>   0.0800 
 38 H        4.3910     4.4520    -1.5700 H     1 <1>   0.0800 
 39 H        3.3550     4.8410    -0.2260 H     1 <1>   0.0800 
 40 H        7.2690     1.9460     0.1480 H     1 <1>   0.0800 
 41 H        6.1730     2.3770     1.4300 H     1 <1>   0.0800 
 42 H        5.1200     4.8030     1.3410 H     1 <1>   0.0800 
 43 H        5.5860     5.8300     0.0240 H     1 <1>   0.0800 
 44 H       10.3800     4.7440    -1.7620 H     1 <1>   0.1500 
 45 H       10.9930     1.8150     1.2780 H     1 <1>   0.1500 
 46 H       12.2330     3.1280    -0.7570 H     1 <1>   0.1500 
@<TRIPOS>BOND
  1   1   2  2   
  2   2   3  1   
  3   2   4  1   
  4   3   5  1   
  5   3   6  2   
  6   4   7  1   
  7   4  25  1   
  8   4  26  1   
  9   5   8  2   
 10   5   9  1   
 11   6  10  1   
 12   6  27  1   
 13   7   9  1   
 14   7  11  1   
 15   7  12  1   
 16   9  28  1   
 17   9  29  1   
 18  10  13  1   
 19  10  14  1   
 20  11  30  1   
 21  11  31  1   
 22  11  32  1   
 23  12  33  1   
 24  12  34  1   
 25  12  35  1   
 26  13  15  1   
 27  13  36  1   
 28  13  37  1   
 29  14  16  1   
 30  14  38  1   
 31  14  39  1   
 32  15  17  1   
 33  15  40  1   
 34  15  41  1   
 35  16  17  1   
 36  16  42  1   
 37  16  43  1   
 38  17  18  am  
 39  18  19  2   
 40  18  20  1   
 41  20  21  1   
 42  20  22  2   
 43  21  23  1   
 44  22  24  1   
 45  22  44  1   
 46  23  24  2   
 47  23  45  1   
 48  24  46  1   
@<TRIPOS>SUBSTRUCTURE
  1 ****  10 GROUP 4 **** **** 0

# MOE 2024.06 (io_trps.svl 2023.06)
