@<TRIPOS>MOLECULE
NONAME
44 45 1 0 0 
SMALL
USER_CHARGES


@<TRIPOS>ATOM
  1 O       -0.2050     0.6020     0.5980 O.2   1 <1>  -0.5700 
  2 C       -0.6450     1.6590     0.1880 C.2   1 <1>   0.5440 
  3 N        0.1670     2.5510    -0.4580 N.am  1 <1>  -0.4930 
  4 C       -2.0390     2.0100     0.3770 C.ar  1 <1>   0.0860 
  5 C        1.5480     2.4770    -0.7700 C.2   1 <1>   0.0630 
  6 C       -2.6340     2.1090     1.6420 C.ar  1 <1>  -0.1440 
  7 C       -2.8310     2.2830    -0.7390 C.ar  1 <1>  -0.1500 
  8 C        2.3040     1.4060    -1.2600 C.2   1 <1>   0.1080 
  9 C        2.4250     3.5010    -0.6730 C.2   1 <1>  -0.3320 
 10 C       -3.9660     2.4700     1.7630 C.ar  1 <1>  -0.1500 
 11 C       -1.8310     1.8210     2.9060 C.3   1 <1>  -0.0970 
 12 C       -4.1590     2.6450    -0.6140 C.ar  1 <1>  -0.1500 
 13 N        3.5450     1.7320    -1.4520 N.2   1 <1>  -0.7070 
 14 C        1.8000     0.0150    -1.5710 C.3   1 <1>  -0.0590 
 15 N        3.6310     3.0190    -1.0760 N.pl3 1 <1>   0.3140 
 16 C        2.1790     4.9300    -0.2030 C.3   1 <1>  -0.0600 
 17 C       -4.7280     2.7400     0.6410 C.ar  1 <1>  -0.1500 
 18 C        4.9030     3.7400    -1.1980 C.3   1 <1>   0.1570 
 19 C        5.4010     4.1400     0.1640 C.2   1 <1>   0.6590 
 20 O        5.3630     5.2890     0.5270 O.2   1 <1>  -0.5700 
 21 O        5.9020     3.1720     0.9220 O.3   1 <1>  -0.4300 
 22 C        6.4070     3.3930     2.2200 C.3   1 <1>   0.1200 
 23 C        7.8740     3.8060     2.1150 C.3   1 <1>  -0.2400 
 24 H       -0.2440     3.4650    -0.6320 H     1 <1>   0.3700 
 25 H       -2.3990     2.2020    -1.7220 H     1 <1>   0.1500 
 26 H       -4.4230     2.5440     2.7340 H     1 <1>   0.1500 
 27 H       -1.5780     0.7760     2.9470 H     1 <1>   0.0800 
 28 H       -2.3920     2.0690     3.7890 H     1 <1>   0.0800 
 29 H       -0.9210     2.3950     2.9110 H     1 <1>   0.0800 
 30 H       -4.7510     2.8490    -1.4900 H     1 <1>   0.1500 
 31 H        0.7840     0.0560    -1.9160 H     1 <1>   0.0800 
 32 H        1.8470    -0.5880    -0.6840 H     1 <1>   0.0800 
 33 H        2.4100    -0.4340    -2.3330 H     1 <1>   0.0800 
 34 H        1.1310     5.1050    -0.0450 H     1 <1>   0.0800 
 35 H        2.5340     5.6330    -0.9350 H     1 <1>   0.0800 
 36 H        2.6890     5.1070     0.7270 H     1 <1>   0.0800 
 37 H       -5.7620     3.0200     0.7460 H     1 <1>   0.1500 
 38 H        4.7520     4.6110    -1.8040 H     1 <1>   0.0800 
 39 H        5.6230     3.1000    -1.6690 H     1 <1>   0.0800 
 40 H        6.3140     2.4700     2.7660 H     1 <1>   0.0800 
 41 H        5.8170     4.1510     2.7080 H     1 <1>   0.0800 
 42 H        8.4390     3.0430     1.6090 H     1 <1>   0.0800 
 43 H        8.2830     3.9390     3.1000 H     1 <1>   0.0800 
 44 H        7.9630     4.7360     1.5830 H     1 <1>   0.0800 
@<TRIPOS>BOND
  1   1   2  2   
  2   2   3  am  
  3   2   4  1   
  4   3   5  1   
  5   3  24  1   
  6   4   6  ar  
  7   4   7  ar  
  8   5   8  1   
  9   5   9  2   
 10   6  10  ar  
 11   6  11  1   
 12   7  12  ar  
 13   7  25  1   
 14   8  13  2   
 15   8  14  1   
 16   9  15  1   
 17   9  16  1   
 18  10  17  ar  
 19  10  26  1   
 20  11  27  1   
 21  11  28  1   
 22  11  29  1   
 23  12  17  ar  
 24  12  30  1   
 25  13  15  1   
 26  14  31  1   
 27  14  32  1   
 28  14  33  1   
 29  15  18  1   
 30  16  34  1   
 31  16  35  1   
 32  16  36  1   
 33  17  37  1   
 34  18  19  1   
 35  18  38  1   
 36  18  39  1   
 37  19  20  2   
 38  19  21  1   
 39  21  22  1   
 40  22  23  1   
 41  22  40  1   
 42  22  41  1   
 43  23  42  1   
 44  23  43  1   
 45  23  44  1   
@<TRIPOS>SUBSTRUCTURE
  1 ****   5 GROUP 4 **** **** 0

# MOE 2024.06 (io_trps.svl 2023.06)
