@<TRIPOS>MOLECULE
NONAME
37 40 1 0 0 
SMALL
USER_CHARGES


@<TRIPOS>ATOM
  1 O        1.7660     1.0890     1.5570 O.co2 1 <1>  -0.9000 
  2 C        1.0520     1.6320     0.7060 C.2   1 <1>   0.9060 
  3 O        1.0030     1.2330    -0.4680 O.co2 1 <1>  -0.9000 
  4 C        0.2200     2.8540     1.1020 C.3   1 <1>   0.0940 
  5 O       -1.2000     2.6430     0.9720 O.3   1 <1>  -0.5600 
  6 C        0.5020     4.0040     0.1440 C.3   1 <1>   0.2000 
  7 C       -1.7070     3.5140    -0.0150 C.3   1 <1>   0.4560 
  8 O        1.3300     5.0820     0.3690 O.3   1 <1>  -0.5600 
  9 C       -0.7900     4.7020     0.1610 C.3   1 <1>   0.2000 
 10 N       -3.1170     3.8290     0.2710 N.pl3 1 <1>   0.0480 
 11 C        0.7930     6.1130    -0.4210 C.3   1 <1>   0.5600 
 12 O       -0.5300     5.7360    -0.7130 O.3   1 <1>  -0.5600 
 13 C       -4.0130     4.3290    -0.6050 C.ar  1 <1>   0.1050 
 14 C       -3.7920     3.7270     1.4500 C.2   1 <1>   0.0360 
 15 C        1.5770     6.2280    -1.7200 C.3   1 <1>  -0.2400 
 16 C        0.7860     7.4010     0.3900 C.3   1 <1>  -0.2400 
 17 N       -3.8700     4.6090    -1.9060 N.ar  1 <1>  -0.5670 
 18 C       -5.1770     4.5140     0.0930 C.ar  1 <1>   0.2270 
 19 N       -5.0190     4.1250     1.3990 N.2   1 <1>  -0.5650 
 20 C       -4.9570     5.0870    -2.4670 C.ar  1 <1>   0.4700 
 21 C       -6.2600     5.0350    -0.6360 C.ar  1 <1>   0.4100 
 22 N       -6.1570     5.3170    -1.9120 N.ar  1 <1>  -0.6200 
 23 N       -7.4770     5.2700    -0.0730 N.pl3 1 <1>  -0.9000 
 24 H        0.4300     3.1260     2.1190 H     1 <1>   0.0800 
 25 H        0.7190     3.6140    -0.8390 H     1 <1>   0.0800 
 26 H       -1.5960     3.0490    -0.9790 H     1 <1>   0.0800 
 27 H       -0.9760     5.1320     1.1320 H     1 <1>   0.0800 
 28 H       -3.3080     3.3380     2.3310 H     1 <1>   0.1500 
 29 H        1.5410     5.3010    -2.2620 H     1 <1>   0.0800 
 30 H        2.6010     6.4700    -1.5050 H     1 <1>   0.0800 
 31 H        1.1590     7.0070    -2.3280 H     1 <1>   0.0800 
 32 H        0.2350     7.2640     1.3010 H     1 <1>   0.0800 
 33 H        0.3340     8.1880    -0.1840 H     1 <1>   0.0800 
 34 H        1.7940     7.6830     0.6270 H     1 <1>   0.0800 
 35 H       -4.8860     5.3290    -3.5140 H     1 <1>   0.1500 
 36 H       -8.2690     5.4580    -0.6870 H     1 <1>   0.4000 
 37 H       -7.6750     4.9030     0.8610 H     1 <1>   0.4000 
@<TRIPOS>BOND
  1   1   2  ar  
  2   2   3  ar  
  3   2   4  1   
  4   4   5  1   
  5   4   6  1   
  6   4  24  1   
  7   5   7  1   
  8   6   8  1   
  9   6   9  1   
 10   6  25  1   
 11   7   9  1   
 12   7  10  1   
 13   7  26  1   
 14   8  11  1   
 15   9  12  1   
 16   9  27  1   
 17  10  13  1   
 18  10  14  1   
 19  11  12  1   
 20  11  15  1   
 21  11  16  1   
 22  13  17  ar  
 23  13  18  ar  
 24  14  19  2   
 25  14  28  1   
 26  15  29  1   
 27  15  30  1   
 28  15  31  1   
 29  16  32  1   
 30  16  33  1   
 31  16  34  1   
 32  17  20  ar  
 33  18  19  1   
 34  18  21  ar  
 35  20  22  ar  
 36  20  35  1   
 37  21  22  ar  
 38  21  23  1   
 39  23  36  1   
 40  23  37  1   
@<TRIPOS>SUBSTRUCTURE
  1 ****   7 GROUP 4 **** **** 0

# MOE 2024.06 (io_trps.svl 2023.06)
