@<TRIPOS>MOLECULE
NONAME
40 42 1 0 0 
SMALL
USER_CHARGES


@<TRIPOS>ATOM
  1 CL      -2.9530    -1.3660    -3.6240 Cl    1 <1>  -0.1770 
  2 C       -3.0400    -1.4550    -1.8840 C.ar  1 <1>   0.1770 
  3 C       -4.0850    -0.8340    -1.2270 C.ar  1 <1>  -0.1500 
  4 C       -2.0670    -2.1480    -1.1900 C.ar  1 <1>  -0.1500 
  5 C       -4.1680    -0.9070     0.1560 C.ar  1 <1>  -0.1440 
  6 C       -2.1450    -2.2180     0.1910 C.ar  1 <1>  -0.1500 
  7 C       -3.1910    -1.6000     0.8580 C.ar  1 <1>  -0.1500 
  8 C       -5.3250    -0.2350     0.8830 C.3   1 <1>   0.2540 
  9 N       -6.6310    -0.7430     0.3930 N.3   1 <1>  -0.8100 
 10 C       -7.8080    -0.0610     0.9910 C.3   1 <1>   0.1900 
 11 C       -6.7290    -2.2090     0.5930 C.3   1 <1>   0.1100 
 12 C       -9.1590    -0.6450     0.4590 C.3   1 <1>   0.4230 
 13 C       -7.7490     1.4550     0.7420 C.3   1 <1>  -0.2400 
 14 C       -8.0090    -2.7850    -0.0340 C.3   1 <1>   0.3430 
 15 N       -9.2560    -2.1380     0.5050 N.4   1 <1>  -0.9590 
 16 C       -9.4980    -0.3160    -0.9950 C.3   1 <1>  -0.1600 
 17 C      -10.4250    -2.4840    -0.3430 C.3   1 <1>   0.3430 
 18 C      -10.4610    -1.4210    -1.4400 C.3   1 <1>  -0.1600 
 19 H       -4.8280    -0.3020    -1.7940 H     1 <1>   0.1500 
 20 H       -1.2630    -2.6210    -1.7240 H     1 <1>   0.1500 
 21 H       -1.3910    -2.7520     0.7450 H     1 <1>   0.1500 
 22 H       -3.2350    -1.6630     1.9320 H     1 <1>   0.1500 
 23 H       -5.2410     0.8210     0.6950 H     1 <1>   0.0800 
 24 H       -5.2420    -0.3940     1.9450 H     1 <1>   0.0800 
 25 H       -7.7910    -0.2160     2.0570 H     1 <1>   0.0800 
 26 H       -6.6960    -2.4450     1.6430 H     1 <1>   0.0800 
 27 H       -5.8960    -2.7010     0.1210 H     1 <1>   0.0800 
 28 H       -9.9500    -0.2380     1.0670 H     1 <1>   0.0800 
 29 H       -7.5470     1.6650    -0.2940 H     1 <1>   0.0800 
 30 H       -6.9930     1.9160     1.3500 H     1 <1>   0.0800 
 31 H       -8.6850     1.9140     1.0070 H     1 <1>   0.0800 
 32 H       -8.0430    -3.8480     0.1400 H     1 <1>   0.0800 
 33 H       -7.9510    -2.6260    -1.0980 H     1 <1>   0.0800 
 34 H       -9.3980    -2.4410     1.4750 H     1 <1>   0.4500 
 35 H       -8.6020    -0.3390    -1.5930 H     1 <1>   0.0800 
 36 H       -9.9400     0.6610    -1.0810 H     1 <1>   0.0800 
 37 H      -11.3290    -2.4220     0.2420 H     1 <1>   0.0800 
 38 H      -10.3400    -3.4770    -0.7550 H     1 <1>   0.0800 
 39 H      -10.1500    -1.8400    -2.3820 H     1 <1>   0.0800 
 40 H      -11.4640    -1.0460    -1.5490 H     1 <1>   0.0800 
@<TRIPOS>BOND
  1   1   2  1   
  2   2   3  ar  
  3   2   4  ar  
  4   3   5  ar  
  5   3  19  1   
  6   4   6  ar  
  7   4  20  1   
  8   5   7  ar  
  9   5   8  1   
 10   6   7  ar  
 11   6  21  1   
 12   7  22  1   
 13   8   9  1   
 14   8  23  1   
 15   8  24  1   
 16   9  10  1   
 17   9  11  1   
 18  10  12  1   
 19  10  13  1   
 20  10  25  1   
 21  11  14  1   
 22  11  26  1   
 23  11  27  1   
 24  12  15  1   
 25  12  16  1   
 26  12  28  1   
 27  13  29  1   
 28  13  30  1   
 29  13  31  1   
 30  14  15  1   
 31  14  32  1   
 32  14  33  1   
 33  15  17  1   
 34  15  34  1   
 35  16  18  1   
 36  16  35  1   
 37  16  36  1   
 38  17  18  1   
 39  17  37  1   
 40  17  38  1   
 41  18  39  1   
 42  18  40  1   
@<TRIPOS>SUBSTRUCTURE
  1 ****   9 GROUP 4 **** **** 0

# MOE 2024.06 (io_trps.svl 2023.06)
