@<TRIPOS>MOLECULE
NONAME
34 34 1 0 0 
SMALL
USER_CHARGES


@<TRIPOS>ATOM
  1 S        0.2590    -0.2200     0.1520 S.o2  1 <1>   1.4470 
  2 O        0.8670    -0.5410     1.4220 O.2   1 <1>  -0.6500 
  3 O        1.0040    -0.3700    -1.0790 O.2   1 <1>  -0.6500 
  4 N       -0.0550     1.4170     0.3500 N.am  1 <1>  -0.9140 
  5 C       -1.3940    -0.9460    -0.0300 C.ar  1 <1>  -0.0090 
  6 C        1.0150     2.2760    -0.0850 C.3   1 <1>   0.2760 
  7 C       -1.5860    -2.3070     0.1820 C.ar  1 <1>   0.0830 
  8 C       -2.4890    -0.1780    -0.4110 C.ar  1 <1>  -0.1500 
  9 C        1.0850     3.4390     0.8970 C.3   1 <1>  -0.2400 
 10 C        0.6910     2.7830    -1.4870 C.3   1 <1>  -0.2400 
 11 O       -0.5060    -3.0470     0.5160 O.3   1 <1>  -0.3630 
 12 C       -2.8550    -2.8630     0.0420 C.ar  1 <1>  -0.1500 
 13 C       -3.7700    -0.7080    -0.5710 C.ar  1 <1>   0.0860 
 14 C       -0.5740    -4.4300     0.7840 C.3   1 <1>   0.0400 
 15 C       -3.9230    -2.0710    -0.3250 C.ar  1 <1>  -0.1500 
 16 C       -4.9030     0.1090    -0.9730 C.2   1 <1>   0.5440 
 17 O       -6.0450    -0.2440    -0.7730 O.2   1 <1>  -0.5700 
 18 N       -4.7540     1.2970    -1.6040 N.am  1 <1>  -0.8000 
 19 H       -0.0580     1.4910     1.3660 H     1 <1>   0.4200 
 20 H        1.9610     1.7540    -0.0810 H     1 <1>   0.0800 
 21 H       -2.3460     0.8730    -0.5870 H     1 <1>   0.1500 
 22 H        0.1510     3.9710     0.9280 H     1 <1>   0.0800 
 23 H        1.8560     4.1240     0.5920 H     1 <1>   0.0800 
 24 H        1.3300     3.0830     1.8820 H     1 <1>   0.0800 
 25 H       -0.2500     3.3040    -1.4940 H     1 <1>   0.0800 
 26 H        0.6490     1.9650    -2.1830 H     1 <1>   0.0800 
 27 H        1.4590     3.4580    -1.8180 H     1 <1>   0.0800 
 28 H       -3.0280    -3.9090     0.2120 H     1 <1>   0.1500 
 29 H        0.4150    -4.7680     1.0350 H     1 <1>   0.0800 
 30 H       -0.9220    -4.9400    -0.0960 H     1 <1>   0.0800 
 31 H       -1.2370    -4.5930     1.6150 H     1 <1>   0.0800 
 32 H       -4.9020    -2.5100    -0.4290 H     1 <1>   0.1500 
 33 H       -5.5940     1.8030    -1.8860 H     1 <1>   0.3700 
 34 H       -3.8660     1.6580    -1.9470 H     1 <1>   0.3700 
@<TRIPOS>BOND
  1   1   2  2   
  2   1   3  2   
  3   1   4  am  
  4   1   5  1   
  5   4   6  1   
  6   4  19  1   
  7   5   7  ar  
  8   5   8  ar  
  9   6   9  1   
 10   6  10  1   
 11   6  20  1   
 12   7  11  1   
 13   7  12  ar  
 14   8  13  ar  
 15   8  21  1   
 16   9  22  1   
 17   9  23  1   
 18   9  24  1   
 19  10  25  1   
 20  10  26  1   
 21  10  27  1   
 22  11  14  1   
 23  12  15  ar  
 24  12  28  1   
 25  13  15  ar  
 26  13  16  1   
 27  14  29  1   
 28  14  30  1   
 29  14  31  1   
 30  15  32  1   
 31  16  17  2   
 32  16  18  am  
 33  18  33  1   
 34  18  34  1   
@<TRIPOS>SUBSTRUCTURE
  1 ****   5 GROUP 4 **** **** 0

# MOE 2024.06 (io_trps.svl 2023.06)
