@<TRIPOS>MOLECULE
NONAME
37 37 1 0 0 
SMALL
USER_CHARGES


@<TRIPOS>ATOM
  1 O       -2.0770    -0.0700    -1.9660 O.2   1 <1>  -0.5700 
  2 C       -2.2110    -0.8430    -1.0590 C.2   1 <1>   0.6590 
  3 O       -1.6300    -2.0350    -1.1110 O.3   1 <1>  -0.4300 
  4 C       -3.0670    -0.4490     0.1400 C.3   1 <1>  -0.0990 
  5 C       -1.5630    -2.9590    -0.0520 C.3   1 <1>   0.3200 
  6 C       -4.5020    -0.9940     0.0330 C.3   1 <1>  -0.1600 
  7 C       -0.8050    -4.1530    -0.5170 C.1   1 <1>  -0.2000 
  8 C       -5.3730    -0.5360     1.2130 C.3   1 <1>  -0.0990 
  9 C       -0.2000    -5.1070    -0.8900 C.1   1 <1>  -0.1770 
 10 C       -6.7550    -1.1570     1.1580 C.2   1 <1>   0.5690 
 11 O       -6.9540    -2.1450     1.8200 O.2   1 <1>  -0.5700 
 12 N       -7.6870    -0.5610     0.3560 N.am  1 <1>  -0.5470 
 13 C       -9.0210    -0.9000     0.0700 C.ar  1 <1>   0.1170 
 14 C       -9.5570    -2.1620     0.3070 C.ar  1 <1>  -0.1500 
 15 C       -9.8430     0.0700    -0.4920 C.ar  1 <1>  -0.1500 
 16 C      -10.8750    -2.4480    -0.0030 C.ar  1 <1>  -0.1500 
 17 C      -11.1610    -0.2110    -0.8050 C.ar  1 <1>  -0.1500 
 18 C      -11.6880    -1.4680    -0.5630 C.ar  1 <1>   0.0820 
 19 O      -12.9910    -1.6610    -0.8970 O.3   1 <1>  -0.3620 
 20 C      -13.6220    -2.9000    -0.6630 C.3   1 <1>   0.0400 
 21 H       -3.1060     0.6260     0.1650 H     1 <1>   0.0800 
 22 H       -2.6040    -0.7680     1.0540 H     1 <1>   0.0800 
 23 H       -2.5600    -3.2440     0.2310 H     1 <1>   0.0800 
 24 H       -1.0540    -2.4990     0.7770 H     1 <1>   0.0800 
 25 H       -4.4860    -2.0700     0.0070 H     1 <1>   0.0800 
 26 H       -4.9410    -0.6550    -0.8910 H     1 <1>   0.0800 
 27 H       -5.4640     0.5350     1.2180 H     1 <1>   0.0800 
 28 H       -4.9130    -0.8300     2.1400 H     1 <1>   0.0800 
 29 H        0.3490    -5.9650    -1.2370 H     1 <1>   0.1770 
 30 H       -7.3700     0.2880    -0.1070 H     1 <1>   0.3700 
 31 H       -8.9470    -2.9360     0.7330 H     1 <1>   0.1500 
 32 H       -9.4580     1.0530    -0.6870 H     1 <1>   0.1500 
 33 H      -11.2460    -3.4350     0.1990 H     1 <1>   0.1500 
 34 H      -11.7930     0.5430    -1.2380 H     1 <1>   0.1500 
 35 H      -14.6430    -2.8230    -0.9910 H     1 <1>   0.0800 
 36 H      -13.5920    -3.1130     0.3910 H     1 <1>   0.0800 
 37 H      -13.1140    -3.6630    -1.2260 H     1 <1>   0.0800 
@<TRIPOS>BOND
  1   1   2  2   
  2   2   3  1   
  3   2   4  1   
  4   3   5  1   
  5   4   6  1   
  6   4  21  1   
  7   4  22  1   
  8   5   7  1   
  9   5  23  1   
 10   5  24  1   
 11   6   8  1   
 12   6  25  1   
 13   6  26  1   
 14   7   9  3   
 15   8  10  1   
 16   8  27  1   
 17   8  28  1   
 18   9  29  1   
 19  10  11  2   
 20  10  12  am  
 21  12  13  1   
 22  12  30  1   
 23  13  14  ar  
 24  13  15  ar  
 25  14  16  ar  
 26  14  31  1   
 27  15  17  ar  
 28  15  32  1   
 29  16  18  ar  
 30  16  33  1   
 31  17  18  ar  
 32  17  34  1   
 33  18  19  1   
 34  19  20  1   
 35  20  35  1   
 36  20  36  1   
 37  20  37  1   
@<TRIPOS>SUBSTRUCTURE
  1 ****  10 GROUP 4 **** **** 0

# MOE 2024.06 (io_trps.svl 2023.06)
