@<TRIPOS>MOLECULE
NONAME
33 34 1 0 0 
SMALL
USER_CHARGES


@<TRIPOS>ATOM
  1 S        0.4050     0.2950    -1.2720 S.3   1 <1>  -0.0800 
  2 C        1.4550     0.6930     0.0470 C.2   1 <1>   0.4420 
  3 C       -0.8610     1.1470    -0.4440 C.2   1 <1>   0.1980 
  4 N        0.8510     1.3790     0.9490 N.2   1 <1>  -0.3380 
  5 N        2.7520     0.2380    -0.0420 N.am  1 <1>  -0.4940 
  6 N       -0.4610     1.6340     0.6670 N.2   1 <1>  -0.3380 
  7 C       -2.2340     1.2020    -1.1230 C.3   1 <1>   1.2000 
  8 C        3.8030     0.3890     0.8270 C.2   1 <1>   0.5440 
  9 F       -3.1480     1.8710    -0.4280 F     1 <1>  -0.3400 
 10 F       -2.1790     1.7840    -2.3170 F     1 <1>  -0.3400 
 11 F       -2.7410    -0.0100    -1.3290 F     1 <1>  -0.3400 
 12 O        3.6720     1.0020     1.8640 O.2   1 <1>  -0.5700 
 13 C        5.0690    -0.2090     0.4630 C.ar  1 <1>   0.0860 
 14 C        6.0080     0.5050    -0.2910 C.ar  1 <1>  -0.1440 
 15 C        5.3720    -1.5260     0.8290 C.ar  1 <1>  -0.1430 
 16 C        7.1930    -0.0940    -0.6830 C.ar  1 <1>  -0.1500 
 17 C        5.7480     1.9550    -0.6850 C.3   1 <1>  -0.0960 
 18 C        6.5620    -2.1090     0.4290 C.ar  1 <1>  -0.1500 
 19 C        4.4030    -2.3370     1.6830 C.3   1 <1>  -0.0970 
 20 C        7.4750    -1.4020    -0.3320 C.ar  1 <1>  -0.1430 
 21 C        8.7780    -2.0490    -0.7650 C.3   1 <1>  -0.0970 
 22 H        2.9760    -0.2930    -0.8780 H     1 <1>   0.3700 
 23 H        7.9100     0.4600    -1.2630 H     1 <1>   0.1500 
 24 H        4.9220     2.0140    -1.3690 H     1 <1>   0.0800 
 25 H        6.6120     2.3890    -1.1550 H     1 <1>   0.0800 
 26 H        5.5170     2.5380     0.1900 H     1 <1>   0.0800 
 27 H        6.7870    -3.1220     0.7120 H     1 <1>   0.1500 
 28 H        4.8350    -3.2790     1.9710 H     1 <1>   0.0800 
 29 H        4.1590    -1.7950     2.5800 H     1 <1>   0.0800 
 30 H        3.4970    -2.5320     1.1390 H     1 <1>   0.0800 
 31 H        9.1110    -1.6370    -1.7000 H     1 <1>   0.0800 
 32 H        8.6490    -3.1090    -0.8900 H     1 <1>   0.0800 
 33 H        9.5340    -1.8770    -0.0200 H     1 <1>   0.0800 
@<TRIPOS>BOND
  1   1   2  1   
  2   1   3  1   
  3   2   4  2   
  4   2   5  1   
  5   3   6  2   
  6   3   7  1   
  7   4   6  1   
  8   5   8  am  
  9   5  22  1   
 10   7   9  1   
 11   7  10  1   
 12   7  11  1   
 13   8  12  2   
 14   8  13  1   
 15  13  14  ar  
 16  13  15  ar  
 17  14  16  ar  
 18  14  17  1   
 19  15  18  ar  
 20  15  19  1   
 21  16  20  ar  
 22  16  23  1   
 23  17  24  1   
 24  17  25  1   
 25  17  26  1   
 26  18  20  ar  
 27  18  27  1   
 28  19  28  1   
 29  19  29  1   
 30  19  30  1   
 31  20  21  1   
 32  21  31  1   
 33  21  32  1   
 34  21  33  1   
@<TRIPOS>SUBSTRUCTURE
  1 ****   5 GROUP 4 **** **** 0

# MOE 2024.06 (io_trps.svl 2023.06)
