@<TRIPOS>MOLECULE
NONAME
48 49 1 0 0 
SMALL
USER_CHARGES


@<TRIPOS>ATOM
  1 O        0.6910    -0.0420    -3.0270 O.2   1 <1>  -0.5700 
  2 C        0.1970    -0.7530    -2.1860 C.2   1 <1>   0.5690 
  3 N        0.8210    -1.1380    -1.0360 N.am  1 <1>  -0.5470 
  4 C       -1.2470    -1.2280    -2.3770 C.3   1 <1>   0.1710 
  5 C        2.0410    -0.7790    -0.4360 C.ar  1 <1>   0.1170 
  6 N       -2.0320    -1.3310    -1.1040 N.3   1 <1>  -0.8100 
  7 C        2.2060    -1.0230     0.9310 C.ar  1 <1>   0.0830 
  8 C        3.0850    -0.1990    -1.1480 C.ar  1 <1>  -0.1500 
  9 C       -3.3380    -1.9800    -1.3310 C.3   1 <1>   0.1100 
 10 C       -2.2000    -0.0050    -0.4630 C.3   1 <1>   0.1100 
 11 O        1.1620    -1.6030     1.6000 O.3   1 <1>  -0.3630 
 12 C        3.3980    -0.6760     1.5580 C.ar  1 <1>  -0.1500 
 13 C        4.2690     0.1430    -0.5210 C.ar  1 <1>  -0.1500 
 14 C       -4.1340    -2.1140    -0.0150 C.3   1 <1>   0.3430 
 15 C       -2.9760    -0.1150     0.8640 C.3   1 <1>   0.3430 
 16 C        1.3590    -2.1510     2.8870 C.3   1 <1>   0.0400 
 17 C        4.4290    -0.0940     0.8400 C.ar  1 <1>   0.0830 
 18 N       -4.3120    -0.7880     0.6750 N.4   1 <1>  -0.9590 
 19 O        5.5560     0.2130     1.5360 O.3   1 <1>  -0.3620 
 20 C       -5.0490    -0.9540     1.9530 C.3   1 <1>   0.3430 
 21 C        6.6530     0.8310     0.9000 C.3   1 <1>   0.0400 
 22 C       -5.5440     0.4020     2.4420 C.3   1 <1>  -0.2400 
 23 H        0.2200    -1.6790    -0.4090 H     1 <1>   0.3700 
 24 H       -1.2010    -2.1940    -2.8470 H     1 <1>   0.0800 
 25 H       -1.7370    -0.5540    -3.0580 H     1 <1>   0.0800 
 26 H        2.9790    -0.0130    -2.2010 H     1 <1>   0.1500 
 27 H       -3.1780    -2.9640    -1.7380 H     1 <1>   0.0800 
 28 H       -3.9130    -1.4160    -2.0460 H     1 <1>   0.0800 
 29 H       -2.7160     0.6670    -1.1300 H     1 <1>   0.0800 
 30 H       -1.2350     0.4250    -0.2510 H     1 <1>   0.0800 
 31 H        3.5580    -0.8400     2.6050 H     1 <1>   0.1500 
 32 H        5.0490     0.5890    -1.1090 H     1 <1>   0.1500 
 33 H       -3.6010    -2.7900     0.6330 H     1 <1>   0.0800 
 34 H       -5.0970    -2.5490    -0.2280 H     1 <1>   0.0800 
 35 H       -3.1130     0.8720     1.2720 H     1 <1>   0.0800 
 36 H       -2.3780    -0.6820     1.5590 H     1 <1>   0.0800 
 37 H        0.4610    -2.6650     3.1770 H     1 <1>   0.0800 
 38 H        1.5640    -1.3540     3.5800 H     1 <1>   0.0800 
 39 H        2.1800    -2.8460     2.8490 H     1 <1>   0.0800 
 40 H       -4.8730    -0.1900     0.0550 H     1 <1>   0.4500 
 41 H       -4.4110    -1.4080     2.6960 H     1 <1>   0.0800 
 42 H       -5.8990    -1.6000     1.8000 H     1 <1>   0.0800 
 43 H        7.4200     0.9880     1.6370 H     1 <1>   0.0800 
 44 H        6.3360     1.7750     0.4950 H     1 <1>   0.0800 
 45 H        7.0190     0.1810     0.1250 H     1 <1>   0.0800 
 46 H       -4.7280     1.0510     2.7010 H     1 <1>   0.0800 
 47 H       -6.1380     0.2590     3.3280 H     1 <1>   0.0800 
 48 H       -6.1660     0.8740     1.7020 H     1 <1>   0.0800 
@<TRIPOS>BOND
  1   1   2  2   
  2   2   3  am  
  3   2   4  1   
  4   3   5  1   
  5   3  23  1   
  6   4   6  1   
  7   4  24  1   
  8   4  25  1   
  9   5   7  ar  
 10   5   8  ar  
 11   6   9  1   
 12   6  10  1   
 13   7  11  1   
 14   7  12  ar  
 15   8  13  ar  
 16   8  26  1   
 17   9  14  1   
 18   9  27  1   
 19   9  28  1   
 20  10  15  1   
 21  10  29  1   
 22  10  30  1   
 23  11  16  1   
 24  12  17  ar  
 25  12  31  1   
 26  13  17  ar  
 27  13  32  1   
 28  14  18  1   
 29  14  33  1   
 30  14  34  1   
 31  15  18  1   
 32  15  35  1   
 33  15  36  1   
 34  16  37  1   
 35  16  38  1   
 36  16  39  1   
 37  17  19  1   
 38  18  20  1   
 39  18  40  1   
 40  19  21  1   
 41  20  22  1   
 42  20  41  1   
 43  20  42  1   
 44  21  43  1   
 45  21  44  1   
 46  21  45  1   
 47  22  46  1   
 48  22  47  1   
 49  22  48  1   
@<TRIPOS>SUBSTRUCTURE
  1 ****   3 GROUP 4 **** **** 0

# MOE 2024.06 (io_trps.svl 2023.06)
