@<TRIPOS>MOLECULE
NONAME
41 42 1 0 0 
SMALL
USER_CHARGES


@<TRIPOS>ATOM
  1 O        0.4700     0.9190     1.3840 O.2   1 <1>  -0.5700 
  2 C        0.3330     1.5710     0.3680 C.2   1 <1>   0.5440 
  3 N       -0.9040     1.6490    -0.2080 N.am  1 <1>  -0.7300 
  4 C        1.4700     2.2460    -0.2320 C.ar  1 <1>   0.0860 
  5 C       -2.1360     1.0260     0.3080 C.3   1 <1>   0.2200 
  6 C        2.7550     1.7170    -0.1140 C.ar  1 <1>  -0.1500 
  7 C        1.3310     3.4430    -0.9400 C.ar  1 <1>  -0.1500 
  8 C       -2.4930    -0.1370    -0.6240 C.3   1 <1>  -0.1600 
  9 C       -3.2070     2.1210     0.4170 C.3   1 <1>  -0.1600 
 10 C        3.8470     2.3520    -0.6780 C.ar  1 <1>   0.0830 
 11 C        2.4180     4.0750    -1.5180 C.ar  1 <1>  -0.1500 
 12 C       -3.8100    -0.8580    -0.2930 C.3   1 <1>  -0.1600 
 13 C       -4.4240     1.6700     1.2390 C.3   1 <1>  -0.1600 
 14 O        5.0740     1.8000    -0.5340 O.3   1 <1>  -0.2320 
 15 C        3.6820     3.5290    -1.3930 C.ar  1 <1>  -0.1500 
 16 C       -5.0450    -0.0220    -0.6580 C.3   1 <1>  -0.1600 
 17 C       -5.5170     0.9480     0.4360 C.3   1 <1>  -0.1600 
 18 C        6.1070     2.4180     0.0320 C.2   1 <1>   0.6590 
 19 O        7.2340     2.1180    -0.2530 O.2   1 <1>  -0.5700 
 20 C        5.8380     3.4790     1.0800 C.3   1 <1>  -0.1790 
 21 H       -1.0010     2.0890    -1.1210 H     1 <1>   0.3700 
 22 H       -1.9450     0.6330     1.2940 H     1 <1>   0.0800 
 23 H        2.8970     0.7980     0.4280 H     1 <1>   0.1500 
 24 H        0.3570     3.8900    -1.0360 H     1 <1>   0.1500 
 25 H       -1.6970    -0.8580    -0.5570 H     1 <1>   0.0800 
 26 H       -2.5300     0.2130    -1.6410 H     1 <1>   0.0800 
 27 H       -3.5130     2.4570    -0.5580 H     1 <1>   0.0800 
 28 H       -2.7650     2.9550     0.9330 H     1 <1>   0.0800 
 29 H        2.2820     4.9930    -2.0650 H     1 <1>   0.1500 
 30 H       -3.8370    -1.1490     0.7430 H     1 <1>   0.0800 
 31 H       -3.8390    -1.7620    -0.8770 H     1 <1>   0.0800 
 32 H       -4.8720     2.5370     1.6950 H     1 <1>   0.0800 
 33 H       -4.0940     1.0360     2.0450 H     1 <1>   0.0800 
 34 H        4.5300     4.0090    -1.8500 H     1 <1>   0.1500 
 35 H       -5.8610    -0.6910    -0.8740 H     1 <1>   0.0800 
 36 H       -4.8520     0.5270    -1.5640 H     1 <1>   0.0800 
 37 H       -6.1490     1.6860    -0.0280 H     1 <1>   0.0800 
 38 H       -6.1330     0.4060     1.1340 H     1 <1>   0.0800 
 39 H        5.4930     4.3820     0.6120 H     1 <1>   0.0800 
 40 H        6.7450     3.6910     1.6150 H     1 <1>   0.0800 
 41 H        5.0980     3.1280     1.7750 H     1 <1>   0.0800 
@<TRIPOS>BOND
  1   1   2  2   
  2   2   3  am  
  3   2   4  1   
  4   3   5  1   
  5   3  21  1   
  6   4   6  ar  
  7   4   7  ar  
  8   5   8  1   
  9   5   9  1   
 10   5  22  1   
 11   6  10  ar  
 12   6  23  1   
 13   7  11  ar  
 14   7  24  1   
 15   8  12  1   
 16   8  25  1   
 17   8  26  1   
 18   9  13  1   
 19   9  27  1   
 20   9  28  1   
 21  10  14  1   
 22  10  15  ar  
 23  11  15  ar  
 24  11  29  1   
 25  12  16  1   
 26  12  30  1   
 27  12  31  1   
 28  13  17  1   
 29  13  32  1   
 30  13  33  1   
 31  14  18  1   
 32  15  34  1   
 33  16  17  1   
 34  16  35  1   
 35  16  36  1   
 36  17  37  1   
 37  17  38  1   
 38  18  19  2   
 39  18  20  1   
 40  20  39  1   
 41  20  40  1   
 42  20  41  1   
@<TRIPOS>SUBSTRUCTURE
  1 ****   2 GROUP 4 **** **** 0

# MOE 2024.06 (io_trps.svl 2023.06)
