@<TRIPOS>MOLECULE
NONAME
42 43 1 0 0 
SMALL
USER_CHARGES


@<TRIPOS>ATOM
  1 CL      -0.6870    -0.2340     1.0230 Cl    1 <1>  -0.1770 
  2 C        0.8310     0.6300     0.8920 C.ar  1 <1>   0.1770 
  3 C        0.8490     2.0170     0.8020 C.ar  1 <1>   0.0830 
  4 C        2.0080    -0.0950     0.8980 C.ar  1 <1>  -0.1500 
  5 O       -0.3000     2.7370     0.7940 O.3   1 <1>  -0.2320 
  6 C        2.0640     2.6810     0.7390 C.ar  1 <1>  -0.1500 
  7 C        3.2200     0.5730     0.8250 C.ar  1 <1>  -0.1500 
  8 C       -1.1400     2.7330    -0.2370 C.2   1 <1>   0.6590 
  9 C        3.2470     1.9580     0.7480 C.ar  1 <1>  -0.1500 
 10 O       -0.8880     2.1890    -1.2820 O.2   1 <1>  -0.5700 
 11 C       -2.4520     3.4670    -0.0200 C.3   1 <1>  -0.0190 
 12 C       -3.6220     2.5740    -0.4530 C.3   1 <1>   0.1960 
 13 C       -2.4770     4.8140    -0.7670 C.3   1 <1>  -0.1600 
 14 N       -4.9060     3.2670    -0.2490 N.am  1 <1>  -0.8490 
 15 C       -3.8630     5.4590    -0.6440 C.3   1 <1>  -0.1600 
 16 S       -6.2240     2.2370    -0.5330 S.o2  1 <1>   1.3330 
 17 C       -4.9670     4.4850    -1.0660 C.3   1 <1>   0.1960 
 18 O       -5.8980     0.9340     0.0000 O.2   1 <1>  -0.6500 
 19 O       -6.5920     2.3750    -1.9240 O.2   1 <1>  -0.6500 
 20 C       -7.5100     2.9480     0.5000 C.3   1 <1>  -0.0550 
 21 C       -8.8440     2.1830     0.4410 C.3   1 <1>  -0.1600 
 22 C       -9.9010     2.8350     1.3380 C.3   1 <1>  -0.2400 
 23 H        1.9730    -1.1680     0.9620 H     1 <1>   0.1500 
 24 H        2.0860     3.7550     0.6790 H     1 <1>   0.1500 
 25 H        4.1430     0.0170     0.8290 H     1 <1>   0.1500 
 26 H        4.1910     2.4730     0.6940 H     1 <1>   0.1500 
 27 H       -2.5590     3.6500     1.0340 H     1 <1>   0.0800 
 28 H       -3.5940     1.6710     0.1360 H     1 <1>   0.0800 
 29 H       -3.5190     2.2950    -1.4900 H     1 <1>   0.0800 
 30 H       -2.2560     4.6470    -1.8090 H     1 <1>   0.0800 
 31 H       -1.7260     5.4740    -0.3680 H     1 <1>   0.0800 
 32 H       -3.9080     6.3380    -1.2630 H     1 <1>   0.0800 
 33 H       -4.0380     5.7640     0.3730 H     1 <1>   0.0800 
 34 H       -5.9240     4.9630    -0.9410 H     1 <1>   0.0800 
 35 H       -4.8540     4.2340    -2.1100 H     1 <1>   0.0800 
 36 H       -7.6830     3.9620     0.1980 H     1 <1>   0.0800 
 37 H       -7.1650     2.9630     1.5150 H     1 <1>   0.0800 
 38 H       -8.6830     1.1650     0.7560 H     1 <1>   0.0800 
 39 H       -9.1980     2.1620    -0.5770 H     1 <1>   0.0800 
 40 H       -9.5740     2.8440     2.3630 H     1 <1>   0.0800 
 41 H      -10.8210     2.2810     1.2800 H     1 <1>   0.0800 
 42 H      -10.0920     3.8470     1.0240 H     1 <1>   0.0800 
@<TRIPOS>BOND
  1   1   2  1   
  2   2   3  ar  
  3   2   4  ar  
  4   3   5  1   
  5   3   6  ar  
  6   4   7  ar  
  7   4  23  1   
  8   5   8  1   
  9   6   9  ar  
 10   6  24  1   
 11   7   9  ar  
 12   7  25  1   
 13   8  10  2   
 14   8  11  1   
 15   9  26  1   
 16  11  12  1   
 17  11  13  1   
 18  11  27  1   
 19  12  14  1   
 20  12  28  1   
 21  12  29  1   
 22  13  15  1   
 23  13  30  1   
 24  13  31  1   
 25  14  16  am  
 26  14  17  1   
 27  15  17  1   
 28  15  32  1   
 29  15  33  1   
 30  16  18  2   
 31  16  19  2   
 32  16  20  1   
 33  17  34  1   
 34  17  35  1   
 35  20  21  1   
 36  20  36  1   
 37  20  37  1   
 38  21  22  1   
 39  21  38  1   
 40  21  39  1   
 41  22  40  1   
 42  22  41  1   
 43  22  42  1   
@<TRIPOS>SUBSTRUCTURE
  1 ****  11 GROUP 4 **** **** 0

# MOE 2024.06 (io_trps.svl 2023.06)
