@<TRIPOS>MOLECULE
Structure2436
32 33 1 0 0 
SMALL
USER_CHARGES


@<TRIPOS>ATOM
  1 CL      -0.4380    -0.2450     0.9830 Cl    1 <1>  -0.1770 
  2 C        0.5390    -1.5730     0.3920 C.ar  1 <1>   0.1770 
  3 C       -0.0350    -2.8250     0.1920 C.ar  1 <1>   0.0820 
  4 C        1.8760    -1.3420     0.1260 C.ar  1 <1>  -0.1500 
  5 O       -1.3550    -2.9750     0.4740 O.3   1 <1>  -0.3630 
  6 C        0.7660    -3.8590    -0.2860 C.ar  1 <1>  -0.1500 
  7 C        2.6620    -2.3770    -0.3510 C.ar  1 <1>  -0.1500 
  8 C       -2.0900    -4.0870     0.0220 C.3   1 <1>   0.1200 
  9 C        2.1070    -3.6300    -0.5560 C.ar  1 <1>  -0.1500 
 10 C       -3.5730    -3.8380     0.3410 C.3   1 <1>  -0.0800 
 11 C       -4.4480    -5.0010    -0.1540 C.3   1 <1>  -0.1600 
 12 C       -4.0740    -2.5110    -0.2640 C.3   1 <1>  -0.1600 
 13 C       -5.9340    -4.7410     0.1070 C.3   1 <1>   0.3430 
 14 C       -5.5620    -2.2920     0.0000 C.3   1 <1>   0.3430 
 15 N       -6.3350    -3.4530    -0.5210 N.4   1 <1>  -0.9060 
 16 H        2.2910    -0.3640     0.2900 H     1 <1>   0.1500 
 17 H        0.3710    -4.8430    -0.4490 H     1 <1>   0.1500 
 18 H        3.7050    -2.2080    -0.5630 H     1 <1>   0.1500 
 19 H       -1.7270    -4.9620     0.5330 H     1 <1>   0.0800 
 20 H       -1.9330    -4.1860    -1.0390 H     1 <1>   0.0800 
 21 H        2.7240    -4.4320    -0.9250 H     1 <1>   0.1500 
 22 H       -3.6620    -3.7830     1.4150 H     1 <1>   0.0800 
 23 H       -4.1620    -5.9060     0.3550 H     1 <1>   0.0800 
 24 H       -4.2940    -5.1630    -1.2070 H     1 <1>   0.0800 
 25 H       -3.8860    -2.4890    -1.3230 H     1 <1>   0.0800 
 26 H       -3.5320    -1.6880     0.1720 H     1 <1>   0.0800 
 27 H       -6.1080    -4.6970     1.1710 H     1 <1>   0.0800 
 28 H       -6.5210    -5.5510    -0.2980 H     1 <1>   0.0800 
 29 H       -5.8840    -1.3820    -0.4820 H     1 <1>   0.0800 
 30 H       -5.7260    -2.1890     1.0610 H     1 <1>   0.0800 
 31 H       -7.3400    -3.2910    -0.3750 H     1 <1>   0.4500 
 32 H       -6.1840    -3.5160    -1.5350 H     1 <1>   0.4500 
@<TRIPOS>BOND
  1   1   2  1   
  2   2   3  ar  
  3   2   4  ar  
  4   3   5  1   
  5   3   6  ar  
  6   4   7  ar  
  7   4  16  1   
  8   5   8  1   
  9   6   9  ar  
 10   6  17  1   
 11   7   9  ar  
 12   7  18  1   
 13   8  10  1   
 14   8  19  1   
 15   8  20  1   
 16   9  21  1   
 17  10  11  1   
 18  10  12  1   
 19  10  22  1   
 20  11  13  1   
 21  11  23  1   
 22  11  24  1   
 23  12  14  1   
 24  12  25  1   
 25  12  26  1   
 26  13  15  1   
 27  13  27  1   
 28  13  28  1   
 29  14  15  1   
 30  14  29  1   
 31  14  30  1   
 32  15  31  1   
 33  15  32  1   
@<TRIPOS>SUBSTRUCTURE
  1 ****   5 GROUP 4 **** **** 0

# MOE 2024.06 (io_trps.svl 2023.06)
