@<TRIPOS>MOLECULE
NONAME
56 59 1 0 0 
SMALL
USER_CHARGES


@<TRIPOS>ATOM
  1 O        0.4070    -0.6620    -0.1440 O.2   1 <1>  -0.5700 
  2 C        1.3570    -0.6460     0.6000 C.2   1 <1>   0.4950 
  3 C        2.5220     0.1610     0.4260 C.2   1 <1>  -0.1240 
  4 C        1.3080    -1.6590     1.7310 C.3   1 <1>  -0.0990 
  5 C        3.7290    -0.1930     0.9760 C.2   1 <1>  -0.0380 
  6 C        2.3910     1.4120    -0.4610 C.3   1 <1>   0.5020 
  7 C        2.4740    -1.5080     2.7150 C.3   1 <1>  -0.1600 
  8 N        4.9810     0.3580     0.7420 N.pl3 1 <1>  -0.6000 
  9 C        3.7940    -1.3600     1.9550 C.3   1 <1>  -0.0220 
 10 N        3.2700     2.4910     0.0560 N.am  1 <1>  -0.4770 
 11 C        1.0370     2.0550    -0.8250 C.ar  1 <1>  -0.1430 
 12 C        5.3910     1.3760    -0.1430 C.ar  1 <1>   0.1000 
 13 C        4.5500     2.4370    -0.4980 C.ar  1 <1>   0.1170 
 14 C        3.0450     3.0590     1.2920 C.2   1 <1>   0.5690 
 15 C        0.0050     2.2370     0.0880 C.ar  1 <1>  -0.1500 
 16 C        0.8500     2.5060    -2.1240 C.ar  1 <1>  -0.1500 
 17 C        6.6720     1.3350    -0.6750 C.ar  1 <1>  -0.1500 
 18 C        4.9870     3.4090    -1.3850 C.ar  1 <1>  -0.1500 
 19 O        2.1930     2.6750     2.0600 O.2   1 <1>  -0.5700 
 20 C        3.9060     4.2260     1.7620 C.3   1 <1>  -0.0990 
 21 C       -1.1870     2.8650    -0.2640 C.ar  1 <1>   0.0830 
 22 C       -0.3360     3.1120    -2.4990 C.ar  1 <1>  -0.1500 
 23 C        7.1090     2.3140    -1.5520 C.ar  1 <1>  -0.1500 
 24 C        6.2660     3.3500    -1.9100 C.ar  1 <1>  -0.1500 
 25 C        3.4080     5.5730     1.2150 C.3   1 <1>  -0.2400 
 26 O       -2.1670     3.0930     0.6610 O.3   1 <1>  -0.3620 
 27 C       -1.3630     3.2890    -1.5890 C.ar  1 <1>   0.0830 
 28 C       -1.9080     2.9730     2.0440 C.3   1 <1>   0.0400 
 29 O       -2.4840     3.8860    -2.0840 O.3   1 <1>  -0.3630 
 30 C       -3.7580     3.4570    -1.6550 C.3   1 <1>   0.0400 
 31 H        1.3290    -2.6410     1.2950 H     1 <1>   0.0800 
 32 H        0.3760    -1.5490     2.2550 H     1 <1>   0.0800 
 33 H        2.8010     1.0940    -1.4040 H     1 <1>   0.0800 
 34 H        2.5140    -2.3570     3.3750 H     1 <1>   0.0800 
 35 H        2.3170    -0.6250     3.3120 H     1 <1>   0.0800 
 36 H        5.7620    -0.0820     1.2370 H     1 <1>   0.4000 
 37 H        4.5760    -1.1920     2.6760 H     1 <1>   0.0800 
 38 H        4.0220    -2.2640     1.4180 H     1 <1>   0.0800 
 39 H        0.1460     1.8730     1.0850 H     1 <1>   0.1500 
 40 H        1.6280     2.3900    -2.8580 H     1 <1>   0.1500 
 41 H        7.3340     0.5310    -0.4090 H     1 <1>   0.1500 
 42 H        4.3250     4.2100    -1.6610 H     1 <1>   0.1500 
 43 H        4.9310     4.0720     1.4830 H     1 <1>   0.0800 
 44 H        3.8730     4.2540     2.8360 H     1 <1>   0.0800 
 45 H       -0.4730     3.4520    -3.5090 H     1 <1>   0.1500 
 46 H        8.1050     2.2670    -1.9580 H     1 <1>   0.1500 
 47 H        6.6030     4.1090    -2.5960 H     1 <1>   0.1500 
 48 H        3.4370     5.5780     0.1410 H     1 <1>   0.0800 
 49 H        4.0250     6.3740     1.5830 H     1 <1>   0.0800 
 50 H        2.3930     5.7440     1.5310 H     1 <1>   0.0800 
 51 H       -2.7620     3.3450     2.5780 H     1 <1>   0.0800 
 52 H       -1.0370     3.5570     2.2890 H     1 <1>   0.0800 
 53 H       -1.7530     1.9350     2.2800 H     1 <1>   0.0800 
 54 H       -4.4730     3.7200    -2.4120 H     1 <1>   0.0800 
 55 H       -4.0000     3.9580    -0.7350 H     1 <1>   0.0800 
 56 H       -3.7410     2.3900    -1.5140 H     1 <1>   0.0800 
@<TRIPOS>BOND
  1   1   2  2   
  2   2   3  1   
  3   2   4  1   
  4   3   5  2   
  5   3   6  1   
  6   4   7  1   
  7   4  31  1   
  8   4  32  1   
  9   5   8  1   
 10   5   9  1   
 11   6  10  1   
 12   6  11  1   
 13   6  33  1   
 14   7   9  1   
 15   7  34  1   
 16   7  35  1   
 17   8  12  1   
 18   8  36  1   
 19   9  37  1   
 20   9  38  1   
 21  10  13  1   
 22  10  14  am  
 23  11  15  ar  
 24  11  16  ar  
 25  12  13  ar  
 26  12  17  ar  
 27  13  18  ar  
 28  14  19  2   
 29  14  20  1   
 30  15  21  ar  
 31  15  39  1   
 32  16  22  ar  
 33  16  40  1   
 34  17  23  ar  
 35  17  41  1   
 36  18  24  ar  
 37  18  42  1   
 38  20  25  1   
 39  20  43  1   
 40  20  44  1   
 41  21  26  1   
 42  21  27  ar  
 43  22  27  ar  
 44  22  45  1   
 45  23  24  ar  
 46  23  46  1   
 47  24  47  1   
 48  25  48  1   
 49  25  49  1   
 50  25  50  1   
 51  26  28  1   
 52  27  29  1   
 53  28  51  1   
 54  28  52  1   
 55  28  53  1   
 56  29  30  1   
 57  30  54  1   
 58  30  55  1   
 59  30  56  1   
@<TRIPOS>SUBSTRUCTURE
  1 ****   6 GROUP 4 **** **** 0

# MOE 2024.06 (io_trps.svl 2023.06)
