@<TRIPOS>MOLECULE
NONAME
36 37 1 0 0 
SMALL
USER_CHARGES


@<TRIPOS>ATOM
  1 S        0.2240     0.6570     0.4730 S.3   1 <1>  -0.3710 
  2 C       -1.3740     1.4510     0.3420 C.2   1 <1>   0.6510 
  3 C       -0.1430    -1.1490     0.3600 C.3   1 <1>   0.0700 
  4 N       -2.3910     0.6830     0.2100 N.2   1 <1>  -0.6290 
  5 N       -1.4050     2.8300     0.3900 N.am  1 <1>  -0.4200 
  6 C        1.1810    -1.9010     0.4620 C.3   1 <1>  -0.2400 
  7 C       -3.6370     1.2550     0.1000 C.ar  1 <1>   0.1790 
  8 C       -2.6290     3.4540     0.2790 C.2   1 <1>   0.5440 
  9 C       -0.1720     3.6580     0.5400 C.3   1 <1>   0.1400 
 10 C       -3.8040     2.6420     0.1290 C.ar  1 <1>   0.0860 
 11 C       -4.7440     0.4290    -0.0430 C.ar  1 <1>  -0.1500 
 12 O       -2.7050     4.6730     0.3070 O.2   1 <1>  -0.5700 
 13 C        0.4280     3.9580    -0.8340 C.3   1 <1>  -0.2400 
 14 C       -5.0980     3.1550     0.0100 C.ar  1 <1>  -0.1500 
 15 C       -6.0380     0.9260    -0.1630 C.ar  1 <1>   0.0860 
 16 C       -6.1830     2.3180    -0.1320 C.ar  1 <1>  -0.1500 
 17 C       -7.1920     0.0590    -0.3130 C.2   1 <1>   0.6340 
 18 O       -8.3270     0.4770    -0.4190 O.2   1 <1>  -0.5700 
 19 O       -6.9890    -1.2620    -0.3360 O.3   1 <1>  -0.4300 
 20 C       -8.0560    -2.1790    -0.4780 C.3   1 <1>   0.0400 
 21 H       -0.6300    -1.3210    -0.5840 H     1 <1>   0.0800 
 22 H       -0.8070    -1.3950     1.1710 H     1 <1>   0.0800 
 23 H        1.8340    -1.6100    -0.3420 H     1 <1>   0.0800 
 24 H        1.0070    -2.9600     0.3990 H     1 <1>   0.0800 
 25 H        1.6590    -1.6840     1.4000 H     1 <1>   0.0800 
 26 H        0.5480     3.1580     1.1630 H     1 <1>   0.0800 
 27 H       -0.4140     4.5850     1.0320 H     1 <1>   0.0800 
 28 H       -4.5750    -0.6330    -0.0610 H     1 <1>   0.1500 
 29 H        0.7050     3.0480    -1.3360 H     1 <1>   0.0800 
 30 H        1.3090     4.5630    -0.7180 H     1 <1>   0.0800 
 31 H       -0.2780     4.5010    -1.4370 H     1 <1>   0.0800 
 32 H       -5.2380     4.2240     0.0310 H     1 <1>   0.1500 
 33 H       -7.1720     2.7400    -0.2210 H     1 <1>   0.1500 
 34 H       -7.6530    -3.1760    -0.4690 H     1 <1>   0.0800 
 35 H       -8.5550    -1.9890    -1.4130 H     1 <1>   0.0800 
 36 H       -8.7400    -2.0480     0.3420 H     1 <1>   0.0800 
@<TRIPOS>BOND
  1   1   2  1   
  2   1   3  1   
  3   2   4  2   
  4   2   5  1   
  5   3   6  1   
  6   3  21  1   
  7   3  22  1   
  8   4   7  1   
  9   5   8  am  
 10   5   9  1   
 11   6  23  1   
 12   6  24  1   
 13   6  25  1   
 14   7  10  ar  
 15   7  11  ar  
 16   8  10  1   
 17   8  12  2   
 18   9  13  1   
 19   9  26  1   
 20   9  27  1   
 21  10  14  ar  
 22  11  15  ar  
 23  11  28  1   
 24  13  29  1   
 25  13  30  1   
 26  13  31  1   
 27  14  16  ar  
 28  14  32  1   
 29  15  16  ar  
 30  15  17  1   
 31  16  33  1   
 32  17  18  2   
 33  17  19  1   
 34  19  20  1   
 35  20  34  1   
 36  20  35  1   
 37  20  36  1   
@<TRIPOS>SUBSTRUCTURE
  1 ****   7 GROUP 4 **** **** 0

# MOE 2024.06 (io_trps.svl 2023.06)
