@<TRIPOS>MOLECULE
NONAME
32 33 1 0 0 
SMALL
USER_CHARGES


@<TRIPOS>ATOM
  1 O       -0.2770    -0.8720    -0.0560 O.2   1 <1>  -0.5700 
  2 C       -0.0980    -2.0800    -0.0160 C.2   1 <1>   0.7160 
  3 N        1.2090    -2.5210     0.1140 N.am  1 <1>  -0.6600 
  4 C       -1.2600    -2.9610    -0.1040 C.2   1 <1>   0.2030 
  5 C        2.3640    -1.5770    -0.0010 C.3   1 <1>   0.1400 
  6 C        1.5960    -3.9410     0.3810 C.3   1 <1>   0.1400 
  7 N       -1.2940    -4.2560    -0.2480 N.2   1 <1>  -0.4100 
  8 C       -2.5730    -2.5100    -0.0540 C.2   1 <1>  -0.1500 
  9 C        3.6050    -2.2830    -0.5870 C.3   1 <1>   0.2000 
 10 C        3.0250    -4.0480     0.9520 C.3   1 <1>   0.2000 
 11 O       -2.5320    -4.6850    -0.2910 O.3   1 <1>  -0.0190 
 12 C       -3.2980    -3.6240    -0.1750 C.2   1 <1>  -0.0400 
 13 O        3.9760    -3.4350     0.1240 O.3   1 <1>  -0.5600 
 14 C        4.8270    -1.3690    -0.6120 C.3   1 <1>  -0.2400 
 15 C        3.4650    -5.4980     1.1290 C.3   1 <1>  -0.2400 
 16 C       -4.8010    -3.8080    -0.1950 C.3   1 <1>  -0.0600 
 17 H        2.5980    -1.1810     0.9720 H     1 <1>   0.0800 
 18 H        2.1000    -0.7510    -0.6380 H     1 <1>   0.0800 
 19 H        1.5320    -4.5060    -0.5330 H     1 <1>   0.0800 
 20 H        0.9130    -4.3720     1.0920 H     1 <1>   0.0800 
 21 H       -2.8790    -1.4850     0.0560 H     1 <1>   0.1500 
 22 H        3.3770    -2.5940    -1.5930 H     1 <1>   0.0800 
 23 H        3.0600    -3.5490     1.9050 H     1 <1>   0.0800 
 24 H        5.0900    -1.0710     0.3870 H     1 <1>   0.0800 
 25 H        4.6190    -0.4880    -1.1920 H     1 <1>   0.0800 
 26 H        5.6580    -1.8840    -1.0590 H     1 <1>   0.0800 
 27 H        3.4690    -6.0050     0.1810 H     1 <1>   0.0800 
 28 H        2.7940    -6.0110     1.7930 H     1 <1>   0.0800 
 29 H        4.4540    -5.5300     1.5510 H     1 <1>   0.0800 
 30 H       -5.2950    -2.8580    -0.0920 H     1 <1>   0.0800 
 31 H       -5.1010    -4.4470     0.6150 H     1 <1>   0.0800 
 32 H       -5.1010    -4.2580    -1.1240 H     1 <1>   0.0800 
@<TRIPOS>BOND
  1   1   2  2   
  2   2   3  am  
  3   2   4  1   
  4   3   5  1   
  5   3   6  1   
  6   4   7  2   
  7   4   8  1   
  8   5   9  1   
  9   5  17  1   
 10   5  18  1   
 11   6  10  1   
 12   6  19  1   
 13   6  20  1   
 14   7  11  1   
 15   8  12  2   
 16   8  21  1   
 17   9  13  1   
 18   9  14  1   
 19   9  22  1   
 20  10  13  1   
 21  10  15  1   
 22  10  23  1   
 23  11  12  1   
 24  12  16  1   
 25  14  24  1   
 26  14  25  1   
 27  14  26  1   
 28  15  27  1   
 29  15  28  1   
 30  15  29  1   
 31  16  30  1   
 32  16  31  1   
 33  16  32  1   
@<TRIPOS>SUBSTRUCTURE
  1 ****   3 GROUP 4 **** **** 0

# MOE 2024.06 (io_trps.svl 2023.06)
