@<TRIPOS>MOLECULE
NONAME
35 36 1 0 0 
SMALL
USER_CHARGES


@<TRIPOS>ATOM
  1 CL       0.0230    -0.7650     0.8020 Cl    1 <1>  -0.1770 
  2 C        1.7410    -0.4190     0.8090 C.ar  1 <1>   0.1770 
  3 C        2.6770    -1.4150     0.5180 C.ar  1 <1>   0.1000 
  4 C        2.1160     0.8770     1.1110 C.ar  1 <1>  -0.1500 
  5 N        2.3330    -2.7550     0.2040 N.pl3 1 <1>  -0.8380 
  6 C        4.0340    -1.0560     0.5390 C.ar  1 <1>   0.1170 
  7 C        3.4560     1.2130     1.1300 C.ar  1 <1>  -0.1500 
  8 C        1.8690    -3.6680     1.2980 C.3   1 <1>   0.2090 
  9 C        1.8220    -3.0660    -1.1700 C.3   1 <1>   0.2090 
 10 N        4.9570    -2.0730     0.2430 N.am  1 <1>  -0.5470 
 11 C        4.4070     0.2480     0.8450 C.ar  1 <1>  -0.1500 
 12 C        0.4330    -4.1860     1.0920 C.3   1 <1>   0.1200 
 13 C        0.3860    -3.6230    -1.1680 C.3   1 <1>   0.1200 
 14 C        6.3060    -2.1100     0.0580 C.2   1 <1>   0.5690 
 15 O        0.2400    -4.6390    -0.2170 O.3   1 <1>  -0.5600 
 16 O        7.0270    -1.1470     0.1450 O.2   1 <1>  -0.5700 
 17 C        6.9270    -3.4550    -0.2770 C.3   1 <1>  -0.0990 
 18 C        6.4020    -4.0550    -1.5920 C.3   1 <1>  -0.2400 
 19 H        1.3630     1.6130     1.3290 H     1 <1>   0.1500 
 20 H        3.7630     2.2180     1.3640 H     1 <1>   0.1500 
 21 H        1.9280    -3.1570     2.2440 H     1 <1>   0.0800 
 22 H        2.5330    -4.5130     1.3440 H     1 <1>   0.0800 
 23 H        2.4690    -3.7970    -1.6210 H     1 <1>   0.0800 
 24 H        1.8560    -2.1790    -1.7780 H     1 <1>   0.0800 
 25 H        4.4530    -2.9510     0.0910 H     1 <1>   0.3700 
 26 H        5.4460     0.5210     0.8640 H     1 <1>   0.1500 
 27 H       -0.2850    -3.4140     1.2990 H     1 <1>   0.0800 
 28 H        0.2430    -5.0110     1.7550 H     1 <1>   0.0800 
 29 H        0.1520    -4.0390    -2.1310 H     1 <1>   0.0800 
 30 H       -0.3240    -2.8440    -0.9540 H     1 <1>   0.0800 
 31 H        6.7360    -4.1320     0.5360 H     1 <1>   0.0800 
 32 H        7.9930    -3.3270    -0.3500 H     1 <1>   0.0800 
 33 H        5.3460    -4.2480    -1.5310 H     1 <1>   0.0800 
 34 H        6.9070    -4.9820    -1.8010 H     1 <1>   0.0800 
 35 H        6.5840    -3.3740    -2.4050 H     1 <1>   0.0800 
@<TRIPOS>BOND
  1   1   2  1   
  2   2   3  ar  
  3   2   4  ar  
  4   3   5  1   
  5   3   6  ar  
  6   4   7  ar  
  7   4  19  1   
  8   5   8  1   
  9   5   9  1   
 10   6  10  1   
 11   6  11  ar  
 12   7  11  ar  
 13   7  20  1   
 14   8  12  1   
 15   8  21  1   
 16   8  22  1   
 17   9  13  1   
 18   9  23  1   
 19   9  24  1   
 20  10  14  am  
 21  10  25  1   
 22  11  26  1   
 23  12  15  1   
 24  12  27  1   
 25  12  28  1   
 26  13  15  1   
 27  13  29  1   
 28  13  30  1   
 29  14  16  2   
 30  14  17  1   
 31  17  18  1   
 32  17  31  1   
 33  17  32  1   
 34  18  33  1   
 35  18  34  1   
 36  18  35  1   
@<TRIPOS>SUBSTRUCTURE
  1 ****   3 GROUP 4 **** **** 0

# MOE 2024.06 (io_trps.svl 2023.06)
