@<TRIPOS>MOLECULE
NONAME
23 23 1 0 0 
SMALL
USER_CHARGES


@<TRIPOS>ATOM
  1 S       -0.0690    -0.4560     0.0540 S.3   1 <1>  -0.0800 
  2 C        1.1020     0.7200    -0.4730 C.2   1 <1>   0.0960 
  3 C       -1.2210     0.8290     0.3380 C.2   1 <1>   0.0960 
  4 S        2.6980     0.0430    -0.9020 S.3   1 <1>  -0.2860 
  5 C        0.6330     1.9960    -0.4660 C.2   1 <1>  -0.0860 
  6 S       -2.7930     0.2680     0.9960 S.3   1 <1>  -0.2860 
  7 C       -0.7360     2.0510     0.0200 C.2   1 <1>  -0.1810 
  8 C        3.9360     1.1340    -0.0690 C.3   1 <1>  -0.0100 
  9 C        1.4030     3.1270    -0.9100 C.2   1 <1>   0.5960 
 10 C       -3.8250     0.0680    -0.5200 C.3   1 <1>  -0.0100 
 11 C       -1.4640     3.3920     0.1320 C.3   1 <1>   0.3010 
 12 O        1.1530     4.2830    -0.6860 O.2   1 <1>  -0.5700 
 13 O       -2.8180     3.1980     0.3110 O.3   1 <1>  -0.6800 
 14 H        4.8150     0.5420     0.1140 H     1 <1>   0.0800 
 15 H        3.5100     1.4770     0.8560 H     1 <1>   0.0800 
 16 H        4.1650     1.9530    -0.7260 H     1 <1>   0.0800 
 17 H        2.2830     2.9150    -1.4890 H     1 <1>   0.0600 
 18 H       -4.8030    -0.2560    -0.2130 H     1 <1>   0.0800 
 19 H       -3.3520    -0.6690    -1.1440 H     1 <1>   0.0800 
 20 H       -3.8730     1.0210    -1.0180 H     1 <1>   0.0800 
 21 H       -1.3460     3.9750    -0.7650 H     1 <1>   0.0800 
 22 H       -1.0890     3.9560     0.9690 H     1 <1>   0.0800 
 23 H       -2.9460     2.4130     0.8860 H     1 <1>   0.4000 
@<TRIPOS>BOND
  1   1   2  1   
  2   1   3  1   
  3   2   4  1   
  4   2   5  2   
  5   3   6  1   
  6   3   7  2   
  7   4   8  1   
  8   5   7  1   
  9   5   9  1   
 10   6  10  1   
 11   7  11  1   
 12   8  14  1   
 13   8  15  1   
 14   8  16  1   
 15   9  12  2   
 16   9  17  1   
 17  10  18  1   
 18  10  19  1   
 19  10  20  1   
 20  11  13  1   
 21  11  21  1   
 22  11  22  1   
 23  13  23  1   
@<TRIPOS>SUBSTRUCTURE
  1 ****   7 GROUP 4 **** **** 0

# MOE 2024.06 (io_trps.svl 2023.06)
