@<TRIPOS>MOLECULE
NONAME
52 54 1 0 0 
SMALL
USER_CHARGES


@<TRIPOS>ATOM
  1 S       -3.7010     1.4120    -2.1770 S.3   1 <1>  -0.0800 
  2 C       -3.4980     0.8000    -0.5680 C.2   1 <1>   0.4420 
  3 C       -2.1370     2.1360    -2.0220 C.2   1 <1>   0.1980 
  4 N       -2.3740     1.1450    -0.0560 N.2   1 <1>  -0.3380 
  5 N       -4.5390     0.0580    -0.0540 N.am  1 <1>  -0.4940 
  6 N       -1.6040     1.9070    -0.8910 N.2   1 <1>  -0.3380 
  7 C       -1.6130     2.9260    -3.2120 C.3   1 <1>   0.0200 
  8 C       -4.6470    -0.5670     1.1550 C.2   1 <1>   0.5690 
  9 C       -0.2290     3.5400    -2.9610 C.3   1 <1>  -0.2400 
 10 O       -3.7740    -0.5990     1.9830 O.2   1 <1>  -0.5700 
 11 C       -5.9880    -1.2230     1.4880 C.3   1 <1>   0.1710 
 12 N       -7.1240    -0.2550     1.5410 N.3   1 <1>  -0.8100 
 13 C       -8.4170    -0.9560     1.7400 C.3   1 <1>   0.1100 
 14 C       -6.9080     0.7410     2.6300 C.3   1 <1>   0.1100 
 15 C       -9.6170     0.0230     1.8160 C.3   1 <1>   0.3430 
 16 C       -8.1030     1.7090     2.8160 C.3   1 <1>   0.3430 
 17 N       -9.1580     1.4520     1.7860 N.4   1 <1>  -0.9590 
 18 C      -10.2670     2.4380     1.7720 C.3   1 <1>   0.4860 
 19 C      -11.0820     2.2010     0.5170 C.ar  1 <1>  -0.1430 
 20 C      -10.5230     2.4510    -0.7280 C.ar  1 <1>  -0.1500 
 21 C      -12.3800     1.7170     0.5950 C.ar  1 <1>  -0.1500 
 22 C      -11.2380     2.2060    -1.8870 C.ar  1 <1>   0.0820 
 23 C      -13.1030     1.4770    -0.5610 C.ar  1 <1>  -0.1500 
 24 O      -10.6000     2.4660    -3.0540 O.3   1 <1>  -0.3630 
 25 C      -12.5370     1.7160    -1.8010 C.ar  1 <1>  -0.1500 
 26 C      -11.2650     2.3470    -4.2930 C.3   1 <1>   0.0400 
 27 H       -5.3690     0.0140    -0.6390 H     1 <1>   0.3700 
 28 H       -2.3120     3.7110    -3.4380 H     1 <1>   0.0800 
 29 H       -1.5600     2.2700    -4.0630 H     1 <1>   0.0800 
 30 H       -0.2680     4.2100    -2.1200 H     1 <1>   0.0800 
 31 H        0.0980     4.0880    -3.8260 H     1 <1>   0.0800 
 32 H        0.4870     2.7660    -2.7490 H     1 <1>   0.0800 
 33 H       -5.8930    -1.7280     2.4340 H     1 <1>   0.0800 
 34 H       -6.1860    -1.9690     0.7380 H     1 <1>   0.0800 
 35 H       -8.3820    -1.5350     2.6480 H     1 <1>   0.0800 
 36 H       -8.5840    -1.6430     0.9270 H     1 <1>   0.0800 
 37 H       -6.0290     1.3270     2.4150 H     1 <1>   0.0800 
 38 H       -6.7250     0.2330     3.5630 H     1 <1>   0.0800 
 39 H      -10.1770    -0.1710     2.7160 H     1 <1>   0.0800 
 40 H      -10.2700    -0.1670     0.9790 H     1 <1>   0.0800 
 41 H       -7.7460     2.7220     2.7370 H     1 <1>   0.0800 
 42 H       -8.5130     1.5790     3.8040 H     1 <1>   0.0800 
 43 H       -8.6670     1.5210     0.8840 H     1 <1>   0.4500 
 44 H       -9.8740     3.4420     1.7550 H     1 <1>   0.0800 
 45 H      -10.8860     2.3220     2.6460 H     1 <1>   0.0800 
 46 H       -9.5260     2.8420    -0.8290 H     1 <1>   0.1500 
 47 H      -12.8460     1.5240     1.5470 H     1 <1>   0.1500 
 48 H      -14.1120     1.1040    -0.4990 H     1 <1>   0.1500 
 49 H      -13.1190     1.5190    -2.6820 H     1 <1>   0.1500 
 50 H      -10.5810     2.6400    -5.0700 H     1 <1>   0.0800 
 51 H      -12.1200     2.9990    -4.2960 H     1 <1>   0.0800 
 52 H      -11.5600     1.3220    -4.4360 H     1 <1>   0.0800 
@<TRIPOS>BOND
  1   1   2  1   
  2   1   3  1   
  3   2   4  2   
  4   2   5  1   
  5   3   6  2   
  6   3   7  1   
  7   4   6  1   
  8   5   8  am  
  9   5  27  1   
 10   7   9  1   
 11   7  28  1   
 12   7  29  1   
 13   8  10  2   
 14   8  11  1   
 15   9  30  1   
 16   9  31  1   
 17   9  32  1   
 18  11  12  1   
 19  11  33  1   
 20  11  34  1   
 21  12  13  1   
 22  12  14  1   
 23  13  15  1   
 24  13  35  1   
 25  13  36  1   
 26  14  16  1   
 27  14  37  1   
 28  14  38  1   
 29  15  17  1   
 30  15  39  1   
 31  15  40  1   
 32  16  17  1   
 33  16  41  1   
 34  16  42  1   
 35  17  18  1   
 36  17  43  1   
 37  18  19  1   
 38  18  44  1   
 39  18  45  1   
 40  19  20  ar  
 41  19  21  ar  
 42  20  22  ar  
 43  20  46  1   
 44  21  23  ar  
 45  21  47  1   
 46  22  24  1   
 47  22  25  ar  
 48  23  25  ar  
 49  23  48  1   
 50  24  26  1   
 51  25  49  1   
 52  26  50  1   
 53  26  51  1   
 54  26  52  1   
@<TRIPOS>SUBSTRUCTURE
  1 ****  12 GROUP 4 **** **** 0

# MOE 2024.06 (io_trps.svl 2023.06)
