@<TRIPOS>MOLECULE
NONAME
41 42 1 0 0 
SMALL
USER_CHARGES


@<TRIPOS>ATOM
  1 F        0.9180    -1.0060     2.1470 F     1 <1>  -0.1900 
  2 C        0.6390    -1.9030     1.2340 C.ar  1 <1>   0.1900 
  3 C        1.6590    -2.4190     0.4400 C.ar  1 <1>   0.0830 
  4 C       -0.6780    -2.3000     1.1030 C.ar  1 <1>  -0.1500 
  5 O        2.9320    -1.9740     0.6350 O.3   1 <1>  -0.3630 
  6 C        1.3180    -3.3720    -0.5190 C.ar  1 <1>  -0.1500 
  7 C       -0.9970    -3.2470     0.1440 C.ar  1 <1>  -0.1500 
  8 C        4.0100    -2.4580    -0.1310 C.3   1 <1>   0.1200 
  9 C       -0.0010    -3.7790    -0.6610 C.ar  1 <1>  -0.1500 
 10 C        5.2810    -1.7530     0.3420 C.3   1 <1>  -0.1600 
 11 C        6.5130    -2.2400    -0.4330 C.3   1 <1>  -0.1600 
 12 C        7.7800    -1.5150     0.0410 C.3   1 <1>  -0.1600 
 13 C        9.0210    -1.9980    -0.7230 C.3   1 <1>   0.0960 
 14 N       10.2310    -1.2830    -0.2690 N.pl3 1 <1>   0.3140 
 15 N       10.6370    -0.1550    -0.8800 N.2   1 <1>  -0.7070 
 16 C       11.0610    -1.6170     0.7470 C.2   1 <1>  -0.3320 
 17 C       11.7060     0.2040    -0.2440 C.2   1 <1>   0.1080 
 18 C       12.0230    -0.6720     0.7860 C.2   1 <1>  -0.1500 
 19 C       10.9040    -2.8310     1.6470 C.3   1 <1>  -0.0600 
 20 C       12.4880     1.4410    -0.6140 C.3   1 <1>  -0.0590 
 21 H       -1.4330    -1.8740     1.7380 H     1 <1>   0.1500 
 22 H        2.0580    -3.8070    -1.1620 H     1 <1>   0.1500 
 23 H       -2.0170    -3.5710     0.0250 H     1 <1>   0.1500 
 24 H        3.8160    -2.2390    -1.1670 H     1 <1>   0.0800 
 25 H        4.0840    -3.5210     0.0210 H     1 <1>   0.0800 
 26 H       -0.2550    -4.5150    -1.4040 H     1 <1>   0.1500 
 27 H        5.4170    -1.9460     1.3920 H     1 <1>   0.0800 
 28 H        5.1640    -0.6920     0.2010 H     1 <1>   0.0800 
 29 H        6.3700    -2.0550    -1.4850 H     1 <1>   0.0800 
 30 H        6.6300    -3.3010    -0.2890 H     1 <1>   0.0800 
 31 H        7.9210    -1.6870     1.0940 H     1 <1>   0.0800 
 32 H        7.6670    -0.4550    -0.1180 H     1 <1>   0.0800 
 33 H        8.9020    -1.8100    -1.7740 H     1 <1>   0.0800 
 34 H        9.1690    -3.0510    -0.5780 H     1 <1>   0.0800 
 35 H       12.8620    -0.5880     1.4530 H     1 <1>   0.1500 
 36 H        9.9640    -2.7910     2.1670 H     1 <1>   0.0800 
 37 H       11.6950    -2.8550     2.3740 H     1 <1>   0.0800 
 38 H       10.9480    -3.7340     1.0650 H     1 <1>   0.0800 
 39 H       11.8550     2.3040    -0.5220 H     1 <1>   0.0800 
 40 H       12.8230     1.3610    -1.6310 H     1 <1>   0.0800 
 41 H       13.3390     1.5550     0.0320 H     1 <1>   0.0800 
@<TRIPOS>BOND
  1   1   2  1   
  2   2   3  ar  
  3   2   4  ar  
  4   3   5  1   
  5   3   6  ar  
  6   4   7  ar  
  7   4  21  1   
  8   5   8  1   
  9   6   9  ar  
 10   6  22  1   
 11   7   9  ar  
 12   7  23  1   
 13   8  10  1   
 14   8  24  1   
 15   8  25  1   
 16   9  26  1   
 17  10  11  1   
 18  10  27  1   
 19  10  28  1   
 20  11  12  1   
 21  11  29  1   
 22  11  30  1   
 23  12  13  1   
 24  12  31  1   
 25  12  32  1   
 26  13  14  1   
 27  13  33  1   
 28  13  34  1   
 29  14  15  1   
 30  14  16  1   
 31  15  17  2   
 32  16  18  2   
 33  16  19  1   
 34  17  18  1   
 35  17  20  1   
 36  18  35  1   
 37  19  36  1   
 38  19  37  1   
 39  19  38  1   
 40  20  39  1   
 41  20  40  1   
 42  20  41  1   
@<TRIPOS>SUBSTRUCTURE
  1 ****  10 GROUP 4 **** **** 0

# MOE 2024.06 (io_trps.svl 2023.06)
