@<TRIPOS>MOLECULE
NONAME
55 57 1 0 0 
SMALL
USER_CHARGES


@<TRIPOS>ATOM
  1 F        4.6430    -1.8700    -1.8050 F     1 <1>  -0.1900 
  2 C        4.5340    -1.1790    -0.7030 C.ar  1 <1>   0.1900 
  3 C        4.7170     0.1890    -0.7580 C.ar  1 <1>  -0.1500 
  4 C        4.2400    -1.8410     0.4720 C.ar  1 <1>  -0.1500 
  5 C        4.6050     0.9280     0.4120 C.ar  1 <1>  -0.1440 
  6 C        4.1230    -1.0990     1.6350 C.ar  1 <1>  -0.1500 
  7 C        4.3040     0.2760     1.6030 C.ar  1 <1>  -0.1500 
  8 C        4.8130     2.4320     0.3960 C.3   1 <1>   0.4870 
  9 N        6.2470     2.7230     0.1450 N.4   1 <1>  -0.9590 
 10 C        7.1950     2.0720     1.1100 C.3   1 <1>   0.3430 
 11 C        6.5600     4.1830    -0.0130 C.3   1 <1>   0.3430 
 12 C        8.6570     2.2300     0.6250 C.3   1 <1>   0.1100 
 13 C        8.0610     4.4070    -0.3300 C.3   1 <1>   0.1100 
 14 N        8.7670     3.1280    -0.5540 N.3   1 <1>  -0.8100 
 15 C       10.1650     3.3120    -1.0510 C.3   1 <1>   0.1710 
 16 C       10.8820     2.0120    -1.4360 C.2   1 <1>   0.5690 
 17 O       10.7430     1.5870    -2.5570 O.2   1 <1>  -0.5700 
 18 N       11.6290     1.3940    -0.4700 N.am  1 <1>  -0.5470 
 19 C       12.2830     0.1500    -0.4050 C.ar  1 <1>   0.1170 
 20 C       12.7820    -0.2520     0.8390 C.ar  1 <1>   0.0830 
 21 C       12.4550    -0.6860    -1.5000 C.ar  1 <1>  -0.1500 
 22 O       12.5890     0.6020     1.8940 O.3   1 <1>  -0.3630 
 23 C       13.4370    -1.4730     0.9650 C.ar  1 <1>  -0.1500 
 24 C       13.1050    -1.9020    -1.3770 C.ar  1 <1>   0.0830 
 25 C       13.2130     0.3600     3.1380 C.3   1 <1>   0.0400 
 26 C       13.5990    -2.2950    -0.1370 C.ar  1 <1>  -0.1500 
 27 O       13.2210    -2.6500    -2.5050 O.3   1 <1>  -0.3620 
 28 C       13.8440    -3.9150    -2.4840 C.3   1 <1>   0.0400 
 29 H        4.9400     0.6440    -1.7080 H     1 <1>   0.1500 
 30 H        4.1040    -2.9080     0.4720 H     1 <1>   0.1500 
 31 H        3.8890    -1.5950     2.5630 H     1 <1>   0.1500 
 32 H        4.2020     0.8280     2.5230 H     1 <1>   0.1500 
 33 H        4.5090     2.8520     1.3410 H     1 <1>   0.0800 
 34 H        4.2060     2.8670    -0.3820 H     1 <1>   0.0800 
 35 H        6.5210     2.3040    -0.7570 H     1 <1>   0.4500 
 36 H        6.9740     1.0210     1.2010 H     1 <1>   0.0800 
 37 H        7.0920     2.5160     2.0860 H     1 <1>   0.0800 
 38 H        6.3050     4.7190     0.8860 H     1 <1>   0.0800 
 39 H        5.9730     4.5940    -0.8180 H     1 <1>   0.0800 
 40 H        9.0260     1.2510     0.3640 H     1 <1>   0.0800 
 41 H        9.2630     2.6000     1.4350 H     1 <1>   0.0800 
 42 H        8.5230     4.9420     0.4830 H     1 <1>   0.0800 
 43 H        8.1390     5.0220    -1.2110 H     1 <1>   0.0800 
 44 H       10.7490     3.8270    -0.3100 H     1 <1>   0.0800 
 45 H       10.1400     3.9290    -1.9330 H     1 <1>   0.0800 
 46 H       11.7000     1.8800     0.4230 H     1 <1>   0.3700 
 47 H       12.0880    -0.4060    -2.4690 H     1 <1>   0.1500 
 48 H       13.8270    -1.8070     1.9070 H     1 <1>   0.1500 
 49 H       12.9910     1.1840     3.7920 H     1 <1>   0.0800 
 50 H       14.2770     0.2910     2.9900 H     1 <1>   0.0800 
 51 H       12.8220    -0.5510     3.5560 H     1 <1>   0.0800 
 52 H       14.1080    -3.2320    -0.0110 H     1 <1>   0.1500 
 53 H       13.8100    -4.3190    -3.4800 H     1 <1>   0.0800 
 54 H       13.3070    -4.5580    -1.8110 H     1 <1>   0.0800 
 55 H       14.8670    -3.7950    -2.1740 H     1 <1>   0.0800 
@<TRIPOS>BOND
  1   1   2  1   
  2   2   3  ar  
  3   2   4  ar  
  4   3   5  ar  
  5   3  29  1   
  6   4   6  ar  
  7   4  30  1   
  8   5   7  ar  
  9   5   8  1   
 10   6   7  ar  
 11   6  31  1   
 12   7  32  1   
 13   8   9  1   
 14   8  33  1   
 15   8  34  1   
 16   9  10  1   
 17   9  11  1   
 18   9  35  1   
 19  10  12  1   
 20  10  36  1   
 21  10  37  1   
 22  11  13  1   
 23  11  38  1   
 24  11  39  1   
 25  12  14  1   
 26  12  40  1   
 27  12  41  1   
 28  13  14  1   
 29  13  42  1   
 30  13  43  1   
 31  14  15  1   
 32  15  16  1   
 33  15  44  1   
 34  15  45  1   
 35  16  17  2   
 36  16  18  am  
 37  18  19  1   
 38  18  46  1   
 39  19  20  ar  
 40  19  21  ar  
 41  20  22  1   
 42  20  23  ar  
 43  21  24  ar  
 44  21  47  1   
 45  22  25  1   
 46  23  26  ar  
 47  23  48  1   
 48  24  26  ar  
 49  24  27  1   
 50  25  49  1   
 51  25  50  1   
 52  25  51  1   
 53  26  52  1   
 54  27  28  1   
 55  28  53  1   
 56  28  54  1   
 57  28  55  1   
@<TRIPOS>SUBSTRUCTURE
  1 ****  12 GROUP 4 **** **** 0

# MOE 2024.06 (io_trps.svl 2023.06)
