@<TRIPOS>MOLECULE
NONAME
38 40 1 0 0 
SMALL
USER_CHARGES


@<TRIPOS>ATOM
  1 BR      -0.3130    -0.2270     1.3350 Br    1 <1>  -0.1110 
  2 C       -2.0010    -0.8520     0.6580 C.ar  1 <1>   0.1110 
  3 C       -2.5210    -2.0330     1.1510 C.ar  1 <1>  -0.1500 
  4 C       -2.6500    -0.1060    -0.3060 C.ar  1 <1>  -0.1500 
  5 C       -3.7380    -2.4780     0.6620 C.ar  1 <1>  -0.1500 
  6 C       -3.8670    -0.5580    -0.7880 C.ar  1 <1>  -0.1500 
  7 C       -4.4180    -1.7400    -0.3020 C.ar  1 <1>  -0.1430 
  8 C       -5.7580    -2.2230    -0.8250 C.3   1 <1>   0.4870 
  9 N       -6.7940    -1.9580     0.2090 N.4   1 <1>  -0.9590 
 10 C       -8.1080    -2.6190    -0.1430 C.3   1 <1>   0.3430 
 11 C       -6.9620    -0.4710     0.4490 C.3   1 <1>   0.3430 
 12 C       -9.2350    -2.2920     0.8610 C.3   1 <1>   0.2090 
 13 C       -8.0830    -0.1600     1.4600 C.3   1 <1>   0.2090 
 14 N       -9.3490    -0.8150     1.0200 N.pl3 1 <1>  -0.8380 
 15 C      -10.2480    -0.1350     0.2320 C.ar  1 <1>   0.7200 
 16 N      -11.4780    -0.6320     0.1720 N.ar  1 <1>  -0.6200 
 17 N       -9.7860     0.9270    -0.4250 N.ar  1 <1>  -0.6200 
 18 C      -12.3320     0.0300    -0.5710 C.ar  1 <1>   0.1600 
 19 C      -10.6640     1.5690    -1.1610 C.ar  1 <1>   0.1600 
 20 C      -11.9700     1.1570    -1.2670 C.ar  1 <1>  -0.1500 
 21 H       -1.9780    -2.5880     1.8960 H     1 <1>   0.1500 
 22 H       -2.2060     0.8060    -0.6680 H     1 <1>   0.1500 
 23 H       -4.1380    -3.4040     1.0410 H     1 <1>   0.1500 
 24 H       -4.3700     0.0210    -1.5450 H     1 <1>   0.1500 
 25 H       -5.6990    -3.2790    -1.0310 H     1 <1>   0.0800 
 26 H       -6.0050    -1.7100    -1.7400 H     1 <1>   0.0800 
 27 H       -6.4510    -2.3610     1.0890 H     1 <1>   0.4500 
 28 H       -7.9820    -3.6880    -0.1910 H     1 <1>   0.0800 
 29 H       -8.4300    -2.2810    -1.1140 H     1 <1>   0.0800 
 30 H       -7.2120     0.0200    -0.4770 H     1 <1>   0.0800 
 31 H       -6.0380    -0.0480     0.8090 H     1 <1>   0.0800 
 32 H       -9.0260    -2.7400     1.8170 H     1 <1>   0.0800 
 33 H      -10.1610    -2.7110     0.5060 H     1 <1>   0.0800 
 34 H       -8.2200     0.9060     1.5400 H     1 <1>   0.0800 
 35 H       -7.8120    -0.5210     2.4370 H     1 <1>   0.0800 
 36 H      -13.3440    -0.3340    -0.6250 H     1 <1>   0.1500 
 37 H      -10.3360     2.4460    -1.6950 H     1 <1>   0.1500 
 38 H      -12.6790     1.6930    -1.8700 H     1 <1>   0.1500 
@<TRIPOS>BOND
  1   1   2  1   
  2   2   3  ar  
  3   2   4  ar  
  4   3   5  ar  
  5   3  21  1   
  6   4   6  ar  
  7   4  22  1   
  8   5   7  ar  
  9   5  23  1   
 10   6   7  ar  
 11   6  24  1   
 12   7   8  1   
 13   8   9  1   
 14   8  25  1   
 15   8  26  1   
 16   9  10  1   
 17   9  11  1   
 18   9  27  1   
 19  10  12  1   
 20  10  28  1   
 21  10  29  1   
 22  11  13  1   
 23  11  30  1   
 24  11  31  1   
 25  12  14  1   
 26  12  32  1   
 27  12  33  1   
 28  13  14  1   
 29  13  34  1   
 30  13  35  1   
 31  14  15  1   
 32  15  16  ar  
 33  15  17  ar  
 34  16  18  ar  
 35  17  19  ar  
 36  18  20  ar  
 37  18  36  1   
 38  19  20  ar  
 39  19  37  1   
 40  20  38  1   
@<TRIPOS>SUBSTRUCTURE
  1 ****  11 GROUP 4 **** **** 0

# MOE 2024.06 (io_trps.svl 2023.06)
