@<TRIPOS>MOLECULE
NONAME
37 39 1 0 0 
SMALL
USER_CHARGES


@<TRIPOS>ATOM
  1 N       -0.1010     0.0560    -0.2560 N.4   1 <1>  -0.9590 
  2 C        1.0750     0.8310    -0.7410 C.3   1 <1>   0.4230 
  3 C       -0.1340    -1.3690    -0.7320 C.3   1 <1>   0.3430 
  4 C       -1.4280     0.7070    -0.5260 C.3   1 <1>   0.3430 
  5 C        2.5080     0.1580    -0.3170 C.3   1 <1>  -0.0800 
  6 C        1.0720     2.4010    -0.1590 C.3   1 <1>  -0.1600 
  7 C       -1.2960    -2.1530    -0.0730 C.3   1 <1>   0.1100 
  8 C       -2.5880    -0.0960     0.1140 C.3   1 <1>   0.1100 
  9 C        2.5500     1.4570     0.0080 C.3   1 <1>  -0.1600 
 10 C        4.0240     0.4980     0.1960 C.3   1 <1>  -0.1600 
 11 C        2.5800     2.7400     0.3770 C.3   1 <1>  -0.0800 
 12 N       -2.1100    -1.3030     0.8260 N.3   1 <1>  -0.8100 
 13 C        4.0330     2.0790     0.7420 C.3   1 <1>  -0.1600 
 14 C       -3.2240    -2.0570     1.4150 C.3   1 <1>   0.0300 
 15 H       -0.0660    -0.0210     0.7720 H     1 <1>   0.4500 
 16 H        1.0400     0.8790    -1.8180 H     1 <1>   0.0800 
 17 H        0.7930    -1.8640    -0.4950 H     1 <1>   0.0800 
 18 H       -0.2520    -1.3950    -1.8020 H     1 <1>   0.0800 
 19 H       -1.5920     0.7800    -1.5880 H     1 <1>   0.0800 
 20 H       -1.4410     1.7060    -0.1250 H     1 <1>   0.0800 
 21 H        2.2180    -0.5840     0.4140 H     1 <1>   0.0800 
 22 H        0.3770     2.5170     0.6580 H     1 <1>   0.0800 
 23 H        0.7860     3.0870    -0.9410 H     1 <1>   0.0800 
 24 H       -0.8850    -2.9730     0.4920 H     1 <1>   0.0800 
 25 H       -1.9190    -2.5740    -0.8450 H     1 <1>   0.0800 
 26 H       -3.2890    -0.3760    -0.6550 H     1 <1>   0.0800 
 27 H       -3.1090     0.5420     0.8080 H     1 <1>   0.0800 
 28 H        2.9250     1.7560    -1.0690 H     1 <1>   0.0800 
 29 H        2.1900     1.1720     1.0960 H     1 <1>   0.0800 
 30 H        4.7280     0.3840    -0.6150 H     1 <1>   0.0800 
 31 H        4.3310    -0.1730     0.9830 H     1 <1>   0.0800 
 32 H        2.8780     3.5210    -0.3110 H     1 <1>   0.0800 
 33 H        4.8390     2.6320     0.2850 H     1 <1>   0.0800 
 34 H        4.1930     2.1030     1.8100 H     1 <1>   0.0800 
 35 H       -2.8470    -2.9030     1.9640 H     1 <1>   0.0800 
 36 H       -3.8960    -2.4080     0.6490 H     1 <1>   0.0800 
 37 H       -3.7720    -1.4310     2.0990 H     1 <1>   0.0800 
@<TRIPOS>BOND
  1   1   2  1   
  2   1   3  1   
  3   1   4  1   
  4   1  15  1   
  5   2   5  1   
  6   2   6  1   
  7   2  16  1   
  8   3   7  1   
  9   3  17  1   
 10   3  18  1   
 11   4   8  1   
 12   4  19  1   
 13   4  20  1   
 14   5   9  1   
 15   5  10  1   
 16   5  21  1   
 17   6  11  1   
 18   6  22  1   
 19   6  23  1   
 20   7  12  1   
 21   7  24  1   
 22   7  25  1   
 23   8  12  1   
 24   8  26  1   
 25   8  27  1   
 26   9  11  1   
 27   9  28  1   
 28   9  29  1   
 29  10  13  1   
 30  10  30  1   
 31  10  31  1   
 32  11  13  1   
 33  11  32  1   
 34  12  14  1   
 35  13  33  1   
 36  13  34  1   
 37  14  35  1   
 38  14  36  1   
 39  14  37  1   
@<TRIPOS>SUBSTRUCTURE
  1 ****   1 GROUP 4 **** **** 0

# MOE 2024.06 (io_trps.svl 2023.06)
