@<TRIPOS>MOLECULE
NONAME
51 52 1 0 0 
SMALL
USER_CHARGES


@<TRIPOS>ATOM
  1 O        1.9090    -0.0740     1.6240 O.2   1 <1>  -0.5700 
  2 C        2.5320    -0.9330     1.0430 C.2   1 <1>   0.5690 
  3 N        2.3160    -2.2700     1.2830 N.am  1 <1>  -0.6600 
  4 C        3.5710    -0.4320     0.0440 C.3   1 <1>  -0.0190 
  5 C        3.0740    -3.3990     0.6700 C.3   1 <1>   0.1400 
  6 C        1.3180    -2.6850     2.3150 C.3   1 <1>   0.1400 
  7 C        4.4210     0.6220     0.7780 C.3   1 <1>   0.3430 
  8 C        2.9060     0.1160    -1.2400 C.3   1 <1>  -0.1600 
  9 C        2.6140    -3.6480    -0.7670 C.3   1 <1>  -0.2400 
 10 C        0.0210    -3.1320     1.6470 C.3   1 <1>  -0.2400 
 11 N        5.0460     1.6310    -0.1470 N.4   1 <1>  -0.9590 
 12 C        2.7200     1.6370    -1.1580 C.3   1 <1>  -0.1600 
 13 C        4.0440     2.3910    -0.9650 C.3   1 <1>   0.3430 
 14 C        6.1090     1.0170    -0.9920 C.3   1 <1>   0.4860 
 15 C        7.2670     0.6260    -0.0970 C.ar  1 <1>  -0.1440 
 16 C        7.5160    -0.7170     0.1670 C.ar  1 <1>   0.0820 
 17 C        8.0820     1.6020     0.4580 C.ar  1 <1>  -0.1500 
 18 O        6.7000    -1.6320    -0.4160 O.3   1 <1>  -0.3630 
 19 C        8.5730    -1.0690     1.0020 C.ar  1 <1>  -0.1500 
 20 C        9.1310     1.2440     1.2860 C.ar  1 <1>  -0.1500 
 21 C        7.0360    -3.0050    -0.4250 C.3   1 <1>   0.0400 
 22 C        9.3740    -0.0890     1.5590 C.ar  1 <1>  -0.1500 
 23 H        4.2150    -1.2370    -0.2320 H     1 <1>   0.0800 
 24 H        2.9150    -4.2960     1.2460 H     1 <1>   0.0800 
 25 H        4.1290    -3.1910     0.6960 H     1 <1>   0.0800 
 26 H        1.1050    -1.8630     2.9790 H     1 <1>   0.0800 
 27 H        1.7200    -3.4830     2.9160 H     1 <1>   0.0800 
 28 H        5.1800     0.1240     1.3600 H     1 <1>   0.0800 
 29 H        3.7840     1.1530     1.4690 H     1 <1>   0.0800 
 30 H        1.9510    -0.3610    -1.3910 H     1 <1>   0.0800 
 31 H        3.5190    -0.1190    -2.0920 H     1 <1>   0.0800 
 32 H        1.5610    -3.8570    -0.7950 H     1 <1>   0.0800 
 33 H        3.1340    -4.5000    -1.1660 H     1 <1>   0.0800 
 34 H        2.8210    -2.8050    -1.3970 H     1 <1>   0.0800 
 35 H       -0.3530    -2.3510     1.0080 H     1 <1>   0.0800 
 36 H       -0.7180    -3.3360     2.4000 H     1 <1>   0.0800 
 37 H        0.1740    -4.0280     1.0760 H     1 <1>   0.0800 
 38 H        5.5390     2.3010     0.4550 H     1 <1>   0.4500 
 39 H        2.0620     1.8700    -0.3380 H     1 <1>   0.0800 
 40 H        2.2390     1.9950    -2.0520 H     1 <1>   0.0800 
 41 H        4.4670     2.6090    -1.9330 H     1 <1>   0.0800 
 42 H        3.8280     3.3340    -0.4880 H     1 <1>   0.0800 
 43 H        6.4580     1.7260    -1.7230 H     1 <1>   0.0800 
 44 H        5.7260     0.1540    -1.5110 H     1 <1>   0.0800 
 45 H        7.9210     2.6470     0.2530 H     1 <1>   0.1500 
 46 H        8.7910    -2.0950     1.2340 H     1 <1>   0.1500 
 47 H        9.7650     2.0020     1.7180 H     1 <1>   0.1500 
 48 H        7.0050    -3.3830     0.5810 H     1 <1>   0.0800 
 49 H        8.0180    -3.1230    -0.8480 H     1 <1>   0.0800 
 50 H        6.3160    -3.5260    -1.0320 H     1 <1>   0.0800 
 51 H       10.1920    -0.3640     2.2050 H     1 <1>   0.1500 
@<TRIPOS>BOND
  1   1   2  2   
  2   2   3  am  
  3   2   4  1   
  4   3   5  1   
  5   3   6  1   
  6   4   7  1   
  7   4   8  1   
  8   4  23  1   
  9   5   9  1   
 10   5  24  1   
 11   5  25  1   
 12   6  10  1   
 13   6  26  1   
 14   6  27  1   
 15   7  11  1   
 16   7  28  1   
 17   7  29  1   
 18   8  12  1   
 19   8  30  1   
 20   8  31  1   
 21   9  32  1   
 22   9  33  1   
 23   9  34  1   
 24  10  35  1   
 25  10  36  1   
 26  10  37  1   
 27  11  13  1   
 28  11  14  1   
 29  11  38  1   
 30  12  13  1   
 31  12  39  1   
 32  12  40  1   
 33  13  41  1   
 34  13  42  1   
 35  14  15  1   
 36  14  43  1   
 37  14  44  1   
 38  15  16  ar  
 39  15  17  ar  
 40  16  18  1   
 41  16  19  ar  
 42  17  20  ar  
 43  17  45  1   
 44  18  21  1   
 45  19  22  ar  
 46  19  46  1   
 47  20  22  ar  
 48  20  47  1   
 49  21  48  1   
 50  21  49  1   
 51  21  50  1   
 52  22  51  1   
@<TRIPOS>SUBSTRUCTURE
  1 ****   4 GROUP 4 **** **** 0

# MOE 2024.06 (io_trps.svl 2023.06)
