@<TRIPOS>MOLECULE
NONAME
26 26 1 0 0 
SMALL
USER_CHARGES


@<TRIPOS>ATOM
  1 CL       1.0720    -2.5980    -0.5620 Cl    1 <1>  -0.1770 
  2 C        2.2740    -1.3690    -0.2640 C.ar  1 <1>   0.1770 
  3 C        3.2270    -1.1040    -1.2300 C.ar  1 <1>  -0.1500 
  4 C        2.2560    -0.6790     0.9340 C.ar  1 <1>  -0.1500 
  5 C        4.1830    -0.1290    -0.9960 C.ar  1 <1>  -0.1500 
  6 C        3.2120     0.2950     1.1650 C.ar  1 <1>  -0.1500 
  7 C        4.1780     0.5750     0.2080 C.ar  1 <1>   0.0830 
  8 O        5.0740     1.5440     0.5270 O.3   1 <1>  -0.3630 
  9 C        6.0780     1.9810    -0.3840 C.3   1 <1>   0.2610 
 10 C        7.1860     0.9260    -0.5310 C.2   1 <1>   0.5690 
 11 C        6.6390     3.3190     0.1290 C.3   1 <1>  -0.1600 
 12 O        7.7410     0.7920    -1.5930 O.2   1 <1>  -0.5700 
 13 N        7.5380     0.1430     0.5110 N.am  1 <1>  -0.8000 
 14 C        5.5730     4.4200     0.2430 C.3   1 <1>  -0.2400 
 15 H        3.2180    -1.6570    -2.1530 H     1 <1>   0.1500 
 16 H        1.5040    -0.9020     1.6690 H     1 <1>   0.1500 
 17 H        4.9150     0.0580    -1.7600 H     1 <1>   0.1500 
 18 H        3.2140     0.8440     2.0900 H     1 <1>   0.1500 
 19 H        5.6130     2.1440    -1.3390 H     1 <1>   0.0800 
 20 H        7.4040     3.6490    -0.5540 H     1 <1>   0.0800 
 21 H        7.1060     3.1640     1.0860 H     1 <1>   0.0800 
 22 H        8.2530    -0.5750     0.3940 H     1 <1>   0.3700 
 23 H        7.0250     0.1530     1.3940 H     1 <1>   0.3700 
 24 H        5.1030     4.5900    -0.7100 H     1 <1>   0.0800 
 25 H        4.8160     4.1420     0.9560 H     1 <1>   0.0800 
 26 H        6.0260     5.3390     0.5700 H     1 <1>   0.0800 
@<TRIPOS>BOND
  1   1   2  1   
  2   2   3  ar  
  3   2   4  ar  
  4   3   5  ar  
  5   3  15  1   
  6   4   6  ar  
  7   4  16  1   
  8   5   7  ar  
  9   5  17  1   
 10   6   7  ar  
 11   6  18  1   
 12   7   8  1   
 13   8   9  1   
 14   9  10  1   
 15   9  11  1   
 16   9  19  1   
 17  10  12  2   
 18  10  13  am  
 19  11  14  1   
 20  11  20  1   
 21  11  21  1   
 22  13  22  1   
 23  13  23  1   
 24  14  24  1   
 25  14  25  1   
 26  14  26  1   
@<TRIPOS>SUBSTRUCTURE
  1 ****   7 GROUP 4 **** **** 0

# MOE 2024.06 (io_trps.svl 2023.06)
