@<TRIPOS>MOLECULE
NONAME
52 54 1 0 0 
SMALL
USER_CHARGES


@<TRIPOS>ATOM
  1 S        0.3250    -0.9340     1.1930 S.3   1 <1>  -0.4600 
  2 C       -0.7130     0.5330     1.0200 C.3   1 <1>   0.5940 
  3 C       -0.4790    -1.9460    -0.0650 C.3   1 <1>   0.2110 
  4 N       -1.6450     0.2050    -0.0790 N.am  1 <1>  -0.6600 
  5 C        0.1580     1.7430     0.7020 C.ar  1 <1>  -0.1440 
  6 C       -1.5500    -1.0300    -0.6430 C.2   1 <1>   0.5690 
  7 C       -1.0150    -3.2030     0.6280 C.3   1 <1>  -0.2400 
  8 C       -2.5710     1.2630    -0.5700 C.3   1 <1>   0.1400 
  9 C        0.9820     1.7670    -0.4140 C.ar  1 <1>  -0.1500 
 10 C        0.1150     2.8580     1.5260 C.ar  1 <1>  -0.1500 
 11 O       -2.2560    -1.4020    -1.5510 O.2   1 <1>  -0.5700 
 12 C       -3.7100     1.4930     0.4240 C.3   1 <1>  -0.0160 
 13 C        1.7530     2.8810    -0.6990 C.ar  1 <1>   0.0820 
 14 C        0.8770     3.9840     1.2590 C.ar  1 <1>   0.0820 
 15 C       -4.5910     2.6350    -0.0520 C.ar  1 <1>  -0.1430 
 16 O        2.5220     2.8300    -1.8150 O.3   1 <1>  -0.3630 
 17 C        1.7320     3.9920     0.1490 C.ar  1 <1>   0.0820 
 18 O        0.7190     5.0110     2.1410 O.3   1 <1>  -0.3630 
 19 C       -5.7120     2.3800    -0.8250 C.ar  1 <1>  -0.1500 
 20 C       -4.2740     3.9440     0.2770 C.ar  1 <1>  -0.1500 
 21 C        2.1560     3.6950    -2.8670 C.3   1 <1>   0.0400 
 22 O        2.5550     5.0480    -0.0990 O.3   1 <1>  -0.3630 
 23 C        0.8000     6.3510     1.7060 C.3   1 <1>   0.0400 
 24 C       -6.5120     3.4220    -1.2620 C.ar  1 <1>  -0.1500 
 25 C       -5.0730     4.9870    -0.1600 C.ar  1 <1>  -0.1500 
 26 C        3.9100     4.8420     0.2340 C.3   1 <1>   0.0400 
 27 C       -6.1930     4.7260    -0.9290 C.ar  1 <1>  -0.1500 
 28 H       -1.2430     0.6550     1.9480 H     1 <1>   0.0800 
 29 H        0.2560    -2.1820    -0.8130 H     1 <1>   0.0800 
 30 H       -1.7140    -2.9360     1.3990 H     1 <1>   0.0800 
 31 H       -0.2040    -3.7600     1.0620 H     1 <1>   0.0800 
 32 H       -1.5170    -3.8260    -0.0910 H     1 <1>   0.0800 
 33 H       -2.9880     0.9700    -1.5200 H     1 <1>   0.0800 
 34 H       -2.0290     2.1800    -0.7240 H     1 <1>   0.0800 
 35 H        1.0310     0.9210    -1.0760 H     1 <1>   0.1500 
 36 H       -0.5180     2.8710     2.3960 H     1 <1>   0.1500 
 37 H       -3.3160     1.7370     1.3930 H     1 <1>   0.0800 
 38 H       -4.2950     0.5940     0.5110 H     1 <1>   0.0800 
 39 H       -5.9690     1.3690    -1.0920 H     1 <1>   0.1500 
 40 H       -3.4040     4.1600     0.8730 H     1 <1>   0.1500 
 41 H        2.7790     3.4740    -3.7150 H     1 <1>   0.0800 
 42 H        2.3050     4.7140    -2.5600 H     1 <1>   0.0800 
 43 H        1.1230     3.5240    -3.1140 H     1 <1>   0.0800 
 44 H        0.2870     6.9680     2.4210 H     1 <1>   0.0800 
 45 H        0.3330     6.4380     0.7410 H     1 <1>   0.0800 
 46 H        1.8350     6.6390     1.6560 H     1 <1>   0.0800 
 47 H       -7.3820     3.2170    -1.8610 H     1 <1>   0.1500 
 48 H       -4.8220     6.0010     0.0990 H     1 <1>   0.1500 
 49 H        4.4490     5.7490     0.0320 H     1 <1>   0.0800 
 50 H        4.3020     4.0380    -0.3640 H     1 <1>   0.0800 
 51 H        3.9760     4.5970     1.2800 H     1 <1>   0.0800 
 52 H       -6.8150     5.5360    -1.2680 H     1 <1>   0.1500 
@<TRIPOS>BOND
  1   1   2  1   
  2   1   3  1   
  3   2   4  1   
  4   2   5  1   
  5   2  28  1   
  6   3   6  1   
  7   3   7  1   
  8   3  29  1   
  9   4   6  am  
 10   4   8  1   
 11   5   9  ar  
 12   5  10  ar  
 13   6  11  2   
 14   7  30  1   
 15   7  31  1   
 16   7  32  1   
 17   8  12  1   
 18   8  33  1   
 19   8  34  1   
 20   9  13  ar  
 21   9  35  1   
 22  10  14  ar  
 23  10  36  1   
 24  12  15  1   
 25  12  37  1   
 26  12  38  1   
 27  13  16  1   
 28  13  17  ar  
 29  14  17  ar  
 30  14  18  1   
 31  15  19  ar  
 32  15  20  ar  
 33  16  21  1   
 34  17  22  1   
 35  18  23  1   
 36  19  24  ar  
 37  19  39  1   
 38  20  25  ar  
 39  20  40  1   
 40  21  41  1   
 41  21  42  1   
 42  21  43  1   
 43  22  26  1   
 44  23  44  1   
 45  23  45  1   
 46  23  46  1   
 47  24  27  ar  
 48  24  47  1   
 49  25  27  ar  
 50  25  48  1   
 51  26  49  1   
 52  26  50  1   
 53  26  51  1   
 54  27  52  1   
@<TRIPOS>SUBSTRUCTURE
  1 ****   5 GROUP 4 **** **** 0

# MOE 2024.06 (io_trps.svl 2023.06)
