@<TRIPOS>MOLECULE
NONAME
40 40 1 0 0 
SMALL
USER_CHARGES


@<TRIPOS>ATOM
  1 O        1.0450    -0.2020    -0.6750 O.2   1 <1>  -0.5700 
  2 C        1.6990    -1.1680    -0.3310 C.2   1 <1>   0.7800 
  3 O        3.0230    -1.1920    -0.4770 O.3   1 <1>  -0.4300 
  4 N        1.1650    -2.2770     0.2190 N.am  1 <1>  -0.7300 
  5 C        3.8500    -0.1720    -0.9880 C.3   1 <1>   0.2800 
  6 C       -0.2000    -2.5580     0.6870 C.3   1 <1>   0.3000 
  7 C        5.2700    -0.7360    -0.9080 C.3   1 <1>  -0.2400 
  8 C        3.5000     0.1110    -2.4540 C.3   1 <1>  -0.2400 
  9 C        3.7530     1.0800    -0.1080 C.3   1 <1>  -0.2400 
 10 C       -0.2560    -4.0360     1.1330 C.3   1 <1>  -0.1860 
 11 C       -1.2270    -2.3370    -0.4460 C.3   1 <1>  -0.1600 
 12 C       -0.5030    -1.6150     1.8560 C.3   1 <1>  -0.2400 
 13 C        0.7450    -4.3270     2.2390 C.2   1 <1>   0.9060 
 14 C       -0.0890    -5.0230    -0.0480 C.3   1 <1>  -0.1600 
 15 C       -1.0380    -3.2980    -1.6310 C.3   1 <1>  -0.1600 
 16 O        1.9570    -4.2720     1.9850 O.co2 1 <1>  -0.9000 
 17 O        0.3190    -4.6100     3.3630 O.co2 1 <1>  -0.9000 
 18 C       -1.1070    -4.7560    -1.1630 C.3   1 <1>  -0.1600 
 19 H        1.8310    -2.9380     0.6590 H     1 <1>   0.3700 
 20 H        5.3460    -1.6310    -1.4980 H     1 <1>   0.0800 
 21 H        5.5170    -0.9690     0.1120 H     1 <1>   0.0800 
 22 H        5.9810    -0.0200    -1.2780 H     1 <1>   0.0800 
 23 H        4.2200     0.7840    -2.8810 H     1 <1>   0.0800 
 24 H        2.5330     0.5720    -2.5380 H     1 <1>   0.0800 
 25 H        3.5050    -0.8030    -3.0200 H     1 <1>   0.0800 
 26 H        4.4880     1.8020    -0.4130 H     1 <1>   0.0800 
 27 H        3.9290     0.8230     0.9210 H     1 <1>   0.0800 
 28 H        2.7870     1.5400    -0.1960 H     1 <1>   0.0800 
 29 H       -1.2260    -4.2110     1.5580 H     1 <1>   0.0800 
 30 H       -2.2120    -2.4880    -0.0420 H     1 <1>   0.0800 
 31 H       -1.1850    -1.3220    -0.7930 H     1 <1>   0.0800 
 32 H       -1.4580    -1.8540     2.2860 H     1 <1>   0.0800 
 33 H       -0.5250    -0.5940     1.5200 H     1 <1>   0.0800 
 34 H        0.2440    -1.7120     2.6240 H     1 <1>   0.0800 
 35 H        0.9090    -4.9350    -0.4450 H     1 <1>   0.0800 
 36 H       -0.2020    -6.0300     0.3150 H     1 <1>   0.0800 
 37 H       -1.8000    -3.1170    -2.3680 H     1 <1>   0.0800 
 38 H       -0.0820    -3.1130    -2.0900 H     1 <1>   0.0800 
 39 H       -0.9110    -5.4130    -1.9930 H     1 <1>   0.0800 
 40 H       -2.0970    -4.9690    -0.7960 H     1 <1>   0.0800 
@<TRIPOS>BOND
  1   1   2  2   
  2   2   3  1   
  3   2   4  am  
  4   3   5  1   
  5   4   6  1   
  6   4  19  1   
  7   5   7  1   
  8   5   8  1   
  9   5   9  1   
 10   6  10  1   
 11   6  11  1   
 12   6  12  1   
 13   7  20  1   
 14   7  21  1   
 15   7  22  1   
 16   8  23  1   
 17   8  24  1   
 18   8  25  1   
 19   9  26  1   
 20   9  27  1   
 21   9  28  1   
 22  10  13  1   
 23  10  14  1   
 24  10  29  1   
 25  11  15  1   
 26  11  30  1   
 27  11  31  1   
 28  12  32  1   
 29  12  33  1   
 30  12  34  1   
 31  13  16  ar  
 32  13  17  ar  
 33  14  18  1   
 34  14  35  1   
 35  14  36  1   
 36  15  18  1   
 37  15  37  1   
 38  15  38  1   
 39  18  39  1   
 40  18  40  1   
@<TRIPOS>SUBSTRUCTURE
  1 ****   4 GROUP 4 **** **** 0

# MOE 2024.06 (io_trps.svl 2023.06)
