@<TRIPOS>MOLECULE
NONAME
49 50 1 0 0 
SMALL
USER_CHARGES


@<TRIPOS>ATOM
  1 O       -0.8500    -0.5940     0.3340 O.2   1 <1>  -0.5700 
  2 C       -0.7040    -1.6520    -0.2230 C.2   1 <1>   0.6590 
  3 O        0.4990    -2.1340    -0.5090 O.3   1 <1>  -0.4300 
  4 C       -1.8790    -2.5300    -0.6500 C.3   1 <1>  -0.0190 
  5 C        1.6710    -1.4330    -0.1640 C.3   1 <1>   0.1200 
  6 C       -3.2290    -1.7850    -0.6100 C.3   1 <1>  -0.1600 
  7 C       -1.9580    -3.8070     0.2090 C.3   1 <1>  -0.1600 
  8 C        2.8680    -2.2620    -0.6190 C.3   1 <1>  -0.2400 
  9 C       -4.3940    -2.6960    -1.0030 C.3   1 <1>   0.1400 
 10 C       -3.1390    -4.6910    -0.1970 C.3   1 <1>   0.1400 
 11 N       -4.4000    -3.9000    -0.1250 N.am  1 <1>  -0.6600 
 12 C       -5.4520    -4.3130     0.6710 C.2   1 <1>   0.5690 
 13 O       -5.3720    -5.3360     1.3160 O.2   1 <1>  -0.5700 
 14 C       -6.7690    -3.5260     0.8340 C.3   1 <1>   0.2610 
 15 O       -7.3550    -3.2180    -0.4260 O.3   1 <1>  -0.3630 
 16 C       -6.6060    -2.2290     1.6430 C.3   1 <1>  -0.2400 
 17 C       -8.6870    -2.9920    -0.4780 C.ar  1 <1>   0.0820 
 18 C       -9.6010    -3.9610    -0.0850 C.ar  1 <1>  -0.1500 
 19 C       -9.1320    -1.7690    -0.9520 C.ar  1 <1>  -0.1500 
 20 C      -10.9590    -3.6960    -0.1460 C.ar  1 <1>  -0.1500 
 21 C      -10.4880    -1.5050    -1.0130 C.ar  1 <1>  -0.1500 
 22 C      -11.4090    -2.4610    -0.6090 C.ar  1 <1>   0.0820 
 23 O      -12.7210    -2.1180    -0.6990 O.3   1 <1>  -0.3620 
 24 C      -13.7370    -3.0270    -0.3370 C.3   1 <1>   0.0400 
 25 H       -1.6940    -2.8230    -1.6680 H     1 <1>   0.0800 
 26 H        1.6820    -1.2900     0.9030 H     1 <1>   0.0800 
 27 H        1.6530    -0.4750    -0.6570 H     1 <1>   0.0800 
 28 H       -3.1960    -0.9430    -1.2780 H     1 <1>   0.0800 
 29 H       -3.4070    -1.4050     0.3820 H     1 <1>   0.0800 
 30 H       -2.0640    -3.5430     1.2470 H     1 <1>   0.0800 
 31 H       -1.0470    -4.3710     0.1060 H     1 <1>   0.0800 
 32 H        2.8650    -3.2190    -0.1280 H     1 <1>   0.0800 
 33 H        3.7790    -1.7510    -0.3660 H     1 <1>   0.0800 
 34 H        2.8380    -2.4030    -1.6840 H     1 <1>   0.0800 
 35 H       -4.2840    -3.0130    -2.0270 H     1 <1>   0.0800 
 36 H       -5.3100    -2.1430    -0.9320 H     1 <1>   0.0800 
 37 H       -3.1830    -5.5490     0.4530 H     1 <1>   0.0800 
 38 H       -3.0060    -5.0480    -1.2040 H     1 <1>   0.0800 
 39 H       -7.4470    -4.1690     1.3630 H     1 <1>   0.0800 
 40 H       -5.9630    -1.5350     1.1370 H     1 <1>   0.0800 
 41 H       -6.1710    -2.4590     2.5990 H     1 <1>   0.0800 
 42 H       -7.5650    -1.7720     1.8110 H     1 <1>   0.0800 
 43 H       -9.2570    -4.9200     0.2570 H     1 <1>   0.1500 
 44 H       -8.4170    -1.0310    -1.2670 H     1 <1>   0.1500 
 45 H      -11.6460    -4.4590     0.1660 H     1 <1>   0.1500 
 46 H      -10.8440    -0.5580    -1.3750 H     1 <1>   0.1500 
 47 H      -14.6850    -2.5450    -0.4940 H     1 <1>   0.0800 
 48 H      -13.6250    -3.2810     0.7020 H     1 <1>   0.0800 
 49 H      -13.6630    -3.9000    -0.9600 H     1 <1>   0.0800 
@<TRIPOS>BOND
  1   1   2  2   
  2   2   3  1   
  3   2   4  1   
  4   3   5  1   
  5   4   6  1   
  6   4   7  1   
  7   4  25  1   
  8   5   8  1   
  9   5  26  1   
 10   5  27  1   
 11   6   9  1   
 12   6  28  1   
 13   6  29  1   
 14   7  10  1   
 15   7  30  1   
 16   7  31  1   
 17   8  32  1   
 18   8  33  1   
 19   8  34  1   
 20   9  11  1   
 21   9  35  1   
 22   9  36  1   
 23  10  11  1   
 24  10  37  1   
 25  10  38  1   
 26  11  12  am  
 27  12  13  2   
 28  12  14  1   
 29  14  15  1   
 30  14  16  1   
 31  14  39  1   
 32  15  17  1   
 33  16  40  1   
 34  16  41  1   
 35  16  42  1   
 36  17  18  ar  
 37  17  19  ar  
 38  18  20  ar  
 39  18  43  1   
 40  19  21  ar  
 41  19  44  1   
 42  20  22  ar  
 43  20  45  1   
 44  21  22  ar  
 45  21  46  1   
 46  22  23  1   
 47  23  24  1   
 48  24  47  1   
 49  24  48  1   
 50  24  49  1   
@<TRIPOS>SUBSTRUCTURE
  1 ****   9 GROUP 4 **** **** 0

# MOE 2024.06 (io_trps.svl 2023.06)
