@<TRIPOS>MOLECULE
NONAME
57 59 1 0 0 
SMALL
USER_CHARGES


@<TRIPOS>ATOM
  1 O       -0.1650    -0.6540     0.8120 O.2   1 <1>  -0.5700 
  2 C       -0.9430    -1.5610     0.5990 C.2   1 <1>   0.6900 
  3 N       -0.5750    -2.6100    -0.2360 N.am  1 <1>  -0.4200 
  4 N       -2.2010    -1.5440     1.1840 N.am  1 <1>  -0.4360 
  5 C       -1.4680    -3.6260    -0.5510 C.2   1 <1>   0.7030 
  6 C        0.7980    -2.6090    -0.8320 C.3   1 <1>   0.0600 
  7 C       -3.0850    -2.5550     0.8570 C.2   1 <1>   0.4260 
  8 C       -2.6020    -0.4430     2.1110 C.3   1 <1>   0.0600 
  9 O       -1.1400    -4.5370    -1.2930 O.2   1 <1>  -0.5700 
 10 C       -2.7830    -3.5780     0.0220 C.2   1 <1>   0.2770 
 11 N       -4.3650    -2.7120     1.2710 N.pl3 1 <1>  -0.7000 
 12 N       -3.9320    -4.3750    -0.0650 N.pl3 1 <1>  -0.7640 
 13 C       -4.8570    -3.8080     0.7060 C.cat 1 <1>   0.6560 
 14 C       -4.0460    -5.6030    -0.9140 C.3   1 <1>   0.3540 
 15 C       -6.2990    -4.2760     0.9550 C.3   1 <1>   0.2540 
 16 C       -3.3600    -6.8010    -0.2530 C.3   1 <1>   0.1200 
 17 N       -7.2200    -3.1480     1.2900 N.3   1 <1>  -0.8100 
 18 O       -3.8780    -7.9580    -0.8230 O.3   1 <1>  -0.5600 
 19 C       -7.5070    -2.2750     0.1230 C.3   1 <1>   0.1100 
 20 C       -8.5180    -3.6610     1.7920 C.3   1 <1>   0.1100 
 21 C       -3.2750    -9.1320    -0.3890 C.3   1 <1>   0.1200 
 22 C       -8.3710    -2.9410    -0.9840 C.3   1 <1>   0.2000 
 23 C       -9.4500    -4.2490     0.6930 C.3   1 <1>   0.2000 
 24 C       -3.9750   -10.2890    -1.0890 C.3   1 <1>  -0.2400 
 25 O       -8.8660    -4.1860    -0.5800 O.3   1 <1>  -0.5600 
 26 C       -7.5800    -3.1870    -2.2670 C.3   1 <1>  -0.2400 
 27 C      -10.8260    -3.5780     0.6460 C.3   1 <1>  -0.2400 
 28 H        1.5160    -2.2590    -0.1090 H     1 <1>   0.0800 
 29 H        0.8200    -1.9540    -1.6860 H     1 <1>   0.0800 
 30 H        1.0900    -3.5980    -1.1410 H     1 <1>   0.0800 
 31 H       -1.7330     0.0350     2.5310 H     1 <1>   0.0800 
 32 H       -3.1920    -0.8330     2.9210 H     1 <1>   0.0800 
 33 H       -3.1730     0.2940     1.5730 H     1 <1>   0.0800 
 34 H       -4.9320    -2.1160     1.8810 H     1 <1>   0.4500 
 35 H       -3.5980    -5.4240    -1.8770 H     1 <1>   0.0800 
 36 H       -5.0840    -5.8410    -1.0680 H     1 <1>   0.0800 
 37 H       -6.2740    -4.9610     1.7830 H     1 <1>   0.0800 
 38 H       -6.6550    -4.8170     0.1000 H     1 <1>   0.0800 
 39 H       -3.5700    -6.8280     0.8020 H     1 <1>   0.0800 
 40 H       -2.2970    -6.7710    -0.4260 H     1 <1>   0.0800 
 41 H       -6.5920    -1.9010    -0.3020 H     1 <1>   0.0800 
 42 H       -8.0450    -1.4110     0.4750 H     1 <1>   0.0800 
 43 H       -9.0350    -2.8520     2.2800 H     1 <1>   0.0800 
 44 H       -8.3530    -4.4070     2.5510 H     1 <1>   0.0800 
 45 H       -3.3870    -9.2120     0.6790 H     1 <1>   0.0800 
 46 H       -2.2300    -9.1070    -0.6520 H     1 <1>   0.0800 
 47 H       -9.2110    -2.3080    -1.2150 H     1 <1>   0.0800 
 48 H       -9.6010    -5.2950     0.9010 H     1 <1>   0.0800 
 49 H       -5.0190   -10.3020    -0.8330 H     1 <1>   0.0800 
 50 H       -3.5350   -11.2210    -0.7820 H     1 <1>   0.0800 
 51 H       -3.8680   -10.1950    -2.1550 H     1 <1>   0.0800 
 52 H       -6.7430    -3.8330    -2.0840 H     1 <1>   0.0800 
 53 H       -7.2210    -2.2550    -2.6640 H     1 <1>   0.0800 
 54 H       -8.2210    -3.6390    -3.0040 H     1 <1>   0.0800 
 55 H      -10.7380    -2.5160     0.5090 H     1 <1>   0.0800 
 56 H      -11.3470    -3.7540     1.5700 H     1 <1>   0.0800 
 57 H      -11.4100    -3.9970    -0.1540 H     1 <1>   0.0800 
@<TRIPOS>BOND
  1   1   2  2   
  2   2   3  am  
  3   2   4  am  
  4   3   5  am  
  5   3   6  1   
  6   4   7  1   
  7   4   8  1   
  8   5   9  2   
  9   5  10  1   
 10   6  28  1   
 11   6  29  1   
 12   6  30  1   
 13   7  10  2   
 14   7  11  1   
 15   8  31  1   
 16   8  32  1   
 17   8  33  1   
 18  10  12  1   
 19  11  13  ar  
 20  11  34  1   
 21  12  13  ar  
 22  12  14  1   
 23  13  15  1   
 24  14  16  1   
 25  14  35  1   
 26  14  36  1   
 27  15  17  1   
 28  15  37  1   
 29  15  38  1   
 30  16  18  1   
 31  16  39  1   
 32  16  40  1   
 33  17  19  1   
 34  17  20  1   
 35  18  21  1   
 36  19  22  1   
 37  19  41  1   
 38  19  42  1   
 39  20  23  1   
 40  20  43  1   
 41  20  44  1   
 42  21  24  1   
 43  21  45  1   
 44  21  46  1   
 45  22  25  1   
 46  22  26  1   
 47  22  47  1   
 48  23  25  1   
 49  23  27  1   
 50  23  48  1   
 51  24  49  1   
 52  24  50  1   
 53  24  51  1   
 54  26  52  1   
 55  26  53  1   
 56  26  54  1   
 57  27  55  1   
 58  27  56  1   
 59  27  57  1   
@<TRIPOS>SUBSTRUCTURE
  1 ****  12 GROUP 4 **** **** 0

# MOE 2024.06 (io_trps.svl 2023.06)
