@<TRIPOS>MOLECULE
NONAME
33 34 1 0 0 
SMALL
USER_CHARGES


@<TRIPOS>ATOM
  1 BR      -0.1330     0.2240     1.0310 Br    1 <1>  -0.0580 
  2 C       -1.8840     0.3130     0.2340 C.2   1 <1>   0.1980 
  3 O       -2.7990    -0.5200     0.6760 O.3   1 <1>  -0.2800 
  4 C       -2.3280     1.1270    -0.7410 C.2   1 <1>  -0.1500 
  5 C       -3.8920    -0.2580    -0.0230 C.2   1 <1>  -0.0400 
  6 C       -3.6660     0.7430    -0.9110 C.2   1 <1>  -0.1500 
  7 C       -5.1380    -1.0800     0.2670 C.3   1 <1>   0.2900 
  8 N       -6.3750    -0.3570    -0.1120 N.3   1 <1>  -0.8100 
  9 C       -6.6220     0.7940     0.7830 C.3   1 <1>   0.1100 
 10 C       -7.5360    -1.2670    -0.1470 C.3   1 <1>   0.1100 
 11 C       -7.8940     1.5630     0.3700 C.3   1 <1>   0.3430 
 12 C       -8.8200    -0.5230    -0.5700 C.3   1 <1>   0.3430 
 13 N       -9.0990     0.6640     0.3150 N.4   1 <1>  -0.9590 
 14 C      -10.3010     1.4230    -0.1160 C.3   1 <1>   0.3430 
 15 C      -11.5570     0.6160     0.1900 C.3   1 <1>  -0.2400 
 16 H       -1.8010     1.8940    -1.2790 H     1 <1>   0.1500 
 17 H       -4.3530     1.1710    -1.6190 H     1 <1>   0.1500 
 18 H       -5.1650    -1.3250     1.3160 H     1 <1>   0.0800 
 19 H       -5.0620    -1.9990    -0.2880 H     1 <1>   0.0800 
 20 H       -5.7860     1.4720     0.7390 H     1 <1>   0.0800 
 21 H       -6.7170     0.4590     1.8020 H     1 <1>   0.0800 
 22 H       -7.6820    -1.7210     0.8180 H     1 <1>   0.0800 
 23 H       -7.3460    -2.0530    -0.8590 H     1 <1>   0.0800 
 24 H       -7.7220     1.9990    -0.6010 H     1 <1>   0.0800 
 25 H       -8.0640     2.3650     1.0690 H     1 <1>   0.0800 
 26 H       -9.6480    -1.2100    -0.5400 H     1 <1>   0.0800 
 27 H       -8.6990    -0.1930    -1.5890 H     1 <1>   0.0800 
 28 H       -9.2640     0.3120     1.2660 H     1 <1>   0.4500 
 29 H      -10.2460     1.6420    -1.1710 H     1 <1>   0.0800 
 30 H      -10.3510     2.3580     0.4200 H     1 <1>   0.0800 
 31 H      -11.6000    -0.2850    -0.3950 H     1 <1>   0.0800 
 32 H      -12.4210     1.2060    -0.0600 H     1 <1>   0.0800 
 33 H      -11.6140     0.3750     1.2360 H     1 <1>   0.0800 
@<TRIPOS>BOND
  1   1   2  1   
  2   2   3  1   
  3   2   4  2   
  4   3   5  1   
  5   4   6  1   
  6   4  16  1   
  7   5   6  2   
  8   5   7  1   
  9   6  17  1   
 10   7   8  1   
 11   7  18  1   
 12   7  19  1   
 13   8   9  1   
 14   8  10  1   
 15   9  11  1   
 16   9  20  1   
 17   9  21  1   
 18  10  12  1   
 19  10  22  1   
 20  10  23  1   
 21  11  13  1   
 22  11  24  1   
 23  11  25  1   
 24  12  13  1   
 25  12  26  1   
 26  12  27  1   
 27  13  14  1   
 28  13  28  1   
 29  14  15  1   
 30  14  29  1   
 31  14  30  1   
 32  15  31  1   
 33  15  32  1   
 34  15  33  1   
@<TRIPOS>SUBSTRUCTURE
  1 ****   8 GROUP 4 **** **** 0

# MOE 2024.06 (io_trps.svl 2023.06)
