@<TRIPOS>MOLECULE
NONAME
37 37 1 0 0 
SMALL
USER_CHARGES


@<TRIPOS>ATOM
  1 O        7.2160    -1.4850     0.0670 O.3   1 <1>  -0.3630 
  2 C        8.3710    -0.7680     0.0620 C.ar  1 <1>   0.0830 
  3 C        7.1770    -2.8790     0.2300 C.3   1 <1>   0.1200 
  4 C        8.3080     0.6250    -0.1080 C.ar  1 <1>  -0.1440 
  5 C        9.6010    -1.4070     0.2220 C.ar  1 <1>  -0.1500 
  6 C        5.7040    -3.2870     0.1770 C.3   1 <1>   0.3430 
  7 C        9.5180     1.3210    -0.1070 C.ar  1 <1>  -0.1500 
  8 C        6.9600     1.3880    -0.2900 C.3   1 <1>   0.1440 
  9 C       10.7770    -0.6860     0.2170 C.ar  1 <1>  -0.1500 
 10 N        5.5240    -4.7630     0.3390 N.4   1 <1>  -0.9060 
 11 C       10.7320     0.6810     0.0520 C.ar  1 <1>  -0.1500 
 12 C        7.1390     2.9100    -0.4580 C.3   1 <1>  -0.2400 
 13 C        6.0590     1.2030     0.9440 C.3   1 <1>  -0.2400 
 14 C        6.2310     0.9070    -1.5570 C.3   1 <1>  -0.2400 
 15 C        4.0840    -5.1550     0.2870 C.3   1 <1>   0.2630 
 16 H        7.6130    -3.1150     1.1840 H     1 <1>   0.0800 
 17 H        7.7330    -3.3240    -0.5770 H     1 <1>   0.0800 
 18 H        9.6800    -2.4670     0.3520 H     1 <1>   0.1500 
 19 H        5.2950    -2.9740    -0.7710 H     1 <1>   0.0800 
 20 H        5.1770    -2.7700     0.9630 H     1 <1>   0.0800 
 21 H        9.5620     2.3860    -0.2300 H     1 <1>   0.1500 
 22 H       11.7240    -1.1830     0.3400 H     1 <1>   0.1500 
 23 H        5.9280    -5.0650     1.2380 H     1 <1>   0.4500 
 24 H        6.0400    -5.2590    -0.4020 H     1 <1>   0.4500 
 25 H       11.6450     1.2520     0.0470 H     1 <1>   0.1500 
 26 H        7.6130     3.3350     0.4090 H     1 <1>   0.0800 
 27 H        6.1880     3.3970    -0.5810 H     1 <1>   0.0800 
 28 H        7.7320     3.1300    -1.3280 H     1 <1>   0.0800 
 29 H        6.5890     1.5040     1.8290 H     1 <1>   0.0800 
 30 H        5.7520     0.1850     1.0660 H     1 <1>   0.0800 
 31 H        5.1710     1.8030     0.8590 H     1 <1>   0.0800 
 32 H        6.8800     1.0030    -2.4090 H     1 <1>   0.0800 
 33 H        5.3480     1.4960    -1.7340 H     1 <1>   0.0800 
 34 H        5.9270    -0.1170    -1.4800 H     1 <1>   0.0800 
 35 H        3.5330    -4.6680     1.0760 H     1 <1>   0.0800 
 36 H        3.9800    -6.2220     0.4060 H     1 <1>   0.0800 
 37 H        3.6510    -4.8730    -0.6600 H     1 <1>   0.0800 
@<TRIPOS>BOND
  1   1   2  1   
  2   1   3  1   
  3   2   4  ar  
  4   2   5  ar  
  5   3   6  1   
  6   3  16  1   
  7   3  17  1   
  8   4   7  ar  
  9   4   8  1   
 10   5   9  ar  
 11   5  18  1   
 12   6  10  1   
 13   6  19  1   
 14   6  20  1   
 15   7  11  ar  
 16   7  21  1   
 17   8  12  1   
 18   8  13  1   
 19   8  14  1   
 20   9  11  ar  
 21   9  22  1   
 22  10  15  1   
 23  10  23  1   
 24  10  24  1   
 25  11  25  1   
 26  12  26  1   
 27  12  27  1   
 28  12  28  1   
 29  13  29  1   
 30  13  30  1   
 31  13  31  1   
 32  14  32  1   
 33  14  33  1   
 34  14  34  1   
 35  15  35  1   
 36  15  36  1   
 37  15  37  1   
@<TRIPOS>SUBSTRUCTURE
  1 ****   1 GROUP 4 **** **** 0

# MOE 2024.06 (io_trps.svl 2023.06)
