@<TRIPOS>MOLECULE
NONAME
32 32 1 0 0 
SMALL
USER_CHARGES


@<TRIPOS>ATOM
  1 O       -0.3370    -0.5180    -0.6070 O.2   1 <1>  -0.5700 
  2 C       -0.3470    -1.5440     0.0490 C.2   1 <1>   0.5440 
  3 N       -1.5360    -1.9360     0.5910 N.am  1 <1>  -0.7300 
  4 C        0.8770    -2.3100     0.2500 C.ar  1 <1>   0.0860 
  5 C       -2.8670    -1.3240     0.3580 C.3   1 <1>   0.1400 
  6 C        0.9300    -3.6250     0.7550 C.ar  1 <1>   0.0830 
  7 C        2.1040    -1.7230    -0.0760 C.ar  1 <1>  -0.1500 
  8 C       -3.8920    -2.3560    -0.1700 C.3   1 <1>   0.0000 
  9 O       -0.1770    -4.3090     1.1000 O.3   1 <1>  -0.5330 
 10 C        2.1380    -4.2880     0.9190 C.ar  1 <1>  -0.1500 
 11 C        3.3080    -2.3820     0.0860 C.ar  1 <1>  -0.1500 
 12 C       -5.2390    -1.6480    -0.3780 C.3   1 <1>  -0.2400 
 13 C       -4.0910    -3.5020     0.8360 C.3   1 <1>  -0.2400 
 14 C       -3.4320    -2.9380    -1.5170 C.3   1 <1>  -0.2400 
 15 C        3.3270    -3.6700     0.5860 C.ar  1 <1>  -0.1500 
 16 H       -1.5410    -2.8540     1.0470 H     1 <1>   0.3700 
 17 H       -2.7730    -0.5180    -0.3490 H     1 <1>   0.0800 
 18 H       -3.2180    -0.9070     1.2860 H     1 <1>   0.0800 
 19 H        2.1130    -0.7190    -0.4670 H     1 <1>   0.1500 
 20 H        0.0050    -5.2190     1.4000 H     1 <1>   0.4500 
 21 H        2.1630    -5.2900     1.3060 H     1 <1>   0.1500 
 22 H        4.2300    -1.8920    -0.1770 H     1 <1>   0.1500 
 23 H       -5.1370    -0.8460    -1.0870 H     1 <1>   0.0800 
 24 H       -5.5980    -1.2380     0.5490 H     1 <1>   0.0800 
 25 H       -5.9760    -2.3370    -0.7510 H     1 <1>   0.0800 
 26 H       -3.1860    -4.0690     0.9580 H     1 <1>   0.0800 
 27 H       -4.3840    -3.1150     1.7950 H     1 <1>   0.0800 
 28 H       -4.8580    -4.1740     0.4920 H     1 <1>   0.0800 
 29 H       -3.2690    -2.1480    -2.2300 H     1 <1>   0.0800 
 30 H       -4.1720    -3.6100    -1.9150 H     1 <1>   0.0800 
 31 H       -2.5100    -3.4800    -1.4040 H     1 <1>   0.0800 
 32 H        4.2640    -4.1850     0.7130 H     1 <1>   0.1500 
@<TRIPOS>BOND
  1   1   2  2   
  2   2   3  am  
  3   2   4  1   
  4   3   5  1   
  5   3  16  1   
  6   4   6  ar  
  7   4   7  ar  
  8   5   8  1   
  9   5  17  1   
 10   5  18  1   
 11   6   9  1   
 12   6  10  ar  
 13   7  11  ar  
 14   7  19  1   
 15   8  12  1   
 16   8  13  1   
 17   8  14  1   
 18   9  20  1   
 19  10  15  ar  
 20  10  21  1   
 21  11  15  ar  
 22  11  22  1   
 23  12  23  1   
 24  12  24  1   
 25  12  25  1   
 26  13  26  1   
 27  13  27  1   
 28  13  28  1   
 29  14  29  1   
 30  14  30  1   
 31  14  31  1   
 32  15  32  1   
@<TRIPOS>SUBSTRUCTURE
  1 ****   2 GROUP 4 **** **** 0

# MOE 2024.06 (io_trps.svl 2023.06)
