@<TRIPOS>MOLECULE
NONAME
42 43 1 0 0 
SMALL
USER_CHARGES


@<TRIPOS>ATOM
  1 O        0.1330    -1.3690    -2.3610 O.2   1 <1>  -0.5700 
  2 C        0.0460    -1.9060    -1.2850 C.2   1 <1>   0.5690 
  3 N        1.0290    -1.8900    -0.3350 N.am  1 <1>  -0.5470 
  4 C       -1.2280    -2.6610    -0.9570 C.3   1 <1>  -0.0990 
  5 C        2.2940    -1.2770    -0.3200 C.ar  1 <1>   0.1170 
  6 C       -2.1350    -1.8700     0.0050 C.3   1 <1>  -0.1600 
  7 C        2.6340    -0.2120    -1.1480 C.ar  1 <1>  -0.1500 
  8 C        3.2480    -1.7450     0.5760 C.ar  1 <1>  -0.1500 
  9 C       -3.3740    -2.6570     0.4710 C.3   1 <1>  -0.0800 
 10 C        3.8910     0.3620    -1.0830 C.ar  1 <1>  -0.1500 
 11 C        4.5070    -1.1740     0.6470 C.ar  1 <1>  -0.1500 
 12 C       -4.3270    -2.9880    -0.6950 C.3   1 <1>  -0.1600 
 13 C       -4.1170    -1.8530     1.5530 C.3   1 <1>  -0.1600 
 14 C        4.8360    -0.1110    -0.1890 C.ar  1 <1>   0.0830 
 15 C       -5.5910    -3.7110    -0.2080 C.3   1 <1>  -0.1600 
 16 C       -5.3760    -2.5830     2.0420 C.3   1 <1>  -0.1600 
 17 O        6.0450     0.5090    -0.1890 O.3   1 <1>  -0.3630 
 18 C       -6.3150    -2.9020     0.8740 C.3   1 <1>  -0.1600 
 19 C        7.0810     0.0830     0.6680 C.3   1 <1>   0.0400 
 20 H        0.8170    -2.4300     0.4990 H     1 <1>   0.3700 
 21 H       -0.9700    -3.6110    -0.5270 H     1 <1>   0.0800 
 22 H       -1.7460    -2.8480    -1.8800 H     1 <1>   0.0800 
 23 H       -2.4460    -0.9590    -0.4790 H     1 <1>   0.0800 
 24 H       -1.5590    -1.5920     0.8710 H     1 <1>   0.0800 
 25 H        1.9190     0.1790    -1.8480 H     1 <1>   0.1500 
 26 H        3.0090    -2.5670     1.2250 H     1 <1>   0.1500 
 27 H       -3.0460    -3.5830     0.9130 H     1 <1>   0.0800 
 28 H        4.1450     1.1840    -1.7280 H     1 <1>   0.1500 
 29 H        5.2140    -1.5670     1.3520 H     1 <1>   0.1500 
 30 H       -3.8350    -3.6170    -1.4140 H     1 <1>   0.0800 
 31 H       -4.6130    -2.0770    -1.1940 H     1 <1>   0.0800 
 32 H       -4.4020    -0.8940     1.1550 H     1 <1>   0.0800 
 33 H       -3.4650    -1.6810     2.3920 H     1 <1>   0.0800 
 34 H       -5.3190    -4.6730     0.1900 H     1 <1>   0.0800 
 35 H       -6.2550    -3.8740    -1.0400 H     1 <1>   0.0800 
 36 H       -5.8910    -1.9700     2.7610 H     1 <1>   0.0800 
 37 H       -5.0910    -3.4980     2.5310 H     1 <1>   0.0800 
 38 H       -7.1630    -3.4590     1.2340 H     1 <1>   0.0800 
 39 H       -6.6800    -1.9830     0.4480 H     1 <1>   0.0800 
 40 H        7.9380     0.7060     0.4900 H     1 <1>   0.0800 
 41 H        7.3200    -0.9410     0.4440 H     1 <1>   0.0800 
 42 H        6.7570     0.1910     1.6880 H     1 <1>   0.0800 
@<TRIPOS>BOND
  1   1   2  2   
  2   2   3  am  
  3   2   4  1   
  4   3   5  1   
  5   3  20  1   
  6   4   6  1   
  7   4  21  1   
  8   4  22  1   
  9   5   7  ar  
 10   5   8  ar  
 11   6   9  1   
 12   6  23  1   
 13   6  24  1   
 14   7  10  ar  
 15   7  25  1   
 16   8  11  ar  
 17   8  26  1   
 18   9  12  1   
 19   9  13  1   
 20   9  27  1   
 21  10  14  ar  
 22  10  28  1   
 23  11  14  ar  
 24  11  29  1   
 25  12  15  1   
 26  12  30  1   
 27  12  31  1   
 28  13  16  1   
 29  13  32  1   
 30  13  33  1   
 31  14  17  1   
 32  15  18  1   
 33  15  34  1   
 34  15  35  1   
 35  16  18  1   
 36  16  36  1   
 37  16  37  1   
 38  17  19  1   
 39  18  38  1   
 40  18  39  1   
 41  19  40  1   
 42  19  41  1   
 43  19  42  1   
@<TRIPOS>SUBSTRUCTURE
  1 ****   3 GROUP 4 **** **** 0

# MOE 2024.06 (io_trps.svl 2023.06)
