@<TRIPOS>MOLECULE
NONAME
35 36 1 0 0 
SMALL
USER_CHARGES


@<TRIPOS>ATOM
  1 S        0.2140     0.0670    -0.8000 S.o2  1 <1>   1.4470 
  2 O       -1.0840    -0.2510    -0.2420 O.2   1 <1>  -0.6500 
  3 O        0.3940     0.0460    -2.2360 O.2   1 <1>  -0.6500 
  4 N        1.2670    -1.1200    -0.1940 N.am  1 <1>  -0.8490 
  5 C        0.9180     1.6070    -0.1430 C.ar  1 <1>  -0.0090 
  6 C        1.1450    -2.3870    -0.8920 C.3   1 <1>   0.1960 
  7 C        1.0790    -1.4420     1.2130 C.3   1 <1>   0.1960 
  8 C        0.1250     2.7350     0.0430 C.ar  1 <1>   0.0820 
  9 C        2.2730     1.7010     0.1530 C.ar  1 <1>  -0.1500 
 10 C        1.8400    -3.3960     0.0160 C.3   1 <1>  -0.1600 
 11 C        1.8470    -2.7430     1.3990 C.3   1 <1>  -0.1600 
 12 O       -1.1800     2.6500    -0.2930 O.3   1 <1>  -0.3620 
 13 C        0.6850     3.9040     0.5520 C.ar  1 <1>  -0.1500 
 14 C        2.8650     2.8610     0.6530 C.ar  1 <1>   0.0860 
 15 C       -2.0900     3.7160    -0.1320 C.3   1 <1>   0.0400 
 16 C        2.0300     3.9580     0.8540 C.ar  1 <1>  -0.1500 
 17 C        4.2840     2.9370     0.9560 C.2   1 <1>   0.5440 
 18 O        4.7270     3.7610     1.7260 O.2   1 <1>  -0.5700 
 19 N        5.1900     2.1060     0.3900 N.am  1 <1>  -0.8000 
 20 H        1.6020    -2.3360    -1.8670 H     1 <1>   0.0800 
 21 H        0.1030    -2.6470    -1.0000 H     1 <1>   0.0800 
 22 H        0.0360    -1.6120     1.4270 H     1 <1>   0.0800 
 23 H        1.4530    -0.6580     1.8500 H     1 <1>   0.0800 
 24 H        2.8950     0.8380    -0.0080 H     1 <1>   0.1500 
 25 H        2.8460    -3.5630    -0.3260 H     1 <1>   0.0800 
 26 H        1.3090    -4.3310     0.0140 H     1 <1>   0.0800 
 27 H        1.3800    -3.3630     2.1440 H     1 <1>   0.0800 
 28 H        2.8560    -2.5260     1.7030 H     1 <1>   0.0800 
 29 H        0.0890     4.7820     0.7180 H     1 <1>   0.1500 
 30 H       -3.0560     3.3800    -0.4650 H     1 <1>   0.0800 
 31 H       -1.7650     4.5470    -0.7320 H     1 <1>   0.0800 
 32 H       -2.1360     3.9820     0.9090 H     1 <1>   0.0800 
 33 H        2.4530     4.8670     1.2500 H     1 <1>   0.1500 
 34 H        6.1770     2.2390     0.6170 H     1 <1>   0.3700 
 35 H        4.9800     1.4630    -0.3720 H     1 <1>   0.3700 
@<TRIPOS>BOND
  1   1   2  2   
  2   1   3  2   
  3   1   4  am  
  4   1   5  1   
  5   4   6  1   
  6   4   7  1   
  7   5   8  ar  
  8   5   9  ar  
  9   6  10  1   
 10   6  20  1   
 11   6  21  1   
 12   7  11  1   
 13   7  22  1   
 14   7  23  1   
 15   8  12  1   
 16   8  13  ar  
 17   9  14  ar  
 18   9  24  1   
 19  10  11  1   
 20  10  25  1   
 21  10  26  1   
 22  11  27  1   
 23  11  28  1   
 24  12  15  1   
 25  13  16  ar  
 26  13  29  1   
 27  14  16  ar  
 28  14  17  1   
 29  15  30  1   
 30  15  31  1   
 31  15  32  1   
 32  16  33  1   
 33  17  18  2   
 34  17  19  am  
 35  19  34  1   
 36  19  35  1   
@<TRIPOS>SUBSTRUCTURE
  1 ****   5 GROUP 4 **** **** 0

# MOE 2024.06 (io_trps.svl 2023.06)
