@<TRIPOS>MOLECULE
NONAME
37 38 1 0 0 
SMALL
USER_CHARGES


@<TRIPOS>ATOM
  1 S        0.4360     0.2250    -0.5630 S.3   1 <1>  -0.3710 
  2 C        1.9730     1.0770    -0.7920 C.2   1 <1>   0.6410 
  3 C       -0.6610     1.4910     0.2150 C.3   1 <1>   0.0700 
  4 N        2.9450     0.3230    -1.3550 N.pl3 1 <1>  -0.5500 
  5 N        2.0840     2.2990    -0.4360 N.2   1 <1>  -0.6610 
  6 C       -2.0260     0.8470     0.4650 C.3   1 <1>  -0.1600 
  7 C        4.1870     0.8390    -1.5920 C.2   1 <1>  -0.0380 
  8 C        3.3040     2.8710    -0.6510 C.2   1 <1>   0.7670 
  9 C       -2.9970     1.8390     1.1130 C.3   1 <1>  -0.2400 
 10 C        4.3870     2.1390    -1.2440 C.2   1 <1>  -0.1240 
 11 C        5.1890    -0.1230    -2.2090 C.3   1 <1>  -0.1020 
 12 O        3.4260     4.0410    -0.3170 O.2   1 <1>  -0.5700 
 13 C        5.7180     2.8670    -1.4460 C.3   1 <1>   0.1220 
 14 C        6.7100     2.5240    -0.3410 C.ar  1 <1>  -0.1440 
 15 C        7.9010     1.8730    -0.6310 C.ar  1 <1>  -0.1500 
 16 C        6.4320     2.8690     0.9730 C.ar  1 <1>  -0.1500 
 17 C        8.7950     1.5620     0.3790 C.ar  1 <1>  -0.1500 
 18 C        7.3250     2.5590     1.9850 C.ar  1 <1>  -0.1500 
 19 C        8.5070     1.9040     1.6890 C.ar  1 <1>  -0.1500 
 20 H       -0.7280     2.3210    -0.4670 H     1 <1>   0.0800 
 21 H       -0.1920     1.8040     1.1310 H     1 <1>   0.0800 
 22 H        2.7020    -0.6450    -1.5730 H     1 <1>   0.4000 
 23 H       -1.9030    -0.0060     1.1100 H     1 <1>   0.0800 
 24 H       -2.4350     0.5060    -0.4710 H     1 <1>   0.0800 
 25 H       -2.6120     2.1780     2.0590 H     1 <1>   0.0800 
 26 H       -3.9480     1.3660     1.2810 H     1 <1>   0.0800 
 27 H       -3.1460     2.6920     0.4730 H     1 <1>   0.0800 
 28 H        4.8280    -0.4660    -3.1620 H     1 <1>   0.0800 
 29 H        5.3210    -0.9710    -1.5620 H     1 <1>   0.0800 
 30 H        6.1480     0.3320    -2.3560 H     1 <1>   0.0800 
 31 H        5.5800     3.9330    -1.4680 H     1 <1>   0.0800 
 32 H        6.1280     2.6030    -2.4030 H     1 <1>   0.0800 
 33 H        8.1450     1.6040    -1.6430 H     1 <1>   0.1500 
 34 H        5.5190     3.3840     1.2180 H     1 <1>   0.1500 
 35 H        9.7160     1.0560     0.1480 H     1 <1>   0.1500 
 36 H        7.0980     2.8300     3.0010 H     1 <1>   0.1500 
 37 H        9.2010     1.6630     2.4750 H     1 <1>   0.1500 
@<TRIPOS>BOND
  1   1   2  1   
  2   1   3  1   
  3   2   4  1   
  4   2   5  2   
  5   3   6  1   
  6   3  20  1   
  7   3  21  1   
  8   4   7  1   
  9   4  22  1   
 10   5   8  1   
 11   6   9  1   
 12   6  23  1   
 13   6  24  1   
 14   7  10  2   
 15   7  11  1   
 16   8  10  1   
 17   8  12  2   
 18   9  25  1   
 19   9  26  1   
 20   9  27  1   
 21  10  13  1   
 22  11  28  1   
 23  11  29  1   
 24  11  30  1   
 25  13  14  1   
 26  13  31  1   
 27  13  32  1   
 28  14  15  ar  
 29  14  16  ar  
 30  15  17  ar  
 31  15  33  1   
 32  16  18  ar  
 33  16  34  1   
 34  17  19  ar  
 35  17  35  1   
 36  18  19  ar  
 37  18  36  1   
 38  19  37  1   
@<TRIPOS>SUBSTRUCTURE
  1 ****  10 GROUP 4 **** **** 0

# MOE 2024.06 (io_trps.svl 2023.06)
