@<TRIPOS>MOLECULE
NONAME
46 48 1 0 0 
SMALL
USER_CHARGES


@<TRIPOS>ATOM
  1 F        0.5410    -0.6930     1.2100 F     1 <1>  -0.1900 
  2 C        1.6800    -1.2280     0.8500 C.ar  1 <1>   0.1900 
  3 C        2.0380    -1.2000    -0.4840 C.ar  1 <1>  -0.1500 
  4 C        2.4820    -1.8020     1.8180 C.ar  1 <1>  -0.1500 
  5 C        3.2440    -1.7690    -0.8560 C.ar  1 <1>  -0.1500 
  6 C        3.6850    -2.3660     1.4320 C.ar  1 <1>  -0.1500 
  7 C        4.0760    -2.3550     0.0930 C.ar  1 <1>   0.1000 
  8 N        5.2800    -2.9180    -0.3140 N.pl3 1 <1>  -0.8380 
  9 C        5.3540    -4.4070    -0.2850 C.3   1 <1>   0.2090 
 10 C        6.5240    -2.2290     0.1420 C.3   1 <1>   0.2090 
 11 C        6.5880    -4.9090    -1.0670 C.3   1 <1>   0.3430 
 12 C        7.7520    -2.7440    -0.6380 C.3   1 <1>   0.3430 
 13 N        7.8680    -4.2510    -0.6130 N.4   1 <1>  -0.9590 
 14 C        9.0450    -4.7220    -1.3900 C.3   1 <1>   0.4860 
 15 C       10.2960    -4.1910    -0.7170 C.ar  1 <1>  -0.1430 
 16 C       10.7980    -4.7540     0.4540 C.ar  1 <1>  -0.1430 
 17 C       10.9430    -3.1030    -1.2880 C.ar  1 <1>  -0.1500 
 18 C       11.9250    -4.1980     1.0410 C.ar  1 <1>  -0.1500 
 19 C       10.1700    -5.9710     1.1230 C.3   1 <1>  -0.0970 
 20 C       12.0670    -2.5630    -0.6930 C.ar  1 <1>  -0.1500 
 21 C       12.5620    -3.1070     0.4780 C.ar  1 <1>  -0.1430 
 22 C       13.7950    -2.5180     1.1390 C.3   1 <1>  -0.0970 
 23 H        1.3870    -0.7440    -1.2080 H     1 <1>   0.1500 
 24 H        2.1650    -1.8020     2.8460 H     1 <1>   0.1500 
 25 H        3.5500    -1.7610    -1.8860 H     1 <1>   0.1500 
 26 H        4.3220    -2.8170     2.1690 H     1 <1>   0.1500 
 27 H        4.4610    -4.8130    -0.7290 H     1 <1>   0.0800 
 28 H        5.4010    -4.7490     0.7350 H     1 <1>   0.0800 
 29 H        6.6660    -2.3930     1.1960 H     1 <1>   0.0800 
 30 H        6.4190    -1.1690    -0.0160 H     1 <1>   0.0800 
 31 H        6.4260    -4.6960    -2.1100 H     1 <1>   0.0800 
 32 H        6.6630    -5.9780    -0.9550 H     1 <1>   0.0800 
 33 H        8.6400    -2.3000    -0.2190 H     1 <1>   0.0800 
 34 H        7.6640    -2.4060    -1.6570 H     1 <1>   0.0800 
 35 H        8.0520    -4.5100     0.3620 H     1 <1>   0.4500 
 36 H        8.9920    -4.3650    -2.4050 H     1 <1>   0.0800 
 37 H        9.0790    -5.7990    -1.4070 H     1 <1>   0.0800 
 38 H       10.5850    -2.6610    -2.2020 H     1 <1>   0.1500 
 39 H       12.3220    -4.6190     1.9500 H     1 <1>   0.1500 
 40 H        9.9050    -6.7180     0.3970 H     1 <1>   0.0800 
 41 H        9.2990    -5.6860     1.6830 H     1 <1>   0.0800 
 42 H       10.8680    -6.4240     1.8060 H     1 <1>   0.0800 
 43 H       12.5590    -1.7180    -1.1440 H     1 <1>   0.1500 
 44 H       14.3980    -3.2980     1.5680 H     1 <1>   0.0800 
 45 H       13.5030    -1.8370     1.9180 H     1 <1>   0.0800 
 46 H       14.3950    -1.9860     0.4220 H     1 <1>   0.0800 
@<TRIPOS>BOND
  1   1   2  1   
  2   2   3  ar  
  3   2   4  ar  
  4   3   5  ar  
  5   3  23  1   
  6   4   6  ar  
  7   4  24  1   
  8   5   7  ar  
  9   5  25  1   
 10   6   7  ar  
 11   6  26  1   
 12   7   8  1   
 13   8   9  1   
 14   8  10  1   
 15   9  11  1   
 16   9  27  1   
 17   9  28  1   
 18  10  12  1   
 19  10  29  1   
 20  10  30  1   
 21  11  13  1   
 22  11  31  1   
 23  11  32  1   
 24  12  13  1   
 25  12  33  1   
 26  12  34  1   
 27  13  14  1   
 28  13  35  1   
 29  14  15  1   
 30  14  36  1   
 31  14  37  1   
 32  15  16  ar  
 33  15  17  ar  
 34  16  18  ar  
 35  16  19  1   
 36  17  20  ar  
 37  17  38  1   
 38  18  21  ar  
 39  18  39  1   
 40  19  40  1   
 41  19  41  1   
 42  19  42  1   
 43  20  21  ar  
 44  20  43  1   
 45  21  22  1   
 46  22  44  1   
 47  22  45  1   
 48  22  46  1   
@<TRIPOS>SUBSTRUCTURE
  1 ****  12 GROUP 4 **** **** 0

# MOE 2024.06 (io_trps.svl 2023.06)
