@<TRIPOS>MOLECULE
NONAME
40 41 1 0 0 
SMALL
USER_CHARGES


@<TRIPOS>ATOM
  1 N       -0.1100    -0.1290    -0.1610 N.4   1 <1>  -0.9590 
  2 C       -1.3290     0.6500     0.1940 C.3   1 <1>   0.3430 
  3 C       -0.1140    -1.4970     0.4350 C.3   1 <1>   0.3430 
  4 C        1.1100     0.6380     0.2400 C.3   1 <1>   0.3430 
  5 C       -2.5820    -0.0940    -0.2690 C.3   1 <1>  -0.1600 
  6 C       -1.3520    -2.2670    -0.0230 C.3   1 <1>  -0.1600 
  7 C        2.3500     0.0820    -0.4640 C.3   1 <1>  -0.1600 
  8 C       -2.6450    -1.5120     0.3130 C.3   1 <1>   0.4230 
  9 C        3.5810     0.9380    -0.1510 C.3   1 <1>  -0.2400 
 10 N       -3.8290    -2.2440    -0.2340 N.4   1 <1>  -0.9590 
 11 C       -5.1470    -1.6000     0.0400 C.3   1 <1>   0.3430 
 12 C       -3.9910    -3.6400     0.2680 C.3   1 <1>   0.3430 
 13 C       -6.1750    -2.6900    -0.2280 C.3   1 <1>  -0.1600 
 14 C       -5.4240    -4.0140    -0.0800 C.3   1 <1>  -0.1600 
 15 H       -0.0620    -0.2140    -1.1880 H     1 <1>   0.4500 
 16 H       -1.2930     1.6210    -0.2760 H     1 <1>   0.0800 
 17 H       -1.3670     0.7990     1.2620 H     1 <1>   0.0800 
 18 H       -0.1060    -1.4240     1.5120 H     1 <1>   0.0800 
 19 H        0.7710    -2.0350     0.1330 H     1 <1>   0.0800 
 20 H        1.2470     0.5980     1.3090 H     1 <1>   0.0800 
 21 H        0.9960     1.6730    -0.0420 H     1 <1>   0.0800 
 22 H       -2.5910    -0.1250    -1.3450 H     1 <1>   0.0800 
 23 H       -3.4320     0.4790     0.0570 H     1 <1>   0.0800 
 24 H       -1.3380    -3.2200     0.4750 H     1 <1>   0.0800 
 25 H       -1.2800    -2.4420    -1.0830 H     1 <1>   0.0800 
 26 H        2.1990     0.0830    -1.5300 H     1 <1>   0.0800 
 27 H        2.5520    -0.9240    -0.1420 H     1 <1>   0.0800 
 28 H       -2.7390    -1.4440     1.3860 H     1 <1>   0.0800 
 29 H        3.4410     1.9530    -0.4850 H     1 <1>   0.0800 
 30 H        4.4450     0.5380    -0.6540 H     1 <1>   0.0800 
 31 H        3.7860     0.9480     0.9070 H     1 <1>   0.0800 
 32 H       -3.7500    -2.3140    -1.2570 H     1 <1>   0.4500 
 33 H       -5.3160    -0.7400    -0.5890 H     1 <1>   0.0800 
 34 H       -5.2050    -1.3050     1.0760 H     1 <1>   0.0800 
 35 H       -3.8680    -3.6630     1.3390 H     1 <1>   0.0800 
 36 H       -3.2880    -4.3180    -0.1890 H     1 <1>   0.0800 
 37 H       -6.5670    -2.5890    -1.2260 H     1 <1>   0.0800 
 38 H       -6.9940    -2.6140     0.4670 H     1 <1>   0.0800 
 39 H       -5.8510    -4.6310     0.6920 H     1 <1>   0.0800 
 40 H       -5.4470    -4.5650    -1.0060 H     1 <1>   0.0800 
@<TRIPOS>BOND
  1   1   2  1   
  2   1   3  1   
  3   1   4  1   
  4   1  15  1   
  5   2   5  1   
  6   2  16  1   
  7   2  17  1   
  8   3   6  1   
  9   3  18  1   
 10   3  19  1   
 11   4   7  1   
 12   4  20  1   
 13   4  21  1   
 14   5   8  1   
 15   5  22  1   
 16   5  23  1   
 17   6   8  1   
 18   6  24  1   
 19   6  25  1   
 20   7   9  1   
 21   7  26  1   
 22   7  27  1   
 23   8  10  1   
 24   8  28  1   
 25   9  29  1   
 26   9  30  1   
 27   9  31  1   
 28  10  11  1   
 29  10  12  1   
 30  10  32  1   
 31  11  13  1   
 32  11  33  1   
 33  11  34  1   
 34  12  14  1   
 35  12  35  1   
 36  12  36  1   
 37  13  14  1   
 38  13  37  1   
 39  13  38  1   
 40  14  39  1   
 41  14  40  1   
@<TRIPOS>SUBSTRUCTURE
  1 ****   8 GROUP 4 **** **** 0

# MOE 2024.06 (io_trps.svl 2023.06)
