@<TRIPOS>MOLECULE
NONAME
27 27 1 0 0 
SMALL
USER_CHARGES


@<TRIPOS>ATOM
  1 F       -0.0100     2.5310     1.3970 F     1 <1>  -0.3400 
  2 C        0.9820     2.2280     0.5580 C.3   1 <1>   1.0200 
  3 F        0.5460     2.6340    -0.6370 F     1 <1>  -0.3400 
  4 F        1.9740     3.0580     0.8850 F     1 <1>  -0.3400 
  5 C        1.3740     0.7100     0.6240 C.3   1 <1>   0.6810 
  6 F        1.8070     0.4600     1.8710 F     1 <1>  -0.3400 
  7 O        0.2710    -0.1970     0.4860 O.3   1 <1>  -0.5600 
  8 C        2.5400     0.3700    -0.3480 C.2   1 <1>   0.5690 
  9 C       -0.3530    -0.2740    -0.7640 C.3   1 <1>   0.0400 
 10 O        2.9260     1.2250    -1.1160 O.2   1 <1>  -0.5700 
 11 N        3.1360    -0.8810    -0.3940 N.am  1 <1>  -0.6600 
 12 C        4.2980    -1.1700    -1.2930 C.3   1 <1>   0.1400 
 13 C        2.7530    -2.0730     0.4310 C.3   1 <1>   0.1400 
 14 C        5.4470    -1.8180    -0.5040 C.3   1 <1>   0.1200 
 15 C        3.9890    -2.6660     1.1280 C.3   1 <1>   0.1200 
 16 O        4.9940    -2.9430     0.1950 O.3   1 <1>  -0.5600 
 17 H       -1.0700    -1.0750    -0.7260 H     1 <1>   0.0800 
 18 H        0.3720    -0.4860    -1.5320 H     1 <1>   0.0800 
 19 H       -0.8710     0.6460    -0.9720 H     1 <1>   0.0800 
 20 H        4.6600    -0.2700    -1.7580 H     1 <1>   0.0800 
 21 H        3.9840    -1.8410    -2.0740 H     1 <1>   0.0800 
 22 H        2.3240    -2.8220    -0.2110 H     1 <1>   0.0800 
 23 H        2.0210    -1.8280     1.1760 H     1 <1>   0.0800 
 24 H        5.8650    -1.1180     0.2000 H     1 <1>   0.0800 
 25 H        6.2240    -2.1390    -1.1750 H     1 <1>   0.0800 
 26 H        3.7320    -3.5890     1.6170 H     1 <1>   0.0800 
 27 H        4.3760    -1.9810     1.8630 H     1 <1>   0.0800 
@<TRIPOS>BOND
  1   1   2  1   
  2   2   3  1   
  3   2   4  1   
  4   2   5  1   
  5   5   6  1   
  6   5   7  1   
  7   5   8  1   
  8   7   9  1   
  9   8  10  2   
 10   8  11  am  
 11   9  17  1   
 12   9  18  1   
 13   9  19  1   
 14  11  12  1   
 15  11  13  1   
 16  12  14  1   
 17  12  20  1   
 18  12  21  1   
 19  13  15  1   
 20  13  22  1   
 21  13  23  1   
 22  14  16  1   
 23  14  24  1   
 24  14  25  1   
 25  15  16  1   
 26  15  26  1   
 27  15  27  1   
@<TRIPOS>SUBSTRUCTURE
  1 ****   8 GROUP 4 **** **** 0

# MOE 2024.06 (io_trps.svl 2023.06)
