@<TRIPOS>MOLECULE
NONAME
41 42 1 0 0 
SMALL
USER_CHARGES


@<TRIPOS>ATOM
  1 F        1.2570     2.2290    -2.6400 F     1 <1>  -0.3400 
  2 C        1.4550     2.1020    -1.3330 C.3   1 <1>   1.1640 
  3 F        1.9870     0.9000    -1.1530 F     1 <1>  -0.3400 
  4 F        0.2480     2.0630    -0.7800 F     1 <1>  -0.3400 
  5 C        2.3430     3.2160    -0.7560 C.ar  1 <1>  -0.1440 
  6 C        3.3440     3.8010    -1.5260 C.ar  1 <1>  -0.1500 
  7 C        2.1760     3.6590     0.5520 C.ar  1 <1>  -0.1500 
  8 C        4.1450     4.7990    -1.0030 C.ar  1 <1>  -0.1500 
  9 C        2.9790     4.6580     1.0710 C.ar  1 <1>  -0.1500 
 10 C        3.9790     5.2440     0.3020 C.ar  1 <1>   0.1170 
 11 N        4.8220     6.2580     0.7750 N.am  1 <1>  -0.5470 
 12 C        5.0190     6.8230     2.0020 C.2   1 <1>   0.5690 
 13 O        4.4250     6.5150     3.0070 O.2   1 <1>  -0.5700 
 14 C        6.0820     7.9220     2.0680 C.3   1 <1>   0.1710 
 15 N        7.0690     7.8700     0.9430 N.3   1 <1>  -0.8100 
 16 C        8.0320     6.7720     1.1490 C.3   1 <1>   0.1100 
 17 C        7.7630     9.1590     0.8120 C.3   1 <1>   0.1100 
 18 C        8.9450     6.6520    -0.0720 C.3   1 <1>  -0.1600 
 19 C        8.6720     9.1340    -0.4190 C.3   1 <1>  -0.1600 
 20 C        9.6830     7.9760    -0.3410 C.3   1 <1>  -0.0190 
 21 C       10.5690     7.8970    -1.5810 C.2   1 <1>   0.5690 
 22 O       11.7620     8.0020    -1.4700 O.2   1 <1>  -0.5700 
 23 N       10.0230     7.7090    -2.7970 N.am  1 <1>  -0.8000 
 24 H        3.5050     3.4800    -2.5420 H     1 <1>   0.1500 
 25 H        1.4150     3.2290     1.1830 H     1 <1>   0.1500 
 26 H        4.9110     5.2370    -1.6170 H     1 <1>   0.1500 
 27 H        2.8200     4.9800     2.0840 H     1 <1>   0.1500 
 28 H        5.4890     6.6450     0.1000 H     1 <1>   0.3700 
 29 H        6.5930     7.8590     3.0120 H     1 <1>   0.0800 
 30 H        5.5580     8.8600     2.0400 H     1 <1>   0.0800 
 31 H        7.5090     5.8400     1.2890 H     1 <1>   0.0800 
 32 H        8.6220     6.9600     2.0320 H     1 <1>   0.0800 
 33 H        8.3450     9.3570     1.6980 H     1 <1>   0.0800 
 34 H        7.0410     9.9500     0.6960 H     1 <1>   0.0800 
 35 H        8.3510     6.3740    -0.9230 H     1 <1>   0.0800 
 36 H        9.6640     5.8700     0.0980 H     1 <1>   0.0800 
 37 H        9.2020    10.0680    -0.4890 H     1 <1>   0.0800 
 38 H        8.0570     9.0370    -1.2960 H     1 <1>   0.0800 
 39 H       10.3320     8.1640     0.4970 H     1 <1>   0.0800 
 40 H       10.6320     7.6630    -3.6150 H     1 <1>   0.3700 
 41 H        9.0210     7.6170    -2.9590 H     1 <1>   0.3700 
@<TRIPOS>BOND
  1   1   2  1   
  2   2   3  1   
  3   2   4  1   
  4   2   5  1   
  5   5   6  ar  
  6   5   7  ar  
  7   6   8  ar  
  8   6  24  1   
  9   7   9  ar  
 10   7  25  1   
 11   8  10  ar  
 12   8  26  1   
 13   9  10  ar  
 14   9  27  1   
 15  10  11  1   
 16  11  12  am  
 17  11  28  1   
 18  12  13  2   
 19  12  14  1   
 20  14  15  1   
 21  14  29  1   
 22  14  30  1   
 23  15  16  1   
 24  15  17  1   
 25  16  18  1   
 26  16  31  1   
 27  16  32  1   
 28  17  19  1   
 29  17  33  1   
 30  17  34  1   
 31  18  20  1   
 32  18  35  1   
 33  18  36  1   
 34  19  20  1   
 35  19  37  1   
 36  19  38  1   
 37  20  21  1   
 38  20  39  1   
 39  21  22  2   
 40  21  23  am  
 41  23  40  1   
 42  23  41  1   
@<TRIPOS>SUBSTRUCTURE
  1 ****  11 GROUP 4 **** **** 0

# MOE 2024.06 (io_trps.svl 2023.06)
