@<TRIPOS>MOLECULE
NONAME
46 48 1 0 0 
SMALL
USER_CHARGES


@<TRIPOS>ATOM
  1 O       -0.8650    -0.4030    -1.4540 O.2   1 <1>  -0.5700 
  2 C       -0.5100    -1.3050    -0.7270 C.2   1 <1>   0.5440 
  3 N        0.7830    -1.4850    -0.3100 N.am  1 <1>  -0.4200 
  4 C       -1.3320    -2.3280    -0.1450 C.ar  1 <1>   0.0860 
  5 C        0.8230    -2.5730     0.5210 C.2   1 <1>   0.5440 
  6 C        1.9460    -0.7160    -0.8380 C.3   1 <1>   0.2010 
  7 C       -0.5010    -3.1180     0.6360 C.ar  1 <1>   0.0860 
  8 C       -2.6890    -2.6120    -0.2360 C.ar  1 <1>  -0.1500 
  9 O        1.8330    -2.9730     1.0660 O.2   1 <1>  -0.5700 
 10 C        2.9980    -1.6070    -1.5030 C.2   1 <1>   0.5690 
 11 C       -1.0180    -4.2000     1.3360 C.ar  1 <1>  -0.1500 
 12 C       -3.2030    -3.6920     0.4610 C.ar  1 <1>  -0.1500 
 13 O        2.7070    -2.1040    -2.5650 O.2   1 <1>  -0.5700 
 14 N        4.2350    -1.8480    -0.9430 N.am  1 <1>  -0.6600 
 15 C       -2.3710    -4.4830     1.2450 C.ar  1 <1>  -0.1500 
 16 C        4.5610    -1.7140     0.5130 C.3   1 <1>   0.1400 
 17 C        5.2790    -2.5900    -1.7160 C.3   1 <1>   0.1400 
 18 C        4.8500    -3.0990     1.1370 C.3   1 <1>   0.3430 
 19 C        5.5080    -3.9780    -1.0980 C.3   1 <1>   0.3430 
 20 N        5.8730    -3.8840     0.3610 N.4   1 <1>  -0.9590 
 21 C        6.0540    -5.2330     0.9360 C.3   1 <1>   0.4810 
 22 C        7.3630    -5.8360     0.4370 C.2   1 <1>  -0.2760 
 23 C        8.3650    -5.2080    -0.1980 C.2   1 <1>  -0.3000 
 24 C        7.4590    -7.3230     0.7530 C.3   1 <1>  -0.1020 
 25 H        2.3770    -0.1370    -0.0460 H     1 <1>   0.0800 
 26 H        1.5960    -0.0240    -1.5830 H     1 <1>   0.0800 
 27 H       -3.3220    -1.9900    -0.8470 H     1 <1>   0.1500 
 28 H       -0.3680    -4.8080     1.9410 H     1 <1>   0.1500 
 29 H       -4.2540    -3.9210     0.3970 H     1 <1>   0.1500 
 30 H       -2.7840    -5.3200     1.7830 H     1 <1>   0.1500 
 31 H        3.7500    -1.2630     1.0530 H     1 <1>   0.0800 
 32 H        5.4210    -1.0780     0.6270 H     1 <1>   0.0800 
 33 H        6.1970    -2.0290    -1.7100 H     1 <1>   0.0800 
 34 H        4.9840    -2.7070    -2.7450 H     1 <1>   0.0800 
 35 H        3.9290    -3.6570     1.1680 H     1 <1>   0.0800 
 36 H        5.1810    -2.9640     2.1530 H     1 <1>   0.0800 
 37 H        6.2890    -4.4850    -1.6410 H     1 <1>   0.0800 
 38 H        4.6010    -4.5510    -1.2110 H     1 <1>   0.0800 
 39 H        6.7840    -3.4210     0.4390 H     1 <1>   0.4500 
 40 H        5.2260    -5.8620     0.6500 H     1 <1>   0.0800 
 41 H        6.0820    -5.1800     2.0130 H     1 <1>   0.0800 
 42 H        9.2660    -5.7090    -0.5160 H     1 <1>   0.1500 
 43 H        8.4100    -4.1670    -0.4610 H     1 <1>   0.1500 
 44 H        7.4100    -7.4890     1.8150 H     1 <1>   0.0800 
 45 H        8.3900    -7.7320     0.3980 H     1 <1>   0.0800 
 46 H        6.6590    -7.8650     0.2800 H     1 <1>   0.0800 
@<TRIPOS>BOND
  1   1   2  2   
  2   2   3  am  
  3   2   4  1   
  4   3   5  am  
  5   3   6  1   
  6   4   7  ar  
  7   4   8  ar  
  8   5   7  1   
  9   5   9  2   
 10   6  10  1   
 11   6  25  1   
 12   6  26  1   
 13   7  11  ar  
 14   8  12  ar  
 15   8  27  1   
 16  10  13  2   
 17  10  14  am  
 18  11  15  ar  
 19  11  28  1   
 20  12  15  ar  
 21  12  29  1   
 22  14  16  1   
 23  14  17  1   
 24  15  30  1   
 25  16  18  1   
 26  16  31  1   
 27  16  32  1   
 28  17  19  1   
 29  17  33  1   
 30  17  34  1   
 31  18  20  1   
 32  18  35  1   
 33  18  36  1   
 34  19  20  1   
 35  19  37  1   
 36  19  38  1   
 37  20  21  1   
 38  20  39  1   
 39  21  22  1   
 40  21  40  1   
 41  21  41  1   
 42  22  23  2   
 43  22  24  1   
 44  23  42  1   
 45  23  43  1   
 46  24  44  1   
 47  24  45  1   
 48  24  46  1   
@<TRIPOS>SUBSTRUCTURE
  1 ****   9 GROUP 4 **** **** 0

# MOE 2024.06 (io_trps.svl 2023.06)
