@<TRIPOS>MOLECULE
NONAME
33 33 1 0 0 
SMALL
USER_CHARGES


@<TRIPOS>ATOM
  1 S       -0.2470    -0.1780    -2.1320 S.o2  1 <1>   1.2040 
  2 O       -0.8880    -1.2740    -2.8230 O.2   1 <1>  -0.6500 
  3 O        0.4740     0.8260    -2.8840 O.2   1 <1>  -0.6500 
  4 C       -1.4640     0.6310    -1.0640 C.ar  1 <1>  -0.0090 
  5 C        0.8980    -0.8860    -0.9500 C.3   1 <1>  -0.0550 
  6 C       -2.4370    -0.1070    -0.4010 C.ar  1 <1>  -0.1500 
  7 C       -1.4480     2.0070    -0.8600 C.ar  1 <1>  -0.1500 
  8 C        1.7220     0.1610    -0.1740 C.3   1 <1>  -0.0990 
  9 C       -3.3580     0.5020     0.4330 C.ar  1 <1>  -0.1500 
 10 C       -2.3670     2.6210    -0.0280 C.ar  1 <1>  -0.1500 
 11 C        2.6690    -0.4840     0.8210 C.2   1 <1>   0.4480 
 12 C       -3.3390     1.8770     0.6250 C.ar  1 <1>   0.1170 
 13 O        2.5380    -1.6170     1.1680 O.2   1 <1>  -0.5700 
 14 C        3.7840     0.3790     1.3670 C.3   1 <1>  -0.1790 
 15 N       -4.2580     2.5150     1.4620 N.am  1 <1>  -0.5470 
 16 C       -5.6150     2.4540     1.5030 C.2   1 <1>   0.5690 
 17 O       -6.2160     3.0720     2.3410 O.2   1 <1>  -0.5700 
 18 C       -6.3930     1.6370     0.4980 C.3   1 <1>  -0.1790 
 19 H        1.5810    -1.5290    -1.4730 H     1 <1>   0.0800 
 20 H        0.3580    -1.4990    -0.2530 H     1 <1>   0.0800 
 21 H       -2.4790    -1.1750    -0.5430 H     1 <1>   0.1500 
 22 H       -0.7090     2.6090    -1.3650 H     1 <1>   0.1500 
 23 H        1.0660     0.8220     0.3620 H     1 <1>   0.0800 
 24 H        2.2950     0.7450    -0.8730 H     1 <1>   0.0800 
 25 H       -4.0930    -0.0960     0.9420 H     1 <1>   0.1500 
 26 H       -2.3370     3.6880     0.1090 H     1 <1>   0.1500 
 27 H        3.3750     1.2420     1.8590 H     1 <1>   0.0800 
 28 H        4.4300     0.6940     0.5690 H     1 <1>   0.0800 
 29 H        4.3610    -0.1840     2.0780 H     1 <1>   0.0800 
 30 H       -3.8840     3.1900     2.1290 H     1 <1>   0.3700 
 31 H       -6.4290     0.6120     0.8150 H     1 <1>   0.0800 
 32 H       -5.9380     1.7020    -0.4720 H     1 <1>   0.0800 
 33 H       -7.3980     2.0130     0.4330 H     1 <1>   0.0800 
@<TRIPOS>BOND
  1   1   2  2   
  2   1   3  2   
  3   1   4  1   
  4   1   5  1   
  5   4   6  ar  
  6   4   7  ar  
  7   5   8  1   
  8   5  19  1   
  9   5  20  1   
 10   6   9  ar  
 11   6  21  1   
 12   7  10  ar  
 13   7  22  1   
 14   8  11  1   
 15   8  23  1   
 16   8  24  1   
 17   9  12  ar  
 18   9  25  1   
 19  10  12  ar  
 20  10  26  1   
 21  11  13  2   
 22  11  14  1   
 23  12  15  1   
 24  14  27  1   
 25  14  28  1   
 26  14  29  1   
 27  15  16  am  
 28  15  30  1   
 29  16  17  2   
 30  16  18  1   
 31  18  31  1   
 32  18  32  1   
 33  18  33  1   
@<TRIPOS>SUBSTRUCTURE
  1 ****   4 GROUP 4 **** **** 0

# MOE 2024.06 (io_trps.svl 2023.06)
