@<TRIPOS>MOLECULE
NONAME
46 47 1 0 0 
SMALL
USER_CHARGES


@<TRIPOS>ATOM
  1 O       -2.4710    -7.9200    -0.0390 O.3   1 <1>  -0.3630 
  2 C       -3.2870    -6.8550     0.1650 C.ar  1 <1>   0.0830 
  3 C       -1.0940    -7.8490     0.2480 C.3   1 <1>   0.1200 
  4 C       -4.6080    -7.0010    -0.2250 C.ar  1 <1>  -0.1500 
  5 C       -2.8680    -5.6550     0.7320 C.ar  1 <1>  -0.1500 
  6 C       -0.4670    -9.1960    -0.1190 C.3   1 <1>   0.1100 
  7 C       -5.5180    -5.9690    -0.0620 C.ar  1 <1>  -0.1440 
  8 C       -3.7670    -4.6150     0.9010 C.ar  1 <1>  -0.1440 
  9 N        0.9940    -9.2080     0.1210 N.3   1 <1>  -0.8100 
 10 C       -5.0840    -4.7770     0.5030 C.ar  1 <1>  -0.1500 
 11 C       -6.9680    -6.1580    -0.5030 C.3   1 <1>   0.0630 
 12 C       -3.3270    -3.2990     1.5170 C.3   1 <1>  -0.0970 
 13 C        1.4850   -10.5940     0.2600 C.3   1 <1>   0.1100 
 14 C        1.7370    -8.4710    -0.9250 C.3   1 <1>   0.1100 
 15 C       -7.3400    -5.1600    -1.6040 C.3   1 <1>  -0.2400 
 16 C       -7.9220    -6.0340     0.6900 C.3   1 <1>  -0.2400 
 17 C        2.9970   -10.6270     0.5610 C.3   1 <1>   0.3430 
 18 C        3.2540    -8.4750    -0.6430 C.3   1 <1>   0.3430 
 19 N        3.7800    -9.8690    -0.4700 N.4   1 <1>  -0.9060 
 20 H       -0.9770    -7.6570     1.3000 H     1 <1>   0.0800 
 21 H       -0.6770    -7.0500    -0.3370 H     1 <1>   0.0800 
 22 H       -4.9130    -7.9350    -0.6580 H     1 <1>   0.1500 
 23 H       -1.8530    -5.5160     1.0460 H     1 <1>   0.1500 
 24 H       -0.6770    -9.4240    -1.1510 H     1 <1>   0.0800 
 25 H       -0.9390    -9.9440     0.4960 H     1 <1>   0.0800 
 26 H       -5.7770    -3.9670     0.6350 H     1 <1>   0.1500 
 27 H       -7.0780    -7.1490    -0.9090 H     1 <1>   0.0800 
 28 H       -2.3470    -3.3850     1.9510 H     1 <1>   0.0800 
 29 H       -4.0150    -3.0080     2.2900 H     1 <1>   0.0800 
 30 H       -3.3050    -2.5340     0.7630 H     1 <1>   0.0800 
 31 H        1.2780   -11.1520    -0.6380 H     1 <1>   0.0800 
 32 H        0.9640   -11.0730     1.0720 H     1 <1>   0.0800 
 33 H        1.4010    -7.4490    -0.9540 H     1 <1>   0.0800 
 34 H        1.5450    -8.9070    -1.8910 H     1 <1>   0.0800 
 35 H       -7.2950    -4.1500    -1.2370 H     1 <1>   0.0800 
 36 H       -8.3350    -5.3530    -1.9620 H     1 <1>   0.0800 
 37 H       -6.6540    -5.2550    -2.4270 H     1 <1>   0.0800 
 38 H       -7.8900    -5.0440     1.1050 H     1 <1>   0.0800 
 39 H       -7.6400    -6.7360     1.4550 H     1 <1>   0.0800 
 40 H       -8.9300    -6.2470     0.3840 H     1 <1>   0.0800 
 41 H        3.3310   -11.6510     0.6020 H     1 <1>   0.0800 
 42 H        3.1560   -10.1880     1.5330 H     1 <1>   0.0800 
 43 H        3.4290    -7.9070     0.2570 H     1 <1>   0.0800 
 44 H        3.7690    -7.9820    -1.4520 H     1 <1>   0.0800 
 45 H        3.7110   -10.3630    -1.3670 H     1 <1>   0.4500 
 46 H        4.7720    -9.8400    -0.2060 H     1 <1>   0.4500 
@<TRIPOS>BOND
  1   1   2  1   
  2   1   3  1   
  3   2   4  ar  
  4   2   5  ar  
  5   3   6  1   
  6   3  20  1   
  7   3  21  1   
  8   4   7  ar  
  9   4  22  1   
 10   5   8  ar  
 11   5  23  1   
 12   6   9  1   
 13   6  24  1   
 14   6  25  1   
 15   7  10  ar  
 16   7  11  1   
 17   8  10  ar  
 18   8  12  1   
 19   9  13  1   
 20   9  14  1   
 21  10  26  1   
 22  11  15  1   
 23  11  16  1   
 24  11  27  1   
 25  12  28  1   
 26  12  29  1   
 27  12  30  1   
 28  13  17  1   
 29  13  31  1   
 30  13  32  1   
 31  14  18  1   
 32  14  33  1   
 33  14  34  1   
 34  15  35  1   
 35  15  36  1   
 36  15  37  1   
 37  16  38  1   
 38  16  39  1   
 39  16  40  1   
 40  17  19  1   
 41  17  41  1   
 42  17  42  1   
 43  18  19  1   
 44  18  43  1   
 45  18  44  1   
 46  19  45  1   
 47  19  46  1   
@<TRIPOS>SUBSTRUCTURE
  1 ****   1 GROUP 4 **** **** 0

# MOE 2024.06 (io_trps.svl 2023.06)
