@<TRIPOS>MOLECULE
NONAME
55 57 1 0 0 
SMALL
USER_CHARGES


@<TRIPOS>ATOM
  1 O       -1.2000    -0.2680    -1.0050 O.2   1 <1>  -0.5700 
  2 C       -1.0940    -1.3130    -1.6190 C.2   1 <1>   0.6900 
  3 N       -2.1420    -1.7380    -2.3880 N.am  1 <1>  -0.6600 
  4 N       -0.0170    -2.1300    -1.5020 N.am  1 <1>  -0.5470 
  5 C       -2.8400    -2.9820    -1.9610 C.3   1 <1>   0.1400 
  6 C       -3.0790    -0.7060    -2.9170 C.3   1 <1>   0.1400 
  7 C        0.9820    -2.2290    -0.5180 C.ar  1 <1>   0.1170 
  8 C       -3.8850    -2.6390    -0.8770 C.3   1 <1>   0.3430 
  9 C       -4.1250    -0.3500    -1.8410 C.3   1 <1>   0.3430 
 10 C        1.5570    -3.4820    -0.2830 C.ar  1 <1>   0.0820 
 11 C        1.4200    -1.1370     0.2210 C.ar  1 <1>  -0.1500 
 12 N       -4.8560    -1.5710    -1.3240 N.4   1 <1>  -0.9590 
 13 O        1.1040    -4.5300    -1.0390 O.3   1 <1>  -0.3620 
 14 C        2.5400    -3.6230     0.6890 C.ar  1 <1>  -0.1500 
 15 C        2.4000    -1.2800     1.1870 C.ar  1 <1>  -0.1500 
 16 C       -5.7730    -1.2280    -0.1930 C.3   1 <1>   0.3430 
 17 C        1.7430    -5.7880    -0.9820 C.3   1 <1>   0.0400 
 18 C        2.9630    -2.5300     1.4260 C.ar  1 <1>   0.0820 
 19 C       -6.9480    -0.3530    -0.6390 C.3   1 <1>  -0.0170 
 20 O        3.9260    -2.7600     2.3570 O.3   1 <1>  -0.3630 
 21 C       -7.8770    -0.1600     0.5430 C.ar  1 <1>  -0.1430 
 22 C        4.4150    -1.7140     3.1670 C.3   1 <1>   0.0400 
 23 C       -8.9690    -0.9960     0.7210 C.ar  1 <1>  -0.1500 
 24 C       -7.6330     0.8480     1.4640 C.ar  1 <1>  -0.1500 
 25 C       -9.8050    -0.8290     1.8110 C.ar  1 <1>  -0.1500 
 26 C       -8.4700     1.0150     2.5540 C.ar  1 <1>  -0.1500 
 27 C       -9.5550     0.1760     2.7290 C.ar  1 <1>  -0.1500 
 28 H       -0.0250    -2.9320    -2.1300 H     1 <1>   0.3700 
 29 H       -2.1320    -3.6870    -1.5590 H     1 <1>   0.0800 
 30 H       -3.3170    -3.4420    -2.8090 H     1 <1>   0.0800 
 31 H       -3.5610    -1.0720    -3.8060 H     1 <1>   0.0800 
 32 H       -2.5250     0.1790    -3.1820 H     1 <1>   0.0800 
 33 H       -3.3550    -2.2980    -0.0020 H     1 <1>   0.0800 
 34 H       -4.4210    -3.5340    -0.6080 H     1 <1>   0.0800 
 35 H       -4.8250     0.3560    -2.2550 H     1 <1>   0.0800 
 36 H       -3.6100     0.1350    -1.0260 H     1 <1>   0.0800 
 37 H        1.0010    -0.1640     0.0420 H     1 <1>   0.1500 
 38 H       -5.4130    -1.9590    -2.0950 H     1 <1>   0.4500 
 39 H        2.9990    -4.5680     0.9020 H     1 <1>   0.1500 
 40 H        2.7080    -0.4110     1.7370 H     1 <1>   0.1500 
 41 H       -5.2260    -0.7170     0.5830 H     1 <1>   0.0800 
 42 H       -6.1740    -2.1330     0.2330 H     1 <1>   0.0800 
 43 H        1.2740    -6.4370    -1.6990 H     1 <1>   0.0800 
 44 H        1.6280    -6.1950     0.0070 H     1 <1>   0.0800 
 45 H        2.7830    -5.6640    -1.2280 H     1 <1>   0.0800 
 46 H       -7.4850    -0.8280    -1.4400 H     1 <1>   0.0800 
 47 H       -6.6060     0.6100    -0.9720 H     1 <1>   0.0800 
 48 H        5.1590    -2.1220     3.8270 H     1 <1>   0.0800 
 49 H        3.6010    -1.3080     3.7420 H     1 <1>   0.0800 
 50 H        4.8570    -0.9620     2.5380 H     1 <1>   0.0800 
 51 H       -9.1860    -1.7820     0.0190 H     1 <1>   0.1500 
 52 H       -6.7980     1.5160     1.3460 H     1 <1>   0.1500 
 53 H      -10.6540    -1.4770     1.9470 H     1 <1>   0.1500 
 54 H       -8.2790     1.7990     3.2660 H     1 <1>   0.1500 
 55 H      -10.2060     0.3070     3.5760 H     1 <1>   0.1500 
@<TRIPOS>BOND
  1   1   2  2   
  2   2   3  am  
  3   2   4  am  
  4   3   5  1   
  5   3   6  1   
  6   4   7  1   
  7   4  28  1   
  8   5   8  1   
  9   5  29  1   
 10   5  30  1   
 11   6   9  1   
 12   6  31  1   
 13   6  32  1   
 14   7  10  ar  
 15   7  11  ar  
 16   8  12  1   
 17   8  33  1   
 18   8  34  1   
 19   9  12  1   
 20   9  35  1   
 21   9  36  1   
 22  10  13  1   
 23  10  14  ar  
 24  11  15  ar  
 25  11  37  1   
 26  12  16  1   
 27  12  38  1   
 28  13  17  1   
 29  14  18  ar  
 30  14  39  1   
 31  15  18  ar  
 32  15  40  1   
 33  16  19  1   
 34  16  41  1   
 35  16  42  1   
 36  17  43  1   
 37  17  44  1   
 38  17  45  1   
 39  18  20  1   
 40  19  21  1   
 41  19  46  1   
 42  19  47  1   
 43  20  22  1   
 44  21  23  ar  
 45  21  24  ar  
 46  22  48  1   
 47  22  49  1   
 48  22  50  1   
 49  23  25  ar  
 50  23  51  1   
 51  24  26  ar  
 52  24  52  1   
 53  25  27  ar  
 54  25  53  1   
 55  26  27  ar  
 56  26  54  1   
 57  27  55  1   
@<TRIPOS>SUBSTRUCTURE
  1 ****   8 GROUP 4 **** **** 0

# MOE 2024.06 (io_trps.svl 2023.06)
