@<TRIPOS>MOLECULE
NONAME
38 39 1 0 0 
SMALL
USER_CHARGES


@<TRIPOS>ATOM
  1 O       -1.0010    -2.3910    -2.2890 O.2   1 <1>  -0.5700 
  2 C       -0.3870    -2.1860    -1.2690 C.2   1 <1>   0.5690 
  3 N       -0.9340    -1.6790    -0.1270 N.am  1 <1>  -0.5470 
  4 C        1.1110    -2.4890    -1.2220 C.3   1 <1>   0.1710 
  5 C       -2.2370    -1.2420     0.1610 C.ar  1 <1>   0.1170 
  6 N        1.8760    -1.5630    -0.3350 N.3   1 <1>  -0.8100 
  7 C       -3.3500    -2.0810     0.0300 C.ar  1 <1>  -0.1430 
  8 C       -2.4200     0.0650     0.6240 C.ar  1 <1>  -0.1430 
  9 C        3.2110    -2.1080    -0.0220 C.3   1 <1>   0.1100 
 10 C        2.0350    -0.2380    -0.9740 C.3   1 <1>   0.1100 
 11 C       -4.6130    -1.6020     0.3350 C.ar  1 <1>  -0.1500 
 12 C       -3.2310    -3.5290    -0.4310 C.3   1 <1>  -0.0970 
 13 C       -3.6910     0.5220     0.9290 C.ar  1 <1>  -0.1500 
 14 C       -1.2430     1.0170     0.7940 C.3   1 <1>  -0.0970 
 15 C        4.0240    -1.1180     0.8330 C.3   1 <1>   0.1200 
 16 C        2.8770     0.7020    -0.0920 C.3   1 <1>   0.1200 
 17 C       -4.7870    -0.3070     0.7830 C.ar  1 <1>  -0.1500 
 18 O        4.1180     0.1220     0.1910 O.3   1 <1>  -0.5600 
 19 H       -0.2140    -1.4160     0.5490 H     1 <1>   0.3700 
 20 H        1.5070    -2.4560    -2.2220 H     1 <1>   0.0800 
 21 H        1.2150    -3.4950    -0.8590 H     1 <1>   0.0800 
 22 H        3.7530    -2.3100    -0.9310 H     1 <1>   0.0800 
 23 H        3.1040    -3.0320     0.5190 H     1 <1>   0.0800 
 24 H        1.0700     0.2060    -1.1430 H     1 <1>   0.0800 
 25 H        2.5230    -0.3430    -1.9290 H     1 <1>   0.0800 
 26 H       -5.4740    -2.2380     0.2280 H     1 <1>   0.1500 
 27 H       -3.1890    -3.5650    -1.5040 H     1 <1>   0.0800 
 28 H       -4.0770    -4.1050    -0.1030 H     1 <1>   0.0800 
 29 H       -2.3440    -3.9840    -0.0300 H     1 <1>   0.0800 
 30 H       -3.8410     1.5270     1.2790 H     1 <1>   0.1500 
 31 H       -0.4940     0.5780     1.4280 H     1 <1>   0.0800 
 32 H       -1.5570     1.9440     1.2390 H     1 <1>   0.0800 
 33 H       -0.8130     1.2320    -0.1670 H     1 <1>   0.0800 
 34 H        5.0230    -1.4860     0.9830 H     1 <1>   0.0800 
 35 H        3.5570    -0.9750     1.7920 H     1 <1>   0.0800 
 36 H        2.3710     0.9050     0.8350 H     1 <1>   0.0800 
 37 H        3.0570     1.6310    -0.6030 H     1 <1>   0.0800 
 38 H       -5.7730     0.0550     1.0170 H     1 <1>   0.1500 
@<TRIPOS>BOND
  1   1   2  2   
  2   2   3  am  
  3   2   4  1   
  4   3   5  1   
  5   3  19  1   
  6   4   6  1   
  7   4  20  1   
  8   4  21  1   
  9   5   7  ar  
 10   5   8  ar  
 11   6   9  1   
 12   6  10  1   
 13   7  11  ar  
 14   7  12  1   
 15   8  13  ar  
 16   8  14  1   
 17   9  15  1   
 18   9  22  1   
 19   9  23  1   
 20  10  16  1   
 21  10  24  1   
 22  10  25  1   
 23  11  17  ar  
 24  11  26  1   
 25  12  27  1   
 26  12  28  1   
 27  12  29  1   
 28  13  17  ar  
 29  13  30  1   
 30  14  31  1   
 31  14  32  1   
 32  14  33  1   
 33  15  18  1   
 34  15  34  1   
 35  15  35  1   
 36  16  18  1   
 37  16  36  1   
 38  16  37  1   
 39  17  38  1   
@<TRIPOS>SUBSTRUCTURE
  1 ****   3 GROUP 4 **** **** 0

# MOE 2024.06 (io_trps.svl 2023.06)
