@<TRIPOS>MOLECULE
NONAME
40 41 1 0 0 
SMALL
USER_CHARGES


@<TRIPOS>ATOM
  1 O       -5.7700    -6.3470    -0.1050 O.3   1 <1>  -0.3630 
  2 C       -4.6770    -7.1560    -0.1070 C.ar  1 <1>   0.0830 
  3 C       -5.6600    -4.9570    -0.3080 C.3   1 <1>   0.1200 
  4 C       -4.8680    -8.4960     0.2180 C.ar  1 <1>  -0.1440 
  5 C       -3.3970    -6.6980    -0.4150 C.ar  1 <1>  -0.1500 
  6 C       -7.0600    -4.3530    -0.1880 C.3   1 <1>   0.1100 
  7 C       -3.7820    -9.3560     0.2350 C.ar  1 <1>  -0.1500 
  8 C       -6.2550    -9.0240     0.5540 C.3   1 <1>  -0.0960 
  9 C       -2.3160    -7.5630    -0.3980 C.ar  1 <1>  -0.1430 
 10 N       -7.0420    -2.8810    -0.3500 N.3   1 <1>  -0.8100 
 11 C       -2.5150    -8.8930    -0.0690 C.ar  1 <1>  -0.1500 
 12 C       -0.9200    -7.0670    -0.7320 C.3   1 <1>  -0.0970 
 13 C       -6.5380    -2.1940     0.8590 C.3   1 <1>   0.1100 
 14 C       -8.3780    -2.3850    -0.7380 C.3   1 <1>   0.1100 
 15 C       -6.5020    -0.6640     0.6600 C.3   1 <1>   0.3430 
 16 C       -8.3670    -0.8600    -0.9630 C.3   1 <1>   0.3430 
 17 N       -7.8400    -0.1310     0.2380 N.4   1 <1>  -0.9060 
 18 H       -5.2630    -4.7890    -1.2940 H     1 <1>   0.0800 
 19 H       -4.9990    -4.5680     0.4440 H     1 <1>   0.0800 
 20 H       -3.2250    -5.6720    -0.6730 H     1 <1>   0.1500 
 21 H       -7.4880    -4.6170     0.7650 H     1 <1>   0.0800 
 22 H       -7.6640    -4.7920    -0.9650 H     1 <1>   0.0800 
 23 H       -3.9160   -10.3930     0.4860 H     1 <1>   0.1500 
 24 H       -6.9150    -8.8660    -0.2790 H     1 <1>   0.0800 
 25 H       -6.6450    -8.5010     1.4090 H     1 <1>   0.0800 
 26 H       -6.2290   -10.0750     0.7770 H     1 <1>   0.0800 
 27 H       -1.6830    -9.5740    -0.0490 H     1 <1>   0.1500 
 28 H       -0.9640    -6.1480    -1.2880 H     1 <1>   0.0800 
 29 H       -0.4000    -7.7970    -1.3250 H     1 <1>   0.0800 
 30 H       -0.3680    -6.8980     0.1750 H     1 <1>   0.0800 
 31 H       -5.5380    -2.5290     1.0750 H     1 <1>   0.0800 
 32 H       -7.1560    -2.4360     1.7070 H     1 <1>   0.0800 
 33 H       -9.1010    -2.6400     0.0180 H     1 <1>   0.0800 
 34 H       -8.6790    -2.8640    -1.6560 H     1 <1>   0.0800 
 35 H       -5.7680    -0.4410    -0.0970 H     1 <1>   0.0800 
 36 H       -6.1880    -0.1920     1.5770 H     1 <1>   0.0800 
 37 H       -9.3660    -0.5250    -1.1910 H     1 <1>   0.0800 
 38 H       -7.7440    -0.6500    -1.8170 H     1 <1>   0.0800 
 39 H       -7.7700     0.8740     0.0360 H     1 <1>   0.4500 
 40 H       -8.5030    -0.2470     1.0130 H     1 <1>   0.4500 
@<TRIPOS>BOND
  1   1   2  1   
  2   1   3  1   
  3   2   4  ar  
  4   2   5  ar  
  5   3   6  1   
  6   3  18  1   
  7   3  19  1   
  8   4   7  ar  
  9   4   8  1   
 10   5   9  ar  
 11   5  20  1   
 12   6  10  1   
 13   6  21  1   
 14   6  22  1   
 15   7  11  ar  
 16   7  23  1   
 17   8  24  1   
 18   8  25  1   
 19   8  26  1   
 20   9  11  ar  
 21   9  12  1   
 22  10  13  1   
 23  10  14  1   
 24  11  27  1   
 25  12  28  1   
 26  12  29  1   
 27  12  30  1   
 28  13  15  1   
 29  13  31  1   
 30  13  32  1   
 31  14  16  1   
 32  14  33  1   
 33  14  34  1   
 34  15  17  1   
 35  15  35  1   
 36  15  36  1   
 37  16  17  1   
 38  16  37  1   
 39  16  38  1   
 40  17  39  1   
 41  17  40  1   
@<TRIPOS>SUBSTRUCTURE
  1 ****   3 GROUP 4 **** **** 0

# MOE 2024.06 (io_trps.svl 2023.06)
