@<TRIPOS>MOLECULE
NONAME
44 45 1 0 0 
SMALL
USER_CHARGES


@<TRIPOS>ATOM
  1 O        1.1490     3.3270    -1.2280 O.2   1 <1>  -0.5700 
  2 C        1.1020     3.9020    -0.1660 C.2   1 <1>   0.5690 
  3 N        2.2120     4.1320     0.6050 N.am  1 <1>  -0.5470 
  4 C       -0.2860     4.3860     0.3220 C.3   1 <1>   0.4840 
  5 C        3.5400     3.8150     0.2840 C.ar  1 <1>   0.1170 
  6 N       -1.4430     3.5680    -0.2280 N.4   1 <1>  -0.9590 
  7 C       -0.4760     5.8620    -0.0700 C.3   1 <1>  -0.1600 
  8 C        4.4400     4.8480     0.0130 C.ar  1 <1>  -0.1430 
  9 C        3.9870     2.4910     0.2590 C.ar  1 <1>  -0.1430 
 10 C       -2.7860     4.0680     0.1810 C.3   1 <1>   0.3430 
 11 C       -1.3000     2.1110     0.0850 C.3   1 <1>   0.2630 
 12 C       -1.8480     6.4130     0.3330 C.3   1 <1>  -0.1600 
 13 C        5.7600     4.5520    -0.2820 C.ar  1 <1>  -0.1500 
 14 C        4.0050     6.3080     0.0220 C.3   1 <1>  -0.0970 
 15 C        5.3110     2.2200    -0.0430 C.ar  1 <1>  -0.1500 
 16 C        3.0620     1.3180     0.5580 C.3   1 <1>  -0.0970 
 17 C       -2.9590     5.5270    -0.2380 C.3   1 <1>  -0.1600 
 18 C        6.2020     3.2420    -0.3150 C.ar  1 <1>  -0.1430 
 19 C        7.6510     2.9280    -0.6430 C.3   1 <1>  -0.0970 
 20 H        2.1320     4.7200     1.4330 H     1 <1>   0.3700 
 21 H       -0.2990     4.3150     1.3960 H     1 <1>   0.0800 
 22 H       -1.3510     3.6600    -1.2530 H     1 <1>   0.4500 
 23 H       -0.3460     5.9620    -1.1350 H     1 <1>   0.0800 
 24 H        0.2900     6.4550     0.3980 H     1 <1>   0.0800 
 25 H       -2.8940     3.9890     1.2510 H     1 <1>   0.0800 
 26 H       -3.5570     3.4710    -0.2800 H     1 <1>   0.0800 
 27 H       -1.3210     1.9480     1.1500 H     1 <1>   0.0800 
 28 H       -0.3680     1.7320    -0.3060 H     1 <1>   0.0800 
 29 H       -2.1040     1.5530    -0.3670 H     1 <1>   0.0800 
 30 H       -1.9600     7.4200    -0.0370 H     1 <1>   0.0800 
 31 H       -1.9280     6.4490     1.4080 H     1 <1>   0.0800 
 32 H        6.4560     5.3440    -0.4920 H     1 <1>   0.1500 
 33 H        3.1920     6.4540    -0.6660 H     1 <1>   0.0800 
 34 H        4.8130     6.9520    -0.2790 H     1 <1>   0.0800 
 35 H        3.6950     6.5980     1.0090 H     1 <1>   0.0800 
 36 H        5.6580     1.2020    -0.0690 H     1 <1>   0.1500 
 37 H        2.4670     1.5210     1.4280 H     1 <1>   0.0800 
 38 H        3.6280     0.4230     0.7440 H     1 <1>   0.0800 
 39 H        2.4180     1.1420    -0.2840 H     1 <1>   0.0800 
 40 H       -3.9130     5.8810     0.1140 H     1 <1>   0.0800 
 41 H       -2.9700     5.5930    -1.3120 H     1 <1>   0.0800 
 42 H        8.0630     3.6820    -1.2880 H     1 <1>   0.0800 
 43 H        7.7260     1.9780    -1.1420 H     1 <1>   0.0800 
 44 H        8.2290     2.8910     0.2630 H     1 <1>   0.0800 
@<TRIPOS>BOND
  1   1   2  2   
  2   2   3  am  
  3   2   4  1   
  4   3   5  1   
  5   3  20  1   
  6   4   6  1   
  7   4   7  1   
  8   4  21  1   
  9   5   8  ar  
 10   5   9  ar  
 11   6  10  1   
 12   6  11  1   
 13   6  22  1   
 14   7  12  1   
 15   7  23  1   
 16   7  24  1   
 17   8  13  ar  
 18   8  14  1   
 19   9  15  ar  
 20   9  16  1   
 21  10  17  1   
 22  10  25  1   
 23  10  26  1   
 24  11  27  1   
 25  11  28  1   
 26  11  29  1   
 27  12  17  1   
 28  12  30  1   
 29  12  31  1   
 30  13  18  ar  
 31  13  32  1   
 32  14  33  1   
 33  14  34  1   
 34  14  35  1   
 35  15  18  ar  
 36  15  36  1   
 37  16  37  1   
 38  16  38  1   
 39  16  39  1   
 40  17  40  1   
 41  17  41  1   
 42  18  19  1   
 43  19  42  1   
 44  19  43  1   
 45  19  44  1   
@<TRIPOS>SUBSTRUCTURE
  1 ****   3 GROUP 4 **** **** 0

# MOE 2024.06 (io_trps.svl 2023.06)
