@<TRIPOS>MOLECULE
Structure2279
31 32 1 0 0 
SMALL
USER_CHARGES


@<TRIPOS>ATOM
  1 F        0.3790    -0.3090    -0.8770 F     1 <1>  -0.1900 
  2 C        1.4800    -0.8860    -0.4760 C.ar  1 <1>   0.1900 
  3 C        2.0240    -1.8940    -1.2480 C.ar  1 <1>  -0.1500 
  4 C        2.0600    -0.4680     0.7050 C.ar  1 <1>  -0.1500 
  5 C        3.1930    -2.5000    -0.8190 C.ar  1 <1>  -0.1500 
  6 C        3.2290    -1.0820     1.1230 C.ar  1 <1>  -0.1500 
  7 C        3.8010    -2.0950     0.3630 C.ar  1 <1>  -0.1430 
  8 C        5.0890    -2.7650     0.8210 C.3   1 <1>  -0.0160 
  9 C        6.3060    -2.2930     0.0010 C.3   1 <1>  -0.0800 
 10 C        7.5820    -3.0290     0.4460 C.3   1 <1>  -0.1600 
 11 C        6.5160    -0.7700     0.1040 C.3   1 <1>  -0.1600 
 12 C        8.8170    -2.5350    -0.3100 C.3   1 <1>   0.3430 
 13 C        7.7690    -0.3150    -0.6440 C.3   1 <1>   0.3430 
 14 N        8.9520    -1.0630    -0.1380 N.4   1 <1>  -0.9060 
 15 H        1.5390    -2.1950    -2.1600 H     1 <1>   0.1500 
 16 H        1.6030     0.3170     1.2800 H     1 <1>   0.1500 
 17 H        3.6210    -3.2910    -1.4100 H     1 <1>   0.1500 
 18 H        3.6850    -0.7650     2.0450 H     1 <1>   0.1500 
 19 H        4.9740    -3.8310     0.7180 H     1 <1>   0.0800 
 20 H        5.2480    -2.5640     1.8670 H     1 <1>   0.0800 
 21 H        6.1180    -2.5380    -1.0330 H     1 <1>   0.0800 
 22 H        7.4670    -4.0840     0.2650 H     1 <1>   0.0800 
 23 H        7.7370    -2.9010     1.5040 H     1 <1>   0.0800 
 24 H        6.5840    -0.4710     1.1360 H     1 <1>   0.0800 
 25 H        5.6690    -0.2590    -0.3210 H     1 <1>   0.0800 
 26 H        8.7150    -2.7720    -1.3570 H     1 <1>   0.0800 
 27 H        9.6960    -3.0360     0.0660 H     1 <1>   0.0800 
 28 H        7.9100     0.7460    -0.5010 H     1 <1>   0.0800 
 29 H        7.6430    -0.5000    -1.6990 H     1 <1>   0.0800 
 30 H        9.8010    -0.7340    -0.6150 H     1 <1>   0.4500 
 31 H        9.0690    -0.8560     0.8610 H     1 <1>   0.4500 
@<TRIPOS>BOND
  1   1   2  1   
  2   2   3  ar  
  3   2   4  ar  
  4   3   5  ar  
  5   3  15  1   
  6   4   6  ar  
  7   4  16  1   
  8   5   7  ar  
  9   5  17  1   
 10   6   7  ar  
 11   6  18  1   
 12   7   8  1   
 13   8   9  1   
 14   8  19  1   
 15   8  20  1   
 16   9  10  1   
 17   9  11  1   
 18   9  21  1   
 19  10  12  1   
 20  10  22  1   
 21  10  23  1   
 22  11  13  1   
 23  11  24  1   
 24  11  25  1   
 25  12  14  1   
 26  12  26  1   
 27  12  27  1   
 28  13  14  1   
 29  13  28  1   
 30  13  29  1   
 31  14  30  1   
 32  14  31  1   
@<TRIPOS>SUBSTRUCTURE
  1 ****   7 GROUP 4 **** **** 0

# MOE 2024.06 (io_trps.svl 2023.06)
