@<TRIPOS>MOLECULE
NONAME
37 38 1 0 0 
SMALL
USER_CHARGES


@<TRIPOS>ATOM
  1 S        0.0790    -0.0010     0.9280 S.o2  1 <1>   1.5760 
  2 O        0.7300    -1.2430     0.5700 O.2   1 <1>  -0.6500 
  3 O        0.4610     0.7240     2.1200 O.2   1 <1>  -0.6500 
  4 N       -1.5820    -0.2850     0.9940 N.am  1 <1>  -0.8490 
  5 N        0.1560     1.0560    -0.4020 N.am  1 <1>  -0.8490 
  6 C       -2.3680     0.9260     1.2920 C.3   1 <1>   0.1960 
  7 C       -2.1040    -0.9640    -0.2050 C.3   1 <1>   0.1960 
  8 C        0.9310     0.5270    -1.5270 C.3   1 <1>   0.1160 
  9 C        0.6110     2.4050    -0.0520 C.3   1 <1>   0.1160 
 10 C       -3.8660     0.6130     1.4720 C.3   1 <1>   0.2090 
 11 C       -3.5940    -1.3260    -0.0600 C.3   1 <1>   0.2090 
 12 N       -4.4060    -0.1200     0.2870 N.pl3 1 <1>  -0.8380 
 13 C       -5.7920    -0.0850     0.0600 C.ar  1 <1>   0.1000 
 14 C       -6.4660     1.0820    -0.3200 C.ar  1 <1>   0.1900 
 15 C       -6.5710    -1.2310     0.2110 C.ar  1 <1>  -0.1500 
 16 F       -5.7940     2.1990    -0.4780 F     1 <1>  -0.1900 
 17 C       -7.8280     1.1260    -0.5470 C.ar  1 <1>  -0.1500 
 18 C       -7.9390    -1.2060    -0.0130 C.ar  1 <1>  -0.1500 
 19 C       -8.5710    -0.0330    -0.3920 C.ar  1 <1>  -0.1500 
 20 H       -2.2630     1.6390     0.4930 H     1 <1>   0.0800 
 21 H       -2.0010     1.3790     2.1970 H     1 <1>   0.0800 
 22 H       -1.5450    -1.8680    -0.3770 H     1 <1>   0.0800 
 23 H       -1.9880    -0.3290    -1.0660 H     1 <1>   0.0800 
 24 H        0.5210    -0.4170    -1.8450 H     1 <1>   0.0800 
 25 H        1.9580     0.3760    -1.2360 H     1 <1>   0.0800 
 26 H        0.8950     1.2090    -2.3580 H     1 <1>   0.0800 
 27 H       -0.0260     2.8240     0.7090 H     1 <1>   0.0800 
 28 H        0.5730     3.0470    -0.9150 H     1 <1>   0.0800 
 29 H        1.6210     2.3740     0.3230 H     1 <1>   0.0800 
 30 H       -4.4080     1.5320     1.6110 H     1 <1>   0.0800 
 31 H       -3.9970     0.0100     2.3530 H     1 <1>   0.0800 
 32 H       -3.7000    -2.0660     0.7140 H     1 <1>   0.0800 
 33 H       -3.9530    -1.7440    -0.9840 H     1 <1>   0.0800 
 34 H       -6.1070    -2.1500     0.5130 H     1 <1>   0.1500 
 35 H       -8.2950     2.0480    -0.8400 H     1 <1>   0.1500 
 36 H       -8.5170    -2.1060     0.1100 H     1 <1>   0.1500 
 37 H       -9.6330    -0.0210    -0.5650 H     1 <1>   0.1500 
@<TRIPOS>BOND
  1   1   2  2   
  2   1   3  2   
  3   1   4  am  
  4   1   5  am  
  5   4   6  1   
  6   4   7  1   
  7   5   8  1   
  8   5   9  1   
  9   6  10  1   
 10   6  20  1   
 11   6  21  1   
 12   7  11  1   
 13   7  22  1   
 14   7  23  1   
 15   8  24  1   
 16   8  25  1   
 17   8  26  1   
 18   9  27  1   
 19   9  28  1   
 20   9  29  1   
 21  10  12  1   
 22  10  30  1   
 23  10  31  1   
 24  11  12  1   
 25  11  32  1   
 26  11  33  1   
 27  12  13  1   
 28  13  14  ar  
 29  13  15  ar  
 30  14  16  1   
 31  14  17  ar  
 32  15  18  ar  
 33  15  34  1   
 34  17  19  ar  
 35  17  35  1   
 36  18  19  ar  
 37  18  36  1   
 38  19  37  1   
@<TRIPOS>SUBSTRUCTURE
  1 ****  12 GROUP 4 **** **** 0

# MOE 2024.06 (io_trps.svl 2023.06)
