@<TRIPOS>MOLECULE
NONAME
44 46 1 0 0 
SMALL
USER_CHARGES


@<TRIPOS>ATOM
  1 O       -1.3080     0.0810    -3.3090 O.2   1 <1>  -0.5700 
  2 C       -0.9470    -0.8610    -2.6430 C.2   1 <1>   0.5690 
  3 N       -1.7740    -1.5140    -1.7940 N.am  1 <1>  -0.7300 
  4 C        0.5110    -1.3300    -2.6970 C.3   1 <1>   0.1710 
  5 C       -3.0170    -0.9650    -1.2410 C.3   1 <1>   0.2840 
  6 N        0.9720    -1.9910    -1.4370 N.3   1 <1>  -0.8100 
  7 C       -2.7170    -0.5550     0.1900 C.ar  1 <1>  -0.1440 
  8 C        2.2780    -2.6570    -1.6250 C.3   1 <1>   0.1100 
  9 C        1.0850    -1.0100    -0.3270 C.3   1 <1>   0.1100 
 10 C       -2.8290    -1.4710     1.2250 C.ar  1 <1>  -0.1500 
 11 C       -2.2970     0.7380     0.4660 C.ar  1 <1>  -0.1500 
 12 C        2.7510    -3.3780    -0.3480 C.3   1 <1>   0.2090 
 13 C        1.5100    -1.6720     0.9960 C.3   1 <1>   0.2090 
 14 C       -2.5230    -1.0980     2.5230 C.ar  1 <1>  -0.1500 
 15 C       -1.9910     1.1110     1.7630 C.ar  1 <1>  -0.1500 
 16 N        2.7790    -2.4510     0.8280 N.pl3 1 <1>  -0.8380 
 17 C       -2.1030     0.1930     2.7920 C.ar  1 <1>  -0.1500 
 18 C        3.7780    -2.4730     1.7810 C.ar  1 <1>   0.7200 
 19 N        4.8210    -3.2730     1.5530 N.ar  1 <1>  -0.6200 
 20 N        3.6180    -1.6960     2.8520 N.ar  1 <1>  -0.6200 
 21 C        5.7610    -3.2850     2.4650 C.ar  1 <1>   0.1600 
 22 C        4.5730    -1.7290     3.7490 C.ar  1 <1>   0.1600 
 23 C        5.6850    -2.5190     3.6020 C.ar  1 <1>  -0.1500 
 24 H       -1.2980    -2.1940    -1.1910 H     1 <1>   0.3700 
 25 H        1.1390    -0.4850    -2.9170 H     1 <1>   0.0800 
 26 H        0.5910    -2.0250    -3.5120 H     1 <1>   0.0800 
 27 H       -3.7880    -1.7150    -1.2680 H     1 <1>   0.0800 
 28 H       -3.3410    -0.1160    -1.8190 H     1 <1>   0.0800 
 29 H        3.0230    -1.9310    -1.9050 H     1 <1>   0.0800 
 30 H        2.2000    -3.3800    -2.4170 H     1 <1>   0.0800 
 31 H        0.1410    -0.5220    -0.1670 H     1 <1>   0.0800 
 32 H        1.8080    -0.2540    -0.5780 H     1 <1>   0.0800 
 33 H       -3.1500    -2.4780     1.0250 H     1 <1>   0.1500 
 34 H       -2.2000     1.4540    -0.3330 H     1 <1>   0.1500 
 35 H        3.7240    -3.7950    -0.5370 H     1 <1>   0.0800 
 36 H        2.0810    -4.1910    -0.1340 H     1 <1>   0.0800 
 37 H        0.7300    -2.3340     1.3270 H     1 <1>   0.0800 
 38 H        1.6200    -0.9000     1.7370 H     1 <1>   0.0800 
 39 H       -2.6100    -1.8130     3.3230 H     1 <1>   0.1500 
 40 H       -1.6640     2.1150     1.9710 H     1 <1>   0.1500 
 41 H       -1.8640     0.4820     3.8010 H     1 <1>   0.1500 
 42 H        6.6130    -3.9230     2.3030 H     1 <1>   0.1500 
 43 H        4.4650    -1.1090     4.6220 H     1 <1>   0.1500 
 44 H        6.4610    -2.5380     4.3420 H     1 <1>   0.1500 
@<TRIPOS>BOND
  1   1   2  2   
  2   2   3  am  
  3   2   4  1   
  4   3   5  1   
  5   3  24  1   
  6   4   6  1   
  7   4  25  1   
  8   4  26  1   
  9   5   7  1   
 10   5  27  1   
 11   5  28  1   
 12   6   8  1   
 13   6   9  1   
 14   7  10  ar  
 15   7  11  ar  
 16   8  12  1   
 17   8  29  1   
 18   8  30  1   
 19   9  13  1   
 20   9  31  1   
 21   9  32  1   
 22  10  14  ar  
 23  10  33  1   
 24  11  15  ar  
 25  11  34  1   
 26  12  16  1   
 27  12  35  1   
 28  12  36  1   
 29  13  16  1   
 30  13  37  1   
 31  13  38  1   
 32  14  17  ar  
 33  14  39  1   
 34  15  17  ar  
 35  15  40  1   
 36  16  18  1   
 37  17  41  1   
 38  18  19  ar  
 39  18  20  ar  
 40  19  21  ar  
 41  20  22  ar  
 42  21  23  ar  
 43  21  42  1   
 44  22  23  ar  
 45  22  43  1   
 46  23  44  1   
@<TRIPOS>SUBSTRUCTURE
  1 ****  13 GROUP 4 **** **** 0

# MOE 2024.06 (io_trps.svl 2023.06)
