@<TRIPOS>MOLECULE
NONAME
43 45 1 0 0 
SMALL
USER_CHARGES


@<TRIPOS>ATOM
  1 O        0.5590    -1.0300    -0.8800 O.3   1 <1>  -0.5600 
  2 C        0.8370    -2.1580    -0.0950 C.3   1 <1>   0.1200 
  3 C        1.6980    -0.5010    -1.5000 C.3   1 <1>   0.1200 
  4 C        1.8280    -1.8150     1.0340 C.3   1 <1>   0.2090 
  5 C        2.7340    -0.0460    -0.4550 C.3   1 <1>   0.2090 
  6 N        3.0560    -1.1480     0.4990 N.pl3 1 <1>  -0.8380 
  7 C        4.1840    -1.9010     0.2550 C.ar  1 <1>   0.4100 
  8 N        4.0250    -3.1340    -0.1880 N.ar  1 <1>  -0.6200 
  9 C        5.4350    -1.3710     0.4550 C.ar  1 <1>  -0.1500 
 10 C        5.1410    -3.7940    -0.4220 C.ar  1 <1>   0.4700 
 11 C        6.5310    -2.1510     0.1790 C.ar  1 <1>   0.4100 
 12 N        6.3830    -3.3870    -0.2710 N.ar  1 <1>  -0.6200 
 13 N        7.8140    -1.6450     0.3810 N.pl3 1 <1>  -0.4580 
 14 N        9.0090    -2.2310     0.0190 N.2   1 <1>  -0.4920 
 15 C       10.1440    -1.7090     0.3090 C.2   1 <1>   0.3030 
 16 C       11.3900    -2.3200    -0.1030 C.ar  1 <1>   0.0860 
 17 C       10.2400    -0.4150     1.1190 C.3   1 <1>  -0.1790 
 18 C       12.5460    -1.5820    -0.3720 C.ar  1 <1>  -0.1500 
 19 C       11.4780    -3.7070    -0.2550 C.ar  1 <1>  -0.1500 
 20 C       13.7350    -2.1850    -0.7510 C.ar  1 <1>   0.1000 
 21 C       12.6570    -4.3250    -0.6300 C.ar  1 <1>  -0.1500 
 22 N       14.8580    -1.4210    -1.0100 N.pl3 1 <1>  -0.9000 
 23 C       13.7850    -3.5660    -0.8730 C.ar  1 <1>  -0.1500 
 24 H       -0.0910    -2.5080     0.3200 H     1 <1>   0.0800 
 25 H        1.2460    -2.9270    -0.7270 H     1 <1>   0.0800 
 26 H        2.1220    -1.2540    -2.1420 H     1 <1>   0.0800 
 27 H        1.3870     0.3330    -2.1020 H     1 <1>   0.0800 
 28 H        2.0990    -2.7150     1.5580 H     1 <1>   0.0800 
 29 H        1.3480    -1.1580     1.7370 H     1 <1>   0.0800 
 30 H        2.3410     0.7930     0.0920 H     1 <1>   0.0800 
 31 H        3.6280     0.2750    -0.9610 H     1 <1>   0.0800 
 32 H        5.5350    -0.3720     0.8220 H     1 <1>   0.1500 
 33 H        5.0240    -4.8010    -0.7860 H     1 <1>   0.1500 
 34 H        7.8540    -0.7370     0.8450 H     1 <1>   0.4000 
 35 H       11.1900    -0.3490     1.6150 H     1 <1>   0.0800 
 36 H        9.4890    -0.3820     1.8850 H     1 <1>   0.0800 
 37 H       10.1240     0.4310     0.4660 H     1 <1>   0.0800 
 38 H       12.5290    -0.5130    -0.2910 H     1 <1>   0.1500 
 39 H       10.6010    -4.3070    -0.0720 H     1 <1>   0.1500 
 40 H       12.6930    -5.3950    -0.7320 H     1 <1>   0.1500 
 41 H       14.6910    -0.4620    -1.3260 H     1 <1>   0.4000 
 42 H       15.5920    -1.8760    -1.5610 H     1 <1>   0.4000 
 43 H       14.7040    -4.0430    -1.1580 H     1 <1>   0.1500 
@<TRIPOS>BOND
  1   1   2  1   
  2   1   3  1   
  3   2   4  1   
  4   2  24  1   
  5   2  25  1   
  6   3   5  1   
  7   3  26  1   
  8   3  27  1   
  9   4   6  1   
 10   4  28  1   
 11   4  29  1   
 12   5   6  1   
 13   5  30  1   
 14   5  31  1   
 15   6   7  1   
 16   7   8  ar  
 17   7   9  ar  
 18   8  10  ar  
 19   9  11  ar  
 20   9  32  1   
 21  10  12  ar  
 22  10  33  1   
 23  11  12  ar  
 24  11  13  1   
 25  13  14  1   
 26  13  34  1   
 27  14  15  2   
 28  15  16  1   
 29  15  17  1   
 30  16  18  ar  
 31  16  19  ar  
 32  17  35  1   
 33  17  36  1   
 34  17  37  1   
 35  18  20  ar  
 36  18  38  1   
 37  19  21  ar  
 38  19  39  1   
 39  20  22  1   
 40  20  23  ar  
 41  21  23  ar  
 42  21  40  1   
 43  22  41  1   
 44  22  42  1   
 45  23  43  1   
@<TRIPOS>SUBSTRUCTURE
  1 ****  13 GROUP 4 **** **** 0

# MOE 2024.06 (io_trps.svl 2023.06)
