@<TRIPOS>MOLECULE
NONAME
42 43 1 0 0 
SMALL
USER_CHARGES


@<TRIPOS>ATOM
  1 I       -0.3410     0.6200     0.2450 I     1 <1>  -0.0810 
  2 C        1.6790     1.2690     0.0650 C.ar  1 <1>   0.0810 
  3 C        1.9290     2.5250    -0.4570 C.ar  1 <1>  -0.1500 
  4 C        2.6880     0.4180     0.4760 C.ar  1 <1>  -0.1500 
  5 C        3.2450     2.9370    -0.5700 C.ar  1 <1>  -0.1500 
  6 C        4.0010     0.8430     0.3580 C.ar  1 <1>  -0.1500 
  7 C        4.2830     2.1060    -0.1660 C.ar  1 <1>   0.0830 
  8 O        5.5400     2.5950    -0.3150 O.3   1 <1>  -0.3630 
  9 C        6.6680     1.8410     0.0590 C.3   1 <1>   0.1200 
 10 C        7.9120     2.6800    -0.2390 C.3   1 <1>  -0.1600 
 11 C        9.1990     1.9360     0.1410 C.3   1 <1>  -0.1600 
 12 C       10.4350     2.7930    -0.1700 C.3   1 <1>  -0.1600 
 13 C       11.7210     2.0540     0.2050 C.3   1 <1>   0.3430 
 14 N       12.9120     2.8400    -0.2130 N.4   1 <1>  -0.9590 
 15 C       14.1760     2.0290    -0.1870 C.3   1 <1>   0.3430 
 16 C       13.1070     4.1270     0.5440 C.3   1 <1>   0.3430 
 17 C       15.3920     2.8620    -0.6560 C.3   1 <1>   0.1200 
 18 C       14.3990     4.8560     0.1070 C.3   1 <1>   0.1200 
 19 O       15.0250     4.1830    -0.9520 O.3   1 <1>  -0.5600 
 20 H        1.1210     3.1630    -0.7680 H     1 <1>   0.1500 
 21 H        2.4560    -0.5520     0.8780 H     1 <1>   0.1500 
 22 H        3.4780     3.9060    -0.9720 H     1 <1>   0.1500 
 23 H        4.7840     0.1820     0.6770 H     1 <1>   0.1500 
 24 H        6.6720     0.9310    -0.5150 H     1 <1>   0.0800 
 25 H        6.5950     1.6220     1.1110 H     1 <1>   0.0800 
 26 H        7.8460     3.6000     0.3160 H     1 <1>   0.0800 
 27 H        7.9240     2.9130    -1.2900 H     1 <1>   0.0800 
 28 H        9.2480     1.0120    -0.4100 H     1 <1>   0.0800 
 29 H        9.1740     1.7000     1.1930 H     1 <1>   0.0800 
 30 H       10.3610     3.7120     0.3830 H     1 <1>   0.0800 
 31 H       10.4430     3.0190    -1.2220 H     1 <1>   0.0800 
 32 H       11.7280     1.0990    -0.2950 H     1 <1>   0.0800 
 33 H       11.7470     1.8770     1.2680 H     1 <1>   0.0800 
 34 H       12.8040     3.1260    -1.1990 H     1 <1>   0.4500 
 35 H       14.0760     1.1670    -0.8260 H     1 <1>   0.0800 
 36 H       14.3630     1.6720     0.8120 H     1 <1>   0.0800 
 37 H       13.1580     3.9290     1.6020 H     1 <1>   0.0800 
 38 H       12.2680     4.7820     0.3780 H     1 <1>   0.0800 
 39 H       15.8140     2.4330    -1.5480 H     1 <1>   0.0800 
 40 H       16.1580     2.8790     0.1020 H     1 <1>   0.0800 
 41 H       15.0930     4.9290     0.9270 H     1 <1>   0.0800 
 42 H       14.1680     5.8520    -0.2270 H     1 <1>   0.0800 
@<TRIPOS>BOND
  1   1   2  1   
  2   2   3  ar  
  3   2   4  ar  
  4   3   5  ar  
  5   3  20  1   
  6   4   6  ar  
  7   4  21  1   
  8   5   7  ar  
  9   5  22  1   
 10   6   7  ar  
 11   6  23  1   
 12   7   8  1   
 13   8   9  1   
 14   9  10  1   
 15   9  24  1   
 16   9  25  1   
 17  10  11  1   
 18  10  26  1   
 19  10  27  1   
 20  11  12  1   
 21  11  28  1   
 22  11  29  1   
 23  12  13  1   
 24  12  30  1   
 25  12  31  1   
 26  13  14  1   
 27  13  32  1   
 28  13  33  1   
 29  14  15  1   
 30  14  16  1   
 31  14  34  1   
 32  15  17  1   
 33  15  35  1   
 34  15  36  1   
 35  16  18  1   
 36  16  37  1   
 37  16  38  1   
 38  17  19  1   
 39  17  39  1   
 40  17  40  1   
 41  18  19  1   
 42  18  41  1   
 43  18  42  1   
@<TRIPOS>SUBSTRUCTURE
  1 ****  10 GROUP 4 **** **** 0

# MOE 2024.06 (io_trps.svl 2023.06)
