@<TRIPOS>MOLECULE
NONAME
43 45 1 0 0 
SMALL
USER_CHARGES


@<TRIPOS>ATOM
  1 BR       1.5990    -1.0030    -2.4400 Br    1 <1>  -0.1110 
  2 C        0.5250    -2.2570    -1.4380 C.ar  1 <1>   0.1110 
  3 C        1.0070    -2.7860    -0.2490 C.ar  1 <1>   0.0820 
  4 C       -0.7130    -2.5880    -1.9520 C.ar  1 <1>  -0.1500 
  5 O        2.2390    -2.3970     0.1740 O.3   1 <1>  -0.3630 
  6 C        0.2010    -3.6830     0.4440 C.ar  1 <1>  -0.1500 
  7 C       -1.5120    -3.4810    -1.2540 C.ar  1 <1>  -0.1430 
  8 C        2.8440    -2.9460     1.3240 C.3   1 <1>   0.0400 
  9 C       -1.0550    -4.0290    -0.0560 C.ar  1 <1>   0.0820 
 10 C       -2.8780    -3.8570    -1.7980 C.3   1 <1>   0.4870 
 11 O       -1.8920    -4.8920     0.5850 O.3   1 <1>  -0.3630 
 12 N       -3.9050    -3.4480    -0.8110 N.4   1 <1>  -0.9590 
 13 C       -1.4610    -5.6440     1.7040 C.3   1 <1>   0.0400 
 14 C       -5.2420    -4.0230    -1.0990 C.3   1 <1>   0.4860 
 15 C       -3.9790    -1.9740    -0.6030 C.3   1 <1>   0.3430 
 16 C       -6.2350    -3.6220    -0.0200 C.ar  1 <1>  -0.1430 
 17 C       -4.7600    -1.6740     0.6780 C.3   1 <1>  -0.0170 
 18 C       -6.0200    -2.5190     0.8020 C.ar  1 <1>  -0.1430 
 19 C       -7.3900    -4.3750     0.1370 C.ar  1 <1>  -0.1500 
 20 C       -6.9590    -2.1850     1.7650 C.ar  1 <1>  -0.1500 
 21 C       -8.3230    -4.0360     1.1000 C.ar  1 <1>  -0.1500 
 22 C       -8.1070    -2.9400     1.9140 C.ar  1 <1>  -0.1500 
 23 H       -1.0250    -2.1460    -2.8830 H     1 <1>   0.1500 
 24 H        0.5500    -4.1020     1.3650 H     1 <1>   0.1500 
 25 H        3.8200    -2.5060     1.4280 H     1 <1>   0.0800 
 26 H        2.9370    -4.0100     1.1970 H     1 <1>   0.0800 
 27 H        2.2450    -2.7070     2.1840 H     1 <1>   0.0800 
 28 H       -2.9110    -4.9250    -1.9420 H     1 <1>   0.0800 
 29 H       -3.0520    -3.3730    -2.7450 H     1 <1>   0.0800 
 30 H       -3.5870    -3.8640     0.0810 H     1 <1>   0.4500 
 31 H       -1.2390    -4.9740     2.5160 H     1 <1>   0.0800 
 32 H       -0.5910    -6.2160     1.4300 H     1 <1>   0.0800 
 33 H       -2.2550    -6.3100     1.9910 H     1 <1>   0.0800 
 34 H       -5.1780    -5.0990    -1.1370 H     1 <1>   0.0800 
 35 H       -5.5990    -3.6680    -2.0520 H     1 <1>   0.0800 
 36 H       -4.4780    -1.5150    -1.4410 H     1 <1>   0.0800 
 37 H       -2.9900    -1.5530    -0.5210 H     1 <1>   0.0800 
 38 H       -5.0180    -0.6300     0.6910 H     1 <1>   0.0800 
 39 H       -4.1270    -1.8620     1.5270 H     1 <1>   0.0800 
 40 H       -7.5820    -5.2320    -0.4860 H     1 <1>   0.1500 
 41 H       -6.8050    -1.3360     2.4090 H     1 <1>   0.1500 
 42 H       -9.2180    -4.6220     1.2180 H     1 <1>   0.1500 
 43 H       -8.8340    -2.6750     2.6640 H     1 <1>   0.1500 
@<TRIPOS>BOND
  1   1   2  1   
  2   2   3  ar  
  3   2   4  ar  
  4   3   5  1   
  5   3   6  ar  
  6   4   7  ar  
  7   4  23  1   
  8   5   8  1   
  9   6   9  ar  
 10   6  24  1   
 11   7   9  ar  
 12   7  10  1   
 13   8  25  1   
 14   8  26  1   
 15   8  27  1   
 16   9  11  1   
 17  10  12  1   
 18  10  28  1   
 19  10  29  1   
 20  11  13  1   
 21  12  14  1   
 22  12  15  1   
 23  12  30  1   
 24  13  31  1   
 25  13  32  1   
 26  13  33  1   
 27  14  16  1   
 28  14  34  1   
 29  14  35  1   
 30  15  17  1   
 31  15  36  1   
 32  15  37  1   
 33  16  18  ar  
 34  16  19  ar  
 35  17  18  1   
 36  17  38  1   
 37  17  39  1   
 38  18  20  ar  
 39  19  21  ar  
 40  19  40  1   
 41  20  22  ar  
 42  20  41  1   
 43  21  22  ar  
 44  21  42  1   
 45  22  43  1   
@<TRIPOS>SUBSTRUCTURE
  1 ****  12 GROUP 4 **** **** 0

# MOE 2024.06 (io_trps.svl 2023.06)
