@<TRIPOS>MOLECULE
NONAME
42 44 1 0 0 
SMALL
USER_CHARGES


@<TRIPOS>ATOM
  1 F       -2.3520     0.1660     1.9140 F     1 <1>  -0.3400 
  2 C       -1.7320     0.6390     0.8410 C.3   1 <1>   1.1640 
  3 F       -1.1650    -0.4050     0.2460 F     1 <1>  -0.3400 
  4 F       -0.7370     1.3950     1.2890 F     1 <1>  -0.3400 
  5 C       -2.6890     1.4150    -0.0760 C.ar  1 <1>  -0.1440 
  6 C       -3.0760     2.7070     0.2600 C.ar  1 <1>  -0.1500 
  7 C       -3.1990     0.8480    -1.2410 C.ar  1 <1>  -0.1500 
  8 C       -3.9600     3.4270    -0.5330 C.ar  1 <1>   0.1170 
  9 C       -4.0720     1.5590    -2.0450 C.ar  1 <1>  -0.1500 
 10 N       -4.3460     4.7120    -0.1460 N.am  1 <1>  -0.5470 
 11 C       -4.4500     2.8400    -1.6920 C.ar  1 <1>  -0.1500 
 12 C       -5.5430     5.3430    -0.2960 C.2   1 <1>   0.6900 
 13 O       -5.5180     6.5530    -0.3950 O.2   1 <1>  -0.5700 
 14 N       -6.7340     4.6640    -0.3270 N.am  1 <1>  -0.6600 
 15 C       -7.9890     5.3010    -0.8270 C.3   1 <1>   0.1400 
 16 C       -6.9820     3.3730     0.3930 C.3   1 <1>   0.1400 
 17 C       -9.0130     5.4880     0.3040 C.3   1 <1>   0.2090 
 18 C       -8.0300     3.5390     1.5090 C.3   1 <1>   0.2090 
 19 N       -9.2780     4.2030     1.0200 N.pl3 1 <1>  -0.8380 
 20 C      -10.3180     3.4170     0.5600 C.ar  1 <1>   0.4100 
 21 N      -10.0050     2.2770    -0.0490 N.ar  1 <1>  -0.6200 
 22 C      -11.6310     3.8470     0.7400 C.ar  1 <1>  -0.1500 
 23 C      -11.0240     1.5560    -0.4860 C.ar  1 <1>   0.1600 
 24 C      -12.6810     3.0880     0.2790 C.ar  1 <1>  -0.1500 
 25 C      -12.3560     1.9050    -0.3530 C.ar  1 <1>  -0.1500 
 26 H       -2.7000     3.1690     1.1570 H     1 <1>   0.1500 
 27 H       -2.9220    -0.1530    -1.5330 H     1 <1>   0.1500 
 28 H       -4.4610     1.1140    -2.9450 H     1 <1>   0.1500 
 29 H       -3.6000     5.3820     0.0260 H     1 <1>   0.3700 
 30 H       -5.1320     3.3900    -2.3170 H     1 <1>   0.1500 
 31 H       -8.4200     4.6710    -1.5850 H     1 <1>   0.0800 
 32 H       -7.7730     6.2550    -1.2750 H     1 <1>   0.0800 
 33 H       -6.0780     3.0020     0.8370 H     1 <1>   0.0800 
 34 H       -7.3310     2.6400    -0.3120 H     1 <1>   0.0800 
 35 H       -9.9290     5.8720    -0.1100 H     1 <1>   0.0800 
 36 H       -8.6370     6.2130     1.0050 H     1 <1>   0.0800 
 37 H       -7.6090     4.1310     2.3020 H     1 <1>   0.0800 
 38 H       -8.2720     2.5720     1.9170 H     1 <1>   0.0800 
 39 H      -11.8030     4.7740     1.2500 H     1 <1>   0.1500 
 40 H      -10.7820     0.6310    -0.9790 H     1 <1>   0.1500 
 41 H      -13.7040     3.3970     0.4070 H     1 <1>   0.1500 
 42 H      -13.1260     1.2620    -0.7370 H     1 <1>   0.1500 
@<TRIPOS>BOND
  1   1   2  1   
  2   2   3  1   
  3   2   4  1   
  4   2   5  1   
  5   5   6  ar  
  6   5   7  ar  
  7   6   8  ar  
  8   6  26  1   
  9   7   9  ar  
 10   7  27  1   
 11   8  10  1   
 12   8  11  ar  
 13   9  11  ar  
 14   9  28  1   
 15  10  12  am  
 16  10  29  1   
 17  11  30  1   
 18  12  13  2   
 19  12  14  am  
 20  14  15  1   
 21  14  16  1   
 22  15  17  1   
 23  15  31  1   
 24  15  32  1   
 25  16  18  1   
 26  16  33  1   
 27  16  34  1   
 28  17  19  1   
 29  17  35  1   
 30  17  36  1   
 31  18  19  1   
 32  18  37  1   
 33  18  38  1   
 34  19  20  1   
 35  20  21  ar  
 36  20  22  ar  
 37  21  23  ar  
 38  22  24  ar  
 39  22  39  1   
 40  23  25  ar  
 41  23  40  1   
 42  24  25  ar  
 43  24  41  1   
 44  25  42  1   
@<TRIPOS>SUBSTRUCTURE
  1 ****  16 GROUP 4 **** **** 0

# MOE 2024.06 (io_trps.svl 2023.06)
