@<TRIPOS>MOLECULE
NONAME
45 46 1 0 0 
SMALL
USER_CHARGES


@<TRIPOS>ATOM
  1 O        0.3970     0.5230    -0.2900 O.2   1 <1>  -0.5700 
  2 C        0.2480     1.6680     0.0490 C.2   1 <1>   0.6590 
  3 O       -0.8800     2.1160     0.5760 O.3   1 <1>  -0.4300 
  4 C        1.3560     2.6940    -0.1140 C.3   1 <1>  -0.0190 
  5 C       -1.9870     1.2690     0.7850 C.3   1 <1>   0.1200 
  6 C        2.4730     2.1050    -0.9990 C.3   1 <1>   0.3430 
  7 C        1.9030     3.1850     1.2410 C.3   1 <1>  -0.1600 
  8 C       -3.1040     2.0980     1.4110 C.3   1 <1>  -0.2400 
  9 N        3.8310     2.6570    -0.6710 N.4   1 <1>  -0.9590 
 10 C        3.0180     4.2320     1.0450 C.3   1 <1>  -0.1600 
 11 C        3.7950     4.0920    -0.2720 C.3   1 <1>   0.3430 
 12 C        4.8140     2.3860    -1.7560 C.3   1 <1>   0.4860 
 13 C        6.1970     2.7330    -1.2430 C.ar  1 <1>  -0.1430 
 14 C        6.7680     1.9790    -0.2290 C.ar  1 <1>  -0.1500 
 15 C        6.9000     3.8060    -1.7680 C.ar  1 <1>  -0.1500 
 16 C        8.0160     2.2860     0.2870 C.ar  1 <1>   0.0820 
 17 C        8.1510     4.1260    -1.2710 C.ar  1 <1>  -0.1500 
 18 O        8.4200     1.4550     1.2890 O.3   1 <1>  -0.3630 
 19 C        8.7150     3.3820    -0.2460 C.ar  1 <1>   0.0820 
 20 C        9.7200     1.4820     1.8350 C.3   1 <1>   0.0400 
 21 O        9.9320     3.7720     0.1910 O.3   1 <1>  -0.5330 
 22 H        0.9260     3.5310    -0.6330 H     1 <1>   0.0800 
 23 H       -1.6890     0.4670     1.4390 H     1 <1>   0.0800 
 24 H       -2.2940     0.8650    -0.1660 H     1 <1>   0.0800 
 25 H        2.2290     2.3010    -2.0310 H     1 <1>   0.0800 
 26 H        2.5020     1.0340    -0.8720 H     1 <1>   0.0800 
 27 H        2.2940     2.3410     1.7870 H     1 <1>   0.0800 
 28 H        1.1080     3.6080     1.8340 H     1 <1>   0.0800 
 29 H       -2.7840     2.5020     2.3550 H     1 <1>   0.0800 
 30 H       -3.9640     1.4760     1.5810 H     1 <1>   0.0800 
 31 H       -3.3880     2.8990     0.7530 H     1 <1>   0.0800 
 32 H        4.1830     2.1550     0.1550 H     1 <1>   0.4500 
 33 H        3.7060     4.1750     1.8710 H     1 <1>   0.0800 
 34 H        2.5890     5.2190     1.0690 H     1 <1>   0.0800 
 35 H        3.3080     4.6670    -1.0430 H     1 <1>   0.0800 
 36 H        4.7940     4.4790    -0.1390 H     1 <1>   0.0800 
 37 H        4.5820     2.9750    -2.6280 H     1 <1>   0.0800 
 38 H        4.7890     1.3430    -2.0280 H     1 <1>   0.0800 
 39 H        6.2590     1.1270     0.1860 H     1 <1>   0.1500 
 40 H        6.4880     4.4030    -2.5650 H     1 <1>   0.1500 
 41 H        8.6860     4.9620    -1.6880 H     1 <1>   0.1500 
 42 H        9.8090     0.6690     2.5330 H     1 <1>   0.0800 
 43 H        9.8650     2.4170     2.3450 H     1 <1>   0.0800 
 44 H       10.4350     1.3630     1.0410 H     1 <1>   0.0800 
 45 H       10.2910     4.5370    -0.2920 H     1 <1>   0.4500 
@<TRIPOS>BOND
  1   1   2  2   
  2   2   3  1   
  3   2   4  1   
  4   3   5  1   
  5   4   6  1   
  6   4   7  1   
  7   4  22  1   
  8   5   8  1   
  9   5  23  1   
 10   5  24  1   
 11   6   9  1   
 12   6  25  1   
 13   6  26  1   
 14   7  10  1   
 15   7  27  1   
 16   7  28  1   
 17   8  29  1   
 18   8  30  1   
 19   8  31  1   
 20   9  11  1   
 21   9  12  1   
 22   9  32  1   
 23  10  11  1   
 24  10  33  1   
 25  10  34  1   
 26  11  35  1   
 27  11  36  1   
 28  12  13  1   
 29  12  37  1   
 30  12  38  1   
 31  13  14  ar  
 32  13  15  ar  
 33  14  16  ar  
 34  14  39  1   
 35  15  17  ar  
 36  15  40  1   
 37  16  18  1   
 38  16  19  ar  
 39  17  19  ar  
 40  17  41  1   
 41  18  20  1   
 42  19  21  1   
 43  20  42  1   
 44  20  43  1   
 45  20  44  1   
 46  21  45  1   
@<TRIPOS>SUBSTRUCTURE
  1 ****   9 GROUP 4 **** **** 0

# MOE 2024.06 (io_trps.svl 2023.06)
