@<TRIPOS>MOLECULE
NONAME
45 46 1 0 0 
SMALL
USER_CHARGES


@<TRIPOS>ATOM
  1 O        0.7180    -4.3170     0.3510 O.2   1 <1>  -0.5700 
  2 C       -0.1480    -3.6080     0.8100 C.2   1 <1>   0.5690 
  3 N       -0.0330    -2.2530     0.8250 N.am  1 <1>  -0.7300 
  4 C       -1.4220    -4.2620     1.3670 C.3   1 <1>   0.2610 
  5 C        1.0380    -1.4700     0.1980 C.3   1 <1>   0.2200 
  6 O       -2.5180    -3.3500     1.3700 O.3   1 <1>  -0.3630 
  7 C       -1.2130    -4.7590     2.8090 C.3   1 <1>  -0.1600 
  8 C        1.5640    -0.4500     1.2120 C.3   1 <1>  -0.1600 
  9 C        0.4700    -0.7790    -1.0460 C.3   1 <1>  -0.1600 
 10 C       -3.0690    -2.8700     0.2250 C.ar  1 <1>   0.0820 
 11 C       -2.4460    -5.4670     3.3920 C.3   1 <1>  -0.2400 
 12 C        2.6070     0.4800     0.5740 C.3   1 <1>  -0.1600 
 13 C        1.5100     0.1520    -1.6880 C.3   1 <1>  -0.1600 
 14 C       -4.0430    -1.8950     0.3700 C.ar  1 <1>  -0.1500 
 15 C       -2.7040    -3.2890    -1.0520 C.ar  1 <1>  -0.1500 
 16 C        2.0420     1.1730    -0.6730 C.3   1 <1>  -0.1600 
 17 C       -4.6490    -1.3270    -0.7380 C.ar  1 <1>  -0.1440 
 18 C       -3.3090    -2.7240    -2.1610 C.ar  1 <1>  -0.1500 
 19 C       -4.2770    -1.7470    -2.0050 C.ar  1 <1>  -0.1500 
 20 C       -5.7150    -0.2590    -0.5770 C.3   1 <1>  -0.0970 
 21 H       -0.8520    -1.7170     1.1230 H     1 <1>   0.3700 
 22 H       -1.6900    -5.0970     0.7460 H     1 <1>   0.0800 
 23 H        1.8430    -2.1250    -0.0950 H     1 <1>   0.0800 
 24 H       -0.9420    -3.9250     3.4320 H     1 <1>   0.0800 
 25 H       -0.3850    -5.4470     2.8130 H     1 <1>   0.0800 
 26 H        2.0110    -0.9710     2.0400 H     1 <1>   0.0800 
 27 H        0.7470     0.1440     1.5830 H     1 <1>   0.0800 
 28 H       -0.3970    -0.2020    -0.7740 H     1 <1>   0.0800 
 29 H        0.1700    -1.5250    -1.7600 H     1 <1>   0.0800 
 30 H       -3.2810    -4.7900     3.4460 H     1 <1>   0.0800 
 31 H       -2.2320    -5.8230     4.3840 H     1 <1>   0.0800 
 32 H       -2.7230    -6.3070     2.7780 H     1 <1>   0.0800 
 33 H        3.4750    -0.0950     0.2990 H     1 <1>   0.0800 
 34 H        2.9170     1.2210     1.2900 H     1 <1>   0.0800 
 35 H        1.0660     0.6670    -2.5220 H     1 <1>   0.0800 
 36 H        2.3300    -0.4380    -2.0630 H     1 <1>   0.0800 
 37 H       -4.3200    -1.5860     1.3610 H     1 <1>   0.1500 
 38 H       -1.9570    -4.0440    -1.2090 H     1 <1>   0.1500 
 39 H        2.8100     1.7710    -1.1330 H     1 <1>   0.0800 
 40 H        1.2430     1.8340    -0.3820 H     1 <1>   0.0800 
 41 H       -3.0270    -3.0460    -3.1480 H     1 <1>   0.1500 
 42 H       -4.7410    -1.3160    -2.8740 H     1 <1>   0.1500 
 43 H       -5.7180     0.1300     0.4260 H     1 <1>   0.0800 
 44 H       -6.6830    -0.6760    -0.7890 H     1 <1>   0.0800 
 45 H       -5.5290     0.5540    -1.2560 H     1 <1>   0.0800 
@<TRIPOS>BOND
  1   1   2  2   
  2   2   3  am  
  3   2   4  1   
  4   3   5  1   
  5   3  21  1   
  6   4   6  1   
  7   4   7  1   
  8   4  22  1   
  9   5   8  1   
 10   5   9  1   
 11   5  23  1   
 12   6  10  1   
 13   7  11  1   
 14   7  24  1   
 15   7  25  1   
 16   8  12  1   
 17   8  26  1   
 18   8  27  1   
 19   9  13  1   
 20   9  28  1   
 21   9  29  1   
 22  10  14  ar  
 23  10  15  ar  
 24  11  30  1   
 25  11  31  1   
 26  11  32  1   
 27  12  16  1   
 28  12  33  1   
 29  12  34  1   
 30  13  16  1   
 31  13  35  1   
 32  13  36  1   
 33  14  17  ar  
 34  14  37  1   
 35  15  18  ar  
 36  15  38  1   
 37  16  39  1   
 38  16  40  1   
 39  17  19  ar  
 40  17  20  1   
 41  18  19  ar  
 42  18  41  1   
 43  19  42  1   
 44  20  43  1   
 45  20  44  1   
 46  20  45  1   
@<TRIPOS>SUBSTRUCTURE
  1 ****   3 GROUP 4 **** **** 0

# MOE 2024.06 (io_trps.svl 2023.06)
