@<TRIPOS>MOLECULE
NONAME
49 50 1 0 0 
SMALL
USER_CHARGES


@<TRIPOS>ATOM
  1 O       -1.0560     0.3220     1.7640 O.2   1 <1>  -0.5700 
  2 C       -1.4690     1.4430     1.9680 C.2   1 <1>   0.6900 
  3 N       -2.2600     2.1360     1.0810 N.am  1 <1>  -0.3680 
  4 N       -1.1280     2.0360     3.1250 N.am  1 <1>  -0.8000 
  5 N       -2.8300     1.7000    -0.1010 N.2   1 <1>  -0.5120 
  6 C       -3.4770     2.5410    -0.8130 C.2   1 <1>   0.3030 
  7 C       -3.6530     3.9420    -0.5190 C.ar  1 <1>   0.0860 
  8 C       -4.1240     2.0470    -2.0910 C.3   1 <1>  -0.1790 
  9 C       -2.6030     4.8500    -0.6280 C.ar  1 <1>  -0.1430 
 10 C       -4.8850     4.4420    -0.0950 C.ar  1 <1>  -0.1500 
 11 C       -2.7690     6.1750    -0.3250 C.ar  1 <1>  -0.1430 
 12 C       -1.1860     4.5660    -1.0720 C.3   1 <1>  -0.0170 
 13 C       -5.0830     5.7850     0.2200 C.ar  1 <1>  -0.1430 
 14 C       -3.9970     6.6480     0.1000 C.ar  1 <1>  -0.1500 
 15 C       -1.4830     6.9560    -0.5180 C.3   1 <1>   0.1430 
 16 C       -0.6050     5.9670    -1.3150 C.3   1 <1>  -0.1600 
 17 C       -6.4430     6.3490     0.6910 C.3   1 <1>   0.1430 
 18 C       -1.7100     8.2540    -1.3010 C.3   1 <1>  -0.2400 
 19 C       -0.8600     7.2570     0.8490 C.3   1 <1>  -0.2400 
 20 C       -6.2870     6.9720     2.0860 C.3   1 <1>  -0.2400 
 21 C       -6.9210     7.4230    -0.2970 C.3   1 <1>  -0.2400 
 22 C       -7.5440     5.2790     0.7820 C.3   1 <1>  -0.2400 
 23 H       -2.4140     3.1130     1.3310 H     1 <1>   0.3700 
 24 H       -0.5990     1.4720     3.7890 H     1 <1>   0.3700 
 25 H       -1.6080     2.8490     3.4980 H     1 <1>   0.3700 
 26 H       -3.7910     2.6430    -2.9210 H     1 <1>   0.0800 
 27 H       -5.1930     2.1170    -2.0120 H     1 <1>   0.0800 
 28 H       -3.8570     1.0210    -2.2720 H     1 <1>   0.0800 
 29 H       -5.6860     3.7320    -0.0140 H     1 <1>   0.1500 
 30 H       -0.6490     4.0640    -0.2860 H     1 <1>   0.0800 
 31 H       -1.1590     3.9670    -1.9660 H     1 <1>   0.0800 
 32 H       -4.0980     7.6920     0.3340 H     1 <1>   0.1500 
 33 H       -0.6880     6.1810    -2.3660 H     1 <1>   0.0800 
 34 H        0.4330     6.0220    -1.0390 H     1 <1>   0.0800 
 35 H       -0.7700     8.7280    -1.5210 H     1 <1>   0.0800 
 36 H       -2.3120     8.9380    -0.7320 H     1 <1>   0.0800 
 37 H       -2.2170     8.0460    -2.2260 H     1 <1>   0.0800 
 38 H       -0.6960     6.3450     1.3950 H     1 <1>   0.0800 
 39 H       -1.5170     7.8830     1.4260 H     1 <1>   0.0800 
 40 H        0.0810     7.7630     0.7320 H     1 <1>   0.0800 
 41 H       -5.5950     7.7940     2.0710 H     1 <1>   0.0800 
 42 H       -5.9210     6.2360     2.7790 H     1 <1>   0.0800 
 43 H       -7.2320     7.3400     2.4460 H     1 <1>   0.0800 
 44 H       -7.8840     7.8050    -0.0070 H     1 <1>   0.0800 
 45 H       -7.0020     7.0050    -1.2840 H     1 <1>   0.0800 
 46 H       -6.2350     8.2480    -0.3360 H     1 <1>   0.0800 
 47 H       -8.4690     5.7160     1.1140 H     1 <1>   0.0800 
 48 H       -7.2700     4.5120     1.4840 H     1 <1>   0.0800 
 49 H       -7.7170     4.8300    -0.1800 H     1 <1>   0.0800 
@<TRIPOS>BOND
  1   1   2  2   
  2   2   3  am  
  3   2   4  am  
  4   3   5  1   
  5   3  23  1   
  6   4  24  1   
  7   4  25  1   
  8   5   6  2   
  9   6   7  1   
 10   6   8  1   
 11   7   9  ar  
 12   7  10  ar  
 13   8  26  1   
 14   8  27  1   
 15   8  28  1   
 16   9  11  ar  
 17   9  12  1   
 18  10  13  ar  
 19  10  29  1   
 20  11  14  ar  
 21  11  15  1   
 22  12  16  1   
 23  12  30  1   
 24  12  31  1   
 25  13  14  ar  
 26  13  17  1   
 27  14  32  1   
 28  15  16  1   
 29  15  18  1   
 30  15  19  1   
 31  16  33  1   
 32  16  34  1   
 33  17  20  1   
 34  17  21  1   
 35  17  22  1   
 36  18  35  1   
 37  18  36  1   
 38  18  37  1   
 39  19  38  1   
 40  19  39  1   
 41  19  40  1   
 42  20  41  1   
 43  20  42  1   
 44  20  43  1   
 45  21  44  1   
 46  21  45  1   
 47  21  46  1   
 48  22  47  1   
 49  22  48  1   
 50  22  49  1   
@<TRIPOS>SUBSTRUCTURE
  1 ****   9 GROUP 4 **** **** 0

# MOE 2024.06 (io_trps.svl 2023.06)
