@<TRIPOS>MOLECULE
NONAME
43 44 1 0 0 
SMALL
USER_CHARGES


@<TRIPOS>ATOM
  1 S       -0.3120    -0.7890     0.6900 S.o2  1 <1>   1.3330 
  2 O       -0.7240    -0.8900     2.0690 O.2   1 <1>  -0.6500 
  3 O       -0.9120    -1.6540    -0.2980 O.2   1 <1>  -0.6500 
  4 N       -0.6260     0.7960     0.2010 N.am  1 <1>  -0.8490 
  5 C        1.4630    -0.9400     0.6390 C.3   1 <1>  -0.1350 
  6 C       -2.0170     1.1540     0.4620 C.3   1 <1>   0.3390 
  7 C       -0.2440     1.0530    -1.2160 C.3   1 <1>   0.2570 
  8 C       -2.1620     2.6690     0.3940 C.ar  1 <1>  -0.1440 
  9 C        1.1490     1.6690    -1.3380 C.2   1 <1>   0.5690 
 10 C       -2.9370     3.2700    -0.5920 C.ar  1 <1>  -0.1500 
 11 C       -1.5030     3.4570     1.3320 C.ar  1 <1>  -0.1500 
 12 O        1.9910     1.1060    -1.9970 O.2   1 <1>  -0.5700 
 13 N        1.3960     2.8280    -0.6770 N.am  1 <1>  -0.7300 
 14 C       -3.0480     4.6490    -0.6490 C.ar  1 <1>  -0.1500 
 15 C       -1.6090     4.8360     1.2880 C.ar  1 <1>  -0.1500 
 16 C        2.6700     3.5600    -0.6520 C.3   1 <1>   0.2200 
 17 C       -2.3790     5.4070     0.2930 C.ar  1 <1>   0.1900 
 18 C        3.1040     3.7320     0.7970 C.3   1 <1>  -0.1600 
 19 C        2.4220     4.9890    -1.1170 C.3   1 <1>  -0.1600 
 20 F       -2.4760     6.7080     0.2410 F     1 <1>  -0.1900 
 21 C        2.3000     4.9210     1.3330 C.3   1 <1>  -0.1600 
 22 C        1.8840     5.7420     0.1050 C.3   1 <1>  -0.1600 
 23 H        1.7590    -1.8840     1.0530 H     1 <1>   0.0800 
 24 H        1.9180    -0.1560     1.2110 H     1 <1>   0.0800 
 25 H        1.8200    -0.8890    -0.3700 H     1 <1>   0.0800 
 26 H       -2.3060     0.8400     1.4510 H     1 <1>   0.0800 
 27 H       -2.6680     0.6640    -0.2440 H     1 <1>   0.0800 
 28 H       -0.9230     1.7480    -1.6740 H     1 <1>   0.0800 
 29 H       -0.2820     0.1500    -1.8000 H     1 <1>   0.0800 
 30 H       -3.4570     2.6690    -1.3190 H     1 <1>   0.1500 
 31 H       -0.9050     2.9890     2.0980 H     1 <1>   0.1500 
 32 H        0.6610     3.2230    -0.0840 H     1 <1>   0.3700 
 33 H       -3.6400     5.1320    -1.4050 H     1 <1>   0.1500 
 34 H       -1.1090     5.4600     2.0070 H     1 <1>   0.1500 
 35 H        3.4130     3.0560    -1.2500 H     1 <1>   0.0800 
 36 H        4.1500     3.9840     0.8100 H     1 <1>   0.0800 
 37 H        2.9590     2.8360     1.3750 H     1 <1>   0.0800 
 38 H        1.7550     5.0340    -1.9610 H     1 <1>   0.0800 
 39 H        3.3660     5.4200    -1.4040 H     1 <1>   0.0800 
 40 H        2.8880     5.5070     2.0180 H     1 <1>   0.0800 
 41 H        1.4230     4.5660     1.8460 H     1 <1>   0.0800 
 42 H        0.8110     5.8060     0.0520 H     1 <1>   0.0800 
 43 H        2.2870     6.7400     0.1450 H     1 <1>   0.0800 
@<TRIPOS>BOND
  1   1   2  2   
  2   1   3  2   
  3   1   4  am  
  4   1   5  1   
  5   4   6  1   
  6   4   7  1   
  7   5  23  1   
  8   5  24  1   
  9   5  25  1   
 10   6   8  1   
 11   6  26  1   
 12   6  27  1   
 13   7   9  1   
 14   7  28  1   
 15   7  29  1   
 16   8  10  ar  
 17   8  11  ar  
 18   9  12  2   
 19   9  13  am  
 20  10  14  ar  
 21  10  30  1   
 22  11  15  ar  
 23  11  31  1   
 24  13  16  1   
 25  13  32  1   
 26  14  17  ar  
 27  14  33  1   
 28  15  17  ar  
 29  15  34  1   
 30  16  18  1   
 31  16  19  1   
 32  16  35  1   
 33  17  20  1   
 34  18  21  1   
 35  18  36  1   
 36  18  37  1   
 37  19  22  1   
 38  19  38  1   
 39  19  39  1   
 40  21  22  1   
 41  21  40  1   
 42  21  41  1   
 43  22  42  1   
 44  22  43  1   
@<TRIPOS>SUBSTRUCTURE
  1 ****  13 GROUP 4 **** **** 0

# MOE 2024.06 (io_trps.svl 2023.06)
