@<TRIPOS>MOLECULE
NONAME
48 49 1 0 0 
SMALL
USER_CHARGES


@<TRIPOS>ATOM
  1 S        0.5060     0.3120    -1.1870 S.o2  1 <1>   1.4470 
  2 O       -0.1810    -0.9250    -1.4980 O.2   1 <1>  -0.6500 
  3 O        1.5190     0.7330    -2.1310 O.2   1 <1>  -0.6500 
  4 N        1.3600     0.0310     0.2550 N.am  1 <1>  -0.8490 
  5 C       -0.7110     1.6230    -0.7160 C.ar  1 <1>  -0.0090 
  6 C        2.2550    -1.1370     0.1700 C.3   1 <1>   0.1960 
  7 C        1.9660     1.2570     0.7990 C.3   1 <1>   0.1960 
  8 C       -0.6040     2.9510    -1.1760 C.ar  1 <1>  -0.1440 
  9 C       -1.7750     1.3100     0.1540 C.ar  1 <1>  -0.1430 
 10 C        3.7250    -0.7220     0.0500 C.3   1 <1>  -0.1600 
 11 C        2.9960     0.9100     1.8720 C.3   1 <1>  -0.1600 
 12 C       -1.5230     3.9200    -0.7740 C.ar  1 <1>  -0.1430 
 13 C        0.5200     3.3640    -2.1330 C.3   1 <1>  -0.0970 
 14 C       -2.6980     2.2820     0.5330 C.ar  1 <1>  -0.1430 
 15 C       -1.9520    -0.1160     0.6970 C.3   1 <1>  -0.0970 
 16 C        4.1830     0.1370     1.2510 C.3   1 <1>  -0.0190 
 17 C       -2.5540     3.5710     0.0700 C.ar  1 <1>  -0.1500 
 18 C       -1.4670     5.3790    -1.2200 C.3   1 <1>  -0.0970 
 19 C       -3.8900     2.0040     1.4440 C.3   1 <1>  -0.0970 
 20 C        5.3320     1.0520     0.8290 C.2   1 <1>   0.6590 
 21 O        5.1660     2.2100     0.5400 O.2   1 <1>  -0.5700 
 22 O        6.5310     0.4830     0.7900 O.3   1 <1>  -0.4300 
 23 C        7.6810     1.2040     0.3990 C.3   1 <1>   0.0400 
 24 H        1.9880    -1.7660    -0.6640 H     1 <1>   0.0800 
 25 H        2.1310    -1.7240     1.0640 H     1 <1>   0.0800 
 26 H        1.1950     1.8800     1.2220 H     1 <1>   0.0800 
 27 H        2.4550     1.8140     0.0140 H     1 <1>   0.0800 
 28 H        3.8400    -0.1700    -0.8680 H     1 <1>   0.0800 
 29 H        4.3450    -1.5980    -0.0240 H     1 <1>   0.0800 
 30 H        2.5150     0.3120     2.6260 H     1 <1>   0.0800 
 31 H        3.3420     1.8110     2.3500 H     1 <1>   0.0800 
 32 H        1.4790     3.2010    -1.6760 H     1 <1>   0.0800 
 33 H        0.4930     4.3940    -2.4260 H     1 <1>   0.0800 
 34 H        0.4560     2.7910    -3.0400 H     1 <1>   0.0800 
 35 H       -2.3460    -0.7510    -0.0760 H     1 <1>   0.0800 
 36 H       -2.6170    -0.1720     1.5350 H     1 <1>   0.0800 
 37 H       -1.0220    -0.5240     1.0400 H     1 <1>   0.0800 
 38 H        4.5680    -0.5160     2.0140 H     1 <1>   0.0800 
 39 H       -3.2640     4.3200     0.3720 H     1 <1>   0.1500 
 40 H       -0.5320     5.8210    -0.9240 H     1 <1>   0.0800 
 41 H       -2.2580     5.9560    -0.7770 H     1 <1>   0.0800 
 42 H       -1.5710     5.4430    -2.2880 H     1 <1>   0.0800 
 43 H       -3.5490     1.7670     2.4350 H     1 <1>   0.0800 
 44 H       -4.4680     1.1840     1.0580 H     1 <1>   0.0800 
 45 H       -4.5400     2.8580     1.5100 H     1 <1>   0.0800 
 46 H        8.5300     0.5450     0.4430 H     1 <1>   0.0800 
 47 H        7.8180     2.0330     1.0720 H     1 <1>   0.0800 
 48 H        7.5410     1.5630    -0.6070 H     1 <1>   0.0800 
@<TRIPOS>BOND
  1   1   2  2   
  2   1   3  2   
  3   1   4  am  
  4   1   5  1   
  5   4   6  1   
  6   4   7  1   
  7   5   8  ar  
  8   5   9  ar  
  9   6  10  1   
 10   6  24  1   
 11   6  25  1   
 12   7  11  1   
 13   7  26  1   
 14   7  27  1   
 15   8  12  ar  
 16   8  13  1   
 17   9  14  ar  
 18   9  15  1   
 19  10  16  1   
 20  10  28  1   
 21  10  29  1   
 22  11  16  1   
 23  11  30  1   
 24  11  31  1   
 25  12  17  ar  
 26  12  18  1   
 27  13  32  1   
 28  13  33  1   
 29  13  34  1   
 30  14  17  ar  
 31  14  19  1   
 32  15  35  1   
 33  15  36  1   
 34  15  37  1   
 35  16  20  1   
 36  16  38  1   
 37  17  39  1   
 38  18  40  1   
 39  18  41  1   
 40  18  42  1   
 41  19  43  1   
 42  19  44  1   
 43  19  45  1   
 44  20  21  2   
 45  20  22  1   
 46  22  23  1   
 47  23  46  1   
 48  23  47  1   
 49  23  48  1   
@<TRIPOS>SUBSTRUCTURE
  1 ****   7 GROUP 4 **** **** 0

# MOE 2024.06 (io_trps.svl 2023.06)
