@<TRIPOS>MOLECULE
NONAME
56 59 1 0 0 
SMALL
USER_CHARGES


@<TRIPOS>ATOM
  1 O       -0.0240     1.9430    -1.7060 O.2   1 <1>  -0.5700 
  2 C        0.4020     2.1360    -0.5840 C.2   1 <1>   0.5440 
  3 N       -0.4830     2.4840     0.4100 N.am  1 <1>  -0.4940 
  4 C        1.8240     2.0820    -0.2990 C.ar  1 <1>   0.0860 
  5 C       -1.8880     2.4580     0.3530 C.2   1 <1>  -0.0880 
  6 C        2.7630     2.3770    -1.2870 C.ar  1 <1>  -0.1500 
  7 C        2.3110     1.7500     0.9660 C.ar  1 <1>  -0.1500 
  8 N       -2.6550     1.3530     0.1020 N.pl3 1 <1>   0.5930 
  9 C       -2.7350     3.5080     0.5770 C.2   1 <1>  -0.0860 
 10 C        4.1200     2.3610    -1.0240 C.ar  1 <1>  -0.1500 
 11 C        3.6670     1.7350     1.2350 C.ar  1 <1>  -0.1500 
 12 N       -3.9760     1.6750     0.1940 N.2   1 <1>  -0.7070 
 13 C       -2.2190     0.0020     0.0290 C.ar  1 <1>  -0.0230 
 14 C       -2.5010     4.8920     0.8750 C.2   1 <1>   0.7160 
 15 C       -4.0030     2.9350     0.4730 C.2   1 <1>   0.1390 
 16 C        4.5810     2.0420     0.2420 C.ar  1 <1>  -0.1430 
 17 C       -2.2310    -0.8000     1.1660 C.ar  1 <1>  -0.1500 
 18 C       -1.7720    -0.5460    -1.1690 C.ar  1 <1>  -0.1500 
 19 O       -3.0810     5.3770     1.8310 O.2   1 <1>  -0.5700 
 20 N       -1.6620     5.6970     0.1230 N.am  1 <1>  -0.6600 
 21 C        6.0710     2.0270     0.5340 C.3   1 <1>  -0.0970 
 22 C       -1.7960    -2.1120     1.1100 C.ar  1 <1>  -0.1500 
 23 C       -1.3360    -1.8570    -1.2270 C.ar  1 <1>  -0.1500 
 24 C       -1.3780     7.0990     0.5370 C.3   1 <1>   0.1400 
 25 C       -1.1870     5.3230    -1.2420 C.3   1 <1>   0.1400 
 26 C       -1.3460    -2.6420    -0.0870 C.ar  1 <1>  -0.1500 
 27 C       -0.0860     7.1420     1.3580 C.3   1 <1>  -0.1600 
 28 C        0.2780     5.7060    -1.5140 C.3   1 <1>  -0.1600 
 29 C        1.1950     6.9570     0.5300 C.3   1 <1>  -0.1600 
 30 C        1.2330     5.6690    -0.3060 C.3   1 <1>  -0.1600 
 31 H       -0.0700     3.0160     1.1790 H     1 <1>   0.3700 
 32 H        2.4180     2.6230    -2.2770 H     1 <1>   0.1500 
 33 H        1.6240     1.4920     1.7530 H     1 <1>   0.1500 
 34 H        4.8170     2.5970    -1.8090 H     1 <1>   0.1500 
 35 H        4.0120     1.4780     2.2220 H     1 <1>   0.1500 
 36 H       -4.9150     3.4940     0.6160 H     1 <1>   0.1500 
 37 H       -2.5880    -0.3930     2.0960 H     1 <1>   0.1500 
 38 H       -1.7620     0.0600    -2.0600 H     1 <1>   0.1500 
 39 H        6.3930     3.0080     0.8320 H     1 <1>   0.0800 
 40 H        6.6220     1.7310    -0.3410 H     1 <1>   0.0800 
 41 H        6.2940     1.3330     1.3240 H     1 <1>   0.0800 
 42 H       -1.8090    -2.7230     1.9960 H     1 <1>   0.1500 
 43 H       -0.9880    -2.2650    -2.1600 H     1 <1>   0.1500 
 44 H       -2.1900     7.4760     1.1360 H     1 <1>   0.0800 
 45 H       -1.2960     7.7350    -0.3270 H     1 <1>   0.0800 
 46 H       -1.8160     5.8070    -1.9700 H     1 <1>   0.0800 
 47 H       -1.2970     4.2670    -1.3990 H     1 <1>   0.0800 
 48 H       -1.0070    -3.6630    -0.1330 H     1 <1>   0.1500 
 49 H       -0.1380     6.3970     2.1320 H     1 <1>   0.0800 
 50 H       -0.0330     8.1000     1.8440 H     1 <1>   0.0800 
 51 H        0.3060     6.6830    -1.9630 H     1 <1>   0.0800 
 52 H        0.6460     5.0230    -2.2600 H     1 <1>   0.0800 
 53 H        2.0310     6.9450     1.2090 H     1 <1>   0.0800 
 54 H        1.3280     7.8060    -0.1180 H     1 <1>   0.0800 
 55 H        2.2360     5.5510    -0.6800 H     1 <1>   0.0800 
 56 H        1.0250     4.8220     0.3190 H     1 <1>   0.0800 
@<TRIPOS>BOND
  1   1   2  2   
  2   2   3  am  
  3   2   4  1   
  4   3   5  1   
  5   3  31  1   
  6   4   6  ar  
  7   4   7  ar  
  8   5   8  1   
  9   5   9  2   
 10   6  10  ar  
 11   6  32  1   
 12   7  11  ar  
 13   7  33  1   
 14   8  12  1   
 15   8  13  1   
 16   9  14  1   
 17   9  15  1   
 18  10  16  ar  
 19  10  34  1   
 20  11  16  ar  
 21  11  35  1   
 22  12  15  2   
 23  13  17  ar  
 24  13  18  ar  
 25  14  19  2   
 26  14  20  am  
 27  15  36  1   
 28  16  21  1   
 29  17  22  ar  
 30  17  37  1   
 31  18  23  ar  
 32  18  38  1   
 33  20  24  1   
 34  20  25  1   
 35  21  39  1   
 36  21  40  1   
 37  21  41  1   
 38  22  26  ar  
 39  22  42  1   
 40  23  26  ar  
 41  23  43  1   
 42  24  27  1   
 43  24  44  1   
 44  24  45  1   
 45  25  28  1   
 46  25  46  1   
 47  25  47  1   
 48  26  48  1   
 49  27  29  1   
 50  27  49  1   
 51  27  50  1   
 52  28  30  1   
 53  28  51  1   
 54  28  52  1   
 55  29  30  1   
 56  29  53  1   
 57  29  54  1   
 58  30  55  1   
 59  30  56  1   
@<TRIPOS>SUBSTRUCTURE
  1 ****   3 GROUP 4 **** **** 0

# MOE 2024.06 (io_trps.svl 2023.06)
