@<TRIPOS>MOLECULE
NONAME
46 46 1 0 0 
SMALL
USER_CHARGES


@<TRIPOS>ATOM
  1 O       -5.7580     7.2670    -0.0460 O.3   1 <1>  -0.3630 
  2 C       -6.9870     6.6850    -0.0070 C.ar  1 <1>   0.0830 
  3 C       -4.5770     6.5080     0.0160 C.3   1 <1>   0.1200 
  4 C       -8.0980     7.5210    -0.0810 C.ar  1 <1>  -0.1440 
  5 C       -7.1690     5.3070     0.1020 C.ar  1 <1>  -0.1500 
  6 C       -3.4010     7.4830    -0.0560 C.3   1 <1>  -0.1600 
  7 C       -9.3690     6.9720    -0.0470 C.ar  1 <1>  -0.1500 
  8 C       -7.9300     9.0290    -0.2000 C.3   1 <1>  -0.0970 
  9 C       -8.4430     4.7650     0.1380 C.ar  1 <1>  -0.1430 
 10 C       -2.0500     6.7570     0.0030 C.3   1 <1>  -0.1600 
 11 C       -9.5410     5.6030     0.0610 C.ar  1 <1>  -0.1500 
 12 C       -8.6350     3.2630     0.2540 C.3   1 <1>  -0.0970 
 13 C       -0.9010     7.7610    -0.0700 C.3   1 <1>   0.3430 
 14 N        0.3880     7.0310    -0.0090 N.4   1 <1>  -0.9060 
 15 C        1.5740     7.9000    -0.1080 C.3   1 <1>   0.4230 
 16 C        2.7770     7.0080    -0.4430 C.3   1 <1>  -0.1600 
 17 C        1.7500     8.6400     1.2190 C.3   1 <1>  -0.2400 
 18 C        4.0550     7.8020    -0.7510 C.3   1 <1>  -0.2400 
 19 H       -4.5700     5.8270    -0.8180 H     1 <1>   0.0800 
 20 H       -4.5750     5.9640     0.9460 H     1 <1>   0.0800 
 21 H       -6.3320     4.6400     0.1590 H     1 <1>   0.1500 
 22 H       -3.4820     8.1730     0.7680 H     1 <1>   0.0800 
 23 H       -3.4780     8.0390    -0.9760 H     1 <1>   0.0800 
 24 H      -10.2350     7.6070    -0.1040 H     1 <1>   0.1500 
 25 H       -7.3860     9.4010     0.6490 H     1 <1>   0.0800 
 26 H       -8.8830     9.5240    -0.2420 H     1 <1>   0.0800 
 27 H       -7.3810     9.2630    -1.0940 H     1 <1>   0.0800 
 28 H       -1.9880     6.0700    -0.8240 H     1 <1>   0.0800 
 29 H       -1.9920     6.2040     0.9250 H     1 <1>   0.0800 
 30 H      -10.5370     5.1960     0.0850 H     1 <1>   0.1500 
 31 H       -7.8520     2.8290     0.8500 H     1 <1>   0.0800 
 32 H       -8.6170     2.8180    -0.7240 H     1 <1>   0.0800 
 33 H       -9.5770     3.0390     0.7210 H     1 <1>   0.0800 
 34 H       -0.9770     8.4530     0.7530 H     1 <1>   0.0800 
 35 H       -0.9670     8.3190    -0.9910 H     1 <1>   0.0800 
 36 H        0.4240     6.3490    -0.7750 H     1 <1>   0.4500 
 37 H        0.4490     6.5000     0.8660 H     1 <1>   0.4500 
 38 H        1.4360     8.6130    -0.9070 H     1 <1>   0.0800 
 39 H        2.5490     6.4200    -1.3150 H     1 <1>   0.0800 
 40 H        2.9790     6.3350     0.3730 H     1 <1>   0.0800 
 41 H        1.9260     7.9530     2.0270 H     1 <1>   0.0800 
 42 H        0.8940     9.2490     1.4450 H     1 <1>   0.0800 
 43 H        2.5950     9.3020     1.1580 H     1 <1>   0.0800 
 44 H        3.8860     8.5140    -1.5410 H     1 <1>   0.0800 
 45 H        4.8340     7.1290    -1.0700 H     1 <1>   0.0800 
 46 H        4.4130     8.3250     0.1180 H     1 <1>   0.0800 
@<TRIPOS>BOND
  1   1   2  1   
  2   1   3  1   
  3   2   4  ar  
  4   2   5  ar  
  5   3   6  1   
  6   3  19  1   
  7   3  20  1   
  8   4   7  ar  
  9   4   8  1   
 10   5   9  ar  
 11   5  21  1   
 12   6  10  1   
 13   6  22  1   
 14   6  23  1   
 15   7  11  ar  
 16   7  24  1   
 17   8  25  1   
 18   8  26  1   
 19   8  27  1   
 20   9  11  ar  
 21   9  12  1   
 22  10  13  1   
 23  10  28  1   
 24  10  29  1   
 25  11  30  1   
 26  12  31  1   
 27  12  32  1   
 28  12  33  1   
 29  13  14  1   
 30  13  34  1   
 31  13  35  1   
 32  14  15  1   
 33  14  36  1   
 34  14  37  1   
 35  15  16  1   
 36  15  17  1   
 37  15  38  1   
 38  16  18  1   
 39  16  39  1   
 40  16  40  1   
 41  17  41  1   
 42  17  42  1   
 43  17  43  1   
 44  18  44  1   
 45  18  45  1   
 46  18  46  1   
@<TRIPOS>SUBSTRUCTURE
  1 ****   3 GROUP 4 **** **** 0

# MOE 2024.06 (io_trps.svl 2023.06)
