@<TRIPOS>MOLECULE
NONAME
38 39 1 0 0 
SMALL
USER_CHARGES


@<TRIPOS>ATOM
  1 CL       1.9740     0.9790    -1.6410 Cl    1 <1>  -0.1770 
  2 C        0.4480     0.9760    -0.7900 C.ar  1 <1>   0.1770 
  3 C       -0.1310     2.1830    -0.4060 C.ar  1 <1>   0.0540 
  4 C       -0.1400    -0.2460    -0.5190 C.ar  1 <1>  -0.1500 
  5 C       -1.3420     2.0990     0.2770 C.ar  1 <1>   0.1770 
  6 C        0.4910     3.4500    -0.6930 C.2   1 <1>   0.2350 
  7 C       -1.3460    -0.2940     0.1600 C.ar  1 <1>  -0.1500 
  8 CL      -2.1420     3.5580     0.8130 Cl    1 <1>  -0.1770 
  9 C       -1.9480     0.8880     0.5590 C.ar  1 <1>  -0.1500 
 10 N        0.1900     4.2000    -1.6980 N.2   1 <1>  -0.4100 
 11 C        1.4930     4.0560     0.0580 C.2   1 <1>  -0.0860 
 12 O        0.9090     5.2960    -1.6710 O.3   1 <1>  -0.0190 
 13 C        1.6730     5.2140    -0.6110 C.2   1 <1>  -0.0400 
 14 C        2.0980     3.5020     1.2390 C.2   1 <1>   0.7160 
 15 C        2.5740     6.3940    -0.3040 C.3   1 <1>  -0.0600 
 16 O        1.4330     2.9160     2.0650 O.2   1 <1>  -0.5700 
 17 N        3.4300     3.5690     1.4920 N.am  1 <1>  -0.7300 
 18 C        4.5210     3.6250     0.4980 C.3   1 <1>   0.2200 
 19 C        5.0090     2.2020     0.1840 C.3   1 <1>   0.1200 
 20 C        5.6310     4.5030     1.0790 C.3   1 <1>  -0.2400 
 21 O        6.0160     2.2570    -0.7790 O.3   1 <1>  -0.5600 
 22 C        6.4440     1.0090    -1.2180 C.3   1 <1>   0.0400 
 23 H        0.3440    -1.1530    -0.8370 H     1 <1>   0.1500 
 24 H       -1.8120    -1.2410     0.3760 H     1 <1>   0.1500 
 25 H       -2.8830     0.8740     1.0910 H     1 <1>   0.1500 
 26 H        3.0410     6.2780     0.6560 H     1 <1>   0.0800 
 27 H        1.9920     7.2980    -0.2920 H     1 <1>   0.0800 
 28 H        3.3330     6.4810    -1.0600 H     1 <1>   0.0800 
 29 H        3.6970     3.1880     2.4000 H     1 <1>   0.3700 
 30 H        4.1570     4.0610    -0.4170 H     1 <1>   0.0800 
 31 H        4.1980     1.6150    -0.2060 H     1 <1>   0.0800 
 32 H        5.4110     1.7360     1.0670 H     1 <1>   0.0800 
 33 H        6.0390     4.0600     1.9690 H     1 <1>   0.0800 
 34 H        5.2560     5.4840     1.3070 H     1 <1>   0.0800 
 35 H        6.4240     4.6060     0.3600 H     1 <1>   0.0800 
 36 H        7.2220     1.1590    -1.9460 H     1 <1>   0.0800 
 37 H        5.6180     0.4900    -1.6730 H     1 <1>   0.0800 
 38 H        6.8310     0.4510    -0.3840 H     1 <1>   0.0800 
@<TRIPOS>BOND
  1   1   2  1   
  2   2   3  ar  
  3   2   4  ar  
  4   3   5  ar  
  5   3   6  1   
  6   4   7  ar  
  7   4  23  1   
  8   5   8  1   
  9   5   9  ar  
 10   6  10  2   
 11   6  11  1   
 12   7   9  ar  
 13   7  24  1   
 14   9  25  1   
 15  10  12  1   
 16  11  13  2   
 17  11  14  1   
 18  12  13  1   
 19  13  15  1   
 20  14  16  2   
 21  14  17  am  
 22  15  26  1   
 23  15  27  1   
 24  15  28  1   
 25  17  18  1   
 26  17  29  1   
 27  18  19  1   
 28  18  20  1   
 29  18  30  1   
 30  19  21  1   
 31  19  31  1   
 32  19  32  1   
 33  20  33  1   
 34  20  34  1   
 35  20  35  1   
 36  21  22  1   
 37  22  36  1   
 38  22  37  1   
 39  22  38  1   
@<TRIPOS>SUBSTRUCTURE
  1 ****  11 GROUP 4 **** **** 0

# MOE 2024.06 (io_trps.svl 2023.06)
