@<TRIPOS>MOLECULE
NONAME
35 36 1 0 0 
SMALL
USER_CHARGES


@<TRIPOS>ATOM
  1 CL       0.3680     0.5100    -0.8880 Cl    1 <1>  -0.1770 
  2 C       -1.1510     1.3360    -0.6330 C.ar  1 <1>   0.1770 
  3 C       -1.3180     2.2480     0.3980 C.ar  1 <1>  -0.0090 
  4 C       -2.1720     1.0460    -1.5180 C.ar  1 <1>  -0.1500 
  5 S        0.0290     2.6450     1.5350 S.o2  1 <1>   1.4470 
  6 C       -2.5550     2.8730     0.5020 C.ar  1 <1>  -0.1500 
  7 C       -3.3890     1.6840    -1.3890 C.ar  1 <1>  -0.1500 
  8 O        0.6490     1.4350     2.0310 O.2   1 <1>  -0.6500 
  9 O       -0.3920     3.6310     2.5080 O.2   1 <1>  -0.6500 
 10 N        1.1540     3.4350     0.5410 N.am  1 <1>  -0.8490 
 11 C       -3.6100     2.6200    -0.3790 C.ar  1 <1>  -0.1790 
 12 C        2.4640     3.5280     1.1880 C.3   1 <1>   0.1960 
 13 C        0.6760     4.7550     0.1150 C.3   1 <1>   0.1960 
 14 C       -4.8870     3.3120    -0.2560 C.2   1 <1>   0.9790 
 15 C        3.4970     4.1060     0.2150 C.3   1 <1>  -0.1600 
 16 C        1.6440     5.3630    -0.9030 C.3   1 <1>  -0.1600 
 17 O       -5.0340     4.2130     0.5870 O.co2 1 <1>  -0.9000 
 18 O       -5.8380     3.0200    -0.9990 O.co2 1 <1>  -0.9000 
 19 C        3.0600     5.4760    -0.3220 C.3   1 <1>  -0.0800 
 20 C        4.0450     5.9890    -1.3780 C.3   1 <1>  -0.2400 
 21 H       -2.0130     0.3300    -2.3040 H     1 <1>   0.1500 
 22 H       -2.7220     3.5920     1.2910 H     1 <1>   0.1500 
 23 H       -4.1920     1.4680    -2.0760 H     1 <1>   0.1500 
 24 H        2.7900     2.5460     1.4910 H     1 <1>   0.0800 
 25 H        2.3930     4.1450     2.0690 H     1 <1>   0.0800 
 26 H        0.5850     5.4080     0.9680 H     1 <1>   0.0800 
 27 H       -0.2960     4.6630    -0.3410 H     1 <1>   0.0800 
 28 H        3.6220     3.4130    -0.5990 H     1 <1>   0.0800 
 29 H        4.4420     4.1960     0.7190 H     1 <1>   0.0800 
 30 H        1.2890     6.3370    -1.1880 H     1 <1>   0.0800 
 31 H        1.6520     4.7420    -1.7820 H     1 <1>   0.0800 
 32 H        3.0400     6.1750     0.4980 H     1 <1>   0.0800 
 33 H        4.0920     5.3130    -2.2130 H     1 <1>   0.0800 
 34 H        5.0300     6.0800    -0.9550 H     1 <1>   0.0800 
 35 H        3.7390     6.9560    -1.7350 H     1 <1>   0.0800 
@<TRIPOS>BOND
  1   1   2  1   
  2   2   3  ar  
  3   2   4  ar  
  4   3   5  1   
  5   3   6  ar  
  6   4   7  ar  
  7   4  21  1   
  8   5   8  2   
  9   5   9  2   
 10   5  10  am  
 11   6  11  ar  
 12   6  22  1   
 13   7  11  ar  
 14   7  23  1   
 15  10  12  1   
 16  10  13  1   
 17  11  14  1   
 18  12  15  1   
 19  12  24  1   
 20  12  25  1   
 21  13  16  1   
 22  13  26  1   
 23  13  27  1   
 24  14  17  ar  
 25  14  18  ar  
 26  15  19  1   
 27  15  28  1   
 28  15  29  1   
 29  16  19  1   
 30  16  30  1   
 31  16  31  1   
 32  19  20  1   
 33  19  32  1   
 34  20  33  1   
 35  20  34  1   
 36  20  35  1   
@<TRIPOS>SUBSTRUCTURE
  1 ****   3 GROUP 4 **** **** 0

# MOE 2024.06 (io_trps.svl 2023.06)
