@<TRIPOS>MOLECULE
NONAME
44 45 1 0 0 
SMALL
USER_CHARGES


@<TRIPOS>ATOM
  1 O        0.0160    -0.2520     1.0760 O.2   1 <1>  -0.5700 
  2 C        0.0270     0.8990     0.7200 C.2   1 <1>   0.5690 
  3 N        1.0880     1.4500     0.0880 N.am  1 <1>  -0.7300 
  4 C       -1.1880     1.7610     0.9730 C.3   1 <1>  -0.0990 
  5 C        2.3660     0.7740    -0.1370 C.3   1 <1>   0.3640 
  6 C       -2.1970     1.6320    -0.1720 C.3   1 <1>  -0.0160 
  7 C        3.4560     1.8390    -0.1640 C.ar  1 <1>  -0.1440 
  8 C        2.2940    -0.0130    -1.4440 C.3   1 <1>  -0.2400 
  9 C       -3.3880     2.5450     0.0670 C.ar  1 <1>  -0.1440 
 10 C        4.4300     1.8510     0.8230 C.ar  1 <1>  -0.1500 
 11 C        3.4960     2.8120    -1.1520 C.ar  1 <1>  -0.1500 
 12 C       -3.4150     3.8220    -0.4730 C.ar  1 <1>  -0.1500 
 13 C       -4.4560     2.1090     0.8350 C.ar  1 <1>  -0.1500 
 14 C        5.4310     2.8100     0.8340 C.ar  1 <1>  -0.1440 
 15 C        4.4910     3.7720    -1.1490 C.ar  1 <1>  -0.1500 
 16 C       -4.4980     4.6530    -0.2490 C.ar  1 <1>  -0.1500 
 17 C       -5.5410     2.9400     1.0600 C.ar  1 <1>  -0.1500 
 18 C        5.4630     3.7800    -0.1610 C.ar  1 <1>  -0.1440 
 19 C        6.4740     2.7760     1.9420 C.3   1 <1>  -0.0970 
 20 C       -5.5620     4.2130     0.5180 C.ar  1 <1>  -0.1500 
 21 C        6.5410     4.8540    -0.1930 C.3   1 <1>  -0.0970 
 22 H        1.1160     2.4480    -0.1160 H     1 <1>   0.3700 
 23 H       -0.8870     2.7870     1.0820 H     1 <1>   0.0800 
 24 H       -1.6460     1.4500     1.8940 H     1 <1>   0.0800 
 25 H        2.5480     0.0870     0.6730 H     1 <1>   0.0800 
 26 H       -2.5300     0.6110    -0.2450 H     1 <1>   0.0800 
 27 H       -1.7260     1.8870    -1.1050 H     1 <1>   0.0800 
 28 H        2.0310     0.6240    -2.2670 H     1 <1>   0.0800 
 29 H        1.5620    -0.7960    -1.3540 H     1 <1>   0.0800 
 30 H        3.2490    -0.4620    -1.6450 H     1 <1>   0.0800 
 31 H        4.4050     1.1030     1.5960 H     1 <1>   0.1500 
 32 H        2.7550     2.8300    -1.9310 H     1 <1>   0.1500 
 33 H       -2.5930     4.1750    -1.0710 H     1 <1>   0.1500 
 34 H       -4.4480     1.1210     1.2610 H     1 <1>   0.1500 
 35 H        4.5040     4.5160    -1.9260 H     1 <1>   0.1500 
 36 H       -4.5140     5.6430    -0.6710 H     1 <1>   0.1500 
 37 H       -6.3670     2.5950     1.6570 H     1 <1>   0.1500 
 38 H        6.2910     1.9630     2.6220 H     1 <1>   0.0800 
 39 H        6.4480     3.6940     2.5010 H     1 <1>   0.0800 
 40 H        7.4540     2.6480     1.5210 H     1 <1>   0.0800 
 41 H       -6.4040     4.8580     0.6930 H     1 <1>   0.1500 
 42 H        7.5110     4.3980    -0.2740 H     1 <1>   0.0800 
 43 H        6.5020     5.4420     0.7060 H     1 <1>   0.0800 
 44 H        6.4070     5.5110    -1.0320 H     1 <1>   0.0800 
@<TRIPOS>BOND
  1   1   2  2   
  2   2   3  am  
  3   2   4  1   
  4   3   5  1   
  5   3  22  1   
  6   4   6  1   
  7   4  23  1   
  8   4  24  1   
  9   5   7  1   
 10   5   8  1   
 11   5  25  1   
 12   6   9  1   
 13   6  26  1   
 14   6  27  1   
 15   7  10  ar  
 16   7  11  ar  
 17   8  28  1   
 18   8  29  1   
 19   8  30  1   
 20   9  12  ar  
 21   9  13  ar  
 22  10  14  ar  
 23  10  31  1   
 24  11  15  ar  
 25  11  32  1   
 26  12  16  ar  
 27  12  33  1   
 28  13  17  ar  
 29  13  34  1   
 30  14  18  ar  
 31  14  19  1   
 32  15  18  ar  
 33  15  35  1   
 34  16  20  ar  
 35  16  36  1   
 36  17  20  ar  
 37  17  37  1   
 38  18  21  1   
 39  19  38  1   
 40  19  39  1   
 41  19  40  1   
 42  20  41  1   
 43  21  42  1   
 44  21  43  1   
 45  21  44  1   
@<TRIPOS>SUBSTRUCTURE
  1 ****   3 GROUP 4 **** **** 0

# MOE 2024.06 (io_trps.svl 2023.06)
