@<TRIPOS>MOLECULE
NONAME
33 34 1 0 0 
SMALL
USER_CHARGES


@<TRIPOS>ATOM
  1 S        0.0090    -0.2670     0.2580 S.o2  1 <1>   1.4970 
  2 O        0.0610    -0.8930     1.5620 O.2   1 <1>  -0.6500 
  3 O        0.3950    -0.9850    -0.9390 O.2   1 <1>  -0.6500 
  4 N        0.7890     1.2200     0.3090 N.2   1 <1>  -0.6380 
  5 C       -1.5990     0.4620     0.0150 C.ar  1 <1>  -0.0090 
  6 C       -0.0370     2.1710     0.1330 C.2   1 <1>   0.4140 
  7 C       -1.4430     1.8270    -0.0120 C.ar  1 <1>   0.0860 
  8 C       -2.8450    -0.1290    -0.1180 C.ar  1 <1>  -0.1500 
  9 N        0.4130     3.4770     0.0840 N.pl3 1 <1>  -0.7880 
 10 C       -2.5720     2.6330    -0.1390 C.ar  1 <1>  -0.1500 
 11 C       -3.9620     0.6760    -0.2670 C.ar  1 <1>  -0.1500 
 12 C        1.7180     3.8360     0.7650 C.3   1 <1>   0.2700 
 13 C        0.0300     4.3750    -1.0460 C.3   1 <1>   0.1290 
 14 C       -3.8240     2.0560    -0.2730 C.ar  1 <1>  -0.1500 
 15 C        2.9820     3.6660    -0.0870 C.2   1 <1>   0.6590 
 16 O        3.3170     4.5010    -0.8920 O.2   1 <1>  -0.5700 
 17 O        3.7000     2.5680     0.1310 O.3   1 <1>  -0.4300 
 18 C        4.8700     2.2560    -0.5900 C.3   1 <1>   0.1200 
 19 C        6.0640     2.9170     0.0950 C.3   1 <1>  -0.2400 
 20 H       -2.9400    -1.2020    -0.1020 H     1 <1>   0.1500 
 21 H       -2.4730     3.7030    -0.1270 H     1 <1>   0.1500 
 22 H       -4.9380     0.2310    -0.3730 H     1 <1>   0.1500 
 23 H        1.8310     3.2350     1.6500 H     1 <1>   0.0800 
 24 H        1.6690     4.8610     1.0810 H     1 <1>   0.0800 
 25 H       -0.6630     3.8820    -1.7060 H     1 <1>   0.0800 
 26 H        0.8960     4.6480    -1.6230 H     1 <1>   0.0800 
 27 H       -0.4260     5.2700    -0.6600 H     1 <1>   0.0800 
 28 H       -4.6960     2.6800    -0.3770 H     1 <1>   0.1500 
 29 H        4.7600     2.5920    -1.6080 H     1 <1>   0.0800 
 30 H        4.9770     1.1850    -0.5850 H     1 <1>   0.0800 
 31 H        5.9600     3.9870     0.0750 H     1 <1>   0.0800 
 32 H        6.9680     2.6550    -0.4250 H     1 <1>   0.0800 
 33 H        6.1430     2.5780     1.1120 H     1 <1>   0.0800 
@<TRIPOS>BOND
  1   1   2  2   
  2   1   3  2   
  3   1   4  1   
  4   1   5  1   
  5   4   6  2   
  6   5   7  ar  
  7   5   8  ar  
  8   6   7  1   
  9   6   9  1   
 10   7  10  ar  
 11   8  11  ar  
 12   8  20  1   
 13   9  12  1   
 14   9  13  1   
 15  10  14  ar  
 16  10  21  1   
 17  11  14  ar  
 18  11  22  1   
 19  12  15  1   
 20  12  23  1   
 21  12  24  1   
 22  13  25  1   
 23  13  26  1   
 24  13  27  1   
 25  14  28  1   
 26  15  16  2   
 27  15  17  1   
 28  17  18  1   
 29  18  19  1   
 30  18  29  1   
 31  18  30  1   
 32  19  31  1   
 33  19  32  1   
 34  19  33  1   
@<TRIPOS>SUBSTRUCTURE
  1 ****   6 GROUP 4 **** **** 0

# MOE 2024.06 (io_trps.svl 2023.06)
