@<TRIPOS>MOLECULE
NONAME
48 49 1 0 0 
SMALL
USER_CHARGES


@<TRIPOS>ATOM
  1 O       -0.2670    -0.6740     0.9970 O.3   1 <1>  -0.3630 
  2 C       -1.4580    -1.1490     0.5560 C.ar  1 <1>   0.0830 
  3 C        0.2440    -1.0300     2.2620 C.3   1 <1>   0.0400 
  4 C       -1.8500    -0.7650    -0.7150 C.ar  1 <1>  -0.1500 
  5 C       -2.2840    -1.9860     1.3000 C.ar  1 <1>  -0.1500 
  6 C       -3.0520    -1.2000    -1.2430 C.ar  1 <1>  -0.1500 
  7 C       -3.4870    -2.4200     0.7720 C.ar  1 <1>  -0.1500 
  8 C       -3.8810    -2.0260    -0.4990 C.ar  1 <1>  -0.1430 
  9 C       -5.2120    -2.4920    -1.0660 C.3   1 <1>  -0.0170 
 10 C       -6.3750    -1.6930    -0.4580 C.3   1 <1>   0.4230 
 11 N       -7.6600    -2.2810    -0.9010 N.4   1 <1>  -0.9060 
 12 C       -6.3440    -0.2210    -0.8750 C.3   1 <1>  -0.2400 
 13 C       -8.8240    -1.8420    -0.0790 C.3   1 <1>   0.3430 
 14 C      -10.1110    -2.5060    -0.5680 C.3   1 <1>  -0.0220 
 15 C      -11.3320    -2.0730     0.2330 C.2   1 <1>  -0.2760 
 16 C      -11.3230    -1.2340     1.2790 C.2   1 <1>  -0.2880 
 17 C      -12.6240    -2.7030    -0.2880 C.3   1 <1>  -0.0220 
 18 C      -12.5670    -0.7970     2.0400 C.3   1 <1>  -0.0220 
 19 C      -13.7840    -2.5610     0.7070 C.3   1 <1>  -0.1600 
 20 C      -13.8500    -1.1390     1.2740 C.3   1 <1>  -0.1600 
 21 H        1.1970    -0.5490     2.3840 H     1 <1>   0.0800 
 22 H        0.3660    -2.0980     2.3010 H     1 <1>   0.0800 
 23 H       -0.4370    -0.6900     3.0220 H     1 <1>   0.0800 
 24 H       -1.2030    -0.1230    -1.2860 H     1 <1>   0.1500 
 25 H       -2.0040    -2.3060     2.2850 H     1 <1>   0.1500 
 26 H       -3.3260    -0.8860    -2.2350 H     1 <1>   0.1500 
 27 H       -4.1050    -3.0720     1.3640 H     1 <1>   0.1500 
 28 H       -5.3230    -3.5360    -0.8340 H     1 <1>   0.0800 
 29 H       -5.2040    -2.3850    -2.1370 H     1 <1>   0.0800 
 30 H       -6.3010    -1.7580     0.6170 H     1 <1>   0.0800 
 31 H       -7.5950    -3.3040    -0.8570 H     1 <1>   0.4500 
 32 H       -7.8180    -2.0260    -1.8820 H     1 <1>   0.4500 
 33 H       -6.3910    -0.1160    -1.9450 H     1 <1>   0.0800 
 34 H       -5.4260     0.2310    -0.5410 H     1 <1>   0.0800 
 35 H       -7.1450     0.3360    -0.4240 H     1 <1>   0.0800 
 36 H       -8.9420    -0.7720    -0.1420 H     1 <1>   0.0800 
 37 H       -8.6660    -2.1030     0.9550 H     1 <1>   0.0800 
 38 H      -10.0130    -3.5750    -0.4890 H     1 <1>   0.0800 
 39 H      -10.2750    -2.2460    -1.6000 H     1 <1>   0.0800 
 40 H      -10.4440    -0.7780     1.6980 H     1 <1>   0.1500 
 41 H      -12.4770    -3.7520    -0.4820 H     1 <1>   0.0800 
 42 H      -12.8940    -2.2290    -1.2160 H     1 <1>   0.0800 
 43 H      -12.5360     0.2650     2.2100 H     1 <1>   0.0800 
 44 H      -12.5780    -1.2870     2.9990 H     1 <1>   0.0800 
 45 H      -13.6430    -3.2550     1.5170 H     1 <1>   0.0800 
 46 H      -14.7110    -2.8050     0.2180 H     1 <1>   0.0800 
 47 H      -13.9750    -0.4420     0.4630 H     1 <1>   0.0800 
 48 H      -14.6980    -1.0420     1.9290 H     1 <1>   0.0800 
@<TRIPOS>BOND
  1   1   2  1   
  2   1   3  1   
  3   2   4  ar  
  4   2   5  ar  
  5   3  21  1   
  6   3  22  1   
  7   3  23  1   
  8   4   6  ar  
  9   4  24  1   
 10   5   7  ar  
 11   5  25  1   
 12   6   8  ar  
 13   6  26  1   
 14   7   8  ar  
 15   7  27  1   
 16   8   9  1   
 17   9  10  1   
 18   9  28  1   
 19   9  29  1   
 20  10  11  1   
 21  10  12  1   
 22  10  30  1   
 23  11  13  1   
 24  11  31  1   
 25  11  32  1   
 26  12  33  1   
 27  12  34  1   
 28  12  35  1   
 29  13  14  1   
 30  13  36  1   
 31  13  37  1   
 32  14  15  1   
 33  14  38  1   
 34  14  39  1   
 35  15  16  2   
 36  15  17  1   
 37  16  18  1   
 38  16  40  1   
 39  17  19  1   
 40  17  41  1   
 41  17  42  1   
 42  18  20  1   
 43  18  43  1   
 44  18  44  1   
 45  19  20  1   
 46  19  45  1   
 47  19  46  1   
 48  20  47  1   
 49  20  48  1   
@<TRIPOS>SUBSTRUCTURE
  1 ****  10 GROUP 4 **** **** 0

# MOE 2024.06 (io_trps.svl 2023.06)
