@<TRIPOS>MOLECULE
NONAME
38 39 1 0 0 
SMALL
USER_CHARGES


@<TRIPOS>ATOM
  1 O       -1.3060     1.4350     2.2380 O.2   1 <1>  -0.5700 
  2 C       -0.8090     1.7680     1.1930 C.2   1 <1>   0.5690 
  3 N       -1.4460     1.6890    -0.0130 N.am  1 <1>  -0.5470 
  4 C        0.5940     2.3210     1.2030 C.3   1 <1>  -0.1790 
  5 C       -2.7230     1.2000    -0.3190 C.ar  1 <1>   0.1170 
  6 C       -3.3310     0.1900     0.4180 C.ar  1 <1>  -0.1500 
  7 C       -3.4100     1.7250    -1.4060 C.ar  1 <1>  -0.1500 
  8 C       -4.5930    -0.2690     0.0930 C.ar  1 <1>  -0.1500 
  9 C       -4.6750     1.2720    -1.7360 C.ar  1 <1>  -0.1500 
 10 C       -5.2800     0.2760    -0.9820 C.ar  1 <1>  -0.1430 
 11 C       -6.6790    -0.2030    -1.3190 C.3   1 <1>   0.4860 
 12 N       -7.6170     0.2810    -0.2700 N.4   1 <1>  -0.9590 
 13 C       -8.9680    -0.3310    -0.4180 C.3   1 <1>   0.3430 
 14 C       -7.6720     1.7740    -0.2230 C.3   1 <1>   0.3430 
 15 C       -9.8520     0.0800     0.7610 C.3   1 <1>  -0.1600 
 16 C       -8.5360     2.2210     0.9570 C.3   1 <1>  -0.1600 
 17 C       -9.9400     1.6050     0.9020 C.3   1 <1>  -0.1600 
 18 H       -0.9310     2.0820    -0.7980 H     1 <1>   0.3700 
 19 H        0.5860     3.3440     0.8770 H     1 <1>   0.0800 
 20 H        1.2220     1.7390     0.5560 H     1 <1>   0.0800 
 21 H        0.9920     2.2790     2.2010 H     1 <1>   0.0800 
 22 H       -2.8100    -0.2440     1.2540 H     1 <1>   0.1500 
 23 H       -2.9530     2.5000    -1.9950 H     1 <1>   0.1500 
 24 H       -5.0230    -1.0560     0.6900 H     1 <1>   0.1500 
 25 H       -5.1770     1.7060    -2.5850 H     1 <1>   0.1500 
 26 H       -6.6840    -1.2800    -1.3530 H     1 <1>   0.0800 
 27 H       -6.9750     0.1710    -2.2860 H     1 <1>   0.0800 
 28 H       -7.2260    -0.0160     0.6320 H     1 <1>   0.4500 
 29 H       -8.8880    -1.4060    -0.4470 H     1 <1>   0.0800 
 30 H       -9.4210     0.0030    -1.3370 H     1 <1>   0.0800 
 31 H       -8.0900     2.1540    -1.1410 H     1 <1>   0.0800 
 32 H       -6.6780     2.1790    -0.1080 H     1 <1>   0.0800 
 33 H       -9.4620    -0.3500     1.6680 H     1 <1>   0.0800 
 34 H      -10.8410    -0.3210     0.6170 H     1 <1>   0.0800 
 35 H       -8.6170     3.2940     0.9450 H     1 <1>   0.0800 
 36 H       -8.0500     1.9480     1.8770 H     1 <1>   0.0800 
 37 H      -10.4860     1.8600     1.7960 H     1 <1>   0.0800 
 38 H      -10.4800     2.0140     0.0630 H     1 <1>   0.0800 
@<TRIPOS>BOND
  1   1   2  2   
  2   2   3  am  
  3   2   4  1   
  4   3   5  1   
  5   3  18  1   
  6   4  19  1   
  7   4  20  1   
  8   4  21  1   
  9   5   6  ar  
 10   5   7  ar  
 11   6   8  ar  
 12   6  22  1   
 13   7   9  ar  
 14   7  23  1   
 15   8  10  ar  
 16   8  24  1   
 17   9  10  ar  
 18   9  25  1   
 19  10  11  1   
 20  11  12  1   
 21  11  26  1   
 22  11  27  1   
 23  12  13  1   
 24  12  14  1   
 25  12  28  1   
 26  13  15  1   
 27  13  29  1   
 28  13  30  1   
 29  14  16  1   
 30  14  31  1   
 31  14  32  1   
 32  15  17  1   
 33  15  33  1   
 34  15  34  1   
 35  16  17  1   
 36  16  35  1   
 37  16  36  1   
 38  17  37  1   
 39  17  38  1   
@<TRIPOS>SUBSTRUCTURE
  1 ****  10 GROUP 4 **** **** 0

# MOE 2024.06 (io_trps.svl 2023.06)
