@<TRIPOS>MOLECULE
NONAME
33 34 1 0 0 
SMALL
USER_CHARGES


@<TRIPOS>ATOM
  1 O       -1.8020     3.5260     2.2770 O.2   1 <1>  -0.5700 
  2 C       -1.4360     2.9420     1.2830 C.2   1 <1>   0.5690 
  3 N       -2.0250     1.7640     0.8910 N.am  1 <1>  -0.6600 
  4 C       -0.3060     3.5820     0.4820 C.3   1 <1>   0.0440 
  5 C       -3.0890     1.1160     1.7150 C.3   1 <1>   0.1400 
  6 C       -1.6150     0.9400    -0.2870 C.3   1 <1>   0.1400 
  7 C        0.9430     2.7030     0.3350 C.ar  1 <1>  -0.1440 
  8 C       -4.2330     0.6010     0.8270 C.3   1 <1>   0.1200 
  9 C       -2.8440     0.4220    -1.0530 C.3   1 <1>   0.1200 
 10 C        1.6620     2.6180    -0.8570 C.ar  1 <1>  -0.1440 
 11 C        1.3680     1.9710     1.4360 C.ar  1 <1>  -0.1500 
 12 O       -3.7380    -0.2220    -0.1910 O.3   1 <1>  -0.5600 
 13 C        2.7730     1.7890    -0.9270 C.ar  1 <1>  -0.1500 
 14 C        1.2810     3.4130    -2.0990 C.3   1 <1>  -0.0970 
 15 C        2.4770     1.1490     1.3580 C.ar  1 <1>  -0.1500 
 16 C        3.1790     1.0550     0.1720 C.ar  1 <1>  -0.1500 
 17 H       -0.0160     4.4930     0.9720 H     1 <1>   0.0800 
 18 H       -0.7140     3.8510    -0.4710 H     1 <1>   0.0800 
 19 H       -3.4880     1.8110     2.4330 H     1 <1>   0.0800 
 20 H       -2.6620     0.2900     2.2560 H     1 <1>   0.0800 
 21 H       -1.0320     0.1020     0.0550 H     1 <1>   0.0800 
 22 H       -1.0070     1.5090    -0.9640 H     1 <1>   0.0800 
 23 H       -4.7640     1.4240     0.3810 H     1 <1>   0.0800 
 24 H       -4.9240     0.0210     1.4130 H     1 <1>   0.0800 
 25 H       -2.5420    -0.2890    -1.8010 H     1 <1>   0.0800 
 26 H       -3.3590     1.2340    -1.5360 H     1 <1>   0.0800 
 27 H        0.8360     2.0340     2.3700 H     1 <1>   0.1500 
 28 H        3.3350     1.7090    -1.8400 H     1 <1>   0.1500 
 29 H        2.0290     3.3130    -2.8650 H     1 <1>   0.0800 
 30 H        0.3460     3.0600    -2.4930 H     1 <1>   0.0800 
 31 H        1.1940     4.4570    -1.8570 H     1 <1>   0.0800 
 32 H        2.7910     0.5860     2.2180 H     1 <1>   0.1500 
 33 H        4.0420     0.4160     0.1060 H     1 <1>   0.1500 
@<TRIPOS>BOND
  1   1   2  2   
  2   2   3  am  
  3   2   4  1   
  4   3   5  1   
  5   3   6  1   
  6   4   7  1   
  7   4  17  1   
  8   4  18  1   
  9   5   8  1   
 10   5  19  1   
 11   5  20  1   
 12   6   9  1   
 13   6  21  1   
 14   6  22  1   
 15   7  10  ar  
 16   7  11  ar  
 17   8  12  1   
 18   8  23  1   
 19   8  24  1   
 20   9  12  1   
 21   9  25  1   
 22   9  26  1   
 23  10  13  ar  
 24  10  14  1   
 25  11  15  ar  
 26  11  27  1   
 27  13  16  ar  
 28  13  28  1   
 29  14  29  1   
 30  14  30  1   
 31  14  31  1   
 32  15  16  ar  
 33  15  32  1   
 34  16  33  1   
@<TRIPOS>SUBSTRUCTURE
  1 ****   6 GROUP 4 **** **** 0

# MOE 2024.06 (io_trps.svl 2023.06)
