@<TRIPOS>MOLECULE
NONAME
51 53 1 0 0 
SMALL
USER_CHARGES


@<TRIPOS>ATOM
  1 O       -5.3770    -8.8760    -0.8620 O.3   1 <1>  -0.3630 
  2 C       -6.5660    -8.3950    -0.4470 C.ar  1 <1>   0.0830 
  3 C       -4.1790    -8.3830    -0.2800 C.3   1 <1>   0.1200 
  4 C       -7.3670    -7.7390    -1.3410 C.ar  1 <1>  -0.1500 
  5 C       -6.9750    -8.5540     0.8850 C.ar  1 <1>  -0.1500 
  6 C       -4.0740    -6.8530    -0.4520 C.3   1 <1>   0.2000 
  7 C       -8.5790    -7.1490    -0.9360 C.ar  1 <1>   0.0000 
  8 C       -8.1530    -7.9970     1.3020 C.ar  1 <1>  -0.1500 
  9 O       -2.7560    -6.5090    -0.7490 O.3   1 <1>  -0.6800 
 10 C       -4.5370    -6.0650     0.8010 C.3   1 <1>   0.1100 
 11 C       -8.9730    -7.2670     0.4150 C.ar  1 <1>   0.0000 
 12 C       -9.4060    -6.4310    -1.8240 C.ar  1 <1>  -0.1500 
 13 N       -5.0410    -4.6910     0.5520 N.3   1 <1>  -0.8100 
 14 C      -10.1700    -6.6480     0.8260 C.ar  1 <1>  -0.1500 
 15 C      -10.5610    -5.8380    -1.3950 C.ar  1 <1>  -0.1500 
 16 C       -4.0950    -3.8190    -0.1860 C.3   1 <1>   0.1100 
 17 C       -6.3800    -4.6880    -0.0870 C.3   1 <1>   0.1100 
 18 C      -10.9460    -5.9470    -0.0540 C.ar  1 <1>  -0.1500 
 19 C       -4.6370    -2.3790    -0.3530 C.3   1 <1>   0.3430 
 20 C       -6.9360    -3.2610    -0.2950 C.3   1 <1>   0.3430 
 21 N       -5.9980    -2.2290     0.2660 N.4   1 <1>  -0.9590 
 22 C       -6.5030    -0.8230     0.2000 C.3   1 <1>   0.3430 
 23 C       -7.7330    -0.5930     1.0890 C.3   1 <1>   0.1200 
 24 O       -8.1090     0.7320     0.9550 O.3   1 <1>  -0.6800 
 25 H       -3.3720    -8.8690    -0.7990 H     1 <1>   0.0800 
 26 H       -4.1570    -8.6710     0.7550 H     1 <1>   0.0800 
 27 H       -7.0640    -7.6620    -2.3690 H     1 <1>   0.1500 
 28 H       -6.3570    -9.1180     1.5590 H     1 <1>   0.1500 
 29 H       -4.6590    -6.5730    -1.3080 H     1 <1>   0.0800 
 30 H       -8.4770    -8.1130     2.3210 H     1 <1>   0.1500 
 31 H       -2.1450    -6.8280    -0.0560 H     1 <1>   0.4000 
 32 H       -3.7240    -6.0180     1.5040 H     1 <1>   0.0800 
 33 H       -5.3240    -6.6110     1.2880 H     1 <1>   0.0800 
 34 H       -9.1120    -6.3630    -2.8570 H     1 <1>   0.1500 
 35 H      -10.4700    -6.7440     1.8550 H     1 <1>   0.1500 
 36 H      -11.1920    -5.2950    -2.0780 H     1 <1>   0.1500 
 37 H       -3.9010    -4.2260    -1.1640 H     1 <1>   0.0800 
 38 H       -3.1550    -3.7860     0.3390 H     1 <1>   0.0800 
 39 H       -7.0680    -5.2370     0.5320 H     1 <1>   0.0800 
 40 H       -6.3390    -5.1830    -1.0420 H     1 <1>   0.0800 
 41 H      -11.8640    -5.4810     0.2660 H     1 <1>   0.1500 
 42 H       -4.6800    -2.1400    -1.4020 H     1 <1>   0.0800 
 43 H       -3.9460    -1.6930     0.1100 H     1 <1>   0.0800 
 44 H       -7.8980    -3.1940     0.1850 H     1 <1>   0.0800 
 45 H       -7.0840    -3.0900    -1.3490 H     1 <1>   0.0800 
 46 H       -5.8490    -2.5270     1.2430 H     1 <1>   0.4500 
 47 H       -6.7570    -0.5780    -0.8170 H     1 <1>   0.0800 
 48 H       -5.7270    -0.1500     0.5270 H     1 <1>   0.0800 
 49 H       -7.4990    -0.7700     2.1250 H     1 <1>   0.0800 
 50 H       -8.5630    -1.2030     0.7800 H     1 <1>   0.0800 
 51 H       -8.8760     0.9540     1.5250 H     1 <1>   0.4000 
@<TRIPOS>BOND
  1   1   2  1   
  2   1   3  1   
  3   2   4  ar  
  4   2   5  ar  
  5   3   6  1   
  6   3  25  1   
  7   3  26  1   
  8   4   7  ar  
  9   4  27  1   
 10   5   8  ar  
 11   5  28  1   
 12   6   9  1   
 13   6  10  1   
 14   6  29  1   
 15   7  11  ar  
 16   7  12  ar  
 17   8  11  ar  
 18   8  30  1   
 19   9  31  1   
 20  10  13  1   
 21  10  32  1   
 22  10  33  1   
 23  11  14  ar  
 24  12  15  ar  
 25  12  34  1   
 26  13  16  1   
 27  13  17  1   
 28  14  18  ar  
 29  14  35  1   
 30  15  18  ar  
 31  15  36  1   
 32  16  19  1   
 33  16  37  1   
 34  16  38  1   
 35  17  20  1   
 36  17  39  1   
 37  17  40  1   
 38  18  41  1   
 39  19  21  1   
 40  19  42  1   
 41  19  43  1   
 42  20  21  1   
 43  20  44  1   
 44  20  45  1   
 45  21  22  1   
 46  21  46  1   
 47  22  23  1   
 48  22  47  1   
 49  22  48  1   
 50  23  24  1   
 51  23  49  1   
 52  23  50  1   
 53  24  51  1   
@<TRIPOS>SUBSTRUCTURE
  1 ****  17 GROUP 4 **** **** 0

# MOE 2024.06 (io_trps.svl 2023.06)
