@<TRIPOS>MOLECULE
Structure2315
23 24 1 0 0 
SMALL
USER_CHARGES


@<TRIPOS>ATOM
  1 CL       0.5060     0.3090     2.0010 Cl    1 <1>  -0.1770 
  2 C        1.6970     1.0260     0.9490 C.ar  1 <1>   0.1770 
  3 C        2.9390     0.4340     0.8320 C.ar  1 <1>  -0.1500 
  4 C        1.3800     2.1760     0.2510 C.ar  1 <1>  -0.1500 
  5 C        3.8920     1.0050     0.0030 C.ar  1 <1>   0.0830 
  6 C        2.3270     2.7420    -0.5860 C.ar  1 <1>  -0.1500 
  7 O        5.0970     0.3880    -0.0550 O.3   1 <1>  -0.3400 
  8 C        3.5780     2.1600    -0.7140 C.ar  1 <1>  -0.1500 
  9 C        6.2400     1.0630    -0.5410 C.3   1 <1>   0.2580 
 10 C        7.5200     0.2420    -0.2620 C.3   1 <1>   0.4720 
 11 C        6.7870     2.0870     0.4840 C.3   1 <1>   0.4720 
 12 N        8.1500     1.4710     0.3340 N.4   1 <1>  -0.8440 
 13 H        3.1570    -0.4620     1.3840 H     1 <1>   0.1500 
 14 H        0.4040     2.6160     0.3610 H     1 <1>   0.1500 
 15 H        2.0830     3.6340    -1.1400 H     1 <1>   0.1500 
 16 H        4.2780     2.6190    -1.3870 H     1 <1>   0.1500 
 17 H        6.1320     1.4010    -1.5560 H     1 <1>   0.0000 
 18 H        8.0410    -0.0790    -1.1450 H     1 <1>   0.0000 
 19 H        7.3830    -0.5190     0.4850 H     1 <1>   0.0000 
 20 H        6.4060     1.9380     1.4790 H     1 <1>   0.0000 
 21 H        6.7750     3.1050     0.1420 H     1 <1>   0.0000 
 22 H        8.7490     1.9750    -0.3290 H     1 <1>   0.4500 
 23 H        8.6120     1.2890     1.2330 H     1 <1>   0.4500 
@<TRIPOS>BOND
  1   1   2  1   
  2   2   3  ar  
  3   2   4  ar  
  4   3   5  ar  
  5   3  13  1   
  6   4   6  ar  
  7   4  14  1   
  8   5   7  1   
  9   5   8  ar  
 10   6   8  ar  
 11   6  15  1   
 12   7   9  1   
 13   8  16  1   
 14   9  10  1   
 15   9  11  1   
 16   9  17  1   
 17  10  12  1   
 18  10  18  1   
 19  10  19  1   
 20  11  12  1   
 21  11  20  1   
 22  11  21  1   
 23  12  22  1   
 24  12  23  1   
@<TRIPOS>SUBSTRUCTURE
  1 ****   5 GROUP 4 **** **** 0

# MOE 2024.06 (io_trps.svl 2023.06)
