@<TRIPOS>MOLECULE
NONAME
42 43 1 0 0 
SMALL
USER_CHARGES


@<TRIPOS>ATOM
  1 BR      -0.0610     0.8650    -0.4840 Br    1 <1>  -0.1110 
  2 C        1.7620     0.3280    -0.1760 C.ar  1 <1>   0.1110 
  3 C        2.5000    -0.1630    -1.2370 C.ar  1 <1>  -0.1500 
  4 C        2.2860     0.4470     1.0970 C.ar  1 <1>  -0.1500 
  5 C        3.8120    -0.5490    -1.0150 C.ar  1 <1>  -0.1500 
  6 C        3.5970     0.0590     1.3090 C.ar  1 <1>  -0.1500 
  7 C        4.3640    -0.4390     0.2630 C.ar  1 <1>   0.0830 
  8 O        5.6380    -0.7960     0.5640 O.3   1 <1>  -0.3630 
  9 C        6.4920    -1.3660    -0.4060 C.3   1 <1>   0.1200 
 10 C        7.8420    -1.6700     0.2550 C.3   1 <1>   0.2000 
 11 O        8.3040    -0.5170     0.8940 O.3   1 <1>  -0.6800 
 12 C        8.9070    -2.1430    -0.7590 C.3   1 <1>   0.3430 
 13 N       10.2880    -1.8800    -0.2340 N.4   1 <1>  -0.9590 
 14 C       11.3470    -1.6890    -1.2680 C.3   1 <1>   0.4230 
 15 C       10.6610    -2.8890     0.8010 C.3   1 <1>   0.3430 
 16 C       12.6600    -1.2810    -0.5840 C.3   1 <1>  -0.1600 
 17 C       10.9380    -0.6050    -2.2660 C.3   1 <1>  -0.2400 
 18 C       11.9540    -2.4770     1.5020 C.3   1 <1>  -0.1600 
 19 C       13.0920    -2.2740     0.4990 C.3   1 <1>  -0.1600 
 20 H        2.0540    -0.2390    -2.2130 H     1 <1>   0.1500 
 21 H        1.6810     0.8340     1.8980 H     1 <1>   0.1500 
 22 H        4.3760    -0.9270    -1.8450 H     1 <1>   0.1500 
 23 H        4.0310     0.1400     2.2900 H     1 <1>   0.1500 
 24 H        6.6120    -0.6600    -1.2100 H     1 <1>   0.0800 
 25 H        6.0340    -2.2680    -0.7730 H     1 <1>   0.0800 
 26 H        7.6980    -2.4260     1.0080 H     1 <1>   0.0800 
 27 H        7.5440    -0.0920     1.3570 H     1 <1>   0.4000 
 28 H        8.7500    -1.5900    -1.6670 H     1 <1>   0.0800 
 29 H        8.7750    -3.1880    -0.9840 H     1 <1>   0.0800 
 30 H       10.1820    -0.9790     0.2680 H     1 <1>   0.4500 
 31 H       11.5060    -2.6170    -1.7950 H     1 <1>   0.0800 
 32 H       10.7970    -3.8520     0.3370 H     1 <1>   0.0800 
 33 H        9.8750    -2.9700     1.5350 H     1 <1>   0.0800 
 34 H       12.5500    -0.3020    -0.1490 H     1 <1>   0.0800 
 35 H       13.4390    -1.2160    -1.3240 H     1 <1>   0.0800 
 36 H       10.6370     0.2940    -1.7580 H     1 <1>   0.0800 
 37 H       10.1500    -0.9420    -2.9130 H     1 <1>   0.0800 
 38 H       11.7750    -0.3640    -2.8990 H     1 <1>   0.0800 
 39 H       12.2310    -3.2420     2.2080 H     1 <1>   0.0800 
 40 H       11.7850    -1.5710     2.0590 H     1 <1>   0.0800 
 41 H       13.9670    -1.9040     1.0080 H     1 <1>   0.0800 
 42 H       13.3500    -3.2170     0.0460 H     1 <1>   0.0800 
@<TRIPOS>BOND
  1   1   2  1   
  2   2   3  ar  
  3   2   4  ar  
  4   3   5  ar  
  5   3  20  1   
  6   4   6  ar  
  7   4  21  1   
  8   5   7  ar  
  9   5  22  1   
 10   6   7  ar  
 11   6  23  1   
 12   7   8  1   
 13   8   9  1   
 14   9  10  1   
 15   9  24  1   
 16   9  25  1   
 17  10  11  1   
 18  10  12  1   
 19  10  26  1   
 20  11  27  1   
 21  12  13  1   
 22  12  28  1   
 23  12  29  1   
 24  13  14  1   
 25  13  15  1   
 26  13  30  1   
 27  14  16  1   
 28  14  17  1   
 29  14  31  1   
 30  15  18  1   
 31  15  32  1   
 32  15  33  1   
 33  16  19  1   
 34  16  34  1   
 35  16  35  1   
 36  17  36  1   
 37  17  37  1   
 38  17  38  1   
 39  18  19  1   
 40  18  39  1   
 41  18  40  1   
 42  19  41  1   
 43  19  42  1   
@<TRIPOS>SUBSTRUCTURE
  1 ****   9 GROUP 4 **** **** 0

# MOE 2024.06 (io_trps.svl 2023.06)
