@<TRIPOS>MOLECULE
NONAME
38 40 1 0 0 
SMALL
USER_CHARGES


@<TRIPOS>ATOM
  1 CL      -0.4870     0.6370     0.0440 Cl    1 <1>  -0.1770 
  2 C       -0.4620    -1.1050     0.1920 C.ar  1 <1>   0.1770 
  3 C        0.6430    -1.8350    -0.2140 C.ar  1 <1>   0.1770 
  4 C       -1.5650    -1.7470     0.7230 C.ar  1 <1>  -0.1500 
  5 CL       2.0460    -1.0390    -0.8880 Cl    1 <1>  -0.1770 
  6 C        0.6520    -3.2120    -0.0920 C.ar  1 <1>  -0.1500 
  7 C       -1.5690    -3.1310     0.8480 C.ar  1 <1>  -0.1440 
  8 C       -0.4550    -3.8570     0.4400 C.ar  1 <1>  -0.1500 
  9 C       -2.7800    -3.8470     1.4310 C.3   1 <1>   0.2300 
 10 N       -4.0010    -3.3730     0.7750 N.2   1 <1>  -0.6960 
 11 C       -4.7660    -4.0520     0.0360 C.2   1 <1>   0.3280 
 12 C       -5.9850    -3.4290    -0.5780 C.3   1 <1>  -0.0380 
 13 C       -4.7120    -5.5220    -0.4250 C.3   1 <1>   0.3410 
 14 C       -6.5370    -4.5570    -1.3890 C.2   1 <1>   0.6590 
 15 O       -5.8220    -5.6550    -1.2810 O.3   1 <1>  -0.4300 
 16 C       -4.9330    -6.5280     0.7230 C.3   1 <1>  -0.1600 
 17 C       -3.4540    -5.8560    -1.2660 C.3   1 <1>  -0.1600 
 18 O       -7.5230    -4.4780    -2.0660 O.2   1 <1>  -0.5700 
 19 C       -5.0280    -7.9890     0.2360 C.3   1 <1>  -0.1600 
 20 C       -2.9850    -7.3190    -1.1390 C.3   1 <1>  -0.1600 
 21 C       -4.1720    -8.2800    -1.0120 C.3   1 <1>  -0.1600 
 22 H       -2.4180    -1.1680     1.0320 H     1 <1>   0.1500 
 23 H        1.5150    -3.7690    -0.4090 H     1 <1>   0.1500 
 24 H       -0.4410    -4.9290     0.5340 H     1 <1>   0.1500 
 25 H       -2.8480    -3.6330     2.4840 H     1 <1>   0.0800 
 26 H       -2.6600    -4.9060     1.3140 H     1 <1>   0.0800 
 27 H       -5.7230    -2.6020    -1.2100 H     1 <1>   0.0800 
 28 H       -6.6880    -3.1280     0.1750 H     1 <1>   0.0800 
 29 H       -4.1120    -6.4620     1.4110 H     1 <1>   0.0800 
 30 H       -5.8210    -6.2690     1.2730 H     1 <1>   0.0800 
 31 H       -2.6370    -5.2220    -0.9810 H     1 <1>   0.0800 
 32 H       -3.6610    -5.6380    -2.3000 H     1 <1>   0.0800 
 33 H       -6.0540    -8.2200     0.0020 H     1 <1>   0.0800 
 34 H       -4.7280    -8.6410     1.0380 H     1 <1>   0.0800 
 35 H       -2.3920    -7.5830    -1.9990 H     1 <1>   0.0800 
 36 H       -2.3600    -7.4240    -0.2690 H     1 <1>   0.0800 
 37 H       -4.7880    -8.1800    -1.8900 H     1 <1>   0.0800 
 38 H       -3.8230    -9.2980    -0.9800 H     1 <1>   0.0800 
@<TRIPOS>BOND
  1   1   2  1   
  2   2   3  ar  
  3   2   4  ar  
  4   3   5  1   
  5   3   6  ar  
  6   4   7  ar  
  7   4  22  1   
  8   6   8  ar  
  9   6  23  1   
 10   7   8  ar  
 11   7   9  1   
 12   8  24  1   
 13   9  10  1   
 14   9  25  1   
 15   9  26  1   
 16  10  11  2   
 17  11  12  1   
 18  11  13  1   
 19  12  14  1   
 20  12  27  1   
 21  12  28  1   
 22  13  15  1   
 23  13  16  1   
 24  13  17  1   
 25  14  15  1   
 26  14  18  2   
 27  16  19  1   
 28  16  29  1   
 29  16  30  1   
 30  17  20  1   
 31  17  31  1   
 32  17  32  1   
 33  19  21  1   
 34  19  33  1   
 35  19  34  1   
 36  20  21  1   
 37  20  35  1   
 38  20  36  1   
 39  21  37  1   
 40  21  38  1   
@<TRIPOS>SUBSTRUCTURE
  1 ****  10 GROUP 4 **** **** 0

# MOE 2024.06 (io_trps.svl 2023.06)
