@<TRIPOS>MOLECULE
NONAME
38 40 1 0 0 
SMALL
USER_CHARGES


@<TRIPOS>ATOM
  1 BR      -0.2070    -0.0690    -0.0050 Br    1 <1>  -0.1110 
  2 C        1.5120    -0.9330    -0.0030 C.ar  1 <1>   0.1110 
  3 C        2.6470    -0.1630    -0.0010 C.ar  1 <1>  -0.1500 
  4 C        1.5500    -2.3210    -0.0040 C.ar  1 <1>  -0.1500 
  5 C        3.9110    -0.7760     0.0000 C.ar  1 <1>   0.0000 
  6 C        2.7770    -2.9420    -0.0030 C.ar  1 <1>  -0.1500 
  7 C        5.1460    -0.0410     0.0020 C.ar  1 <1>   0.1000 
  8 C        3.9610    -2.1890    -0.0010 C.ar  1 <1>   0.3610 
  9 N        5.1610     1.3200     0.0030 N.pl3 1 <1>  -0.9000 
 10 C        6.3180    -0.7600     0.0030 C.ar  1 <1>  -0.1440 
 11 N        5.1930    -2.8210     0.0010 N.ar  1 <1>  -0.1790 
 12 C        6.3420    -2.1390     0.0030 C.ar  1 <1>   0.4610 
 13 C        7.7450    -0.2490     0.0060 C.3   1 <1>  -0.0170 
 14 N        7.5890    -2.6500     0.0040 N.pl3 1 <1>  -0.8380 
 15 C        8.5860    -1.5390     0.0060 C.3   1 <1>   0.2090 
 16 C        8.1720    -4.0290     0.0040 C.3   1 <1>   0.2090 
 17 C        7.1280    -5.1490     0.0020 C.3   1 <1>  -0.1600 
 18 C        7.8030    -6.5260     0.0020 C.3   1 <1>  -0.1600 
 19 C        6.7630    -7.6500     0.0000 C.3   1 <1>  -0.2400 
 20 H        2.5560     0.9080    -0.0010 H     1 <1>   0.1500 
 21 H        0.6260    -2.8770    -0.0050 H     1 <1>   0.1500 
 22 H        2.8190    -4.0170    -0.0030 H     1 <1>   0.1500 
 23 H        6.0230     1.8760     0.0040 H     1 <1>   0.4000 
 24 H        4.3170     1.9030     0.0020 H     1 <1>   0.4000 
 25 H        5.2580    -3.8330     0.0000 H     1 <1>   0.4570 
 26 H        7.9470     0.3360     0.8850 H     1 <1>   0.0800 
 27 H        7.9490     0.3370    -0.8730 H     1 <1>   0.0800 
 28 H        9.2030    -1.5910     0.8880 H     1 <1>   0.0800 
 29 H        9.2060    -1.5900    -0.8740 H     1 <1>   0.0800 
 30 H        8.7990    -4.1370     0.8740 H     1 <1>   0.0800 
 31 H        8.8010    -4.1360    -0.8650 H     1 <1>   0.0800 
 32 H        6.5240    -5.0740    -0.8850 H     1 <1>   0.0800 
 33 H        6.5220    -5.0750     0.8870 H     1 <1>   0.0800 
 34 H        8.4280    -6.6280     0.8740 H     1 <1>   0.0800 
 35 H        8.4300    -6.6270    -0.8680 H     1 <1>   0.0800 
 36 H        6.1400    -7.5950     0.8750 H     1 <1>   0.0800 
 37 H        7.2590    -8.6050     0.0000 H     1 <1>   0.0800 
 38 H        6.1420    -7.5940    -0.8770 H     1 <1>   0.0800 
@<TRIPOS>BOND
  1   1   2  1   
  2   2   3  ar  
  3   2   4  ar  
  4   3   5  ar  
  5   3  20  1   
  6   4   6  ar  
  7   4  21  1   
  8   5   7  ar  
  9   5   8  ar  
 10   6   8  ar  
 11   6  22  1   
 12   7   9  1   
 13   7  10  ar  
 14   8  11  ar  
 15   9  23  1   
 16   9  24  1   
 17  10  12  ar  
 18  10  13  1   
 19  11  12  ar  
 20  11  25  1   
 21  12  14  1   
 22  13  15  1   
 23  13  26  1   
 24  13  27  1   
 25  14  15  1   
 26  14  16  1   
 27  15  28  1   
 28  15  29  1   
 29  16  17  1   
 30  16  30  1   
 31  16  31  1   
 32  17  18  1   
 33  17  32  1   
 34  17  33  1   
 35  18  19  1   
 36  18  34  1   
 37  18  35  1   
 38  19  36  1   
 39  19  37  1   
 40  19  38  1   
@<TRIPOS>SUBSTRUCTURE
  1 ****  11 GROUP 4 **** **** 0

# MOE 2024.06 (io_trps.svl 2023.06)
