@<TRIPOS>MOLECULE
NONAME
45 47 1 0 0 
SMALL
USER_CHARGES


@<TRIPOS>ATOM
  1 S        1.1610     0.5740     0.2090 S.o2  1 <1>   1.4470 
  2 O       -0.0560     1.2960     0.4910 O.2   1 <1>  -0.6500 
  3 O        2.3730     0.9910     0.8850 O.2   1 <1>  -0.6500 
  4 N        1.4840     0.8220    -1.4440 N.am  1 <1>  -0.8490 
  5 C        0.9150    -1.2170     0.3330 C.ar  1 <1>  -0.0090 
  6 C        1.1870     2.1980    -1.8830 C.3   1 <1>   0.1960 
  7 C        2.8320     0.3670    -1.8660 C.3   1 <1>   0.1960 
  8 C       -0.0120    -1.8680    -0.4710 C.ar  1 <1>  -0.1500 
  9 C        1.6500    -1.9850     1.2290 C.ar  1 <1>  -0.1500 
 10 C        2.2230     3.2010    -1.3260 C.3   1 <1>   0.3430 
 11 C        3.7880     1.4940    -2.3490 C.3   1 <1>   0.3430 
 12 C       -0.1930    -3.2380    -0.3940 C.ar  1 <1>  -0.1500 
 13 C        1.4740    -3.3550     1.3110 C.ar  1 <1>  -0.1500 
 14 N        3.6650     2.8060    -1.6050 N.4   1 <1>  -0.9590 
 15 C        0.5510    -3.9890     0.4990 C.ar  1 <1>  -0.1430 
 16 C        4.4860     2.8000    -0.3510 C.3   1 <1>   0.4860 
 17 C        0.3560    -5.4920     0.5860 C.3   1 <1>  -0.0970 
 18 C        4.3740     4.1400     0.3450 C.ar  1 <1>  -0.1430 
 19 C        5.0470     5.2490    -0.1460 C.ar  1 <1>   0.1600 
 20 C        3.5960     4.2800     1.4790 C.ar  1 <1>  -0.1500 
 21 N        4.9830     6.4590     0.3750 N.ar  1 <1>  -0.6200 
 22 C        3.5310     5.5370     2.0410 C.ar  1 <1>  -0.1500 
 23 C        4.2310     6.5790     1.4580 C.ar  1 <1>   0.1600 
 24 H        0.1970     2.4890    -1.5710 H     1 <1>   0.0800 
 25 H        1.1910     2.2390    -2.9590 H     1 <1>   0.0800 
 26 H        2.7090    -0.3320    -2.6770 H     1 <1>   0.0800 
 27 H        3.3120    -0.1820    -1.0730 H     1 <1>   0.0800 
 28 H       -0.6030    -1.2980    -1.1680 H     1 <1>   0.1500 
 29 H        2.3700    -1.5100     1.8750 H     1 <1>   0.1500 
 30 H        2.0630     3.2740    -0.2630 H     1 <1>   0.0800 
 31 H        2.0270     4.1760    -1.7410 H     1 <1>   0.0800 
 32 H        3.5600     1.6730    -3.3870 H     1 <1>   0.0800 
 33 H        4.8050     1.1380    -2.3120 H     1 <1>   0.0800 
 34 H       -0.9170    -3.7170    -1.0300 H     1 <1>   0.1500 
 35 H        2.0580    -3.9270     2.0130 H     1 <1>   0.1500 
 36 H        4.0610     3.5470    -2.1950 H     1 <1>   0.4500 
 37 H        5.5210     2.6140    -0.5900 H     1 <1>   0.0800 
 38 H        4.1610     2.0220     0.3160 H     1 <1>   0.0800 
 39 H       -0.6570    -5.7550     0.3390 H     1 <1>   0.0800 
 40 H        0.5610    -5.8410     1.5830 H     1 <1>   0.0800 
 41 H        1.0200    -5.9870    -0.0990 H     1 <1>   0.0800 
 42 H        5.6750     5.1490    -1.0150 H     1 <1>   0.1500 
 43 H        3.0600     3.4530     1.9200 H     1 <1>   0.1500 
 44 H        2.9450     5.7130     2.9260 H     1 <1>   0.1500 
 45 H        4.1720     7.5580     1.9040 H     1 <1>   0.1500 
@<TRIPOS>BOND
  1   1   2  2   
  2   1   3  2   
  3   1   4  am  
  4   1   5  1   
  5   4   6  1   
  6   4   7  1   
  7   5   8  ar  
  8   5   9  ar  
  9   6  10  1   
 10   6  24  1   
 11   6  25  1   
 12   7  11  1   
 13   7  26  1   
 14   7  27  1   
 15   8  12  ar  
 16   8  28  1   
 17   9  13  ar  
 18   9  29  1   
 19  10  14  1   
 20  10  30  1   
 21  10  31  1   
 22  11  14  1   
 23  11  32  1   
 24  11  33  1   
 25  12  15  ar  
 26  12  34  1   
 27  13  15  ar  
 28  13  35  1   
 29  14  16  1   
 30  14  36  1   
 31  15  17  1   
 32  16  18  1   
 33  16  37  1   
 34  16  38  1   
 35  17  39  1   
 36  17  40  1   
 37  17  41  1   
 38  18  19  ar  
 39  18  20  ar  
 40  19  21  ar  
 41  19  42  1   
 42  20  22  ar  
 43  20  43  1   
 44  21  23  ar  
 45  22  23  ar  
 46  22  44  1   
 47  23  45  1   
@<TRIPOS>SUBSTRUCTURE
  1 ****   3 GROUP 4 **** **** 0

# MOE 2024.06 (io_trps.svl 2023.06)
