@<TRIPOS>MOLECULE
NONAME
37 38 1 0 0 
SMALL
USER_CHARGES


@<TRIPOS>ATOM
  1 S       -0.1850     0.2120    -0.1180 S.o2  1 <1>   1.4470 
  2 O       -0.2660     0.9990     1.0880 O.2   1 <1>  -0.6500 
  3 O       -0.4470     0.8090    -1.4070 O.2   1 <1>  -0.6500 
  4 N       -1.3720    -0.9480     0.1340 N.am  1 <1>  -0.9140 
  5 C        1.3490    -0.7410    -0.1770 C.ar  1 <1>  -0.0090 
  6 C       -2.6630    -0.5680    -0.4070 C.3   1 <1>   0.1960 
  7 C        2.5730    -0.0910    -0.0990 C.ar  1 <1>   0.1900 
  8 C        1.3800    -2.1260    -0.3240 C.ar  1 <1>  -0.1500 
  9 C       -3.6830    -1.6340    -0.0230 C.3   1 <1>  -0.1600 
 10 F        2.5940     1.2090     0.0210 F     1 <1>  -0.1900 
 11 C        3.7940    -0.7440    -0.1450 C.ar  1 <1>  -0.1500 
 12 C        2.5970    -2.7830    -0.3690 C.ar  1 <1>   0.1900 
 13 C       -5.0540    -1.3020    -0.6100 C.3   1 <1>   0.1400 
 14 C        3.8090    -2.1220    -0.2810 C.ar  1 <1>  -0.1500 
 15 F        2.6020    -4.0810    -0.5020 F     1 <1>  -0.1900 
 16 N       -6.0340    -2.3150    -0.1670 N.am  1 <1>  -0.6600 
 17 C       -6.9070    -2.1570     0.8530 C.2   1 <1>   0.5690 
 18 C       -6.2020    -3.5940    -0.8750 C.3   1 <1>   0.1400 
 19 O       -6.9800    -1.1950     1.5780 O.2   1 <1>  -0.5700 
 20 C       -7.8040    -3.3560     0.9780 C.3   1 <1>  -0.0990 
 21 C       -7.1880    -4.3770     0.0050 C.3   1 <1>  -0.1600 
 22 H       -1.4730    -0.9440     1.1490 H     1 <1>   0.4200 
 23 H       -2.5990    -0.4960    -1.4820 H     1 <1>   0.0800 
 24 H       -2.9600     0.3930    -0.0140 H     1 <1>   0.0800 
 25 H        0.4720    -2.6980    -0.4050 H     1 <1>   0.1500 
 26 H       -3.7680    -1.6770     1.0490 H     1 <1>   0.0800 
 27 H       -3.3570    -2.5880    -0.3960 H     1 <1>   0.0800 
 28 H        4.7100    -0.1820    -0.0760 H     1 <1>   0.1500 
 29 H       -5.0150    -1.2850    -1.6860 H     1 <1>   0.0800 
 30 H       -5.3740    -0.3320    -0.2660 H     1 <1>   0.0800 
 31 H        4.7320    -2.6730    -0.3210 H     1 <1>   0.1500 
 32 H       -5.2610    -4.1100    -0.9630 H     1 <1>   0.0800 
 33 H       -6.6170    -3.4120    -1.8520 H     1 <1>   0.0800 
 34 H       -8.7970    -3.0790     0.6770 H     1 <1>   0.0800 
 35 H       -7.8120    -3.7180     1.9900 H     1 <1>   0.0800 
 36 H       -6.6440    -5.1220     0.5590 H     1 <1>   0.0800 
 37 H       -7.9380    -4.8690    -0.5890 H     1 <1>   0.0800 
@<TRIPOS>BOND
  1   1   2  2   
  2   1   3  2   
  3   1   4  am  
  4   1   5  1   
  5   4   6  1   
  6   4  22  1   
  7   5   7  ar  
  8   5   8  ar  
  9   6   9  1   
 10   6  23  1   
 11   6  24  1   
 12   7  10  1   
 13   7  11  ar  
 14   8  12  ar  
 15   8  25  1   
 16   9  13  1   
 17   9  26  1   
 18   9  27  1   
 19  11  14  ar  
 20  11  28  1   
 21  12  14  ar  
 22  12  15  1   
 23  13  16  1   
 24  13  29  1   
 25  13  30  1   
 26  14  31  1   
 27  16  17  am  
 28  16  18  1   
 29  17  19  2   
 30  17  20  1   
 31  18  21  1   
 32  18  32  1   
 33  18  33  1   
 34  20  21  1   
 35  20  34  1   
 36  20  35  1   
 37  21  36  1   
 38  21  37  1   
@<TRIPOS>SUBSTRUCTURE
  1 ****   4 GROUP 4 **** **** 0

# MOE 2024.06 (io_trps.svl 2023.06)
