@<TRIPOS>MOLECULE
NONAME
33 33 1 0 0 
SMALL
USER_CHARGES


@<TRIPOS>ATOM
  1 CL      -0.2880    -1.4630     1.5800 Cl    1 <1>  -0.1770 
  2 C       -1.9330    -1.6110     1.0160 C.ar  1 <1>   0.1770 
  3 C       -2.6210    -2.7900     1.2360 C.ar  1 <1>  -0.1500 
  4 C       -2.5230    -0.5470     0.3590 C.ar  1 <1>  -0.1500 
  5 C       -3.9260    -2.9030     0.7870 C.ar  1 <1>  -0.1500 
  6 C       -3.8280    -0.6620    -0.0890 C.ar  1 <1>  -0.1500 
  7 C       -4.5350    -1.8450     0.1260 C.ar  1 <1>   0.0830 
  8 O       -5.8150    -2.0400    -0.2760 O.3   1 <1>  -0.3630 
  9 C       -6.5530    -1.0030    -0.9110 C.3   1 <1>   0.1810 
 10 C       -7.9770    -1.4450    -1.2130 C.2   1 <1>   0.5690 
 11 O       -8.6530    -0.7520    -1.9440 O.2   1 <1>  -0.5700 
 12 N       -8.4450    -2.5990    -0.6640 N.am  1 <1>  -0.4300 
 13 N       -9.8510    -3.0170    -0.6370 N.am  1 <1>  -0.4300 
 14 C      -10.7110    -2.7670     0.3870 C.2   1 <1>   0.5690 
 15 O      -10.3280    -2.3350     1.4540 O.2   1 <1>  -0.5700 
 16 C      -12.2020    -3.0580     0.1830 C.3   1 <1>  -0.0190 
 17 C      -13.0400    -1.7740     0.2850 C.3   1 <1>  -0.2400 
 18 C      -12.7170    -4.1050     1.1840 C.3   1 <1>  -0.2400 
 19 H       -2.1390    -3.6030     1.7490 H     1 <1>   0.1500 
 20 H       -1.9620     0.3570     0.2030 H     1 <1>   0.1500 
 21 H       -4.4770    -3.8120     0.9500 H     1 <1>   0.1500 
 22 H       -4.2690     0.1750    -0.5980 H     1 <1>   0.1500 
 23 H       -6.0590    -0.7460    -1.8300 H     1 <1>   0.0800 
 24 H       -6.5820    -0.1520    -0.2550 H     1 <1>   0.0800 
 25 H       -7.8020    -3.1270    -0.0610 H     1 <1>   0.3700 
 26 H      -10.2200    -3.3790    -1.5210 H     1 <1>   0.3700 
 27 H      -12.3350    -3.4570    -0.8070 H     1 <1>   0.0800 
 28 H      -12.9480    -1.3460     1.2690 H     1 <1>   0.0800 
 29 H      -14.0780    -1.9820     0.0940 H     1 <1>   0.0800 
 30 H      -12.6970    -1.0490    -0.4320 H     1 <1>   0.0800 
 31 H      -12.6180    -3.7380     2.1910 H     1 <1>   0.0800 
 32 H      -12.1490    -5.0140     1.0970 H     1 <1>   0.0800 
 33 H      -13.7530    -4.3280     0.9980 H     1 <1>   0.0800 
@<TRIPOS>BOND
  1   1   2  1   
  2   2   3  ar  
  3   2   4  ar  
  4   3   5  ar  
  5   3  19  1   
  6   4   6  ar  
  7   4  20  1   
  8   5   7  ar  
  9   5  21  1   
 10   6   7  ar  
 11   6  22  1   
 12   7   8  1   
 13   8   9  1   
 14   9  10  1   
 15   9  23  1   
 16   9  24  1   
 17  10  11  2   
 18  10  12  am  
 19  12  13  1   
 20  12  25  1   
 21  13  14  am  
 22  13  26  1   
 23  14  15  2   
 24  14  16  1   
 25  16  17  1   
 26  16  18  1   
 27  16  27  1   
 28  17  28  1   
 29  17  29  1   
 30  17  30  1   
 31  18  31  1   
 32  18  32  1   
 33  18  33  1   
@<TRIPOS>SUBSTRUCTURE
  1 ****   8 GROUP 4 **** **** 0

# MOE 2024.06 (io_trps.svl 2023.06)
