@<TRIPOS>MOLECULE
NONAME
41 42 1 0 0 
SMALL
USER_CHARGES


@<TRIPOS>ATOM
  1 CL       1.8000     3.2960     1.3120 Cl    1 <1>  -0.1770 
  2 C        0.2110     3.8910     0.8980 C.ar  1 <1>   0.1770 
  3 C       -0.9030     3.1690     1.2870 C.ar  1 <1>  -0.1500 
  4 C        0.0950     5.0720     0.1900 C.ar  1 <1>  -0.1500 
  5 C       -2.1680     3.6370     0.9640 C.ar  1 <1>  -0.1440 
  6 C       -1.1680     5.5380    -0.1350 C.ar  1 <1>  -0.1500 
  7 C       -2.2900     4.8240     0.2520 C.ar  1 <1>  -0.1500 
  8 C       -3.4100     2.8670     1.3850 C.3   1 <1>   0.2840 
  9 N       -4.2130     2.5430     0.2040 N.am  1 <1>  -0.7300 
 10 C       -5.4060     1.9100     0.2520 C.2   1 <1>   0.5690 
 11 O       -5.7200     1.2610     1.2250 O.2   1 <1>  -0.5700 
 12 C       -6.3250     2.0310    -0.9740 C.3   1 <1>  -0.0190 
 13 C       -6.8860     3.4620    -1.1720 C.3   1 <1>  -0.1860 
 14 C       -7.4850     1.0150    -0.9780 C.3   1 <1>  -0.0220 
 15 C       -5.7890     4.5070    -1.3480 C.2   1 <1>   0.9060 
 16 C       -7.8440     3.8210    -0.0230 C.3   1 <1>  -0.0220 
 17 C       -8.7080     1.4590    -0.1760 C.2   1 <1>  -0.2760 
 18 O       -5.9060     5.6290    -0.8490 O.co2 1 <1>  -0.9000 
 19 O       -4.7630     4.1860    -1.9620 O.co2 1 <1>  -0.9000 
 20 C       -8.8610     2.7170     0.2680 C.2   1 <1>  -0.2760 
 21 C       -9.6740     0.2990     0.0330 C.3   1 <1>  -0.1020 
 22 C      -10.0070     3.2510     1.1190 C.3   1 <1>  -0.1020 
 23 H       -0.7750     2.2520     1.8320 H     1 <1>   0.1500 
 24 H        0.9740     5.6130    -0.1040 H     1 <1>   0.1500 
 25 H       -1.2910     6.4500    -0.6940 H     1 <1>   0.1500 
 26 H       -3.2690     5.1990    -0.0170 H     1 <1>   0.1500 
 27 H       -4.0010     3.4710     2.0520 H     1 <1>   0.0800 
 28 H       -3.1460     1.9550     1.8920 H     1 <1>   0.0800 
 29 H       -4.0640     3.1810    -0.6070 H     1 <1>   0.3700 
 30 H       -5.7090     1.7980    -1.8240 H     1 <1>   0.0800 
 31 H       -7.4500     3.4730    -2.0840 H     1 <1>   0.0800 
 32 H       -7.1210     0.0740    -0.6030 H     1 <1>   0.0800 
 33 H       -7.7960     0.8580    -1.9950 H     1 <1>   0.0800 
 34 H       -8.3550     4.7300    -0.2900 H     1 <1>   0.0800 
 35 H       -7.2780     4.0200     0.8710 H     1 <1>   0.0800 
 36 H       -9.9200    -0.1450    -0.9150 H     1 <1>   0.0800 
 37 H      -10.5910     0.6000     0.4970 H     1 <1>   0.0800 
 38 H       -9.2110    -0.4470     0.6530 H     1 <1>   0.0800 
 39 H      -10.5630     3.9830     0.5610 H     1 <1>   0.0800 
 40 H       -9.6090     3.7210     2.0000 H     1 <1>   0.0800 
 41 H      -10.6820     2.4840     1.4380 H     1 <1>   0.0800 
@<TRIPOS>BOND
  1   1   2  1   
  2   2   3  ar  
  3   2   4  ar  
  4   3   5  ar  
  5   3  23  1   
  6   4   6  ar  
  7   4  24  1   
  8   5   7  ar  
  9   5   8  1   
 10   6   7  ar  
 11   6  25  1   
 12   7  26  1   
 13   8   9  1   
 14   8  27  1   
 15   8  28  1   
 16   9  10  am  
 17   9  29  1   
 18  10  11  2   
 19  10  12  1   
 20  12  13  1   
 21  12  14  1   
 22  12  30  1   
 23  13  15  1   
 24  13  16  1   
 25  13  31  1   
 26  14  17  1   
 27  14  32  1   
 28  14  33  1   
 29  15  18  ar  
 30  15  19  ar  
 31  16  20  1   
 32  16  34  1   
 33  16  35  1   
 34  17  20  2   
 35  17  21  1   
 36  20  22  1   
 37  21  36  1   
 38  21  37  1   
 39  21  38  1   
 40  22  39  1   
 41  22  40  1   
 42  22  41  1   
@<TRIPOS>SUBSTRUCTURE
  1 ****   9 GROUP 4 **** **** 0

# MOE 2024.06 (io_trps.svl 2023.06)
