@<TRIPOS>MOLECULE
NONAME
34 34 1 0 0 
SMALL
USER_CHARGES


@<TRIPOS>ATOM
  1 F       -0.2570    -0.0540     0.6650 F     1 <1>  -0.3400 
  2 C       -1.4640     0.0830     0.1060 C.3   1 <1>   0.6800 
  3 F       -2.1080     0.8230     1.0170 F     1 <1>  -0.3400 
  4 C       -2.1760    -1.3360     0.0090 C.3   1 <1>   0.4240 
  5 C       -1.2650     0.8860    -1.2160 C.3   1 <1>   0.6000 
  6 O       -1.8790    -2.0680     1.1640 O.3   1 <1>  -0.6800 
  7 C       -3.7320    -1.3260    -0.0360 C.ar  1 <1>  -0.1440 
  8 C       -1.6860    -2.2070    -1.1680 C.3   1 <1>  -0.0990 
  9 F       -1.1260     2.1940    -1.0000 F     1 <1>  -0.3400 
 10 F       -2.3150     0.8010    -2.0290 F     1 <1>  -0.3400 
 11 C       -4.4140    -2.5280     0.1580 C.ar  1 <1>  -0.1500 
 12 C       -4.5100    -0.1890    -0.2600 C.ar  1 <1>  -0.1500 
 13 C       -0.1900    -2.3730    -1.2050 C.2   1 <1>   0.6590 
 14 C       -5.7950    -2.5990     0.1200 C.ar  1 <1>  -0.1500 
 15 C       -5.8920    -0.2550    -0.3000 C.ar  1 <1>  -0.1500 
 16 O        0.4920    -1.5580    -1.7700 O.2   1 <1>  -0.5700 
 17 O        0.3090    -3.4430    -0.6060 O.3   1 <1>  -0.4300 
 18 C       -6.5390    -1.4600    -0.1120 C.ar  1 <1>  -0.1500 
 19 C        1.6940    -3.6810    -0.4950 C.3   1 <1>   0.1200 
 20 C        2.2230    -2.9290     0.7250 C.3   1 <1>  -0.2400 
 21 H       -0.4100     0.5620    -1.7760 H     1 <1>   0.0800 
 22 H       -2.2920    -1.6260     1.9320 H     1 <1>   0.4000 
 23 H       -2.0020    -1.7720    -2.0970 H     1 <1>   0.0800 
 24 H       -2.1260    -3.1840    -1.1200 H     1 <1>   0.0800 
 25 H       -3.8720    -3.4380     0.3500 H     1 <1>   0.1500 
 26 H       -4.0810     0.7840    -0.4060 H     1 <1>   0.1500 
 27 H       -6.2910    -3.5420     0.2720 H     1 <1>   0.1500 
 28 H       -6.4660     0.6380    -0.4780 H     1 <1>   0.1500 
 29 H       -7.6130    -1.5100    -0.1440 H     1 <1>   0.1500 
 30 H        2.1850    -3.3620    -1.4000 H     1 <1>   0.0800 
 31 H        1.8340    -4.7410    -0.3730 H     1 <1>   0.0800 
 32 H        2.1020    -1.8690     0.5930 H     1 <1>   0.0800 
 33 H        3.2690    -3.1380     0.8550 H     1 <1>   0.0800 
 34 H        1.6980    -3.2430     1.6100 H     1 <1>   0.0800 
@<TRIPOS>BOND
  1   1   2  1   
  2   2   3  1   
  3   2   4  1   
  4   2   5  1   
  5   4   6  1   
  6   4   7  1   
  7   4   8  1   
  8   5   9  1   
  9   5  10  1   
 10   5  21  1   
 11   6  22  1   
 12   7  11  ar  
 13   7  12  ar  
 14   8  13  1   
 15   8  23  1   
 16   8  24  1   
 17  11  14  ar  
 18  11  25  1   
 19  12  15  ar  
 20  12  26  1   
 21  13  16  2   
 22  13  17  1   
 23  14  18  ar  
 24  14  27  1   
 25  15  18  ar  
 26  15  28  1   
 27  17  19  1   
 28  18  29  1   
 29  19  20  1   
 30  19  30  1   
 31  19  31  1   
 32  20  32  1   
 33  20  33  1   
 34  20  34  1   
@<TRIPOS>SUBSTRUCTURE
  1 ****   4 GROUP 4 **** **** 0

# MOE 2024.06 (io_trps.svl 2023.06)
