@<TRIPOS>MOLECULE
NONAME
42 43 1 0 0 
SMALL
USER_CHARGES


@<TRIPOS>ATOM
  1 CL       0.4060     0.0650    -1.4610 Cl    1 <1>  -0.1770 
  2 C        2.0860     0.1230    -0.9900 C.ar  1 <1>   0.1770 
  3 C        2.4230    -0.0480     0.3390 C.ar  1 <1>  -0.1500 
  4 C        3.0530     0.3400    -1.9530 C.ar  1 <1>  -0.1500 
  5 C        3.7560    -0.0010     0.7110 C.ar  1 <1>  -0.1500 
  6 C        4.3840     0.3860    -1.5750 C.ar  1 <1>  -0.1500 
  7 C        4.7410     0.2160    -0.2440 C.ar  1 <1>  -0.1430 
  8 C        6.2060     0.2730     0.1570 C.3   1 <1>  -0.0160 
  9 C        6.6540     1.7260     0.3170 C.3   1 <1>   0.1400 
 10 N        8.0860     1.7780     0.6970 N.am  1 <1>  -0.7300 
 11 C        9.1080     1.8600    -0.1950 C.2   1 <1>   0.5690 
 12 O        8.9070     1.8590    -1.3860 O.2   1 <1>  -0.5700 
 13 C       10.5370     1.9530     0.3350 C.3   1 <1>  -0.0190 
 14 C       11.0800     3.3890     0.2130 C.3   1 <1>  -0.1600 
 15 C       11.4830     0.9700    -0.3820 C.3   1 <1>  -0.1600 
 16 C       12.5220     3.4940     0.7160 C.3   1 <1>   0.1400 
 17 C       12.9210     1.0950     0.1290 C.3   1 <1>   0.1400 
 18 N       13.3760     2.5070    -0.0020 N.am  1 <1>  -0.6600 
 19 C       14.4720     2.9180    -0.7190 C.2   1 <1>   0.5690 
 20 O       14.8280     4.0720    -0.7510 O.2   1 <1>  -0.5700 
 21 C       15.2920     1.9270    -1.5110 C.3   1 <1>  -0.1790 
 22 H        1.6510    -0.2150     1.0690 H     1 <1>   0.1500 
 23 H        2.7660     0.4700    -2.9800 H     1 <1>   0.1500 
 24 H        4.0210    -0.1340     1.7460 H     1 <1>   0.1500 
 25 H        5.1430     0.5550    -2.3210 H     1 <1>   0.1500 
 26 H        6.8010    -0.2000    -0.6050 H     1 <1>   0.0800 
 27 H        6.3530    -0.2570     1.0800 H     1 <1>   0.0800 
 28 H        6.0610     2.2160     1.0700 H     1 <1>   0.0800 
 29 H        6.5110     2.2490    -0.6150 H     1 <1>   0.0800 
 30 H        8.2820     1.7680     1.6980 H     1 <1>   0.3700 
 31 H       10.5220     1.6910     1.3780 H     1 <1>   0.0800 
 32 H       10.4580     4.0620     0.7750 H     1 <1>   0.0800 
 33 H       11.0490     3.7010    -0.8170 H     1 <1>   0.0800 
 34 H       11.4750     1.1650    -1.4410 H     1 <1>   0.0800 
 35 H       11.1370    -0.0370    -0.2340 H     1 <1>   0.0800 
 36 H       12.5640     3.2910     1.7720 H     1 <1>   0.0800 
 37 H       12.8820     4.4970     0.5570 H     1 <1>   0.0800 
 38 H       13.5540     0.4250    -0.4220 H     1 <1>   0.0800 
 39 H       12.9650     0.8120     1.1670 H     1 <1>   0.0800 
 40 H       15.7340     1.2070    -0.8490 H     1 <1>   0.0800 
 41 H       16.0770     2.4420    -2.0330 H     1 <1>   0.0800 
 42 H       14.6690     1.4320    -2.2320 H     1 <1>   0.0800 
@<TRIPOS>BOND
  1   1   2  1   
  2   2   3  ar  
  3   2   4  ar  
  4   3   5  ar  
  5   3  22  1   
  6   4   6  ar  
  7   4  23  1   
  8   5   7  ar  
  9   5  24  1   
 10   6   7  ar  
 11   6  25  1   
 12   7   8  1   
 13   8   9  1   
 14   8  26  1   
 15   8  27  1   
 16   9  10  1   
 17   9  28  1   
 18   9  29  1   
 19  10  11  am  
 20  10  30  1   
 21  11  12  2   
 22  11  13  1   
 23  13  14  1   
 24  13  15  1   
 25  13  31  1   
 26  14  16  1   
 27  14  32  1   
 28  14  33  1   
 29  15  17  1   
 30  15  34  1   
 31  15  35  1   
 32  16  18  1   
 33  16  36  1   
 34  16  37  1   
 35  17  18  1   
 36  17  38  1   
 37  17  39  1   
 38  18  19  am  
 39  19  20  2   
 40  19  21  1   
 41  21  40  1   
 42  21  41  1   
 43  21  42  1   
@<TRIPOS>SUBSTRUCTURE
  1 ****  11 GROUP 4 **** **** 0

# MOE 2024.06 (io_trps.svl 2023.06)
