@<TRIPOS>MOLECULE
NONAME
41 44 1 0 0 
SMALL
USER_CHARGES


@<TRIPOS>ATOM
  1 S       -8.7430     3.2160     1.4910 S.3   1 <1>  -0.0800 
  2 C       -7.7570     4.6640     1.2760 C.ar  1 <1>   0.2970 
  3 C       -7.6230     2.2650     0.5220 C.2   1 <1>  -0.1400 
  4 N       -8.0970     5.8290     1.7850 N.ar  1 <1>  -0.5670 
  5 C       -6.6350     4.3900     0.5250 C.ar  1 <1>   0.0000 
  6 C       -6.5980     3.0110     0.0850 C.2   1 <1>  -0.1810 
  7 C       -7.9000     0.8010     0.2630 C.3   1 <1>   0.0200 
  8 C       -7.2240     6.7730     1.4970 C.ar  1 <1>   0.4700 
  9 C       -5.7850     5.4870     0.3350 C.ar  1 <1>   0.4100 
 10 C       -5.5250     2.4120    -0.8120 C.3   1 <1>   0.0210 
 11 C       -6.6490     0.1540    -0.3610 C.3   1 <1>  -0.1600 
 12 N       -6.0980     6.6820     0.8060 N.ar  1 <1>  -0.6200 
 13 N       -4.5760     5.3840    -0.3160 N.pl3 1 <1>  -0.8380 
 14 C       -5.9910     1.0700    -1.4130 C.3   1 <1>  -0.1600 
 15 C       -3.4340     4.7560     0.3970 C.3   1 <1>   0.2090 
 16 C       -4.2120     6.3620    -1.3760 C.3   1 <1>   0.2090 
 17 C       -2.4890     5.8270     0.9650 C.3   1 <1>  -0.0800 
 18 C       -3.2510     7.4230    -0.8290 C.3   1 <1>  -0.1600 
 19 C       -2.0320     6.7970    -0.1360 C.3   1 <1>  -0.1600 
 20 C       -1.2750     5.1800     1.6460 C.3   1 <1>  -0.2400 
 21 H       -8.7340     0.7200    -0.4120 H     1 <1>   0.0800 
 22 H       -8.1520     0.3020     1.1820 H     1 <1>   0.0800 
 23 H       -7.4560     7.7530     1.8770 H     1 <1>   0.1500 
 24 H       -4.6360     2.2530    -0.2290 H     1 <1>   0.0800 
 25 H       -5.2930     3.0950    -1.6090 H     1 <1>   0.0800 
 26 H       -6.9180    -0.7870    -0.8080 H     1 <1>   0.0800 
 27 H       -5.9350    -0.0430     0.4200 H     1 <1>   0.0800 
 28 H       -5.1490     0.5690    -1.8590 H     1 <1>   0.0800 
 29 H       -6.7050     1.2710    -2.1940 H     1 <1>   0.0800 
 30 H       -2.8980     4.1250    -0.2910 H     1 <1>   0.0800 
 31 H       -3.8040     4.1420     1.2010 H     1 <1>   0.0800 
 32 H       -5.1030     6.8380    -1.7510 H     1 <1>   0.0800 
 33 H       -3.7470     5.8330    -2.1900 H     1 <1>   0.0800 
 34 H       -3.0370     6.3820     1.7090 H     1 <1>   0.0800 
 35 H       -3.7860     8.0380    -0.1270 H     1 <1>   0.0800 
 36 H       -2.9260     8.0550    -1.6350 H     1 <1>   0.0800 
 37 H       -1.4410     6.2690    -0.8640 H     1 <1>   0.0800 
 38 H       -1.4250     7.5760     0.2910 H     1 <1>   0.0800 
 39 H       -0.7000     4.6100     0.9380 H     1 <1>   0.0800 
 40 H       -1.5970     4.5260     2.4370 H     1 <1>   0.0800 
 41 H       -0.6410     5.9380     2.0720 H     1 <1>   0.0800 
@<TRIPOS>BOND
  1   1   2  1   
  2   1   3  1   
  3   2   4  ar  
  4   2   5  ar  
  5   3   6  2   
  6   3   7  1   
  7   4   8  ar  
  8   5   6  1   
  9   5   9  ar  
 10   6  10  1   
 11   7  11  1   
 12   7  21  1   
 13   7  22  1   
 14   8  12  ar  
 15   8  23  1   
 16   9  12  ar  
 17   9  13  1   
 18  10  14  1   
 19  10  24  1   
 20  10  25  1   
 21  11  14  1   
 22  11  26  1   
 23  11  27  1   
 24  13  15  1   
 25  13  16  1   
 26  14  28  1   
 27  14  29  1   
 28  15  17  1   
 29  15  30  1   
 30  15  31  1   
 31  16  18  1   
 32  16  32  1   
 33  16  33  1   
 34  17  19  1   
 35  17  20  1   
 36  17  34  1   
 37  18  19  1   
 38  18  35  1   
 39  18  36  1   
 40  19  37  1   
 41  19  38  1   
 42  20  39  1   
 43  20  40  1   
 44  20  41  1   
@<TRIPOS>SUBSTRUCTURE
  1 ****   5 GROUP 4 **** **** 0

# MOE 2024.06 (io_trps.svl 2023.06)
