@<TRIPOS>MOLECULE
NONAME
35 36 1 0 0 
SMALL
USER_CHARGES


@<TRIPOS>ATOM
  1 CL       0.9620    -0.2820    -3.0830 Cl    1 <1>  -0.1240 
  2 C        1.5750     0.3360    -1.5740 C.2   1 <1>   0.1640 
  3 S        3.1740     1.0440    -1.6060 S.3   1 <1>  -0.0800 
  4 C        1.0330     0.3730    -0.3470 C.2   1 <1>  -0.1500 
  5 C        3.0920     1.3970     0.1250 C.2   1 <1>  -0.0220 
  6 C        1.9020     0.9830     0.6160 C.2   1 <1>  -0.1500 
  7 S        4.5030     2.2290     0.8960 S.o2  1 <1>   1.5000 
  8 O        4.5420     1.8940     2.3030 O.2   1 <1>  -0.6500 
  9 O        4.5100     3.6210     0.5040 O.2   1 <1>  -0.6500 
 10 N        5.8600     1.5010     0.1860 N.am  1 <1>  -0.8490 
 11 C        7.0690     2.3210     0.3740 C.3   1 <1>   0.1960 
 12 C        6.1010     0.1360     0.6860 C.3   1 <1>   0.1960 
 13 C        8.3150     1.6760    -0.2650 C.3   1 <1>   0.1960 
 14 C        7.3340    -0.5010     0.0160 C.3   1 <1>   0.1960 
 15 N        8.5460     0.3090     0.2380 N.am  1 <1>  -0.8490 
 16 S        9.9360    -0.3850    -0.4400 S.o2  1 <1>   1.3330 
 17 O       10.9200     0.6630    -0.5950 O.2   1 <1>  -0.6500 
 18 O        9.5200    -1.1600    -1.5870 O.2   1 <1>  -0.6500 
 19 C       10.4960    -1.4920     0.8620 C.3   1 <1>  -0.0550 
 20 C       11.7770    -2.2750     0.5240 C.3   1 <1>  -0.2400 
 21 H        0.0600     0.0000    -0.0810 H     1 <1>   0.1500 
 22 H        1.5940     1.0880     1.6430 H     1 <1>   0.1500 
 23 H        7.2520     2.4690     1.4260 H     1 <1>   0.0800 
 24 H        6.9220     3.2890    -0.0750 H     1 <1>   0.0800 
 25 H        5.2410    -0.4790     0.4850 H     1 <1>   0.0800 
 26 H        6.2600     0.1510     1.7520 H     1 <1>   0.0800 
 27 H        9.1670     2.2940    -0.0390 H     1 <1>   0.0800 
 28 H        8.1950     1.6570    -1.3360 H     1 <1>   0.0800 
 29 H        7.1400    -0.5980    -1.0400 H     1 <1>   0.0800 
 30 H        7.4800    -1.4880     0.4190 H     1 <1>   0.0800 
 31 H        9.7160    -2.1950     1.0810 H     1 <1>   0.0800 
 32 H       10.6720    -0.9160     1.7490 H     1 <1>   0.0800 
 33 H       11.6210    -2.8830    -0.3510 H     1 <1>   0.0800 
 34 H       12.0520    -2.9130     1.3450 H     1 <1>   0.0800 
 35 H       12.5860    -1.5930     0.3270 H     1 <1>   0.0800 
@<TRIPOS>BOND
  1   1   2  1   
  2   2   3  1   
  3   2   4  2   
  4   3   5  1   
  5   4   6  1   
  6   4  21  1   
  7   5   6  2   
  8   5   7  1   
  9   6  22  1   
 10   7   8  2   
 11   7   9  2   
 12   7  10  am  
 13  10  11  1   
 14  10  12  1   
 15  11  13  1   
 16  11  23  1   
 17  11  24  1   
 18  12  14  1   
 19  12  25  1   
 20  12  26  1   
 21  13  15  1   
 22  13  27  1   
 23  13  28  1   
 24  14  15  1   
 25  14  29  1   
 26  14  30  1   
 27  15  16  am  
 28  16  17  2   
 29  16  18  2   
 30  16  19  1   
 31  19  20  1   
 32  19  31  1   
 33  19  32  1   
 34  20  33  1   
 35  20  34  1   
 36  20  35  1   
@<TRIPOS>SUBSTRUCTURE
  1 ****  12 GROUP 4 **** **** 0

# MOE 2024.06 (io_trps.svl 2023.06)
