@<TRIPOS>MOLECULE
NONAME
43 45 1 0 0 
SMALL
USER_CHARGES


@<TRIPOS>ATOM
  1 F        1.0880     0.1580     1.6030 F     1 <1>  -0.3400 
  2 C        1.5800     1.1970     0.9430 C.3   1 <1>   1.1640 
  3 F        0.5590     1.7780     0.3290 F     1 <1>  -0.3400 
  4 F        1.9920     2.0660     1.8610 F     1 <1>  -0.3400 
  5 C        2.7170     0.8590    -0.0410 C.ar  1 <1>  -0.1440 
  6 C        3.3210     1.8400    -0.8400 C.ar  1 <1>  -0.1440 
  7 C        3.1640    -0.4560    -0.1470 C.ar  1 <1>  -0.1500 
  8 C        4.3320     1.4810    -1.7230 C.ar  1 <1>  -0.1500 
  9 C        2.9200     3.3130    -0.7920 C.3   1 <1>   0.4870 
 10 C        4.1770    -0.7980    -1.0230 C.ar  1 <1>  -0.1500 
 11 C        4.7600     0.1710    -1.8130 C.ar  1 <1>  -0.1500 
 12 N        4.0410     4.1070    -0.2300 N.4   1 <1>  -0.9590 
 13 C        4.4810     3.6950     1.1450 C.3   1 <1>   0.3430 
 14 C        3.8300     5.5880    -0.2900 C.3   1 <1>   0.3430 
 15 C        5.7060     4.5210     1.6120 C.3   1 <1>   0.1100 
 16 C        5.1310     6.3390     0.0850 C.3   1 <1>   0.1100 
 17 N        6.2080     5.4250     0.5510 N.3   1 <1>  -0.8100 
 18 C        7.4130     6.1640     1.0000 C.3   1 <1>   0.2900 
 19 C        8.0040     7.0270    -0.1050 C.2   1 <1>  -0.0400 
 20 O        7.5180     8.2380    -0.3120 O.3   1 <1>  -0.2800 
 21 C        9.0160     6.7730    -0.9630 C.2   1 <1>  -0.1500 
 22 C        8.2030     8.7790    -1.3000 C.2   1 <1>  -0.0100 
 23 C        9.1460     7.9250    -1.7500 C.2   1 <1>  -0.1500 
 24 H        2.7280    -1.2430     0.4500 H     1 <1>   0.1500 
 25 H        4.8010     2.2130    -2.3590 H     1 <1>   0.1500 
 26 H        2.0370     3.4580    -0.1940 H     1 <1>   0.0800 
 27 H        2.7020     3.6470    -1.7930 H     1 <1>   0.0800 
 28 H        4.5090    -1.8210    -1.0930 H     1 <1>   0.1500 
 29 H        5.5460    -0.0990    -2.5010 H     1 <1>   0.1500 
 30 H        4.8860     3.9510    -0.8000 H     1 <1>   0.4500 
 31 H        4.7490     2.6510     1.1450 H     1 <1>   0.0800 
 32 H        3.6770     3.8260     1.8500 H     1 <1>   0.0800 
 33 H        3.0460     5.8770     0.3900 H     1 <1>   0.0800 
 34 H        3.5340     5.8840    -1.2830 H     1 <1>   0.0800 
 35 H        6.4870     3.8410     1.9060 H     1 <1>   0.0800 
 36 H        5.4320     5.0950     2.4820 H     1 <1>   0.0800 
 37 H        4.9130     7.0740     0.8420 H     1 <1>   0.0800 
 38 H        5.4670     6.8690    -0.7890 H     1 <1>   0.0800 
 39 H        8.1630     5.4530     1.3040 H     1 <1>   0.0800 
 40 H        7.1800     6.7860     1.8470 H     1 <1>   0.0800 
 41 H        9.6190     5.8870    -1.0520 H     1 <1>   0.1500 
 42 H        7.9570     9.7770    -1.6190 H     1 <1>   0.1500 
 43 H        9.8620     8.0660    -2.5390 H     1 <1>   0.1500 
@<TRIPOS>BOND
  1   1   2  1   
  2   2   3  1   
  3   2   4  1   
  4   2   5  1   
  5   5   6  ar  
  6   5   7  ar  
  7   6   8  ar  
  8   6   9  1   
  9   7  10  ar  
 10   7  24  1   
 11   8  11  ar  
 12   8  25  1   
 13   9  12  1   
 14   9  26  1   
 15   9  27  1   
 16  10  11  ar  
 17  10  28  1   
 18  11  29  1   
 19  12  13  1   
 20  12  14  1   
 21  12  30  1   
 22  13  15  1   
 23  13  31  1   
 24  13  32  1   
 25  14  16  1   
 26  14  33  1   
 27  14  34  1   
 28  15  17  1   
 29  15  35  1   
 30  15  36  1   
 31  16  17  1   
 32  16  37  1   
 33  16  38  1   
 34  17  18  1   
 35  18  19  1   
 36  18  39  1   
 37  18  40  1   
 38  19  20  1   
 39  19  21  2   
 40  20  22  1   
 41  21  23  1   
 42  21  41  1   
 43  22  23  2   
 44  22  42  1   
 45  23  43  1   
@<TRIPOS>SUBSTRUCTURE
  1 ****  12 GROUP 4 **** **** 0

# MOE 2024.06 (io_trps.svl 2023.06)
