@<TRIPOS>MOLECULE
NONAME
32 34 1 0 0 
SMALL
USER_CHARGES


@<TRIPOS>ATOM
  1 S       -0.1680     0.2930     0.2290 S.3   1 <1>  -0.3320 
  2 C       -1.9370     0.5470     0.1360 C.ar  1 <1>   0.7220 
  3 C        0.0330    -1.5300     0.4350 C.3   1 <1>   0.0700 
  4 N       -2.3180     1.8360    -0.0250 N.ar  1 <1>  -0.3100 
  5 N       -2.6920    -0.5200     0.2290 N.ar  1 <1>  -0.5670 
  6 C        1.5280    -1.8300     0.5190 C.3   1 <1>  -0.2400 
  7 N       -3.5840     2.1300    -0.1060 N.ar  1 <1>  -0.2560 
  8 C       -3.9870    -0.2000     0.1430 C.ar  1 <1>   0.1050 
  9 C       -4.4320     1.0990    -0.0210 C.ar  1 <1>   0.2560 
 10 N       -5.0660    -1.0450     0.1970 N.pl3 1 <1>   0.0480 
 11 C       -5.8500     1.0540    -0.0710 C.ar  1 <1>   0.0000 
 12 C       -6.2150    -0.2830     0.0650 C.ar  1 <1>  -0.1520 
 13 C       -5.0040    -2.5130     0.3640 C.3   1 <1>   0.0960 
 14 C       -6.8330     2.0330    -0.2210 C.ar  1 <1>  -0.1500 
 15 C       -7.5600    -0.6550     0.0510 C.ar  1 <1>  -0.1500 
 16 C       -5.0660    -3.2120    -0.9970 C.3   1 <1>  -0.2400 
 17 C       -8.1600     1.6620    -0.2330 C.ar  1 <1>  -0.1500 
 18 C       -8.5230     0.3200    -0.0970 C.ar  1 <1>  -0.1500 
 19 H       -0.4220    -2.0030    -0.4180 H     1 <1>   0.0800 
 20 H       -0.4820    -1.8110     1.3370 H     1 <1>   0.0800 
 21 H        2.0210    -1.5090    -0.3810 H     1 <1>   0.0800 
 22 H        1.6840    -2.8870     0.6400 H     1 <1>   0.0800 
 23 H        1.9620    -1.3180     1.3600 H     1 <1>   0.0800 
 24 H       -5.8260    -2.8260     0.9820 H     1 <1>   0.0800 
 25 H       -4.0870    -2.7660     0.8660 H     1 <1>   0.0800 
 26 H       -6.5380     3.0620    -0.3250 H     1 <1>   0.1500 
 27 H       -7.8410    -1.6880     0.1540 H     1 <1>   0.1500 
 28 H       -5.9830    -2.9690    -1.5040 H     1 <1>   0.0800 
 29 H       -5.0210    -4.2770    -0.8620 H     1 <1>   0.0800 
 30 H       -4.2320    -2.9100    -1.6070 H     1 <1>   0.0800 
 31 H       -8.9290     2.4070    -0.3470 H     1 <1>   0.1500 
 32 H       -9.5660     0.0540    -0.1100 H     1 <1>   0.1500 
@<TRIPOS>BOND
  1   1   2  1   
  2   1   3  1   
  3   2   4  ar  
  4   2   5  ar  
  5   3   6  1   
  6   3  19  1   
  7   3  20  1   
  8   4   7  ar  
  9   5   8  ar  
 10   6  21  1   
 11   6  22  1   
 12   6  23  1   
 13   7   9  ar  
 14   8   9  ar  
 15   8  10  1   
 16   9  11  1   
 17  10  12  1   
 18  10  13  1   
 19  11  12  ar  
 20  11  14  ar  
 21  12  15  ar  
 22  13  16  1   
 23  13  24  1   
 24  13  25  1   
 25  14  17  ar  
 26  14  26  1   
 27  15  18  ar  
 28  15  27  1   
 29  16  28  1   
 30  16  29  1   
 31  16  30  1   
 32  17  18  ar  
 33  17  31  1   
 34  18  32  1   
@<TRIPOS>SUBSTRUCTURE
  1 ****   8 GROUP 4 **** **** 0

# MOE 2024.06 (io_trps.svl 2023.06)
