@<TRIPOS>MOLECULE
NONAME
43 44 1 0 0 
SMALL
USER_CHARGES


@<TRIPOS>ATOM
  1 S       -0.1700     0.4130     0.2070 S.o2  1 <1>   1.4470 
  2 O        0.4440     0.9590     1.3970 O.2   1 <1>  -0.6500 
  3 O       -0.3880     1.2530    -0.9470 O.2   1 <1>  -0.6500 
  4 N        0.8140    -0.8080    -0.3830 N.am  1 <1>  -0.9140 
  5 C       -1.6940    -0.4680     0.6430 C.ar  1 <1>  -0.0090 
  6 C        2.2190    -0.4620    -0.3830 C.3   1 <1>   0.2760 
  7 C       -2.7170    -0.6360    -0.2780 C.ar  1 <1>  -0.1500 
  8 C       -1.8650    -1.0240     1.9030 C.ar  1 <1>  -0.1500 
  9 C        2.8320    -1.0770    -1.6500 C.3   1 <1>  -0.1600 
 10 C        2.8600    -1.0350     0.8910 C.3   1 <1>  -0.1600 
 11 C       -3.8940    -1.3250     0.0130 C.ar  1 <1>   0.0860 
 12 C       -3.0150    -1.7220     2.2230 C.ar  1 <1>  -0.1500 
 13 C        4.2500    -0.5880    -1.9860 C.3   1 <1>  -0.1600 
 14 C        4.0950    -0.2630     1.3800 C.3   1 <1>  -0.1600 
 15 C       -4.0250    -1.8830     1.2910 C.ar  1 <1>  -0.1430 
 16 C       -4.9100    -1.4270    -1.0170 C.2   1 <1>   0.5440 
 17 C        5.2860    -0.7640    -0.8640 C.3   1 <1>  -0.1600 
 18 C        5.0720     0.2190     0.2960 C.3   1 <1>  -0.1600 
 19 C       -5.2560    -2.6920     1.6860 C.3   1 <1>  -0.0970 
 20 O       -4.6560    -1.8780    -2.1110 O.2   1 <1>  -0.5700 
 21 N       -6.1740    -0.9880    -0.8220 N.am  1 <1>  -0.8000 
 22 H        0.5410    -0.8530    -1.3610 H     1 <1>   0.4200 
 23 H        2.3320     0.6110    -0.4160 H     1 <1>   0.0800 
 24 H       -2.6070    -0.2190    -1.2660 H     1 <1>   0.1500 
 25 H       -1.0860    -0.9130     2.6390 H     1 <1>   0.1500 
 26 H        2.2100    -0.8320    -2.4930 H     1 <1>   0.0800 
 27 H        2.8450    -2.1490    -1.5560 H     1 <1>   0.0800 
 28 H        3.1280    -2.0630     0.7240 H     1 <1>   0.0800 
 29 H        2.1450    -1.0290     1.6940 H     1 <1>   0.0800 
 30 H       -3.1100    -2.1450     3.2090 H     1 <1>   0.1500 
 31 H        4.2090     0.4500    -2.2700 H     1 <1>   0.0800 
 32 H        4.5930    -1.1340    -2.8480 H     1 <1>   0.0800 
 33 H        4.6270    -0.8940     2.0710 H     1 <1>   0.0800 
 34 H        3.7630     0.5980     1.9360 H     1 <1>   0.0800 
 35 H        6.2560    -0.5650    -1.2870 H     1 <1>   0.0800 
 36 H        5.2980    -1.7800    -0.5080 H     1 <1>   0.0800 
 37 H        6.0210     0.4020     0.7710 H     1 <1>   0.0800 
 38 H        4.7380     1.1660    -0.0920 H     1 <1>   0.0800 
 39 H       -5.0600    -3.2860     2.5610 H     1 <1>   0.0800 
 40 H       -6.0790    -2.0350     1.8980 H     1 <1>   0.0800 
 41 H       -5.5370    -3.3600     0.8900 H     1 <1>   0.0800 
 42 H       -6.8340    -1.0320    -1.5990 H     1 <1>   0.3700 
 43 H       -6.4730    -0.4890     0.0150 H     1 <1>   0.3700 
@<TRIPOS>BOND
  1   1   2  2   
  2   1   3  2   
  3   1   4  am  
  4   1   5  1   
  5   4   6  1   
  6   4  22  1   
  7   5   7  ar  
  8   5   8  ar  
  9   6   9  1   
 10   6  10  1   
 11   6  23  1   
 12   7  11  ar  
 13   7  24  1   
 14   8  12  ar  
 15   8  25  1   
 16   9  13  1   
 17   9  26  1   
 18   9  27  1   
 19  10  14  1   
 20  10  28  1   
 21  10  29  1   
 22  11  15  ar  
 23  11  16  1   
 24  12  15  ar  
 25  12  30  1   
 26  13  17  1   
 27  13  31  1   
 28  13  32  1   
 29  14  18  1   
 30  14  33  1   
 31  14  34  1   
 32  15  19  1   
 33  16  20  2   
 34  16  21  am  
 35  17  18  1   
 36  17  35  1   
 37  17  36  1   
 38  18  37  1   
 39  18  38  1   
 40  19  39  1   
 41  19  40  1   
 42  19  41  1   
 43  21  42  1   
 44  21  43  1   
@<TRIPOS>SUBSTRUCTURE
  1 ****   1 GROUP 4 **** **** 0

# MOE 2024.06 (io_trps.svl 2023.06)
