@<TRIPOS>MOLECULE
NONAME
49 49 1 0 0 
SMALL
USER_CHARGES


@<TRIPOS>ATOM
  1 O        1.2220    -0.1810    -1.7030 O.3   1 <1>  -0.3630 
  2 C        0.8240    -1.1850    -0.8810 C.ar  1 <1>   0.0830 
  3 C        2.1170     0.7830    -1.1890 C.3   1 <1>   0.1200 
  4 C        1.2930    -2.4750    -1.1250 C.ar  1 <1>  -0.1440 
  5 C       -0.0460    -0.9420     0.1820 C.ar  1 <1>  -0.1440 
  6 C        3.5240     0.1830    -1.0940 C.3   1 <1>  -0.1600 
  7 C        0.9450    -3.4980    -0.2590 C.ar  1 <1>  -0.1500 
  8 C        2.1710    -2.8000    -2.3250 C.3   1 <1>  -0.0960 
  9 C       -0.3760    -1.9830     1.0350 C.ar  1 <1>  -0.1500 
 10 C       -0.6840     0.4180     0.4350 C.3   1 <1>  -0.0970 
 11 C        4.5360     1.1980    -0.5460 C.3   1 <1>  -0.1600 
 12 C        0.1220    -3.2570     0.8280 C.ar  1 <1>  -0.1430 
 13 C        5.9140     0.5490    -0.4040 C.3   1 <1>   0.3430 
 14 C       -0.2470    -4.3880     1.7710 C.3   1 <1>  -0.0970 
 15 N        6.8710     1.4960     0.2390 N.4   1 <1>  -0.9590 
 16 C        7.3200     2.5470    -0.7160 C.3   1 <1>   0.3430 
 17 C        8.0310     0.7700     0.8270 C.3   1 <1>   0.3430 
 18 C        7.8350     3.7530     0.0590 C.3   1 <1>  -0.2400 
 19 C        7.6080     0.1050     2.1310 C.3   1 <1>  -0.2400 
 20 H        1.7720     1.1060    -0.2250 H     1 <1>   0.0800 
 21 H        2.1040     1.6200    -1.8650 H     1 <1>   0.0800 
 22 H        3.8260    -0.1430    -2.0750 H     1 <1>   0.0800 
 23 H        3.4910    -0.6710    -0.4390 H     1 <1>   0.0800 
 24 H        1.3130    -4.4940    -0.4330 H     1 <1>   0.1500 
 25 H        1.9360    -2.1550    -3.1520 H     1 <1>   0.0800 
 26 H        2.0110    -3.8140    -2.6420 H     1 <1>   0.0800 
 27 H        3.2060    -2.6790    -2.0680 H     1 <1>   0.0800 
 28 H       -1.0340    -1.8020     1.8660 H     1 <1>   0.1500 
 29 H       -0.1020     0.9740     1.1470 H     1 <1>   0.0800 
 30 H       -1.6780     0.2950     0.8250 H     1 <1>   0.0800 
 31 H       -0.7590     0.9790    -0.4800 H     1 <1>   0.0800 
 32 H        4.1980     1.5360     0.4180 H     1 <1>   0.0800 
 33 H        4.5800     2.0380    -1.2160 H     1 <1>   0.0800 
 34 H        6.2830     0.2450    -1.3710 H     1 <1>   0.0800 
 35 H        5.8100    -0.3340     0.2050 H     1 <1>   0.0800 
 36 H        0.5640    -5.0890     1.8520 H     1 <1>   0.0800 
 37 H       -1.1150    -4.9020     1.3970 H     1 <1>   0.0800 
 38 H       -0.4650    -4.0060     2.7520 H     1 <1>   0.0800 
 39 H        6.3800     1.9650     1.0110 H     1 <1>   0.4500 
 40 H        6.4940     2.8630    -1.3330 H     1 <1>   0.0800 
 41 H        8.0920     2.1600    -1.3630 H     1 <1>   0.0800 
 42 H        8.8300     1.4620     1.0390 H     1 <1>   0.0800 
 43 H        8.4030     0.0330     0.1330 H     1 <1>   0.0800 
 44 H        7.0710     4.1470     0.7060 H     1 <1>   0.0800 
 45 H        8.1080     4.5270    -0.6370 H     1 <1>   0.0800 
 46 H        8.7090     3.5120     0.6370 H     1 <1>   0.0800 
 47 H        7.2360     0.8330     2.8290 H     1 <1>   0.0800 
 48 H        8.4650    -0.3700     2.5760 H     1 <1>   0.0800 
 49 H        6.8640    -0.6540     1.9690 H     1 <1>   0.0800 
@<TRIPOS>BOND
  1   1   2  1   
  2   1   3  1   
  3   2   4  ar  
  4   2   5  ar  
  5   3   6  1   
  6   3  20  1   
  7   3  21  1   
  8   4   7  ar  
  9   4   8  1   
 10   5   9  ar  
 11   5  10  1   
 12   6  11  1   
 13   6  22  1   
 14   6  23  1   
 15   7  12  ar  
 16   7  24  1   
 17   8  25  1   
 18   8  26  1   
 19   8  27  1   
 20   9  12  ar  
 21   9  28  1   
 22  10  29  1   
 23  10  30  1   
 24  10  31  1   
 25  11  13  1   
 26  11  32  1   
 27  11  33  1   
 28  12  14  1   
 29  13  15  1   
 30  13  34  1   
 31  13  35  1   
 32  14  36  1   
 33  14  37  1   
 34  14  38  1   
 35  15  16  1   
 36  15  17  1   
 37  15  39  1   
 38  16  18  1   
 39  16  40  1   
 40  16  41  1   
 41  17  19  1   
 42  17  42  1   
 43  17  43  1   
 44  18  44  1   
 45  18  45  1   
 46  18  46  1   
 47  19  47  1   
 48  19  48  1   
 49  19  49  1   
@<TRIPOS>SUBSTRUCTURE
  1 ****   6 GROUP 4 **** **** 0

# MOE 2024.06 (io_trps.svl 2023.06)
