@<TRIPOS>MOLECULE
NONAME
34 34 1 0 0 
SMALL
USER_CHARGES


@<TRIPOS>ATOM
  1 S       -0.2770     0.0240    -0.9830 S.o2  1 <1>   1.3330 
  2 O        0.7840    -0.8910    -1.3330 O.2   1 <1>  -0.6500 
  3 O       -0.6860     1.0610    -1.9020 O.2   1 <1>  -0.6500 
  4 N       -1.6470    -0.8910    -0.5880 N.am  1 <1>  -0.8490 
  5 C        0.1830     0.8140     0.5480 C.3   1 <1>  -0.1350 
  6 C       -2.8120    -0.0920    -0.1870 C.3   1 <1>   0.1960 
  7 C       -1.3860    -2.0290     0.2960 C.3   1 <1>   0.1960 
  8 C       -4.0760    -0.9580    -0.1540 C.3   1 <1>  -0.0190 
  9 C       -2.6120    -2.9480     0.3450 C.3   1 <1>  -0.1600 
 10 C       -5.2610    -0.1190     0.2970 C.2   1 <1>   0.5690 
 11 C       -3.8780    -2.1840     0.7560 C.3   1 <1>  -0.1600 
 12 O       -5.1440     0.6010     1.2590 O.2   1 <1>  -0.5700 
 13 N       -6.4230    -0.2040    -0.3940 N.am  1 <1>  -0.7300 
 14 C       -7.6500     0.5270    -0.0610 C.3   1 <1>   0.2780 
 15 C       -8.8120    -0.3840    -0.3920 C.2   1 <1>  -0.2880 
 16 C       -9.7180    -0.1660    -1.3510 C.2   1 <1>  -0.3000 
 17 H        1.0570     1.4160     0.3920 H     1 <1>   0.0800 
 18 H        0.4050     0.0820     1.2970 H     1 <1>   0.0800 
 19 H       -0.6070     1.4500     0.8960 H     1 <1>   0.0800 
 20 H       -2.9630     0.7110    -0.8910 H     1 <1>   0.0800 
 21 H       -2.6430     0.3400     0.7850 H     1 <1>   0.0800 
 22 H       -1.1510    -1.6810     1.2870 H     1 <1>   0.0800 
 23 H       -0.5460    -2.5940    -0.0760 H     1 <1>   0.0800 
 24 H       -4.2610    -1.2960    -1.1580 H     1 <1>   0.0800 
 25 H       -2.4290    -3.7480     1.0410 H     1 <1>   0.0800 
 26 H       -2.7500    -3.3870    -0.6280 H     1 <1>   0.0800 
 27 H       -4.7350    -2.8320     0.6910 H     1 <1>   0.0800 
 28 H       -3.7850    -1.8580     1.7780 H     1 <1>   0.0800 
 29 H       -6.5080    -0.8140    -1.2080 H     1 <1>   0.3700 
 30 H       -7.6980     1.4290    -0.6460 H     1 <1>   0.0800 
 31 H       -7.6620     0.7890     0.9850 H     1 <1>   0.0800 
 32 H       -8.8380    -1.2530     0.2430 H     1 <1>   0.1500 
 33 H      -10.5370    -0.8320    -1.5640 H     1 <1>   0.1500 
 34 H       -9.7200     0.6920    -2.0020 H     1 <1>   0.1500 
@<TRIPOS>BOND
  1   1   2  2   
  2   1   3  2   
  3   1   4  am  
  4   1   5  1   
  5   4   6  1   
  6   4   7  1   
  7   5  17  1   
  8   5  18  1   
  9   5  19  1   
 10   6   8  1   
 11   6  20  1   
 12   6  21  1   
 13   7   9  1   
 14   7  22  1   
 15   7  23  1   
 16   8  10  1   
 17   8  11  1   
 18   8  24  1   
 19   9  11  1   
 20   9  25  1   
 21   9  26  1   
 22  10  12  2   
 23  10  13  am  
 24  11  27  1   
 25  11  28  1   
 26  13  14  1   
 27  13  29  1   
 28  14  15  1   
 29  14  30  1   
 30  14  31  1   
 31  15  16  2   
 32  15  32  1   
 33  16  33  1   
 34  16  34  1   
@<TRIPOS>SUBSTRUCTURE
  1 ****   8 GROUP 4 **** **** 0

# MOE 2024.06 (io_trps.svl 2023.06)
