@<TRIPOS>MOLECULE
NONAME
47 49 1 0 0 
SMALL
USER_CHARGES


@<TRIPOS>ATOM
  1 S       -0.2910     0.2440     1.4290 S.o2  1 <1>   1.4470 
  2 O       -0.3190     1.6000     1.9230 O.2   1 <1>  -0.6500 
  3 O       -1.3830    -0.6620     1.6960 O.2   1 <1>  -0.6500 
  4 N        1.1210    -0.4410     2.1280 N.am  1 <1>  -0.7570 
  5 C        0.1030     0.2370    -0.3420 C.ar  1 <1>  -0.0090 
  6 C        1.6390    -1.7050     1.8910 C.ar  1 <1>   0.1990 
  7 C        0.4900     1.3990    -1.0020 C.ar  1 <1>  -0.1500 
  8 C        0.0320    -0.9370    -1.0850 C.ar  1 <1>  -0.1500 
  9 C        2.9760    -1.8670     1.4870 C.ar  1 <1>   0.0860 
 10 C        0.8380    -2.8300     2.0710 C.ar  1 <1>  -0.1500 
 11 C        0.7780     1.3950    -2.3560 C.ar  1 <1>  -0.1500 
 12 C        0.3230    -0.9510    -2.4380 C.ar  1 <1>  -0.1500 
 13 C        3.8370    -0.7230     1.2680 C.2   1 <1>   0.5440 
 14 C        3.4580    -3.1660     1.3040 C.ar  1 <1>  -0.1500 
 15 C        1.3310    -4.1010     1.8620 C.ar  1 <1>  -0.1500 
 16 C        0.6930     0.2180    -3.0760 C.ar  1 <1>  -0.1500 
 17 O        3.8380     0.1880     2.0800 O.2   1 <1>  -0.5700 
 18 N        4.6570    -0.6120     0.1600 N.am  1 <1>  -0.6600 
 19 C        2.6500    -4.2710     1.4810 C.ar  1 <1>  -0.1500 
 20 C        5.8270     0.3120     0.1860 C.3   1 <1>   0.1400 
 21 C        4.3830    -1.3100    -1.1270 C.3   1 <1>   0.1400 
 22 C        5.4570     1.6560    -0.4470 C.3   1 <1>  -0.1600 
 23 C        4.1000    -0.3300    -2.2710 C.3   1 <1>  -0.1600 
 24 C        5.6320     1.7250    -1.9740 C.3   1 <1>  -0.1600 
 25 C        5.3450     0.4310    -2.7510 C.3   1 <1>  -0.1600 
 26 H        1.8230     0.2920     2.2800 H     1 <1>   0.4200 
 27 H        0.5620     2.3220    -0.4500 H     1 <1>   0.1500 
 28 H       -0.2640    -1.8510    -0.5980 H     1 <1>   0.1500 
 29 H       -0.1810    -2.7080     2.3920 H     1 <1>   0.1500 
 30 H        1.0690     2.3080    -2.8470 H     1 <1>   0.1500 
 31 H        0.2550    -1.8710    -2.9950 H     1 <1>   0.1500 
 32 H        4.4870    -3.3040     1.0210 H     1 <1>   0.1500 
 33 H        0.6950    -4.9590     2.0060 H     1 <1>   0.1500 
 34 H        0.9150     0.2130    -4.1300 H     1 <1>   0.1500 
 35 H        3.0410    -5.2630     1.3290 H     1 <1>   0.1500 
 36 H        6.6670    -0.1330    -0.3180 H     1 <1>   0.0800 
 37 H        6.1170     0.4790     1.2110 H     1 <1>   0.0800 
 38 H        3.5200    -1.9430    -1.0250 H     1 <1>   0.0800 
 39 H        5.2220    -1.9360    -1.3770 H     1 <1>   0.0800 
 40 H        6.0750     2.4190    -0.0080 H     1 <1>   0.0800 
 41 H        4.4400     1.8930    -0.1820 H     1 <1>   0.0800 
 42 H        3.3240     0.3550    -1.9820 H     1 <1>   0.0800 
 43 H        3.7250    -0.9050    -3.0990 H     1 <1>   0.0800 
 44 H        6.6430     2.0230    -2.1930 H     1 <1>   0.0800 
 45 H        4.9890     2.5040    -2.3450 H     1 <1>   0.0800 
 46 H        5.2100     0.6950    -3.7860 H     1 <1>   0.0800 
 47 H        6.2020    -0.2180    -2.7050 H     1 <1>   0.0800 
@<TRIPOS>BOND
  1   1   2  2   
  2   1   3  2   
  3   1   4  am  
  4   1   5  1   
  5   4   6  1   
  6   4  26  1   
  7   5   7  ar  
  8   5   8  ar  
  9   6   9  ar  
 10   6  10  ar  
 11   7  11  ar  
 12   7  27  1   
 13   8  12  ar  
 14   8  28  1   
 15   9  13  1   
 16   9  14  ar  
 17  10  15  ar  
 18  10  29  1   
 19  11  16  ar  
 20  11  30  1   
 21  12  16  ar  
 22  12  31  1   
 23  13  17  2   
 24  13  18  am  
 25  14  19  ar  
 26  14  32  1   
 27  15  19  ar  
 28  15  33  1   
 29  16  34  1   
 30  18  20  1   
 31  18  21  1   
 32  19  35  1   
 33  20  22  1   
 34  20  36  1   
 35  20  37  1   
 36  21  23  1   
 37  21  38  1   
 38  21  39  1   
 39  22  24  1   
 40  22  40  1   
 41  22  41  1   
 42  23  25  1   
 43  23  42  1   
 44  23  43  1   
 45  24  25  1   
 46  24  44  1   
 47  24  45  1   
 48  25  46  1   
 49  25  47  1   
@<TRIPOS>SUBSTRUCTURE
  1 ****  13 GROUP 4 **** **** 0

# MOE 2024.06 (io_trps.svl 2023.06)
