@<TRIPOS>MOLECULE
NONAME
31 32 1 0 0 
SMALL
USER_CHARGES


@<TRIPOS>ATOM
  1 O       -1.6020     1.1050     1.5370 O.2   1 <1>  -0.5700 
  2 C       -2.1750     1.1740     0.4780 C.2   1 <1>   0.5690 
  3 N       -2.8880     0.1220    -0.0310 N.am  1 <1>  -0.6600 
  4 C       -2.0860     2.4860    -0.2680 C.3   1 <1>  -0.1790 
  5 C       -3.7910     0.2060    -1.2200 C.3   1 <1>   0.3200 
  6 C       -2.8000    -1.2380     0.5820 C.3   1 <1>   0.0600 
  7 C       -5.1890    -0.3190    -0.9110 C.2   1 <1>   0.0060 
  8 N       -5.7460    -1.2560    -1.5990 N.2   1 <1>  -0.5650 
  9 N       -5.9620     0.1520     0.1120 N.pl3 1 <1>   0.0480 
 10 C       -6.9600    -1.4340    -1.0110 C.ar  1 <1>   0.2270 
 11 C       -7.1130    -0.5700     0.0570 C.ar  1 <1>  -0.1520 
 12 C       -5.6360     1.1840     1.1170 C.3   1 <1>   0.0160 
 13 C       -7.9780    -2.3240    -1.3450 C.ar  1 <1>  -0.1500 
 14 C       -8.2850    -0.5780     0.8210 C.ar  1 <1>  -0.1500 
 15 C       -9.1360    -2.3350    -0.5980 C.ar  1 <1>  -0.1500 
 16 C       -9.2870    -1.4610     0.4850 C.ar  1 <1>  -0.1500 
 17 H       -3.0370     2.9820    -0.2580 H     1 <1>   0.0800 
 18 H       -1.7710     2.3120    -1.2800 H     1 <1>   0.0800 
 19 H       -1.3620     3.1210     0.2080 H     1 <1>   0.0800 
 20 H       -3.3700    -0.3820    -2.0160 H     1 <1>   0.0800 
 21 H       -3.8810     1.2160    -1.5710 H     1 <1>   0.0800 
 22 H       -1.9660    -1.2970     1.2610 H     1 <1>   0.0800 
 23 H       -2.6680    -1.9790    -0.1870 H     1 <1>   0.0800 
 24 H       -3.7030    -1.4560     1.1250 H     1 <1>   0.0800 
 25 H       -5.1580     2.0160     0.6350 H     1 <1>   0.0800 
 26 H       -4.9720     0.7650     1.8510 H     1 <1>   0.0800 
 27 H       -6.5340     1.5230     1.5970 H     1 <1>   0.0800 
 28 H       -7.8320    -2.9820    -2.1810 H     1 <1>   0.1500 
 29 H       -8.3980     0.0930     1.6540 H     1 <1>   0.1500 
 30 H       -9.9330    -3.0160    -0.8420 H     1 <1>   0.1500 
 31 H      -10.2000    -1.4880     1.0550 H     1 <1>   0.1500 
@<TRIPOS>BOND
  1   1   2  2   
  2   2   3  am  
  3   2   4  1   
  4   3   5  1   
  5   3   6  1   
  6   4  17  1   
  7   4  18  1   
  8   4  19  1   
  9   5   7  1   
 10   5  20  1   
 11   5  21  1   
 12   6  22  1   
 13   6  23  1   
 14   6  24  1   
 15   7   8  2   
 16   7   9  1   
 17   8  10  1   
 18   9  11  1   
 19   9  12  1   
 20  10  11  ar  
 21  10  13  ar  
 22  11  14  ar  
 23  12  25  1   
 24  12  26  1   
 25  12  27  1   
 26  13  15  ar  
 27  13  28  1   
 28  14  16  ar  
 29  14  29  1   
 30  15  16  ar  
 31  15  30  1   
 32  16  31  1   
@<TRIPOS>SUBSTRUCTURE
  1 ****   9 GROUP 4 **** **** 0

# MOE 2024.06 (io_trps.svl 2023.06)
