@<TRIPOS>MOLECULE
NONAME
39 40 1 0 0 
SMALL
USER_CHARGES


@<TRIPOS>ATOM
  1 O        0.9580     1.1200    -1.5750 O.2   1 <1>  -0.5700 
  2 C        0.5210     1.9780    -0.8190 C.2   1 <1>   0.5440 
  3 N        1.3380     2.5490     0.1440 N.am  1 <1>  -0.2980 
  4 C       -0.8320     2.4500    -0.9160 C.ar  1 <1>   0.0860 
  5 N        0.9640     3.6130     0.9280 N.2   1 <1>  -0.5120 
  6 C        2.7050     1.9970     0.3870 C.3   1 <1>   0.2010 
  7 C       -1.2220     3.5100    -0.0820 C.ar  1 <1>   0.0860 
  8 C       -1.7600     1.8970    -1.8050 C.ar  1 <1>  -0.1500 
  9 C       -0.2370     4.0550     0.8160 C.2   1 <1>   0.3030 
 10 C        2.6920     0.5810     0.9770 C.2   1 <1>   0.5690 
 11 C       -2.5440     3.9740    -0.1760 C.ar  1 <1>  -0.1500 
 12 C       -3.0510     2.3710    -1.8780 C.ar  1 <1>  -0.1500 
 13 C       -0.6090     5.2290     1.7060 C.3   1 <1>  -0.1790 
 14 O        2.2300     0.4540     2.0900 O.2   1 <1>  -0.5700 
 15 N        3.2190    -0.5050     0.3040 N.am  1 <1>  -0.6600 
 16 C       -3.4430     3.4170    -1.0570 C.ar  1 <1>  -0.1500 
 17 C        3.8130    -0.4430    -1.0600 C.3   1 <1>   0.1400 
 18 C        3.0290    -1.8790     0.8500 C.3   1 <1>   0.1400 
 19 C        5.2660     0.0260    -0.9830 C.3   1 <1>  -0.2400 
 20 C        4.3160    -2.3690     1.5080 C.3   1 <1>  -0.2400 
 21 H        3.2110     2.6340     1.0880 H     1 <1>   0.0800 
 22 H        3.2500     2.0330    -0.5330 H     1 <1>   0.0800 
 23 H       -1.4510     1.0840    -2.4400 H     1 <1>   0.1500 
 24 H       -2.8770     4.7830     0.4490 H     1 <1>   0.1500 
 25 H       -3.7540     1.9350    -2.5680 H     1 <1>   0.1500 
 26 H       -0.9130     6.0670     1.1060 H     1 <1>   0.0800 
 27 H        0.2360     5.5280     2.3010 H     1 <1>   0.0800 
 28 H       -1.4060     4.9490     2.3700 H     1 <1>   0.0800 
 29 H       -4.4540     3.7860    -1.1140 H     1 <1>   0.1500 
 30 H        3.2430     0.2220    -1.6840 H     1 <1>   0.0800 
 31 H        3.7740    -1.4160    -1.5200 H     1 <1>   0.0800 
 32 H        2.7340    -2.5490     0.0610 H     1 <1>   0.0800 
 33 H        2.2370    -1.8790     1.5800 H     1 <1>   0.0800 
 34 H        5.3330     1.0000    -0.5360 H     1 <1>   0.0800 
 35 H        5.6780     0.0790    -1.9750 H     1 <1>   0.0800 
 36 H        5.8560    -0.6640    -0.4100 H     1 <1>   0.0800 
 37 H        5.0920    -2.4970     0.7780 H     1 <1>   0.0800 
 38 H        4.1370    -3.3160     1.9820 H     1 <1>   0.0800 
 39 H        4.6330    -1.6660     2.2590 H     1 <1>   0.0800 
@<TRIPOS>BOND
  1   1   2  2   
  2   2   3  am  
  3   2   4  1   
  4   3   5  1   
  5   3   6  1   
  6   4   7  ar  
  7   4   8  ar  
  8   5   9  2   
  9   6  10  1   
 10   6  21  1   
 11   6  22  1   
 12   7   9  1   
 13   7  11  ar  
 14   8  12  ar  
 15   8  23  1   
 16   9  13  1   
 17  10  14  2   
 18  10  15  am  
 19  11  16  ar  
 20  11  24  1   
 21  12  16  ar  
 22  12  25  1   
 23  13  26  1   
 24  13  27  1   
 25  13  28  1   
 26  15  17  1   
 27  15  18  1   
 28  16  29  1   
 29  17  19  1   
 30  17  30  1   
 31  17  31  1   
 32  18  20  1   
 33  18  32  1   
 34  18  33  1   
 35  19  34  1   
 36  19  35  1   
 37  19  36  1   
 38  20  37  1   
 39  20  38  1   
 40  20  39  1   
@<TRIPOS>SUBSTRUCTURE
  1 ****   2 GROUP 4 **** **** 0

# MOE 2024.06 (io_trps.svl 2023.06)
