@<TRIPOS>MOLECULE
NONAME
56 57 1 0 0 
SMALL
USER_CHARGES


@<TRIPOS>ATOM
  1 O       -0.4940     1.3510    -1.5560 O.2   1 <1>  -0.5700 
  2 C        0.0260     0.9370    -0.5380 C.2   1 <1>   0.6900 
  3 N       -0.6840     0.1630     0.3420 N.am  1 <1>  -0.6600 
  4 N        1.3220     1.1950    -0.2600 N.am  1 <1>  -0.7300 
  5 C       -0.2360    -0.1680     1.7190 C.3   1 <1>   0.1400 
  6 C       -1.8750    -0.6020    -0.1280 C.3   1 <1>   0.1400 
  7 C        2.4270     1.5720    -1.1400 C.3   1 <1>   0.4440 
  8 C        0.2550    -1.6230     1.7620 C.3   1 <1>  -0.1600 
  9 C       -1.8930    -2.0210     0.4690 C.3   1 <1>  -0.1600 
 10 C        3.6830     0.9970    -0.4610 C.ar  1 <1>  -0.1430 
 11 C        2.4120     3.0980    -1.2430 C.3   1 <1>  -0.2400 
 12 C        2.2950     0.9500    -2.5350 C.3   1 <1>  -0.2400 
 13 C       -0.4660    -2.5420     0.7470 C.3   1 <1>  -0.0190 
 14 C        3.7000    -0.3540    -0.1260 C.ar  1 <1>  -0.1500 
 15 C        4.8040     1.7590    -0.1530 C.ar  1 <1>  -0.1500 
 16 C       -0.4260    -3.9980     1.2010 C.2   1 <1>   0.6590 
 17 C        4.7780    -0.9590     0.5130 C.ar  1 <1>   0.0280 
 18 C        5.8920     1.1830     0.4780 C.ar  1 <1>  -0.1500 
 19 O       -1.3890    -4.5600     1.6570 O.2   1 <1>  -0.5700 
 20 O        0.7480    -4.6040     1.0760 O.3   1 <1>  -0.4300 
 21 C        4.7710    -2.3650     0.8680 C.2   1 <1>  -0.1670 
 22 C        5.8760    -0.1590     0.8070 C.ar  1 <1>  -0.1500 
 23 C        0.9270    -5.9400     1.4840 C.3   1 <1>   0.1200 
 24 C        5.2540    -2.8550     2.0210 C.2   1 <1>  -0.3000 
 25 C        4.1840    -3.3180    -0.1630 C.3   1 <1>  -0.1020 
 26 C        2.3860    -6.3170     1.2510 C.3   1 <1>  -0.2400 
 27 H        1.6720     0.8090     0.6080 H     1 <1>   0.3700 
 28 H       -1.0790    -0.0550     2.3800 H     1 <1>   0.0800 
 29 H        0.5300     0.5060     2.0600 H     1 <1>   0.0800 
 30 H       -1.8440    -0.6760    -1.2020 H     1 <1>   0.0800 
 31 H       -2.7720    -0.0700     0.1410 H     1 <1>   0.0800 
 32 H        0.1030    -1.9920     2.7620 H     1 <1>   0.0800 
 33 H        1.3140    -1.6510     1.5740 H     1 <1>   0.0800 
 34 H       -2.4050    -2.6800    -0.2100 H     1 <1>   0.0800 
 35 H       -2.4560    -2.0120     1.3870 H     1 <1>   0.0800 
 36 H        1.4750     3.4270    -1.6560 H     1 <1>   0.0800 
 37 H        3.1990     3.4370    -1.8910 H     1 <1>   0.0800 
 38 H        2.5380     3.5420    -0.2730 H     1 <1>   0.0800 
 39 H        1.4950     1.4080    -3.0870 H     1 <1>   0.0800 
 40 H        2.1130    -0.1060    -2.4680 H     1 <1>   0.0800 
 41 H        3.2050     1.1040    -3.0850 H     1 <1>   0.0800 
 42 H        0.0720    -2.4940    -0.1840 H     1 <1>   0.0800 
 43 H        2.8460    -0.9610    -0.3620 H     1 <1>   0.1500 
 44 H        4.8550     2.8050    -0.3920 H     1 <1>   0.1500 
 45 H        6.7550     1.7810     0.7120 H     1 <1>   0.1500 
 46 H        6.7300    -0.5950     1.2930 H     1 <1>   0.1500 
 47 H        0.2670    -6.5650     0.9060 H     1 <1>   0.0800 
 48 H        0.6710    -6.0150     2.5280 H     1 <1>   0.0800 
 49 H        5.2560    -3.8980     2.2830 H     1 <1>   0.1500 
 50 H        5.6830    -2.2460     2.7970 H     1 <1>   0.1500 
 51 H        3.1120    -3.2410    -0.1810 H     1 <1>   0.0800 
 52 H        4.4440    -4.3350     0.0680 H     1 <1>   0.0800 
 53 H        4.5700    -3.0870    -1.1400 H     1 <1>   0.0800 
 54 H        2.6270    -6.2340     0.2070 H     1 <1>   0.0800 
 55 H        2.5510    -7.3340     1.5600 H     1 <1>   0.0800 
 56 H        3.0300    -5.6760     1.8250 H     1 <1>   0.0800 
@<TRIPOS>BOND
  1   1   2  2   
  2   2   3  am  
  3   2   4  am  
  4   3   5  1   
  5   3   6  1   
  6   4   7  1   
  7   4  27  1   
  8   5   8  1   
  9   5  28  1   
 10   5  29  1   
 11   6   9  1   
 12   6  30  1   
 13   6  31  1   
 14   7  10  1   
 15   7  11  1   
 16   7  12  1   
 17   8  13  1   
 18   8  32  1   
 19   8  33  1   
 20   9  13  1   
 21   9  34  1   
 22   9  35  1   
 23  10  14  ar  
 24  10  15  ar  
 25  11  36  1   
 26  11  37  1   
 27  11  38  1   
 28  12  39  1   
 29  12  40  1   
 30  12  41  1   
 31  13  16  1   
 32  13  42  1   
 33  14  17  ar  
 34  14  43  1   
 35  15  18  ar  
 36  15  44  1   
 37  16  19  2   
 38  16  20  1   
 39  17  21  1   
 40  17  22  ar  
 41  18  22  ar  
 42  18  45  1   
 43  20  23  1   
 44  21  24  2   
 45  21  25  1   
 46  22  46  1   
 47  23  26  1   
 48  23  47  1   
 49  23  48  1   
 50  24  49  1   
 51  24  50  1   
 52  25  51  1   
 53  25  52  1   
 54  25  53  1   
 55  26  54  1   
 56  26  55  1   
 57  26  56  1   
@<TRIPOS>SUBSTRUCTURE
  1 ****  14 GROUP 4 **** **** 0

# MOE 2024.06 (io_trps.svl 2023.06)
