@<TRIPOS>MOLECULE
NONAME
51 52 1 0 0 
SMALL
USER_CHARGES


@<TRIPOS>ATOM
  1 S       -0.3130    -0.0230    -1.1960 S.o2  1 <1>   1.3330 
  2 O        0.8340    -0.9010    -1.2240 O.2   1 <1>  -0.6500 
  3 O       -0.6900     0.7320    -2.3680 O.2   1 <1>  -0.6500 
  4 N       -1.6580    -0.9340    -0.7120 N.am  1 <1>  -0.8490 
  5 C       -0.0650     1.1370     0.1350 C.3   1 <1>  -0.1350 
  6 C       -2.9060    -0.1660    -0.6160 C.3   1 <1>   0.1960 
  7 C       -1.4200    -1.8100     0.4370 C.3   1 <1>   0.1960 
  8 C       -4.1110    -1.1060    -0.4890 C.3   1 <1>  -0.0190 
  9 C       -2.5850    -2.7930     0.5980 C.3   1 <1>  -0.1600 
 10 C       -5.3860    -0.2890    -0.3580 C.2   1 <1>   0.5690 
 11 C       -3.9330    -2.0660     0.7010 C.3   1 <1>  -0.1600 
 12 O       -5.4230     0.6230     0.4340 O.2   1 <1>  -0.5700 
 13 N       -6.4560    -0.6140    -1.1280 N.am  1 <1>  -0.7300 
 14 C       -7.7480     0.1130    -1.1210 C.3   1 <1>   0.1400 
 15 C       -8.7390    -0.5910    -0.1940 C.3   1 <1>  -0.0170 
 16 C      -10.0700     0.1430    -0.1930 C.ar  1 <1>  -0.1430 
 17 C      -10.2360     1.2730     0.5920 C.ar  1 <1>  -0.1500 
 18 C      -11.1210    -0.3030    -0.9760 C.ar  1 <1>  -0.1500 
 19 C      -11.4460     1.9630     0.6010 C.ar  1 <1>   0.0830 
 20 C      -12.3290     0.3720    -0.9770 C.ar  1 <1>  -0.1500 
 21 O      -11.6460     3.0810     1.3590 O.3   1 <1>  -0.3630 
 22 C      -12.5030     1.5080    -0.1920 C.ar  1 <1>   0.0830 
 23 C      -10.6330     3.6080     2.1860 C.3   1 <1>   0.0400 
 24 O      -13.6760     2.2060    -0.1620 O.3   1 <1>  -0.3630 
 25 C      -14.7990     1.8050    -0.9140 C.3   1 <1>   0.0400 
 26 H        0.7810     1.7580    -0.0840 H     1 <1>   0.0800 
 27 H        0.1230     0.6220     1.0540 H     1 <1>   0.0800 
 28 H       -0.9240     1.7670     0.2510 H     1 <1>   0.0800 
 29 H       -3.0310     0.4370    -1.5020 H     1 <1>   0.0800 
 30 H       -2.8670     0.4920     0.2360 H     1 <1>   0.0800 
 31 H       -1.3120    -1.2230     1.3330 H     1 <1>   0.0800 
 32 H       -0.5130    -2.3720     0.2850 H     1 <1>   0.0800 
 33 H       -4.1660    -1.6810    -1.3960 H     1 <1>   0.0800 
 34 H       -2.4270    -3.3910     1.4780 H     1 <1>   0.0800 
 35 H       -2.5920    -3.4560    -0.2500 H     1 <1>   0.0800 
 36 H       -4.7360    -2.7830     0.7180 H     1 <1>   0.0800 
 37 H       -3.9680    -1.5050     1.6200 H     1 <1>   0.0800 
 38 H       -6.3950    -1.4040    -1.7720 H     1 <1>   0.3700 
 39 H       -8.1440     0.1540    -2.1210 H     1 <1>   0.0800 
 40 H       -7.5940     1.1230    -0.7800 H     1 <1>   0.0800 
 41 H       -8.3410    -0.6070     0.8060 H     1 <1>   0.0800 
 42 H       -8.8830    -1.6060    -0.5170 H     1 <1>   0.0800 
 43 H       -9.4090     1.6030     1.1910 H     1 <1>   0.1500 
 44 H      -11.0070    -1.1790    -1.5910 H     1 <1>   0.1500 
 45 H      -13.1200    -0.0030    -1.5970 H     1 <1>   0.1500 
 46 H      -11.0260     4.4800     2.6770 H     1 <1>   0.0800 
 47 H       -9.7910     3.8810     1.5750 H     1 <1>   0.0800 
 48 H      -10.3590     2.8690     2.9170 H     1 <1>   0.0800 
 49 H      -15.5950     2.5000    -0.7190 H     1 <1>   0.0800 
 50 H      -15.0910     0.8180    -0.6040 H     1 <1>   0.0800 
 51 H      -14.5430     1.8250    -1.9590 H     1 <1>   0.0800 
@<TRIPOS>BOND
  1   1   2  2   
  2   1   3  2   
  3   1   4  am  
  4   1   5  1   
  5   4   6  1   
  6   4   7  1   
  7   5  26  1   
  8   5  27  1   
  9   5  28  1   
 10   6   8  1   
 11   6  29  1   
 12   6  30  1   
 13   7   9  1   
 14   7  31  1   
 15   7  32  1   
 16   8  10  1   
 17   8  11  1   
 18   8  33  1   
 19   9  11  1   
 20   9  34  1   
 21   9  35  1   
 22  10  12  2   
 23  10  13  am  
 24  11  36  1   
 25  11  37  1   
 26  13  14  1   
 27  13  38  1   
 28  14  15  1   
 29  14  39  1   
 30  14  40  1   
 31  15  16  1   
 32  15  41  1   
 33  15  42  1   
 34  16  17  ar  
 35  16  18  ar  
 36  17  19  ar  
 37  17  43  1   
 38  18  20  ar  
 39  18  44  1   
 40  19  21  1   
 41  19  22  ar  
 42  20  22  ar  
 43  20  45  1   
 44  21  23  1   
 45  22  24  1   
 46  23  46  1   
 47  23  47  1   
 48  23  48  1   
 49  24  25  1   
 50  25  49  1   
 51  25  50  1   
 52  25  51  1   
@<TRIPOS>SUBSTRUCTURE
  1 ****  13 GROUP 4 **** **** 0

# MOE 2024.06 (io_trps.svl 2023.06)
