@<TRIPOS>MOLECULE
NONAME
54 56 1 0 0 
SMALL
USER_CHARGES


@<TRIPOS>ATOM
  1 O        2.4470     0.7900     0.7000 O.2   1 <1>  -0.5700 
  2 C        1.7300     0.9180    -0.2750 C.2   1 <1>   0.6900 
  3 N        1.8020     0.0490    -1.3160 N.am  1 <1>  -0.5470 
  4 N        0.8460     1.9360    -0.3590 N.am  1 <1>  -0.7300 
  5 C        2.8130    -0.8740    -1.5890 C.ar  1 <1>   0.1170 
  6 C        0.6650     2.9740     0.6650 C.3   1 <1>   0.2200 
  7 C        4.1610    -0.5020    -1.7370 C.ar  1 <1>   0.0860 
  8 C        2.4530    -2.2120    -1.7130 C.ar  1 <1>  -0.1500 
  9 C       -0.7960     3.4310     0.6660 C.3   1 <1>  -0.1600 
 10 C        1.6120     4.1390     0.3590 C.3   1 <1>  -0.1600 
 11 C        4.6090     0.8730    -1.6600 C.2   1 <1>   0.5440 
 12 C        5.0980    -1.5070    -1.9820 C.ar  1 <1>  -0.1500 
 13 C        3.3980    -3.1860    -1.9600 C.ar  1 <1>  -0.1500 
 14 C       -1.0100     4.5870     1.6550 C.3   1 <1>  -0.1600 
 15 C        1.4090     5.2930     1.3520 C.3   1 <1>  -0.1600 
 16 O        4.1260     1.7350    -2.3740 O.2   1 <1>  -0.5700 
 17 N        5.6050     1.2530    -0.7850 N.am  1 <1>  -0.6600 
 18 C        4.7290    -2.8330    -2.0930 C.ar  1 <1>  -0.1500 
 19 C       -0.0550     5.7540     1.3640 C.3   1 <1>  -0.1600 
 20 C        6.3240     2.5450    -0.9750 C.3   1 <1>   0.1400 
 21 C        5.6110     0.7460     0.6200 C.3   1 <1>   0.1400 
 22 C        5.7520     3.6070    -0.0220 C.3   1 <1>   0.3430 
 23 C        5.1130     1.8360     1.5960 C.3   1 <1>   0.3430 
 24 N        5.8180     3.1580     1.4170 N.4   1 <1>  -0.9590 
 25 C        5.2230     4.1860     2.3210 C.3   1 <1>   0.2630 
 26 H        1.0050     0.0580    -1.9460 H     1 <1>   0.3700 
 27 H        0.4470     2.1590    -1.2680 H     1 <1>   0.3700 
 28 H        0.9040     2.5640     1.6330 H     1 <1>   0.0800 
 29 H        1.4210    -2.4930    -1.6040 H     1 <1>   0.1500 
 30 H       -1.4290     2.6060     0.9430 H     1 <1>   0.0800 
 31 H       -1.0730     3.7610    -0.3200 H     1 <1>   0.0800 
 32 H        1.4260     4.4980    -0.6390 H     1 <1>   0.0800 
 33 H        2.6260     3.7910     0.4100 H     1 <1>   0.0800 
 34 H        6.1340    -1.2380    -2.0970 H     1 <1>   0.1500 
 35 H        3.1040    -4.2190    -2.0490 H     1 <1>   0.1500 
 36 H       -0.8450     4.2340     2.6590 H     1 <1>   0.0800 
 37 H       -2.0280     4.9310     1.5920 H     1 <1>   0.0800 
 38 H        2.0410     6.1220     1.0820 H     1 <1>   0.0800 
 39 H        1.6830     4.9700     2.3410 H     1 <1>   0.0800 
 40 H        5.4690    -3.5910    -2.2850 H     1 <1>   0.1500 
 41 H       -0.1870     6.5200     2.1080 H     1 <1>   0.0800 
 42 H       -0.3020     6.1830     0.4070 H     1 <1>   0.0800 
 43 H        6.2190     2.8830    -1.9920 H     1 <1>   0.0800 
 44 H        7.3740     2.4040    -0.7880 H     1 <1>   0.0800 
 45 H        6.6080     0.4420     0.8860 H     1 <1>   0.0800 
 46 H        4.9710    -0.1150     0.7110 H     1 <1>   0.0800 
 47 H        4.7270     3.7870    -0.3030 H     1 <1>   0.0800 
 48 H        6.2990     4.5260    -0.1480 H     1 <1>   0.0800 
 49 H        5.2360     1.4840     2.6070 H     1 <1>   0.0800 
 50 H        4.0610     1.9850     1.4350 H     1 <1>   0.0800 
 51 H        6.8080     3.0210     1.6610 H     1 <1>   0.4500 
 52 H        4.1820     4.3330     2.0820 H     1 <1>   0.0800 
 53 H        5.7390     5.1260     2.2120 H     1 <1>   0.0800 
 54 H        5.2980     3.8690     3.3490 H     1 <1>   0.0800 
@<TRIPOS>BOND
  1   1   2  2   
  2   2   3  am  
  3   2   4  am  
  4   3   5  1   
  5   3  26  1   
  6   4   6  1   
  7   4  27  1   
  8   5   7  ar  
  9   5   8  ar  
 10   6   9  1   
 11   6  10  1   
 12   6  28  1   
 13   7  11  1   
 14   7  12  ar  
 15   8  13  ar  
 16   8  29  1   
 17   9  14  1   
 18   9  30  1   
 19   9  31  1   
 20  10  15  1   
 21  10  32  1   
 22  10  33  1   
 23  11  16  2   
 24  11  17  am  
 25  12  18  ar  
 26  12  34  1   
 27  13  18  ar  
 28  13  35  1   
 29  14  19  1   
 30  14  36  1   
 31  14  37  1   
 32  15  19  1   
 33  15  38  1   
 34  15  39  1   
 35  17  20  1   
 36  17  21  1   
 37  18  40  1   
 38  19  41  1   
 39  19  42  1   
 40  20  22  1   
 41  20  43  1   
 42  20  44  1   
 43  21  23  1   
 44  21  45  1   
 45  21  46  1   
 46  22  24  1   
 47  22  47  1   
 48  22  48  1   
 49  23  24  1   
 50  23  49  1   
 51  23  50  1   
 52  24  25  1   
 53  24  51  1   
 54  25  52  1   
 55  25  53  1   
 56  25  54  1   
@<TRIPOS>SUBSTRUCTURE
  1 ****   1 GROUP 4 **** **** 0

# MOE 2024.06 (io_trps.svl 2023.06)
