@<TRIPOS>MOLECULE
NONAME
41 42 1 0 0 
SMALL
USER_CHARGES


@<TRIPOS>ATOM
  1 CL       0.3360    -0.3760     1.1960 Cl    1 <1>  -0.1770 
  2 C       -1.3910    -0.6140     1.0940 C.ar  1 <1>   0.1770 
  3 C       -2.1900     0.4070     0.6200 C.ar  1 <1>  -0.1500 
  4 C       -1.9250    -1.8250     1.4940 C.ar  1 <1>  -0.1500 
  5 C       -3.5670     0.2280     0.5350 C.ar  1 <1>   0.1170 
  6 C       -3.2940    -2.0120     1.4160 C.ar  1 <1>  -0.1500 
  7 N       -4.4480     1.2180     0.0710 N.am  1 <1>  -0.5470 
  8 C       -4.1020    -0.9920     0.9410 C.ar  1 <1>  -0.1500 
  9 C       -4.2390     2.3760    -0.6350 C.2   1 <1>   0.5690 
 10 O       -3.1480     2.7450    -0.9940 O.2   1 <1>  -0.5700 
 11 C       -5.4500     3.2340    -1.0150 C.3   1 <1>   0.2110 
 12 S       -6.8250     2.9950     0.2200 S.3   1 <1>  -0.2860 
 13 C       -6.0150     2.8860    -2.3990 C.3   1 <1>  -0.2400 
 14 C       -7.7570     4.5240     0.1090 C.2   1 <1>   0.2430 
 15 N       -7.4710     5.5060    -0.6680 N.2   1 <1>  -0.3380 
 16 N       -8.8350     4.7370     0.8480 N.pl3 1 <1>   0.0330 
 17 N       -8.4110     6.4320    -0.4420 N.2   1 <1>  -0.3380 
 18 C       -9.2100     5.9590     0.4570 C.2   1 <1>   0.0060 
 19 C      -10.4240     6.6880     1.0100 C.3   1 <1>   0.0200 
 20 C      -11.7450     5.9420     0.7420 C.3   1 <1>  -0.0800 
 21 C      -12.0020     5.7690    -0.7620 C.3   1 <1>  -0.2400 
 22 C      -12.9200     6.6930     1.3810 C.3   1 <1>  -0.2400 
 23 H       -1.7280     1.3300     0.3270 H     1 <1>   0.1500 
 24 H       -1.2770    -2.6020     1.8590 H     1 <1>   0.1500 
 25 H       -3.7270    -2.9490     1.7240 H     1 <1>   0.1500 
 26 H       -5.4280     1.0560     0.3010 H     1 <1>   0.3700 
 27 H       -5.1630    -1.1510     0.8840 H     1 <1>   0.1500 
 28 H       -5.1670     4.2700    -0.9720 H     1 <1>   0.0800 
 29 H       -6.3400     1.8620    -2.4290 H     1 <1>   0.0800 
 30 H       -5.2530     3.0280    -3.1450 H     1 <1>   0.0800 
 31 H       -6.8440     3.5290    -2.6350 H     1 <1>   0.0800 
 32 H       -9.2580     4.1120     1.5330 H     1 <1>   0.2700 
 33 H      -10.4690     7.6670     0.5630 H     1 <1>   0.0800 
 34 H      -10.2900     6.8230     2.0680 H     1 <1>   0.0800 
 35 H      -11.6910     4.9650     1.1920 H     1 <1>   0.0800 
 36 H      -12.0500     6.7280    -1.2500 H     1 <1>   0.0800 
 37 H      -12.9320     5.2540    -0.9280 H     1 <1>   0.0800 
 38 H      -11.2160     5.1970    -1.2230 H     1 <1>   0.0800 
 39 H      -13.0190     7.6760     0.9540 H     1 <1>   0.0800 
 40 H      -12.7720     6.7930     2.4420 H     1 <1>   0.0800 
 41 H      -13.8380     6.1570     1.2200 H     1 <1>   0.0800 
@<TRIPOS>BOND
  1   1   2  1   
  2   2   3  ar  
  3   2   4  ar  
  4   3   5  ar  
  5   3  23  1   
  6   4   6  ar  
  7   4  24  1   
  8   5   7  1   
  9   5   8  ar  
 10   6   8  ar  
 11   6  25  1   
 12   7   9  am  
 13   7  26  1   
 14   8  27  1   
 15   9  10  2   
 16   9  11  1   
 17  11  12  1   
 18  11  13  1   
 19  11  28  1   
 20  12  14  1   
 21  13  29  1   
 22  13  30  1   
 23  13  31  1   
 24  14  15  2   
 25  14  16  1   
 26  15  17  1   
 27  16  18  1   
 28  16  32  1   
 29  17  18  2   
 30  18  19  1   
 31  19  20  1   
 32  19  33  1   
 33  19  34  1   
 34  20  21  1   
 35  20  22  1   
 36  20  35  1   
 37  21  36  1   
 38  21  37  1   
 39  21  38  1   
 40  22  39  1   
 41  22  40  1   
 42  22  41  1   
@<TRIPOS>SUBSTRUCTURE
  1 ****  12 GROUP 4 **** **** 0

# MOE 2024.06 (io_trps.svl 2023.06)
