@<TRIPOS>MOLECULE
NONAME
39 41 1 0 0 
SMALL
USER_CHARGES


@<TRIPOS>ATOM
  1 P       -0.1610     0.9930    -0.7330 P.3   1 <1>   0.9780 
  2 O        0.3290     0.8470    -2.0990 O.2   1 <1>  -0.7000 
  3 C       -1.3930     2.2810    -0.5620 C.ar  1 <1>  -0.1390 
  4 C       -0.9180    -0.4950    -0.0970 C.ar  1 <1>  -0.1390 
  5 C        1.1350     1.3500     0.4190 C.3   1 <1>  -0.1600 
  6 C       -1.5710     3.0430     0.5920 C.ar  1 <1>  -0.1500 
  7 C       -2.2570     2.5440    -1.6190 C.ar  1 <1>  -0.1500 
  8 C       -1.6810    -0.5110     1.0660 C.ar  1 <1>  -0.1500 
  9 C       -0.7400    -1.7110    -0.7480 C.ar  1 <1>  -0.1500 
 10 C        2.2150     0.2730     0.4460 C.3   1 <1>   0.2000 
 11 C       -2.5540     4.0130     0.6830 C.ar  1 <1>  -0.1500 
 12 C       -3.2440     3.5100    -1.5420 C.ar  1 <1>  -0.1500 
 13 C       -2.2380    -1.6790     1.5580 C.ar  1 <1>  -0.1500 
 14 C       -1.2910    -2.8860    -0.2680 C.ar  1 <1>  -0.1500 
 15 O        3.0870     0.5680     1.4800 O.3   1 <1>  -0.5600 
 16 C        3.1080     0.2100    -0.7870 C.3   1 <1>  -0.1600 
 17 C       -3.3940     4.2500    -0.3860 C.ar  1 <1>  -0.1500 
 18 C       -2.0420    -2.8720     0.8910 C.ar  1 <1>  -0.1500 
 19 C        4.3030    -0.0770     1.2790 C.3   1 <1>   0.1200 
 20 C        4.4360    -0.2750    -0.2290 C.3   1 <1>  -0.1600 
 21 H        0.7430     1.4130     1.4150 H     1 <1>   0.0800 
 22 H        1.5990     2.2900     0.1890 H     1 <1>   0.0800 
 23 H       -0.9410     2.8920     1.4490 H     1 <1>   0.1500 
 24 H       -2.1530     1.9780    -2.5310 H     1 <1>   0.1500 
 25 H       -1.8550     0.4030     1.6070 H     1 <1>   0.1500 
 26 H       -0.1590    -1.7400    -1.6560 H     1 <1>   0.1500 
 27 H        1.7920    -0.6970     0.6530 H     1 <1>   0.0800 
 28 H       -2.6640     4.5860     1.5880 H     1 <1>   0.1500 
 29 H       -3.8920     3.6850    -2.3840 H     1 <1>   0.1500 
 30 H       -2.8250    -1.6580     2.4600 H     1 <1>   0.1500 
 31 H       -1.1340    -3.8100    -0.7980 H     1 <1>   0.1500 
 32 H        3.2210     1.1910    -1.2140 H     1 <1>   0.0800 
 33 H        2.7090    -0.4520    -1.5350 H     1 <1>   0.0800 
 34 H       -4.1600     5.0030    -0.3210 H     1 <1>   0.1500 
 35 H       -2.4730    -3.7830     1.2690 H     1 <1>   0.1500 
 36 H        4.2720    -1.0210     1.7960 H     1 <1>   0.0800 
 37 H        5.0890     0.5390     1.6810 H     1 <1>   0.0800 
 38 H        5.2590     0.2950    -0.6230 H     1 <1>   0.0800 
 39 H        4.5940    -1.3170    -0.4470 H     1 <1>   0.0800 
@<TRIPOS>BOND
  1   1   2  2   
  2   1   3  1   
  3   1   4  1   
  4   1   5  1   
  5   3   6  ar  
  6   3   7  ar  
  7   4   8  ar  
  8   4   9  ar  
  9   5  10  1   
 10   5  21  1   
 11   5  22  1   
 12   6  11  ar  
 13   6  23  1   
 14   7  12  ar  
 15   7  24  1   
 16   8  13  ar  
 17   8  25  1   
 18   9  14  ar  
 19   9  26  1   
 20  10  15  1   
 21  10  16  1   
 22  10  27  1   
 23  11  17  ar  
 24  11  28  1   
 25  12  17  ar  
 26  12  29  1   
 27  13  18  ar  
 28  13  30  1   
 29  14  18  ar  
 30  14  31  1   
 31  15  19  1   
 32  16  20  1   
 33  16  32  1   
 34  16  33  1   
 35  17  34  1   
 36  18  35  1   
 37  19  20  1   
 38  19  36  1   
 39  19  37  1   
 40  20  38  1   
 41  20  39  1   
@<TRIPOS>SUBSTRUCTURE
  1 ****   1 GROUP 4 **** **** 0

# MOE 2024.06 (io_trps.svl 2023.06)
