@<TRIPOS>MOLECULE
NONAME
44 45 1 0 0 
SMALL
USER_CHARGES


@<TRIPOS>ATOM
  1 O       -5.5810     1.3810    -1.5230 O.2   1 <1>  -0.5700 
  2 C       -5.4910     2.0240    -0.5100 C.2   1 <1>   0.6590 
  3 O       -4.3680     2.1190     0.1830 O.3   1 <1>  -0.4300 
  4 C       -6.6890     2.7880     0.0460 C.3   1 <1>  -0.0190 
  5 C       -3.1920     1.4620    -0.2300 C.3   1 <1>   0.1200 
  6 C       -7.8810     1.8430     0.2980 C.3   1 <1>  -0.1600 
  7 C       -7.1020     3.9270    -0.9050 C.3   1 <1>  -0.1600 
  8 C       -2.0930     1.7770     0.7800 C.3   1 <1>  -0.2400 
  9 C       -9.1340     2.6010     0.7320 C.3   1 <1>   0.3430 
 10 C       -8.3740     4.6320    -0.4390 C.3   1 <1>   0.3430 
 11 N       -9.4730     3.6340    -0.2930 N.4   1 <1>  -0.9590 
 12 C      -10.7650     4.3360     0.0120 C.3   1 <1>   0.3430 
 13 C      -11.9880     3.4240    -0.1220 C.3   1 <1>   0.1200 
 14 O      -13.1180     4.2050     0.1750 O.3   1 <1>  -0.3630 
 15 C      -14.3670     3.6770     0.1520 C.ar  1 <1>   0.0820 
 16 C      -14.6470     2.3580    -0.1960 C.ar  1 <1>  -0.1500 
 17 C      -15.4070     4.5250     0.5020 C.ar  1 <1>  -0.1500 
 18 C      -15.9550     1.9040    -0.1890 C.ar  1 <1>  -0.1500 
 19 C      -16.7120     4.0690     0.5090 C.ar  1 <1>  -0.1500 
 20 C      -16.9870     2.7570     0.1630 C.ar  1 <1>  -0.1500 
 21 H       -6.3930     3.2190     0.9880 H     1 <1>   0.0800 
 22 H       -2.9280     1.8170    -1.2120 H     1 <1>   0.0800 
 23 H       -3.3870     0.4030    -0.2710 H     1 <1>   0.0800 
 24 H       -7.6160     1.1340     1.0630 H     1 <1>   0.0800 
 25 H       -8.1010     1.2810    -0.5940 H     1 <1>   0.0800 
 26 H       -7.2540     3.5400    -1.8990 H     1 <1>   0.0800 
 27 H       -6.3030     4.6460    -0.9630 H     1 <1>   0.0800 
 28 H       -1.9140     2.8370     0.8160 H     1 <1>   0.0800 
 29 H       -1.1830     1.2870     0.4880 H     1 <1>   0.0800 
 30 H       -2.3730     1.4240     1.7560 H     1 <1>   0.0800 
 31 H       -8.9590     3.0750     1.6850 H     1 <1>   0.0800 
 32 H       -9.9480     1.9030     0.8460 H     1 <1>   0.0800 
 33 H       -8.6500     5.3840    -1.1620 H     1 <1>   0.0800 
 34 H       -8.1940     5.1200     0.5050 H     1 <1>   0.0800 
 35 H       -9.5640     3.1570    -1.2020 H     1 <1>   0.4500 
 36 H      -10.8920     5.1600    -0.6720 H     1 <1>   0.0800 
 37 H      -10.7340     4.7310     1.0140 H     1 <1>   0.0800 
 38 H      -11.9560     2.6130     0.5840 H     1 <1>   0.0800 
 39 H      -12.0900     3.0600    -1.1290 H     1 <1>   0.0800 
 40 H      -13.8750     1.6680    -0.4760 H     1 <1>   0.1500 
 41 H      -15.1920     5.5440     0.7700 H     1 <1>   0.1500 
 42 H      -16.1760     0.8850    -0.4570 H     1 <1>   0.1500 
 43 H      -17.5150     4.7330     0.7820 H     1 <1>   0.1500 
 44 H      -18.0030     2.4010     0.1680 H     1 <1>   0.1500 
@<TRIPOS>BOND
  1   1   2  2   
  2   2   3  1   
  3   2   4  1   
  4   3   5  1   
  5   4   6  1   
  6   4   7  1   
  7   4  21  1   
  8   5   8  1   
  9   5  22  1   
 10   5  23  1   
 11   6   9  1   
 12   6  24  1   
 13   6  25  1   
 14   7  10  1   
 15   7  26  1   
 16   7  27  1   
 17   8  28  1   
 18   8  29  1   
 19   8  30  1   
 20   9  11  1   
 21   9  31  1   
 22   9  32  1   
 23  10  11  1   
 24  10  33  1   
 25  10  34  1   
 26  11  12  1   
 27  11  35  1   
 28  12  13  1   
 29  12  36  1   
 30  12  37  1   
 31  13  14  1   
 32  13  38  1   
 33  13  39  1   
 34  14  15  1   
 35  15  16  ar  
 36  15  17  ar  
 37  16  18  ar  
 38  16  40  1   
 39  17  19  ar  
 40  17  41  1   
 41  18  20  ar  
 42  18  42  1   
 43  19  20  ar  
 44  19  43  1   
 45  20  44  1   
@<TRIPOS>SUBSTRUCTURE
  1 ****  11 GROUP 4 **** **** 0

# MOE 2024.06 (io_trps.svl 2023.06)
