@<TRIPOS>MOLECULE
NONAME
35 36 1 0 0 
SMALL
USER_CHARGES


@<TRIPOS>ATOM
  1 P       -0.1050     0.1670    -0.0680 P.3   1 <1>   0.9000 
  2 O       -0.1030    -1.0240     0.8350 O.co2 1 <1>  -0.9500 
  3 O        0.1360    -0.0150    -1.5310 O.co2 1 <1>  -0.9500 
  4 C        1.0320     1.4310     0.5910 C.3   1 <1>   0.1400 
  5 C       -1.7060     0.9490     0.1050 C.3   1 <1>  -0.1600 
  6 N        2.5050     1.1330     0.5840 N.am  1 <1>  -0.6600 
  7 C       -2.8410     0.0520    -0.3940 C.3   1 <1>  -0.0160 
  8 C        3.5010     2.0260     0.7310 C.2   1 <1>   0.5690 
  9 C        2.9750    -0.2060     0.1900 C.3   1 <1>   0.1400 
 10 C       -4.1900     0.7390    -0.2360 C.ar  1 <1>  -0.1440 
 11 O        3.3780     3.1940     1.0140 O.2   1 <1>  -0.5700 
 12 C        4.8340     1.3760     0.4820 C.3   1 <1>  -0.0990 
 13 C        4.4980    -0.1230     0.3600 C.3   1 <1>  -0.1600 
 14 C       -4.6950     1.5300    -1.2560 C.ar  1 <1>  -0.1500 
 15 C       -4.9230     0.5830     0.9290 C.ar  1 <1>  -0.1500 
 16 C       -5.9220     2.1560    -1.1140 C.ar  1 <1>  -0.1500 
 17 C       -6.1500     1.2080     1.0740 C.ar  1 <1>  -0.1500 
 18 C       -6.6510     1.9950     0.0520 C.ar  1 <1>  -0.1500 
 19 H        0.7760     1.6470     1.6100 H     1 <1>   0.0800 
 20 H        0.9070     2.3480     0.0470 H     1 <1>   0.0800 
 21 H       -1.7400     1.8650    -0.4520 H     1 <1>   0.0800 
 22 H       -1.9010     1.1870     1.1330 H     1 <1>   0.0800 
 23 H       -2.8270    -0.8720     0.1580 H     1 <1>   0.0800 
 24 H       -2.6660    -0.1930    -1.4280 H     1 <1>   0.0800 
 25 H        2.7030    -0.3920    -0.8370 H     1 <1>   0.0800 
 26 H        2.5390    -0.9640     0.8200 H     1 <1>   0.0800 
 27 H        5.5070     1.5720     1.2960 H     1 <1>   0.0800 
 28 H        5.2380     1.7570    -0.4360 H     1 <1>   0.0800 
 29 H        5.0040    -0.5870    -0.4660 H     1 <1>   0.0800 
 30 H        4.7680    -0.6330     1.2670 H     1 <1>   0.0800 
 31 H       -4.1280     1.6560    -2.1620 H     1 <1>   0.1500 
 32 H       -4.5330    -0.0280     1.7250 H     1 <1>   0.1500 
 33 H       -6.3070     2.7670    -1.9110 H     1 <1>   0.1500 
 34 H       -6.7130     1.0800     1.9820 H     1 <1>   0.1500 
 35 H       -7.6040     2.4810     0.1630 H     1 <1>   0.1500 
@<TRIPOS>BOND
  1   1   2  ar  
  2   1   3  ar  
  3   1   4  1   
  4   1   5  1   
  5   4   6  1   
  6   4  19  1   
  7   4  20  1   
  8   5   7  1   
  9   5  21  1   
 10   5  22  1   
 11   6   8  am  
 12   6   9  1   
 13   7  10  1   
 14   7  23  1   
 15   7  24  1   
 16   8  11  2   
 17   8  12  1   
 18   9  13  1   
 19   9  25  1   
 20   9  26  1   
 21  10  14  ar  
 22  10  15  ar  
 23  12  13  1   
 24  12  27  1   
 25  12  28  1   
 26  13  29  1   
 27  13  30  1   
 28  14  16  ar  
 29  14  31  1   
 30  15  17  ar  
 31  15  32  1   
 32  16  18  ar  
 33  16  33  1   
 34  17  18  ar  
 35  17  34  1   
 36  18  35  1   
@<TRIPOS>SUBSTRUCTURE
  1 ****   5 GROUP 4 **** **** 0

# MOE 2024.06 (io_trps.svl 2023.06)
