@<TRIPOS>MOLECULE
NONAME
49 50 1 0 0 
SMALL
USER_CHARGES


@<TRIPOS>ATOM
  1 CL      -2.5080     2.0020     0.7800 Cl    1 <1>  -0.1770 
  2 C       -3.4990     0.5990     0.4810 C.ar  1 <1>   0.1770 
  3 C       -4.0080    -0.1110     1.5520 C.ar  1 <1>  -0.1500 
  4 C       -3.7640     0.2210    -0.8210 C.ar  1 <1>  -0.1500 
  5 C       -4.8060    -1.2180     1.3130 C.ar  1 <1>  -0.1500 
  6 C       -4.5630    -0.8860    -1.0550 C.ar  1 <1>  -0.1500 
  7 C       -5.0880    -1.6060     0.0100 C.ar  1 <1>  -0.1430 
  8 C       -5.9810    -2.8070    -0.2530 C.3   1 <1>   0.2640 
  9 O       -7.2770    -2.3000    -0.4960 O.3   1 <1>  -0.3630 
 10 C       -8.3460    -2.9430     0.0440 C.ar  1 <1>   0.0830 
 11 C       -8.5770    -4.3080    -0.1590 C.ar  1 <1>   0.0830 
 12 C       -9.2340    -2.1790     0.7940 C.ar  1 <1>  -0.1430 
 13 O       -7.6980    -5.0120    -0.9270 O.3   1 <1>  -0.3630 
 14 C       -9.7020    -4.8930     0.4160 C.ar  1 <1>  -0.1500 
 15 C      -10.3530    -2.7790     1.3520 C.ar  1 <1>  -0.1500 
 16 C       -8.9770    -0.7010     1.0120 C.3   1 <1>   0.4860 
 17 C       -7.9450    -6.3530    -1.2950 C.3   1 <1>   0.0400 
 18 C      -10.5810    -4.1300     1.1640 C.ar  1 <1>  -0.1500 
 19 N       -8.9140    -0.0570    -0.3100 N.4   1 <1>  -0.9060 
 20 C       -8.5870     1.3690    -0.3780 C.3   1 <1>   0.5030 
 21 C       -9.8000     2.1950     0.1320 C.3   1 <1>   0.1200 
 22 C       -8.3380     1.6590    -1.8580 C.3   1 <1>  -0.2400 
 23 C       -7.3160     1.6720     0.4190 C.3   1 <1>  -0.2400 
 24 O      -11.0040     1.5950    -0.2650 O.3   1 <1>  -0.6800 
 25 H       -3.7770     0.2000     2.5560 H     1 <1>   0.1500 
 26 H       -3.3480     0.7860    -1.6360 H     1 <1>   0.1500 
 27 H       -5.1990    -1.7760     2.1460 H     1 <1>   0.1500 
 28 H       -4.7710    -1.1860    -2.0690 H     1 <1>   0.1500 
 29 H       -6.0060    -3.4660     0.5980 H     1 <1>   0.0800 
 30 H       -5.6610    -3.3550    -1.1230 H     1 <1>   0.0800 
 31 H       -9.9150    -5.9380     0.2930 H     1 <1>   0.1500 
 32 H      -11.0560    -2.2100     1.9380 H     1 <1>   0.1500 
 33 H       -8.0380    -0.5830     1.5290 H     1 <1>   0.0800 
 34 H       -9.7650    -0.2650     1.6030 H     1 <1>   0.0800 
 35 H       -7.1490    -6.6740    -1.9430 H     1 <1>   0.0800 
 36 H       -8.8840    -6.4050    -1.8170 H     1 <1>   0.0800 
 37 H       -7.9610    -6.9630    -0.4090 H     1 <1>   0.0800 
 38 H      -11.4500    -4.5950     1.6020 H     1 <1>   0.1500 
 39 H       -9.8490    -0.1380    -0.7320 H     1 <1>   0.4500 
 40 H       -8.2600    -0.6160    -0.8750 H     1 <1>   0.4500 
 41 H       -9.7670     3.1970    -0.2620 H     1 <1>   0.0800 
 42 H       -9.7970     2.2510     1.2070 H     1 <1>   0.0800 
 43 H       -9.2140     1.4460    -2.4440 H     1 <1>   0.0800 
 44 H       -7.5120     1.0780    -2.2310 H     1 <1>   0.0800 
 45 H       -8.0960     2.6980    -1.9950 H     1 <1>   0.0800 
 46 H       -7.0220     2.6950     0.2630 H     1 <1>   0.0800 
 47 H       -7.4640     1.5380     1.4750 H     1 <1>   0.0800 
 48 H       -6.5050     1.0460     0.0920 H     1 <1>   0.0800 
 49 H      -11.7700     2.1820    -0.0780 H     1 <1>   0.4000 
@<TRIPOS>BOND
  1   1   2  1   
  2   2   3  ar  
  3   2   4  ar  
  4   3   5  ar  
  5   3  25  1   
  6   4   6  ar  
  7   4  26  1   
  8   5   7  ar  
  9   5  27  1   
 10   6   7  ar  
 11   6  28  1   
 12   7   8  1   
 13   8   9  1   
 14   8  29  1   
 15   8  30  1   
 16   9  10  1   
 17  10  11  ar  
 18  10  12  ar  
 19  11  13  1   
 20  11  14  ar  
 21  12  15  ar  
 22  12  16  1   
 23  13  17  1   
 24  14  18  ar  
 25  14  31  1   
 26  15  18  ar  
 27  15  32  1   
 28  16  19  1   
 29  16  33  1   
 30  16  34  1   
 31  17  35  1   
 32  17  36  1   
 33  17  37  1   
 34  18  38  1   
 35  19  20  1   
 36  19  39  1   
 37  19  40  1   
 38  20  21  1   
 39  20  22  1   
 40  20  23  1   
 41  21  24  1   
 42  21  41  1   
 43  21  42  1   
 44  22  43  1   
 45  22  44  1   
 46  22  45  1   
 47  23  46  1   
 48  23  47  1   
 49  23  48  1   
 50  24  49  1   
@<TRIPOS>SUBSTRUCTURE
  1 ****   9 GROUP 4 **** **** 0

# MOE 2024.06 (io_trps.svl 2023.06)
