@<TRIPOS>MOLECULE
Structure1943
24 24 1 0 0 
SMALL
USER_CHARGES


@<TRIPOS>ATOM
  1 O       -0.0450     0.2250    -0.0630 O.2   1 <1>  -0.5700 
  2 C       -0.1000     1.4360    -0.1290 C.2   1 <1>   0.8060 
  3 O        1.0270     2.1410     0.0150 O.3   1 <1>  -0.4300 
  4 C       -1.3160     2.1760    -0.3550 C.2   1 <1>  -0.0860 
  5 C        2.2680     1.5110     0.2410 C.3   1 <1>   0.1200 
  6 C       -2.6160     1.7920    -0.5440 C.2   1 <1>  -0.3320 
  7 C       -1.3870     3.5720    -0.4210 C.2   1 <1>   0.1390 
  8 C        3.3340     2.5950     0.3580 C.3   1 <1>  -0.2400 
  9 N       -3.3450     2.9090    -0.7000 N.pl3 1 <1>   0.3000 
 10 C       -3.2210     0.3980    -0.5870 C.3   1 <1>   0.0200 
 11 N       -2.5860     4.0150    -0.6250 N.2   1 <1>  -0.7070 
 12 C       -3.9920     0.1160     0.7020 C.3   1 <1>  -0.2400 
 13 H        2.4740     0.8540    -0.5870 H     1 <1>   0.0800 
 14 H        2.1990     0.9360     1.1500 H     1 <1>   0.0800 
 15 H       -0.5330     4.2200    -0.3120 H     1 <1>   0.1500 
 16 H        3.3840     3.1660    -0.5520 H     1 <1>   0.0800 
 17 H        4.2930     2.1430     0.5320 H     1 <1>   0.0800 
 18 H        3.1090     3.2490     1.1820 H     1 <1>   0.0800 
 19 H       -4.3600     2.9560    -0.8560 H     1 <1>   0.2700 
 20 H       -2.4460    -0.3400    -0.7020 H     1 <1>   0.0800 
 21 H       -3.8780     0.3100    -1.4350 H     1 <1>   0.0800 
 22 H       -3.3310     0.1940     1.5480 H     1 <1>   0.0800 
 23 H       -4.3990    -0.8790     0.6770 H     1 <1>   0.0800 
 24 H       -4.7970     0.8170     0.8260 H     1 <1>   0.0800 
@<TRIPOS>BOND
  1   1   2  2   
  2   2   3  1   
  3   2   4  1   
  4   3   5  1   
  5   4   6  2   
  6   4   7  1   
  7   5   8  1   
  8   5  13  1   
  9   5  14  1   
 10   6   9  1   
 11   6  10  1   
 12   7  11  2   
 13   7  15  1   
 14   8  16  1   
 15   8  17  1   
 16   8  18  1   
 17   9  11  1   
 18   9  19  1   
 19  10  12  1   
 20  10  20  1   
 21  10  21  1   
 22  12  22  1   
 23  12  23  1   
 24  12  24  1   
@<TRIPOS>SUBSTRUCTURE
  1 ****   4 GROUP 4 **** **** 0

# MOE 2024.06 (io_trps.svl 2023.06)
