@<TRIPOS>MOLECULE
NONAME
47 49 1 0 0 
SMALL
USER_CHARGES


@<TRIPOS>ATOM
  1 S        0.2160    -0.2480     1.0470 S.o2  1 <1>   1.4470 
  2 O       -1.0070     0.4700     0.7580 O.2   1 <1>  -0.6500 
  3 O        0.5050    -0.6460     2.4070 O.2   1 <1>  -0.6500 
  4 N        0.2020    -1.6530     0.1000 N.am  1 <1>  -0.8490 
  5 C        1.6450     0.6640     0.3990 C.ar  1 <1>  -0.0090 
  6 C       -0.6330    -2.6960     0.7040 C.3   1 <1>   0.1960 
  7 C       -0.2160    -1.3830    -1.2810 C.3   1 <1>   0.1960 
  8 C        2.8620     0.0280     0.2010 C.ar  1 <1>  -0.1500 
  9 C        1.5630     2.0140     0.0910 C.ar  1 <1>  -0.1500 
 10 C       -0.4980    -4.0050    -0.0820 C.3   1 <1>  -0.1600 
 11 C       -0.0490    -2.6410    -2.1380 C.3   1 <1>  -0.1600 
 12 C        3.9870     0.6870    -0.2930 C.ar  1 <1>   0.0860 
 13 C        2.6590     2.6970    -0.4030 C.ar  1 <1>  -0.1500 
 14 C       -0.8510    -3.8140    -1.5620 C.3   1 <1>  -0.1600 
 15 C        3.8660     2.0480    -0.5970 C.ar  1 <1>  -0.1440 
 16 C        5.2230    -0.0530    -0.4620 C.2   1 <1>   0.5440 
 17 C        5.0500     2.8380    -1.1410 C.3   1 <1>  -0.0970 
 18 O        5.7630    -0.1180    -1.5480 O.2   1 <1>  -0.5700 
 19 N        5.7690    -0.6760     0.6340 N.am  1 <1>  -0.5470 
 20 C        6.9110    -1.4850     0.8070 C.ar  1 <1>   0.1170 
 21 C        7.3840    -1.7450     2.0930 C.ar  1 <1>   0.1900 
 22 C        7.6140    -2.0720    -0.2440 C.ar  1 <1>  -0.1500 
 23 F        6.7500    -1.2230     3.1160 F     1 <1>  -0.1900 
 24 C        8.4920    -2.5280     2.3520 C.ar  1 <1>  -0.1500 
 25 C        8.7290    -2.8610    -0.0070 C.ar  1 <1>  -0.1500 
 26 C        9.1720    -3.0910     1.2860 C.ar  1 <1>  -0.1500 
 27 H       -1.6620    -2.3760     0.7220 H     1 <1>   0.0800 
 28 H       -0.3190    -2.8730     1.7200 H     1 <1>   0.0800 
 29 H        0.3890    -0.5950    -1.6990 H     1 <1>   0.0800 
 30 H       -1.2450    -1.0620    -1.2990 H     1 <1>   0.0800 
 31 H        2.9340    -1.0220     0.4330 H     1 <1>   0.1500 
 32 H        0.6320     2.5370     0.2360 H     1 <1>   0.1500 
 33 H       -1.1420    -4.7490     0.3510 H     1 <1>   0.0800 
 34 H        0.5160    -4.3560     0.0070 H     1 <1>   0.0800 
 35 H        0.9950    -2.8980    -2.1790 H     1 <1>   0.0800 
 36 H       -0.3780    -2.4370    -3.1410 H     1 <1>   0.0800 
 37 H        2.5620     3.7440    -0.6360 H     1 <1>   0.1500 
 38 H       -1.9040    -3.6070    -1.6540 H     1 <1>   0.0800 
 39 H       -0.6360    -4.7140    -2.1120 H     1 <1>   0.0800 
 40 H        5.9130     2.6990    -0.5140 H     1 <1>   0.0800 
 41 H        4.8310     3.8900    -1.1850 H     1 <1>   0.0800 
 42 H        5.2900     2.5000    -2.1340 H     1 <1>   0.0800 
 43 H        5.3030    -0.4530     1.5160 H     1 <1>   0.3700 
 44 H        7.2950    -1.9200    -1.2590 H     1 <1>   0.1500 
 45 H        8.8130    -2.6930     3.3650 H     1 <1>   0.1500 
 46 H        9.2550    -3.2990    -0.8390 H     1 <1>   0.1500 
 47 H       10.0400    -3.7050     1.4590 H     1 <1>   0.1500 
@<TRIPOS>BOND
  1   1   2  2   
  2   1   3  2   
  3   1   4  am  
  4   1   5  1   
  5   4   6  1   
  6   4   7  1   
  7   5   8  ar  
  8   5   9  ar  
  9   6  10  1   
 10   6  27  1   
 11   6  28  1   
 12   7  11  1   
 13   7  29  1   
 14   7  30  1   
 15   8  12  ar  
 16   8  31  1   
 17   9  13  ar  
 18   9  32  1   
 19  10  14  1   
 20  10  33  1   
 21  10  34  1   
 22  11  14  1   
 23  11  35  1   
 24  11  36  1   
 25  12  15  ar  
 26  12  16  1   
 27  13  15  ar  
 28  13  37  1   
 29  14  38  1   
 30  14  39  1   
 31  15  17  1   
 32  16  18  2   
 33  16  19  am  
 34  17  40  1   
 35  17  41  1   
 36  17  42  1   
 37  19  20  1   
 38  19  43  1   
 39  20  21  ar  
 40  20  22  ar  
 41  21  23  1   
 42  21  24  ar  
 43  22  25  ar  
 44  22  44  1   
 45  24  26  ar  
 46  24  45  1   
 47  25  26  ar  
 48  25  46  1   
 49  26  47  1   
@<TRIPOS>SUBSTRUCTURE
  1 ****   8 GROUP 4 **** **** 0

# MOE 2024.06 (io_trps.svl 2023.06)
