@<TRIPOS>MOLECULE
NONAME
44 46 1 0 0 
SMALL
USER_CHARGES


@<TRIPOS>ATOM
  1 CL      -2.5380     0.5930     1.4240 Cl    1 <1>  -0.1770 
  2 C       -1.3600     1.8280     1.0470 C.ar  1 <1>   0.1770 
  3 C       -1.4580     2.5270    -0.1500 C.ar  1 <1>  -0.1440 
  4 C       -0.3590     2.0880     1.9620 C.ar  1 <1>  -0.1500 
  5 C       -0.5190     3.5130    -0.4300 C.ar  1 <1>  -0.1500 
  6 C       -2.5680     2.2110    -1.1360 C.3   1 <1>   0.4870 
  7 C        0.5610     3.0740     1.6630 C.ar  1 <1>   0.1770 
  8 C        0.4910     3.7870     0.4790 C.ar  1 <1>  -0.1500 
  9 N       -3.8760     2.6320    -0.5660 N.4   1 <1>  -0.9590 
 10 CL       1.8320     3.4290     2.8000 Cl    1 <1>  -0.1770 
 11 C       -5.0280     2.1770    -1.4290 C.3   1 <1>   0.3430 
 12 C       -3.9390     4.1220    -0.3110 C.3   1 <1>   0.3430 
 13 C       -6.3980     2.6190    -0.8710 C.3   1 <1>   0.2090 
 14 C       -5.3040     4.5710     0.2500 C.3   1 <1>   0.2090 
 15 N       -6.4140     4.0880    -0.6210 N.pl3 1 <1>  -0.8380 
 16 C       -7.6640     4.6360    -0.3550 C.ar  1 <1>   0.1000 
 17 C       -8.3520     4.3410     0.8150 C.ar  1 <1>  -0.1500 
 18 C       -8.2450     5.4990    -1.2740 C.ar  1 <1>  -0.1500 
 19 C       -9.5950     4.8920     1.0690 C.ar  1 <1>   0.0830 
 20 C       -9.4870     6.0560    -1.0310 C.ar  1 <1>  -0.1500 
 21 O      -10.1870     4.5430     2.2390 O.3   1 <1>  -0.3620 
 22 C      -10.1670     5.7560     0.1380 C.ar  1 <1>  -0.1500 
 23 C      -11.4550     5.0490     2.5940 C.3   1 <1>   0.0400 
 24 H       -0.2910     1.5400     2.8850 H     1 <1>   0.1500 
 25 H       -0.5540     4.0720    -1.3520 H     1 <1>   0.1500 
 26 H       -2.5760     1.1490    -1.3270 H     1 <1>   0.0800 
 27 H       -2.3880     2.7220    -2.0680 H     1 <1>   0.0800 
 28 H        1.2270     4.5470     0.2770 H     1 <1>   0.1500 
 29 H       -3.9670     2.1610     0.3460 H     1 <1>   0.4500 
 30 H       -5.0190     1.1030    -1.5200 H     1 <1>   0.0800 
 31 H       -4.9260     2.5950    -2.4170 H     1 <1>   0.0800 
 32 H       -3.7700     4.6530    -1.2330 H     1 <1>   0.0800 
 33 H       -3.1660     4.4100     0.3830 H     1 <1>   0.0800 
 34 H       -6.6110     2.0910     0.0420 H     1 <1>   0.0800 
 35 H       -7.1700     2.3740    -1.5820 H     1 <1>   0.0800 
 36 H       -5.3350     5.6460     0.2980 H     1 <1>   0.0800 
 37 H       -5.4340     4.1920     1.2490 H     1 <1>   0.0800 
 38 H       -7.9260     3.6790     1.5410 H     1 <1>   0.1500 
 39 H       -7.7170     5.7300    -2.1800 H     1 <1>   0.1500 
 40 H       -9.9270     6.7240    -1.7520 H     1 <1>   0.1500 
 41 H      -11.1290     6.2010     0.3030 H     1 <1>   0.1500 
 42 H      -11.7220     4.6400     3.5520 H     1 <1>   0.0800 
 43 H      -12.1730     4.7430     1.8540 H     1 <1>   0.0800 
 44 H      -11.3980     6.1210     2.6580 H     1 <1>   0.0800 
@<TRIPOS>BOND
  1   1   2  1   
  2   2   3  ar  
  3   2   4  ar  
  4   3   5  ar  
  5   3   6  1   
  6   4   7  ar  
  7   4  24  1   
  8   5   8  ar  
  9   5  25  1   
 10   6   9  1   
 11   6  26  1   
 12   6  27  1   
 13   7   8  ar  
 14   7  10  1   
 15   8  28  1   
 16   9  11  1   
 17   9  12  1   
 18   9  29  1   
 19  11  13  1   
 20  11  30  1   
 21  11  31  1   
 22  12  14  1   
 23  12  32  1   
 24  12  33  1   
 25  13  15  1   
 26  13  34  1   
 27  13  35  1   
 28  14  15  1   
 29  14  36  1   
 30  14  37  1   
 31  15  16  1   
 32  16  17  ar  
 33  16  18  ar  
 34  17  19  ar  
 35  17  38  1   
 36  18  20  ar  
 37  18  39  1   
 38  19  21  1   
 39  19  22  ar  
 40  20  22  ar  
 41  20  40  1   
 42  21  23  1   
 43  22  41  1   
 44  23  42  1   
 45  23  43  1   
 46  23  44  1   
@<TRIPOS>SUBSTRUCTURE
  1 ****  14 GROUP 4 **** **** 0

# MOE 2024.06 (io_trps.svl 2023.06)
