@<TRIPOS>MOLECULE
NONAME
37 38 1 0 0 
SMALL
USER_CHARGES


@<TRIPOS>ATOM
  1 S       -0.1880     0.0520     0.8880 S.o2  1 <1>   1.4470 
  2 O       -0.0760    -0.3420     2.2770 O.2   1 <1>  -0.6500 
  3 O       -1.2700     0.9180     0.4740 O.2   1 <1>  -0.6500 
  4 N       -0.2070    -1.3870    -0.0220 N.am  1 <1>  -0.8490 
  5 C        1.3510     0.8760     0.3770 C.ar  1 <1>  -0.0090 
  6 C       -1.3940    -2.2380     0.2240 C.3   1 <1>   0.2760 
  7 C        1.0180    -2.1620     0.2560 C.3   1 <1>   0.1960 
  8 C        1.6160     1.1240    -0.9630 C.ar  1 <1>  -0.1500 
  9 C        2.3020     1.2830     1.3040 C.ar  1 <1>  -0.1500 
 10 C       -1.3430    -3.4890    -0.6750 C.3   1 <1>  -0.1600 
 11 C       -2.7170    -1.5250    -0.0740 C.3   1 <1>  -0.2400 
 12 C        1.1380    -3.3720    -0.6690 C.3   1 <1>  -0.1600 
 13 C        2.7890     1.7410    -1.3610 C.ar  1 <1>  -0.1500 
 14 C        3.4750     1.9010     0.9070 C.ar  1 <1>  -0.1500 
 15 C       -0.0610    -4.3000    -0.4920 C.3   1 <1>  -0.1600 
 16 C        3.7550     2.1410    -0.4390 C.ar  1 <1>   0.0860 
 17 C        4.9870     2.7790    -0.8800 C.2   1 <1>   0.5440 
 18 O        5.1000     3.2430    -1.9930 O.2   1 <1>  -0.5700 
 19 N        6.0780     2.8770    -0.0860 N.am  1 <1>  -0.8000 
 20 H       -1.3980    -2.5520     1.2570 H     1 <1>   0.0800 
 21 H        1.0190    -2.4900     1.2830 H     1 <1>   0.0800 
 22 H        1.8920    -1.5540     0.1020 H     1 <1>   0.0800 
 23 H        0.8900     0.8290    -1.7030 H     1 <1>   0.1500 
 24 H        2.1190     1.1140     2.3530 H     1 <1>   0.1500 
 25 H       -1.4260    -3.1810    -1.7030 H     1 <1>   0.0800 
 26 H       -2.1840    -4.1240    -0.4570 H     1 <1>   0.0800 
 27 H       -2.6610    -1.0010    -1.0120 H     1 <1>   0.0800 
 28 H       -2.9690    -0.8380     0.7120 H     1 <1>   0.0800 
 29 H       -3.5230    -2.2330    -0.1280 H     1 <1>   0.0800 
 30 H        2.0440    -3.9060    -0.4470 H     1 <1>   0.0800 
 31 H        1.1950    -3.0310    -1.6890 H     1 <1>   0.0800 
 32 H        2.9630     1.9190    -2.4100 H     1 <1>   0.1500 
 33 H        4.1780     2.2080     1.6600 H     1 <1>   0.1500 
 34 H       -0.0210    -5.1000    -1.2120 H     1 <1>   0.0800 
 35 H       -0.0430    -4.7320     0.4950 H     1 <1>   0.0800 
 36 H        6.9150     3.3170    -0.4700 H     1 <1>   0.3700 
 37 H        6.1680     2.4450     0.8310 H     1 <1>   0.3700 
@<TRIPOS>BOND
  1   1   2  2   
  2   1   3  2   
  3   1   4  am  
  4   1   5  1   
  5   4   6  1   
  6   4   7  1   
  7   5   8  ar  
  8   5   9  ar  
  9   6  10  1   
 10   6  11  1   
 11   6  20  1   
 12   7  12  1   
 13   7  21  1   
 14   7  22  1   
 15   8  13  ar  
 16   8  23  1   
 17   9  14  ar  
 18   9  24  1   
 19  10  15  1   
 20  10  25  1   
 21  10  26  1   
 22  11  27  1   
 23  11  28  1   
 24  11  29  1   
 25  12  15  1   
 26  12  30  1   
 27  12  31  1   
 28  13  16  ar  
 29  13  32  1   
 30  14  16  ar  
 31  14  33  1   
 32  15  34  1   
 33  15  35  1   
 34  16  17  1   
 35  17  18  2   
 36  17  19  am  
 37  19  36  1   
 38  19  37  1   
@<TRIPOS>SUBSTRUCTURE
  1 ****   5 GROUP 4 **** **** 0

# MOE 2024.06 (io_trps.svl 2023.06)
