@<TRIPOS>MOLECULE
NONAME
37 40 1 0 0 
SMALL
USER_CHARGES


@<TRIPOS>ATOM
  1 O        3.5090    -5.0890    -0.0090 O.3   1 <1>  -0.3630 
  2 C        2.3580    -4.3620    -0.0330 C.ar  1 <1>   0.0830 
  3 C        4.7700    -4.4610    -0.0580 C.3   1 <1>   0.0400 
  4 C        1.1780    -5.0660     0.0050 C.ar  1 <1>  -0.1500 
  5 C        2.3370    -2.9530    -0.0930 C.ar  1 <1>  -0.1500 
  6 C       -0.0440    -4.3830    -0.0170 C.ar  1 <1>   0.0000 
  7 C        1.1440    -2.2700    -0.1160 C.ar  1 <1>  -0.1500 
  8 C       -0.0560    -2.9890    -0.0820 C.ar  1 <1>  -0.1520 
  9 C       -1.3890    -4.7800     0.0300 C.2   1 <1>  -0.1810 
 10 N       -1.3620    -2.5670    -0.0900 N.pl3 1 <1>   0.0480 
 11 C       -2.1600    -3.6710    -0.0260 C.2   1 <1>  -0.2270 
 12 C       -2.0370    -6.1350     0.1970 C.3   1 <1>   0.0210 
 13 C       -1.9060    -1.2230     0.1810 C.3   1 <1>   0.0960 
 14 C       -3.5740    -3.6270     0.0280 C.cat 1 <1>   0.7840 
 15 C       -3.5380    -6.0960    -0.1910 C.3   1 <1>   0.3300 
 16 C       -3.4150    -1.1480    -0.1530 C.3   1 <1>   0.3300 
 17 N       -4.1560    -2.4410     0.0290 N.pl3 1 <1>  -0.7940 
 18 N       -4.2530    -4.7770     0.0480 N.pl3 1 <1>  -0.8330 
 19 C       -5.7340    -4.9180     0.1770 C.3   1 <1>   0.2490 
 20 H        5.5250    -5.2260    -0.0330 H     1 <1>   0.0800 
 21 H        4.8750    -3.8180     0.7980 H     1 <1>   0.0800 
 22 H        4.8470    -3.9020    -0.9740 H     1 <1>   0.0800 
 23 H        1.1890    -6.1380     0.0550 H     1 <1>   0.1500 
 24 H        3.2530    -2.3960    -0.1210 H     1 <1>   0.1500 
 25 H        1.1290    -1.1960    -0.1620 H     1 <1>   0.1500 
 26 H       -1.9440    -6.4340     1.2260 H     1 <1>   0.0800 
 27 H       -1.5260    -6.8660    -0.4050 H     1 <1>   0.0800 
 28 H       -1.3620    -0.4950    -0.3920 H     1 <1>   0.0800 
 29 H       -1.7590    -1.0100     1.2240 H     1 <1>   0.0800 
 30 H       -4.0420    -6.8840     0.3420 H     1 <1>   0.0800 
 31 H       -3.6130    -6.3200    -1.2420 H     1 <1>   0.0800 
 32 H       -3.5220    -0.8380    -1.1790 H     1 <1>   0.0800 
 33 H       -3.8670    -0.3860     0.4600 H     1 <1>   0.0800 
 34 H       -5.1700    -2.3750     0.0530 H     1 <1>   0.4500 
 35 H       -6.2020    -3.9790     0.4120 H     1 <1>   0.0800 
 36 H       -5.9670    -5.6120     0.9670 H     1 <1>   0.0800 
 37 H       -6.1490    -5.2890    -0.7460 H     1 <1>   0.0800 
@<TRIPOS>BOND
  1   1   2  1   
  2   1   3  1   
  3   2   4  ar  
  4   2   5  ar  
  5   3  20  1   
  6   3  21  1   
  7   3  22  1   
  8   4   6  ar  
  9   4  23  1   
 10   5   7  ar  
 11   5  24  1   
 12   6   8  ar  
 13   6   9  1   
 14   7   8  ar  
 15   7  25  1   
 16   8  10  1   
 17   9  11  2   
 18   9  12  1   
 19  10  11  1   
 20  10  13  1   
 21  11  14  1   
 22  12  15  1   
 23  12  26  1   
 24  12  27  1   
 25  13  16  1   
 26  13  28  1   
 27  13  29  1   
 28  14  17  ar  
 29  14  18  ar  
 30  15  18  1   
 31  15  30  1   
 32  15  31  1   
 33  16  17  1   
 34  16  32  1   
 35  16  33  1   
 36  17  34  1   
 37  18  19  1   
 38  19  35  1   
 39  19  36  1   
 40  19  37  1   
@<TRIPOS>SUBSTRUCTURE
  1 ****   9 GROUP 4 **** **** 0

# MOE 2024.06 (io_trps.svl 2023.06)
