@<TRIPOS>MOLECULE
NONAME
33 32 1 0 0 
SMALL
USER_CHARGES


@<TRIPOS>ATOM
  1 O       -0.2570     0.7700     1.3570 O.2   1 <1>  -0.5700 
  2 C       -0.2320     1.2480     0.2400 C.2   1 <1>   0.7800 
  3 O       -1.3470     1.6190    -0.3890 O.3   1 <1>  -0.4300 
  4 N        0.9070     1.4340    -0.4530 N.am  1 <1>  -0.7300 
  5 C       -2.6660     1.5560     0.1070 C.3   1 <1>   0.2800 
  6 C        2.2970     1.4810     0.1160 C.3   1 <1>   0.1140 
  7 C       -3.5400     2.1180    -1.0150 C.3   1 <1>  -0.2400 
  8 C       -2.8080     2.4420     1.3500 C.3   1 <1>  -0.2400 
  9 C       -3.0630     0.1000     0.3750 C.3   1 <1>  -0.2400 
 10 C        3.0090     2.7790    -0.3300 C.2   1 <1>   0.9060 
 11 C        3.0730     0.2030    -0.3020 C.3   1 <1>  -0.0800 
 12 O        2.7260     3.2510    -1.4440 O.co2 1 <1>  -0.9000 
 13 O        3.8190     3.3330     0.4270 O.co2 1 <1>  -0.9000 
 14 C        2.3340    -1.0890     0.0900 C.3   1 <1>  -0.2400 
 15 C        4.4780     0.1670     0.3210 C.3   1 <1>  -0.2400 
 16 H        0.8590     2.0340    -1.2840 H     1 <1>   0.3700 
 17 H        2.2310     1.5130     1.1880 H     1 <1>   0.0800 
 18 H       -3.2530     3.1310    -1.2350 H     1 <1>   0.0800 
 19 H       -4.5740     2.1120    -0.7240 H     1 <1>   0.0800 
 20 H       -3.4310     1.5240    -1.9040 H     1 <1>   0.0800 
 21 H       -3.8400     2.5060     1.6410 H     1 <1>   0.0800 
 22 H       -2.4470     3.4330     1.1430 H     1 <1>   0.0800 
 23 H       -2.2600     2.0350     2.1790 H     1 <1>   0.0800 
 24 H       -4.1090     0.0430     0.6170 H     1 <1>   0.0800 
 25 H       -2.5140    -0.3040     1.2060 H     1 <1>   0.0800 
 26 H       -2.8790    -0.5030    -0.4960 H     1 <1>   0.0800 
 27 H        3.1870     0.2260    -1.3730 H     1 <1>   0.0800 
 28 H        2.1360    -1.0980     1.1470 H     1 <1>   0.0800 
 29 H        2.9200    -1.9530    -0.1640 H     1 <1>   0.0800 
 30 H        1.3960    -1.1600    -0.4310 H     1 <1>   0.0800 
 31 H        4.4130     0.2040     1.3940 H     1 <1>   0.0800 
 32 H        5.0590     1.0100    -0.0110 H     1 <1>   0.0800 
 33 H        4.9980    -0.7280     0.0310 H     1 <1>   0.0800 
@<TRIPOS>BOND
  1   1   2  2   
  2   2   3  1   
  3   2   4  am  
  4   3   5  1   
  5   4   6  1   
  6   4  16  1   
  7   5   7  1   
  8   5   8  1   
  9   5   9  1   
 10   6  10  1   
 11   6  11  1   
 12   6  17  1   
 13   7  18  1   
 14   7  19  1   
 15   7  20  1   
 16   8  21  1   
 17   8  22  1   
 18   8  23  1   
 19   9  24  1   
 20   9  25  1   
 21   9  26  1   
 22  10  12  ar  
 23  10  13  ar  
 24  11  14  1   
 25  11  15  1   
 26  11  27  1   
 27  14  28  1   
 28  14  29  1   
 29  14  30  1   
 30  15  31  1   
 31  15  32  1   
 32  15  33  1   
@<TRIPOS>SUBSTRUCTURE
  1 ****   4 GROUP 4 **** **** 0

# MOE 2024.06 (io_trps.svl 2023.06)
