@<TRIPOS>MOLECULE
NONAME
40 42 1 0 0 
SMALL
USER_CHARGES


@<TRIPOS>ATOM
  1 S        0.0640     0.4650     0.4430 S.3   1 <1>  -0.0800 
  2 C       -1.4700    -0.3990     0.3330 C.2   1 <1>   0.1040 
  3 C        0.9500    -0.9530    -0.0830 C.2   1 <1>  -0.1400 
  4 N       -2.6590     0.2480     0.6720 N.am  1 <1>  -0.4940 
  5 C       -1.2640    -1.6790    -0.0810 C.2   1 <1>   0.0190 
  6 C        0.1220    -1.9850    -0.3050 C.2   1 <1>  -0.1810 
  7 C        2.4540    -0.9090    -0.2320 C.3   1 <1>   0.0200 
  8 C       -3.0250     1.5690     0.6500 C.2   1 <1>   0.5690 
  9 C       -2.3140    -2.6270    -0.2930 C.1   1 <1>   0.5380 
 10 C        0.6510    -3.3370    -0.7640 C.3   1 <1>   0.0210 
 11 C        2.9180    -2.1590    -1.0030 C.3   1 <1>  -0.1600 
 12 O       -2.2920     2.4670     0.3170 O.2   1 <1>  -0.5700 
 13 C       -4.4420     1.9240     1.0440 C.3   1 <1>   0.1570 
 14 N       -3.1660    -3.3650    -0.4670 N.1   1 <1>  -0.5570 
 15 C        2.1760    -3.4320    -0.5460 C.3   1 <1>  -0.1600 
 16 N       -5.3630     0.8970     0.5260 N.pl3 1 <1>   0.3140 
 17 N       -5.4820    -0.2920     1.1510 N.2   1 <1>  -0.7070 
 18 C       -6.0880     0.9200    -0.6120 C.2   1 <1>  -0.3320 
 19 C       -6.2990    -1.0060     0.4080 C.2   1 <1>   0.1080 
 20 C       -6.7020    -0.2780    -0.7120 C.2   1 <1>  -0.1500 
 21 C       -6.1570     2.0910    -1.5800 C.3   1 <1>  -0.0600 
 22 C       -6.7950    -2.4550     0.6820 C.3   1 <1>   1.2010 
 23 F       -5.9980    -3.1510     1.4870 F     1 <1>  -0.3400 
 24 F       -7.9970    -2.4690     1.2520 F     1 <1>  -0.3400 
 25 F       -6.9170    -3.1700    -0.4330 F     1 <1>  -0.3400 
 26 H       -3.4560    -0.3730     0.8830 H     1 <1>   0.3700 
 27 H        2.8990    -0.8900     0.7470 H     1 <1>   0.0800 
 28 H        2.7480    -0.0200    -0.7600 H     1 <1>   0.0800 
 29 H        0.4270    -3.4610    -1.8090 H     1 <1>   0.0800 
 30 H        0.1690    -4.1300    -0.2190 H     1 <1>   0.0800 
 31 H        3.9790    -2.2840    -0.8750 H     1 <1>   0.0800 
 32 H        2.7290    -2.0070    -2.0520 H     1 <1>   0.0800 
 33 H       -4.7060     2.8820     0.6410 H     1 <1>   0.0800 
 34 H       -4.5210     1.9560     2.1130 H     1 <1>   0.0800 
 35 H        2.5580    -4.2870    -1.0770 H     1 <1>   0.0800 
 36 H        2.3670    -3.5860     0.5020 H     1 <1>   0.0800 
 37 H       -7.3640    -0.6260    -1.4870 H     1 <1>   0.1500 
 38 H       -6.5720     2.9560    -1.0930 H     1 <1>   0.0800 
 39 H       -6.7830     1.8410    -2.4190 H     1 <1>   0.0800 
 40 H       -5.1750     2.3310    -1.9480 H     1 <1>   0.0800 
@<TRIPOS>BOND
  1   1   2  1   
  2   1   3  1   
  3   2   4  1   
  4   2   5  2   
  5   3   6  2   
  6   3   7  1   
  7   4   8  am  
  8   4  26  1   
  9   5   6  1   
 10   5   9  1   
 11   6  10  1   
 12   7  11  1   
 13   7  27  1   
 14   7  28  1   
 15   8  12  2   
 16   8  13  1   
 17   9  14  3   
 18  10  15  1   
 19  10  29  1   
 20  10  30  1   
 21  11  15  1   
 22  11  31  1   
 23  11  32  1   
 24  13  16  1   
 25  13  33  1   
 26  13  34  1   
 27  15  35  1   
 28  15  36  1   
 29  16  17  1   
 30  16  18  1   
 31  17  19  2   
 32  18  20  2   
 33  18  21  1   
 34  19  20  1   
 35  19  22  1   
 36  20  37  1   
 37  21  38  1   
 38  21  39  1   
 39  21  40  1   
 40  22  23  1   
 41  22  24  1   
 42  22  25  1   
@<TRIPOS>SUBSTRUCTURE
  1 ****   4 GROUP 4 **** **** 0

# MOE 2024.06 (io_trps.svl 2023.06)
