@<TRIPOS>MOLECULE
NONAME
40 41 1 0 0 
SMALL
USER_CHARGES


@<TRIPOS>ATOM
  1 O       -0.8140     1.3660    -1.6190 O.3   1 <1>  -0.3630 
  2 C        0.0980     2.1020    -0.9270 C.ar  1 <1>   0.0830 
  3 C       -2.0260     0.9170    -1.0510 C.3   1 <1>   0.1200 
  4 C       -0.0280     2.4470     0.4170 C.ar  1 <1>  -0.1500 
  5 C        1.2150     2.5180    -1.6320 C.ar  1 <1>  -0.1500 
  6 C       -3.0480     2.0580    -1.0500 C.3   1 <1>  -0.1600 
  7 C        0.9550     3.1990     1.0380 C.ar  1 <1>  -0.1500 
  8 C        2.1970     3.2700    -1.0120 C.ar  1 <1>  -0.1500 
  9 C       -4.3830     1.5820    -0.4810 C.3   1 <1>   0.1200 
 10 C        2.0760     3.6150     0.3240 C.ar  1 <1>   0.0830 
 11 O       -5.2730     2.6730    -0.4770 O.3   1 <1>  -0.3630 
 12 O        3.0830     4.3550     0.8580 O.3   1 <1>  -0.3630 
 13 C       -6.5410     2.5450    -0.0130 C.ar  1 <1>   0.0830 
 14 C        3.0500     4.7650     2.2060 C.3   1 <1>   0.0400 
 15 C       -7.3320     3.6820    -0.0390 C.ar  1 <1>  -0.1500 
 16 C       -7.0740     1.3560     0.4780 C.ar  1 <1>  -0.1500 
 17 C       -8.6380     3.6400     0.4170 C.ar  1 <1>  -0.1500 
 18 C       -8.3800     1.3180     0.9330 C.ar  1 <1>  -0.1500 
 19 C       -9.1690     2.4570     0.9040 C.ar  1 <1>  -0.1430 
 20 C      -10.6010     2.4100     1.4060 C.3   1 <1>  -0.0970 
 21 H       -1.8350     0.5300    -0.0670 H     1 <1>   0.0800 
 22 H       -2.3790     0.1110    -1.6700 H     1 <1>   0.0800 
 23 H       -0.8780     2.1430     0.9940 H     1 <1>   0.1500 
 24 H        1.3110     2.2510    -2.6690 H     1 <1>   0.1500 
 25 H       -3.1980     2.3960    -2.0610 H     1 <1>   0.0800 
 26 H       -2.6860     2.8760    -0.4550 H     1 <1>   0.0800 
 27 H        0.8320     3.4510     2.0740 H     1 <1>   0.1500 
 28 H        3.0630     3.5930    -1.5600 H     1 <1>   0.1500 
 29 H       -4.2660     1.2400     0.5330 H     1 <1>   0.0800 
 30 H       -4.8050     0.8040    -1.0940 H     1 <1>   0.0800 
 31 H        3.9390     5.3360     2.4030 H     1 <1>   0.0800 
 32 H        3.0280     3.8940     2.8360 H     1 <1>   0.0800 
 33 H        2.1800     5.3780     2.3620 H     1 <1>   0.0800 
 34 H       -6.9180     4.5980    -0.4180 H     1 <1>   0.1500 
 35 H       -6.4930     0.4550     0.5140 H     1 <1>   0.1500 
 36 H       -9.2380     4.5330     0.3910 H     1 <1>   0.1500 
 37 H       -8.7830     0.3950     1.3120 H     1 <1>   0.1500 
 38 H      -10.6250     2.6360     2.4570 H     1 <1>   0.0800 
 39 H      -11.0230     1.4330     1.2500 H     1 <1>   0.0800 
 40 H      -11.2070     3.1270     0.8820 H     1 <1>   0.0800 
@<TRIPOS>BOND
  1   1   2  1   
  2   1   3  1   
  3   2   4  ar  
  4   2   5  ar  
  5   3   6  1   
  6   3  21  1   
  7   3  22  1   
  8   4   7  ar  
  9   4  23  1   
 10   5   8  ar  
 11   5  24  1   
 12   6   9  1   
 13   6  25  1   
 14   6  26  1   
 15   7  10  ar  
 16   7  27  1   
 17   8  10  ar  
 18   8  28  1   
 19   9  11  1   
 20   9  29  1   
 21   9  30  1   
 22  10  12  1   
 23  11  13  1   
 24  12  14  1   
 25  13  15  ar  
 26  13  16  ar  
 27  14  31  1   
 28  14  32  1   
 29  14  33  1   
 30  15  17  ar  
 31  15  34  1   
 32  16  18  ar  
 33  16  35  1   
 34  17  19  ar  
 35  17  36  1   
 36  18  19  ar  
 37  18  37  1   
 38  19  20  1   
 39  20  38  1   
 40  20  39  1   
 41  20  40  1   
@<TRIPOS>SUBSTRUCTURE
  1 ****   6 GROUP 4 **** **** 0

# MOE 2024.06 (io_trps.svl 2023.06)
