@<TRIPOS>MOLECULE
NONAME
48 49 1 0 0 
SMALL
USER_CHARGES


@<TRIPOS>ATOM
  1 O        0.4800     0.7480     0.0370 O.2   1 <1>  -0.5700 
  2 C        0.4400     1.9080     0.3540 C.2   1 <1>   0.6590 
  3 O       -0.5950     2.4420     0.9810 O.3   1 <1>  -0.4300 
  4 C        1.5880     2.8540     0.0460 C.3   1 <1>  -0.0190 
  5 C       -1.7260     1.6760     1.3280 C.3   1 <1>   0.1200 
  6 C        2.5640     2.1740    -0.9330 C.3   1 <1>   0.3430 
  7 C        2.3060     3.3370     1.3220 C.3   1 <1>  -0.1600 
  8 C       -2.7170     2.5920     2.0400 C.3   1 <1>  -0.2400 
  9 N        3.9820     2.6420    -0.7680 N.4   1 <1>  -0.9590 
 10 C        3.4580     4.3030     0.9800 C.3   1 <1>  -0.1600 
 11 C        4.0790     4.0850    -0.4070 C.3   1 <1>   0.3430 
 12 C        4.8220     2.2850    -1.9430 C.3   1 <1>   0.4860 
 13 C        6.2720     2.5470    -1.5890 C.ar  1 <1>  -0.1430 
 14 C        6.8960     1.7760    -0.6200 C.ar  1 <1>  -0.1500 
 15 C        6.9850     3.5590    -2.2130 C.ar  1 <1>  -0.1500 
 16 C        8.2090     2.0080    -0.2460 C.ar  1 <1>   0.0820 
 17 C        8.3000     3.8020    -1.8590 C.ar  1 <1>  -0.1500 
 18 O        8.6610     1.1710     0.7310 O.3   1 <1>  -0.3630 
 19 C        8.9190     3.0420    -0.8790 C.ar  1 <1>   0.0820 
 20 C       10.0100     1.1120     1.1300 C.3   1 <1>   0.1200 
 21 O       10.1980     3.3540    -0.5820 O.3   1 <1>  -0.5330 
 22 C       10.1570    -0.0340     2.1270 C.3   1 <1>  -0.2400 
 23 H        1.1590     3.7070    -0.4490 H     1 <1>   0.0800 
 24 H       -1.4120     0.8720     1.9730 H     1 <1>   0.0800 
 25 H       -2.1560     1.2690     0.4280 H     1 <1>   0.0800 
 26 H        2.2240     2.3610    -1.9390 H     1 <1>   0.0800 
 27 H        2.5390     1.1060    -0.7780 H     1 <1>   0.0800 
 28 H        2.6980     2.4820     1.8480 H     1 <1>   0.0800 
 29 H        1.6080     3.8260     1.9830 H     1 <1>   0.0800 
 30 H       -2.2750     2.9970     2.9330 H     1 <1>   0.0800 
 31 H       -3.5920     2.0320     2.3170 H     1 <1>   0.0800 
 32 H       -3.0170     3.3930     1.3900 H     1 <1>   0.0800 
 33 H        4.3880     2.1360     0.0300 H     1 <1>   0.4500 
 34 H        4.2270     4.2170     1.7300 H     1 <1>   0.0800 
 35 H        3.1000     5.3180     1.0230 H     1 <1>   0.0800 
 36 H        3.5490     4.6740    -1.1380 H     1 <1>   0.0800 
 37 H        5.1080     4.4080    -0.3920 H     1 <1>   0.0800 
 38 H        4.5370     2.8720    -2.8010 H     1 <1>   0.0800 
 39 H        4.7000     1.2420    -2.1840 H     1 <1>   0.0800 
 40 H        6.3790     0.9700    -0.1300 H     1 <1>   0.1500 
 41 H        6.5310     4.1670    -2.9790 H     1 <1>   0.1500 
 42 H        8.8410     4.5900    -2.3520 H     1 <1>   0.1500 
 43 H       10.2720     2.0500     1.5890 H     1 <1>   0.0800 
 44 H       10.6180     0.9400     0.2590 H     1 <1>   0.0800 
 45 H       10.5540     4.0840    -1.1190 H     1 <1>   0.4500 
 46 H        9.5370     0.1420     2.9870 H     1 <1>   0.0800 
 47 H       11.1800    -0.1040     2.4490 H     1 <1>   0.0800 
 48 H        9.8790    -0.9640     1.6640 H     1 <1>   0.0800 
@<TRIPOS>BOND
  1   1   2  2   
  2   2   3  1   
  3   2   4  1   
  4   3   5  1   
  5   4   6  1   
  6   4   7  1   
  7   4  23  1   
  8   5   8  1   
  9   5  24  1   
 10   5  25  1   
 11   6   9  1   
 12   6  26  1   
 13   6  27  1   
 14   7  10  1   
 15   7  28  1   
 16   7  29  1   
 17   8  30  1   
 18   8  31  1   
 19   8  32  1   
 20   9  11  1   
 21   9  12  1   
 22   9  33  1   
 23  10  11  1   
 24  10  34  1   
 25  10  35  1   
 26  11  36  1   
 27  11  37  1   
 28  12  13  1   
 29  12  38  1   
 30  12  39  1   
 31  13  14  ar  
 32  13  15  ar  
 33  14  16  ar  
 34  14  40  1   
 35  15  17  ar  
 36  15  41  1   
 37  16  18  1   
 38  16  19  ar  
 39  17  19  ar  
 40  17  42  1   
 41  18  20  1   
 42  19  21  1   
 43  20  22  1   
 44  20  43  1   
 45  20  44  1   
 46  21  45  1   
 47  22  46  1   
 48  22  47  1   
 49  22  48  1   
@<TRIPOS>SUBSTRUCTURE
  1 ****   9 GROUP 4 **** **** 0

# MOE 2024.06 (io_trps.svl 2023.06)
