@<TRIPOS>MOLECULE
NONAME
38 40 1 0 0 
SMALL
USER_CHARGES


@<TRIPOS>ATOM
  1 O       -4.6340    -1.9300    -2.1200 O.2   1 <1>  -0.5700 
  2 C       -4.5380    -2.2260    -0.9520 C.2   1 <1>   0.5690 
  3 N       -5.6000    -2.6180    -0.2090 N.am  1 <1>  -0.7300 
  4 C       -3.1670    -2.1670    -0.2680 C.3   1 <1>   0.1710 
  5 C       -6.9990    -2.7510    -0.6590 C.3   1 <1>   0.2200 
  6 N       -3.0550    -3.0300     0.9420 N.3   1 <1>  -0.9000 
  7 C       -7.9190    -1.8380     0.1810 C.3   1 <1>  -0.0800 
  8 C       -7.4660    -4.2160    -0.5240 C.3   1 <1>  -0.0800 
  9 C       -1.7430    -2.9030     1.5760 C.3   1 <1>   0.0300 
 10 C       -7.9280    -2.2810     1.6620 C.3   1 <1>  -0.1600 
 11 C       -9.3540    -1.9490    -0.3740 C.3   1 <1>  -0.1600 
 12 C       -7.4760    -4.6560     0.9580 C.3   1 <1>  -0.1600 
 13 C       -8.9020    -4.3230    -1.0780 C.3   1 <1>  -0.1600 
 14 C       -8.4100    -3.7400     1.7740 C.3   1 <1>  -0.0800 
 15 C       -9.8480    -3.4070    -0.2760 C.3   1 <1>  -0.0800 
 16 C       -9.8370    -3.8430     1.2020 C.3   1 <1>  -0.1600 
 17 H       -5.4170    -2.8590     0.7680 H     1 <1>   0.3700 
 18 H       -2.9860    -1.1440     0.0070 H     1 <1>   0.0800 
 19 H       -2.4230    -2.4570    -0.9880 H     1 <1>   0.0800 
 20 H       -7.0570    -2.4550    -1.6930 H     1 <1>   0.0800 
 21 H       -3.1880    -4.0080     0.6430 H     1 <1>   0.3600 
 22 H       -7.5830    -0.8200     0.0970 H     1 <1>   0.0800 
 23 H       -6.8150    -4.8510    -1.0980 H     1 <1>   0.0800 
 24 H       -1.5840    -1.8870     1.8950 H     1 <1>   0.0800 
 25 H       -0.9630    -3.1860     0.8890 H     1 <1>   0.0800 
 26 H       -1.6960    -3.5450     2.4390 H     1 <1>   0.0800 
 27 H       -6.9450    -2.1850     2.0870 H     1 <1>   0.0800 
 28 H       -8.5830    -1.6390     2.2260 H     1 <1>   0.0800 
 29 H       -9.3730    -1.6270    -1.4010 H     1 <1>   0.0800 
 30 H      -10.0110    -1.3030     0.1820 H     1 <1>   0.0800 
 31 H       -6.4810    -4.6200     1.3660 H     1 <1>   0.0800 
 32 H       -7.8140    -5.6740     1.0300 H     1 <1>   0.0800 
 33 H       -9.2420    -5.3420    -1.0150 H     1 <1>   0.0800 
 34 H       -8.9140    -4.0390    -2.1160 H     1 <1>   0.0800 
 35 H       -8.4100    -4.0460     2.8060 H     1 <1>   0.0800 
 36 H      -10.8470    -3.4800    -0.6690 H     1 <1>   0.0800 
 37 H      -10.5030    -3.2170     1.7710 H     1 <1>   0.0800 
 38 H      -10.1910    -4.8550     1.2850 H     1 <1>   0.0800 
@<TRIPOS>BOND
  1   1   2  2   
  2   2   3  am  
  3   2   4  1   
  4   3   5  1   
  5   3  17  1   
  6   4   6  1   
  7   4  18  1   
  8   4  19  1   
  9   5   7  1   
 10   5   8  1   
 11   5  20  1   
 12   6   9  1   
 13   6  21  1   
 14   7  10  1   
 15   7  11  1   
 16   7  22  1   
 17   8  12  1   
 18   8  13  1   
 19   8  23  1   
 20   9  24  1   
 21   9  25  1   
 22   9  26  1   
 23  10  14  1   
 24  10  27  1   
 25  10  28  1   
 26  11  15  1   
 27  11  29  1   
 28  11  30  1   
 29  12  14  1   
 30  12  31  1   
 31  12  32  1   
 32  13  15  1   
 33  13  33  1   
 34  13  34  1   
 35  14  16  1   
 36  14  35  1   
 37  15  16  1   
 38  15  36  1   
 39  16  37  1   
 40  16  38  1   
@<TRIPOS>SUBSTRUCTURE
  1 ****   5 GROUP 4 **** **** 0

# MOE 2024.06 (io_trps.svl 2023.06)
