@<TRIPOS>MOLECULE
NONAME
38 39 1 0 0 
SMALL
USER_CHARGES


@<TRIPOS>ATOM
  1 S       -0.3740    -0.0860     0.1000 S.3   1 <1>  -0.2860 
  2 C        1.2920    -0.5210    -0.4190 C.2   1 <1>   0.2420 
  3 C       -1.4300    -1.2660    -0.8800 C.3   1 <1>   0.1310 
  4 N        1.5120    -1.4290    -1.3020 N.2   1 <1>  -0.3380 
  5 N        2.4080     0.0470     0.0560 N.pl3 1 <1>   0.0480 
  6 C       -2.9130    -1.0320    -0.6360 C.2   1 <1>   0.5690 
  7 N        2.8360    -1.4880    -1.4430 N.2   1 <1>  -0.3380 
  8 C        3.3490    -0.6160    -0.6400 C.2   1 <1>   0.0060 
  9 C        2.6200     1.1180     1.0710 C.3   1 <1>   0.1760 
 10 O       -3.6760    -1.9210    -0.9220 O.2   1 <1>  -0.5700 
 11 N       -3.3100     0.1690    -0.1080 N.am  1 <1>  -0.5470 
 12 C        4.8450    -0.3890    -0.5170 C.3   1 <1>  -0.0600 
 13 C        2.1060     0.6910     2.4520 C.3   1 <1>  -0.2400 
 14 C        2.0010     2.4470     0.6200 C.3   1 <1>  -0.2400 
 15 C       -4.5770     0.6860     0.2020 C.ar  1 <1>   0.1170 
 16 C       -5.7610     0.1720    -0.3200 C.ar  1 <1>  -0.1500 
 17 C       -4.6550     1.7770     1.0610 C.ar  1 <1>  -0.1500 
 18 C       -6.9840     0.7270     0.0110 C.ar  1 <1>  -0.1500 
 19 C       -5.8760     2.3360     1.3940 C.ar  1 <1>  -0.1500 
 20 C       -7.0440     1.8110     0.8700 C.ar  1 <1>  -0.1500 
 21 H       -1.1530    -2.2610    -0.5840 H     1 <1>   0.0800 
 22 H       -1.1950    -1.1190    -1.9180 H     1 <1>   0.0800 
 23 H        3.6800     1.2750     1.1610 H     1 <1>   0.0800 
 24 H       -2.5310     0.7730     0.1550 H     1 <1>   0.3700 
 25 H        5.1700    -0.5910     0.4870 H     1 <1>   0.0800 
 26 H        5.0890     0.6240    -0.7780 H     1 <1>   0.0800 
 27 H        5.3690    -1.0490    -1.1840 H     1 <1>   0.0800 
 28 H        1.0360     0.5930     2.4580 H     1 <1>   0.0800 
 29 H        2.3760     1.4290     3.1860 H     1 <1>   0.0800 
 30 H        2.5480    -0.2460     2.7390 H     1 <1>   0.0800 
 31 H        0.9290     2.3860     0.5830 H     1 <1>   0.0800 
 32 H        2.3730     2.7190    -0.3520 H     1 <1>   0.0800 
 33 H        2.2660     3.2260     1.3120 H     1 <1>   0.0800 
 34 H       -5.7350    -0.6650    -0.9920 H     1 <1>   0.1500 
 35 H       -3.7570     2.1920     1.4770 H     1 <1>   0.1500 
 36 H       -7.8890     0.3150    -0.4000 H     1 <1>   0.1500 
 37 H       -5.9200     3.1790     2.0620 H     1 <1>   0.1500 
 38 H       -7.9950     2.2430     1.1270 H     1 <1>   0.1500 
@<TRIPOS>BOND
  1   1   2  1   
  2   1   3  1   
  3   2   4  2   
  4   2   5  1   
  5   3   6  1   
  6   3  21  1   
  7   3  22  1   
  8   4   7  1   
  9   5   8  1   
 10   5   9  1   
 11   6  10  2   
 12   6  11  am  
 13   7   8  2   
 14   8  12  1   
 15   9  13  1   
 16   9  14  1   
 17   9  23  1   
 18  11  15  1   
 19  11  24  1   
 20  12  25  1   
 21  12  26  1   
 22  12  27  1   
 23  13  28  1   
 24  13  29  1   
 25  13  30  1   
 26  14  31  1   
 27  14  32  1   
 28  14  33  1   
 29  15  16  ar  
 30  15  17  ar  
 31  16  18  ar  
 32  16  34  1   
 33  17  19  ar  
 34  17  35  1   
 35  18  20  ar  
 36  18  36  1   
 37  19  20  ar  
 38  19  37  1   
 39  20  38  1   
@<TRIPOS>SUBSTRUCTURE
  1 ****   1 GROUP 4 **** **** 0

# MOE 2024.06 (io_trps.svl 2023.06)
