@<TRIPOS>MOLECULE
NONAME
42 43 1 0 0 
SMALL
USER_CHARGES


@<TRIPOS>ATOM
  1 S        0.4570     0.7770    -0.0290 S.3   1 <1>  -0.2860 
  2 C       -1.2760     1.0490    -0.4150 C.2   1 <1>   0.2420 
  3 C        1.3100     1.3770    -1.5710 C.3   1 <1>   0.1310 
  4 N       -1.6830     1.5100    -1.5430 N.2   1 <1>  -0.3380 
  5 N       -2.2620     0.7890     0.4430 N.pl3 1 <1>   0.0480 
  6 C        2.8110     1.1440    -1.5090 C.2   1 <1>   0.5690 
  7 N       -3.0140     1.5650    -1.4500 N.2   1 <1>  -0.3380 
  8 C       -3.3430     1.1360    -0.2740 C.2   1 <1>   0.0060 
  9 C       -2.1670     0.2620     1.8230 C.3   1 <1>   0.0960 
 10 O        3.5170     1.8350    -2.2020 O.2   1 <1>  -0.5700 
 11 N        3.2900     0.1670    -0.6780 N.am  1 <1>  -0.5470 
 12 C       -4.7690     1.0300     0.2580 C.3   1 <1>   0.0200 
 13 C       -2.1830    -1.2700     1.8200 C.3   1 <1>  -0.2400 
 14 C        4.5940    -0.2980    -0.4370 C.ar  1 <1>   0.1170 
 15 C       -5.8340     1.3740    -0.7900 C.3   1 <1>  -0.2400 
 16 C        4.8450    -0.9930     0.7410 C.ar  1 <1>  -0.1500 
 17 C        5.6450    -0.1110    -1.3290 C.ar  1 <1>  -0.1500 
 18 C        6.1060    -1.4860     1.0270 C.ar  1 <1>  -0.1500 
 19 C        6.9070    -0.6010    -1.0480 C.ar  1 <1>  -0.1500 
 20 C        7.1500    -1.2910     0.1280 C.ar  1 <1>   0.0830 
 21 O        8.4180    -1.7380     0.3260 O.3   1 <1>  -0.3630 
 22 C        8.7670    -2.4310     1.5030 C.3   1 <1>   0.0400 
 23 H        1.0960     2.4260    -1.6650 H     1 <1>   0.0800 
 24 H        0.8850     0.8450    -2.4020 H     1 <1>   0.0800 
 25 H       -2.9920     0.6390     2.4000 H     1 <1>   0.0800 
 26 H       -1.2560     0.6190     2.2700 H     1 <1>   0.0800 
 27 H        2.5720    -0.2580    -0.0900 H     1 <1>   0.3700 
 28 H       -4.8790     1.6960     1.0950 H     1 <1>   0.0800 
 29 H       -4.9400     0.0260     0.6030 H     1 <1>   0.0800 
 30 H       -3.0950    -1.6380     1.3840 H     1 <1>   0.0800 
 31 H       -2.1160    -1.6370     2.8280 H     1 <1>   0.0800 
 32 H       -1.3450    -1.6520     1.2640 H     1 <1>   0.0800 
 33 H       -5.7030     2.3860    -1.1340 H     1 <1>   0.0800 
 34 H       -6.8190     1.2760    -0.3690 H     1 <1>   0.0800 
 35 H       -5.7510     0.7130    -1.6350 H     1 <1>   0.0800 
 36 H        4.0480    -1.1490     1.4450 H     1 <1>   0.1500 
 37 H        5.4840     0.4160    -2.2510 H     1 <1>   0.1500 
 38 H        6.2570    -2.0160     1.9480 H     1 <1>   0.1500 
 39 H        7.7140    -0.4500    -1.7420 H     1 <1>   0.1500 
 40 H        9.8120    -2.6780     1.4470 H     1 <1>   0.0800 
 41 H        8.1820    -3.3310     1.5660 H     1 <1>   0.0800 
 42 H        8.5880    -1.7930     2.3500 H     1 <1>   0.0800 
@<TRIPOS>BOND
  1   1   2  1   
  2   1   3  1   
  3   2   4  2   
  4   2   5  1   
  5   3   6  1   
  6   3  23  1   
  7   3  24  1   
  8   4   7  1   
  9   5   8  1   
 10   5   9  1   
 11   6  10  2   
 12   6  11  am  
 13   7   8  2   
 14   8  12  1   
 15   9  13  1   
 16   9  25  1   
 17   9  26  1   
 18  11  14  1   
 19  11  27  1   
 20  12  15  1   
 21  12  28  1   
 22  12  29  1   
 23  13  30  1   
 24  13  31  1   
 25  13  32  1   
 26  14  16  ar  
 27  14  17  ar  
 28  15  33  1   
 29  15  34  1   
 30  15  35  1   
 31  16  18  ar  
 32  16  36  1   
 33  17  19  ar  
 34  17  37  1   
 35  18  20  ar  
 36  18  38  1   
 37  19  20  ar  
 38  19  39  1   
 39  20  21  1   
 40  21  22  1   
 41  22  40  1   
 42  22  41  1   
 43  22  42  1   
@<TRIPOS>SUBSTRUCTURE
  1 ****   1 GROUP 4 **** **** 0

# MOE 2024.06 (io_trps.svl 2023.06)
