@<TRIPOS>MOLECULE
NONAME
29 29 1 0 0 
SMALL
USER_CHARGES


@<TRIPOS>ATOM
  1 O        0.4260    -0.9440     1.2080 O.2   1 <1>  -0.5700 
  2 C        0.1650    -2.0120     0.7030 C.2   1 <1>   0.6900 
  3 N        0.9860    -2.6760    -0.1180 N.am  1 <1>  -0.7300 
  4 N       -0.9260    -2.7310     0.9880 N.am  1 <1>  -0.7300 
  5 C        0.5590    -4.0790    -0.2610 C.3   1 <1>   0.2200 
  6 C       -0.8190    -4.0960     0.4550 C.3   1 <1>   0.2200 
  7 C        1.5840    -5.0040     0.4070 C.3   1 <1>  -0.1600 
  8 C       -1.9890    -4.3380    -0.4970 C.3   1 <1>  -0.2400 
  9 C        2.9520    -4.9700    -0.2910 C.3   1 <1>  -0.1600 
 10 C        3.9220    -5.9540     0.3700 C.3   1 <1>  -0.1600 
 11 C        5.2920    -5.9330    -0.3250 C.3   1 <1>  -0.2660 
 12 C        6.2570    -6.9110     0.3020 C.2   1 <1>   0.9060 
 13 O        7.1230    -6.4790     1.0680 O.co2 1 <1>  -0.9000 
 14 O        6.1400    -8.1080     0.0260 O.co2 1 <1>  -0.9000 
 15 H        1.9760    -2.4420    -0.1000 H     1 <1>   0.3700 
 16 H       -1.5000    -2.4880     1.7930 H     1 <1>   0.3700 
 17 H        0.4540    -4.3280    -1.3030 H     1 <1>   0.0800 
 18 H       -0.8300    -4.8130     1.2590 H     1 <1>   0.0800 
 19 H        1.2080    -6.0110     0.3750 H     1 <1>   0.0800 
 20 H        1.6970    -4.7300     1.4420 H     1 <1>   0.0800 
 21 H       -1.9900    -3.6020    -1.2830 H     1 <1>   0.0800 
 22 H       -2.9190    -4.2830     0.0390 H     1 <1>   0.0800 
 23 H       -1.9080    -5.3140    -0.9390 H     1 <1>   0.0800 
 24 H        3.3740    -3.9820    -0.2370 H     1 <1>   0.0800 
 25 H        2.8370    -5.2320    -1.3290 H     1 <1>   0.0800 
 26 H        3.5270    -6.9560     0.3200 H     1 <1>   0.0800 
 27 H        4.0570    -5.7020     1.4080 H     1 <1>   0.0800 
 28 H        5.7270    -4.9540    -0.2630 H     1 <1>   0.0800 
 29 H        5.1900    -6.2000    -1.3590 H     1 <1>   0.0800 
@<TRIPOS>BOND
  1   1   2  2   
  2   2   3  am  
  3   2   4  am  
  4   3   5  1   
  5   3  15  1   
  6   4   6  1   
  7   4  16  1   
  8   5   6  1   
  9   5   7  1   
 10   5  17  1   
 11   6   8  1   
 12   6  18  1   
 13   7   9  1   
 14   7  19  1   
 15   7  20  1   
 16   8  21  1   
 17   8  22  1   
 18   8  23  1   
 19   9  10  1   
 20   9  24  1   
 21   9  25  1   
 22  10  11  1   
 23  10  26  1   
 24  10  27  1   
 25  11  12  1   
 26  11  28  1   
 27  11  29  1   
 28  12  13  ar  
 29  12  14  ar  
@<TRIPOS>SUBSTRUCTURE
  1 ****   7 GROUP 4 **** **** 0

# MOE 2024.06 (io_trps.svl 2023.06)
