@<TRIPOS>MOLECULE
NONAME
53 55 1 0 0 
SMALL
USER_CHARGES


@<TRIPOS>ATOM
  1 S       -0.0130     0.5410     1.4760 S.o2  1 <1>   1.4470 
  2 O       -0.5470    -0.1800     2.6110 O.2   1 <1>  -0.6500 
  3 O        0.3430     1.9340     1.6520 O.2   1 <1>  -0.6500 
  4 N       -1.1860     0.5040     0.2530 N.am  1 <1>  -0.8490 
  5 C        1.3860    -0.3810     0.7530 C.ar  1 <1>  -0.0090 
  6 C       -0.7940     1.3120    -0.9080 C.3   1 <1>   0.1960 
  7 C       -2.4930     0.9250     0.7630 C.3   1 <1>   0.1960 
  8 C        1.3480    -1.7540     0.4920 C.ar  1 <1>  -0.1440 
  9 C        2.5460     0.3070     0.4180 C.ar  1 <1>  -0.1500 
 10 C       -1.8020     1.1260    -2.0460 C.3   1 <1>  -0.1600 
 11 C       -3.5690     0.7370    -0.3120 C.3   1 <1>  -0.1600 
 12 C        2.4430    -2.3840    -0.0770 C.ar  1 <1>  -0.1500 
 13 C        0.1200    -2.5990     0.8140 C.3   1 <1>  -0.0970 
 14 C        3.6590    -0.3020    -0.1550 C.ar  1 <1>   0.0860 
 15 C       -3.2200     1.4960    -1.5980 C.3   1 <1>  -0.1600 
 16 C        3.5800    -1.6700    -0.3980 C.ar  1 <1>  -0.1500 
 17 C        4.8430     0.4690    -0.4850 C.2   1 <1>   0.5440 
 18 O        4.7420     1.6180    -0.8670 O.2   1 <1>  -0.5700 
 19 N        6.0850    -0.0830    -0.3570 N.am  1 <1>  -0.7300 
 20 C        7.3580     0.5990    -0.6440 C.3   1 <1>   0.2200 
 21 C        8.1840    -0.2730    -1.5960 C.3   1 <1>  -0.1600 
 22 C        8.0990     0.8390     0.6750 C.3   1 <1>  -0.1600 
 23 C        9.5700     0.3390    -1.8470 C.3   1 <1>  -0.1600 
 24 C        9.4850     1.4530     0.4290 C.3   1 <1>  -0.1600 
 25 C       10.3150     0.5850    -0.5270 C.3   1 <1>  -0.1600 
 26 H        0.1800     1.0070    -1.2550 H     1 <1>   0.0800 
 27 H       -0.7410     2.3530    -0.6340 H     1 <1>   0.0800 
 28 H       -2.4510     1.9580     1.0710 H     1 <1>   0.0800 
 29 H       -2.7590     0.3300     1.6210 H     1 <1>   0.0800 
 30 H        2.5980     1.3680     0.6040 H     1 <1>   0.1500 
 31 H       -1.7760     0.0990    -2.3670 H     1 <1>   0.0800 
 32 H       -1.5140     1.7390    -2.8820 H     1 <1>   0.0800 
 33 H       -4.5150     1.0820     0.0660 H     1 <1>   0.0800 
 34 H       -3.6640    -0.3130    -0.5240 H     1 <1>   0.0800 
 35 H        2.4150    -3.4420    -0.2790 H     1 <1>   0.1500 
 36 H        0.2330    -3.6040     0.4500 H     1 <1>   0.0800 
 37 H       -0.0300    -2.6450     1.8780 H     1 <1>   0.0800 
 38 H       -0.7580    -2.1810     0.3570 H     1 <1>   0.0800 
 39 H       -3.9270     1.2550    -2.3730 H     1 <1>   0.0800 
 40 H       -3.2710     2.5560    -1.4130 H     1 <1>   0.0800 
 41 H        4.4120    -2.1790    -0.8520 H     1 <1>   0.1500 
 42 H        6.1810    -1.0010     0.0730 H     1 <1>   0.3700 
 43 H        7.1660     1.5490    -1.1170 H     1 <1>   0.0800 
 44 H        7.6630    -0.3660    -2.5330 H     1 <1>   0.0800 
 45 H        8.3080    -1.2540    -1.1730 H     1 <1>   0.0800 
 46 H        8.2180    -0.0930     1.1990 H     1 <1>   0.0800 
 47 H        7.5190     1.5060     1.2890 H     1 <1>   0.0800 
 48 H        9.4560     1.2740    -2.3700 H     1 <1>   0.0800 
 49 H       10.1480    -0.3190    -2.4710 H     1 <1>   0.0800 
 50 H       10.0050     1.5590     1.3650 H     1 <1>   0.0800 
 51 H        9.3670     2.4360     0.0050 H     1 <1>   0.0800 
 52 H       11.2550     1.0700    -0.7300 H     1 <1>   0.0800 
 53 H       10.5280    -0.3600    -0.0570 H     1 <1>   0.0800 
@<TRIPOS>BOND
  1   1   2  2   
  2   1   3  2   
  3   1   4  am  
  4   1   5  1   
  5   4   6  1   
  6   4   7  1   
  7   5   8  ar  
  8   5   9  ar  
  9   6  10  1   
 10   6  26  1   
 11   6  27  1   
 12   7  11  1   
 13   7  28  1   
 14   7  29  1   
 15   8  12  ar  
 16   8  13  1   
 17   9  14  ar  
 18   9  30  1   
 19  10  15  1   
 20  10  31  1   
 21  10  32  1   
 22  11  15  1   
 23  11  33  1   
 24  11  34  1   
 25  12  16  ar  
 26  12  35  1   
 27  13  36  1   
 28  13  37  1   
 29  13  38  1   
 30  14  16  ar  
 31  14  17  1   
 32  15  39  1   
 33  15  40  1   
 34  16  41  1   
 35  17  18  2   
 36  17  19  am  
 37  19  20  1   
 38  19  42  1   
 39  20  21  1   
 40  20  22  1   
 41  20  43  1   
 42  21  23  1   
 43  21  44  1   
 44  21  45  1   
 45  22  24  1   
 46  22  46  1   
 47  22  47  1   
 48  23  25  1   
 49  23  48  1   
 50  23  49  1   
 51  24  25  1   
 52  24  50  1   
 53  24  51  1   
 54  25  52  1   
 55  25  53  1   
@<TRIPOS>SUBSTRUCTURE
  1 ****   9 GROUP 4 **** **** 0

# MOE 2024.06 (io_trps.svl 2023.06)
