@<TRIPOS>MOLECULE
NONAME
46 49 1 0 0 
SMALL
USER_CHARGES


@<TRIPOS>ATOM
  1 O       -1.2720    -1.5140    -0.8660 O.3   1 <1>  -0.6800 
  2 C       -2.6400    -1.4000    -1.0160 C.3   1 <1>   0.1200 
  3 C       -3.1300    -0.3920     0.0310 C.3   1 <1>   0.3430 
  4 N       -4.6110    -0.2170    -0.0200 N.4   1 <1>  -0.9060 
  5 C       -5.1330     0.7590     0.9380 C.3   1 <1>   0.6030 
  6 C       -6.6350     0.6380     0.8220 C.2   1 <1>  -0.3320 
  7 C       -4.6470     2.1710     0.5330 C.3   1 <1>  -0.1600 
  8 N       -7.3920    -0.4810     1.0760 N.pl3 1 <1>   0.0330 
  9 C       -7.4560     1.6540     0.4750 C.2   1 <1>  -0.1810 
 10 C       -5.6420     3.2990     0.8790 C.3   1 <1>  -0.1600 
 11 C       -8.7030    -0.1670     0.8350 C.ar  1 <1>  -0.1520 
 12 C       -8.7800     1.1670     0.4520 C.ar  1 <1>   0.0000 
 13 C       -7.0090     3.0760     0.2090 C.3   1 <1>   0.0210 
 14 C       -9.8570    -0.9480     0.9260 C.ar  1 <1>  -0.1500 
 15 C      -10.0220     1.7300     0.1520 C.ar  1 <1>  -0.1500 
 16 C      -11.0690    -0.3760     0.6250 C.ar  1 <1>  -0.1500 
 17 C      -11.1750     0.9720     0.2330 C.ar  1 <1>   0.0000 
 18 C      -12.4680     1.5390    -0.0750 C.ar  1 <1>   0.0000 
 19 C      -13.4920     1.5450     0.8680 C.ar  1 <1>  -0.1500 
 20 C      -12.7270     2.0970    -1.3240 C.ar  1 <1>  -0.1500 
 21 C      -14.7310     2.0870     0.5760 C.ar  1 <1>  -0.1500 
 22 C      -13.9630     2.6410    -1.6220 C.ar  1 <1>  -0.1500 
 23 C      -14.9680     2.6370    -0.6720 C.ar  1 <1>  -0.1500 
 24 H       -0.8810    -2.1400    -1.5150 H     1 <1>   0.4000 
 25 H       -3.0740    -2.3730    -0.8580 H     1 <1>   0.0800 
 26 H       -2.8390    -1.0530    -2.0160 H     1 <1>   0.0800 
 27 H       -2.6430     0.5520    -0.1510 H     1 <1>   0.0800 
 28 H       -2.8390    -0.7430     1.0080 H     1 <1>   0.0800 
 29 H       -5.0950    -1.1000     0.1450 H     1 <1>   0.4500 
 30 H       -4.9230     0.1140    -0.9390 H     1 <1>   0.4500 
 31 H       -4.8260     0.5270     1.9460 H     1 <1>   0.0800 
 32 H       -4.4820     2.2140    -0.5290 H     1 <1>   0.0800 
 33 H       -3.7120     2.3740     1.0250 H     1 <1>   0.0800 
 34 H       -7.1050    -1.3830     1.4690 H     1 <1>   0.2700 
 35 H       -5.2450     4.2510     0.5700 H     1 <1>   0.0800 
 36 H       -5.7830     3.3360     1.9470 H     1 <1>   0.0800 
 37 H       -7.7270     3.7680     0.6150 H     1 <1>   0.0800 
 38 H       -6.9440     3.2400    -0.8530 H     1 <1>   0.0800 
 39 H       -9.7950    -1.9790     1.2260 H     1 <1>   0.1500 
 40 H      -10.0740     2.7630    -0.1390 H     1 <1>   0.1500 
 41 H      -11.9710    -0.9600     0.6840 H     1 <1>   0.1500 
 42 H      -13.3110     1.1240     1.8410 H     1 <1>   0.1500 
 43 H      -11.9500     2.0990    -2.0670 H     1 <1>   0.1500 
 44 H      -15.5090     2.0830     1.3180 H     1 <1>   0.1500 
 45 H      -14.1430     3.0670    -2.5940 H     1 <1>   0.1500 
 46 H      -15.9310     3.0600    -0.9020 H     1 <1>   0.1500 
@<TRIPOS>BOND
  1   1   2  1   
  2   1  24  1   
  3   2   3  1   
  4   2  25  1   
  5   2  26  1   
  6   3   4  1   
  7   3  27  1   
  8   3  28  1   
  9   4   5  1   
 10   4  29  1   
 11   4  30  1   
 12   5   6  1   
 13   5   7  1   
 14   5  31  1   
 15   6   8  1   
 16   6   9  2   
 17   7  10  1   
 18   7  32  1   
 19   7  33  1   
 20   8  11  1   
 21   8  34  1   
 22   9  12  1   
 23   9  13  1   
 24  10  13  1   
 25  10  35  1   
 26  10  36  1   
 27  11  12  ar  
 28  11  14  ar  
 29  12  15  ar  
 30  13  37  1   
 31  13  38  1   
 32  14  16  ar  
 33  14  39  1   
 34  15  17  ar  
 35  15  40  1   
 36  16  17  ar  
 37  16  41  1   
 38  17  18  1   
 39  18  19  ar  
 40  18  20  ar  
 41  19  21  ar  
 42  19  42  1   
 43  20  22  ar  
 44  20  43  1   
 45  21  23  ar  
 46  21  44  1   
 47  22  23  ar  
 48  22  45  1   
 49  23  46  1   
@<TRIPOS>SUBSTRUCTURE
  1 ****  12 GROUP 4 **** **** 0

# MOE 2024.06 (io_trps.svl 2023.06)
