@<TRIPOS>MOLECULE
NONAME
33 34 1 0 0 
SMALL
USER_CHARGES


@<TRIPOS>ATOM
  1 CL       0.3950     0.2410     0.5040 Cl    1 <1>  -0.1770 
  2 C        0.3470    -1.5020     0.2980 C.ar  1 <1>   0.1770 
  3 C        1.3240    -2.1690    -0.4550 C.ar  1 <1>   0.1000 
  4 C       -0.6950    -2.1790     0.9000 C.ar  1 <1>  -0.1500 
  5 N        2.4090    -1.5480    -1.0850 N.pl3 1 <1>  -0.8690 
  6 C        1.1930    -3.5470    -0.5910 C.ar  1 <1>  -0.1500 
  7 C       -0.7940    -3.5530     0.7590 C.ar  1 <1>  -0.1500 
  8 C        3.3400    -0.7420    -0.2880 C.3   1 <1>   0.2890 
  9 C        0.1510    -4.2330     0.0100 C.ar  1 <1>  -0.1500 
 10 C        3.5560     0.5890    -1.0000 C.3   1 <1>  -0.1600 
 11 C        4.6580    -1.4930    -0.1350 C.3   1 <1>  -0.1600 
 12 C        4.5730     1.4320    -0.2430 C.3   1 <1>   0.3430 
 13 C        5.6700    -0.6260     0.6110 C.3   1 <1>   0.3430 
 14 N        5.8540     0.6740    -0.1040 N.4   1 <1>  -0.9590 
 15 C        6.8900     1.5110     0.5760 C.3   1 <1>   0.2630 
 16 H       -1.4260    -1.6360     1.4720 H     1 <1>   0.1500 
 17 H        2.8790    -2.1370    -1.7800 H     1 <1>   0.4000 
 18 H        1.9130    -4.0930    -1.1720 H     1 <1>   0.1500 
 19 H       -1.6040    -4.0880     1.2250 H     1 <1>   0.1500 
 20 H        2.9230    -0.5660     0.6910 H     1 <1>   0.0800 
 21 H        0.0720    -5.3000    -0.1070 H     1 <1>   0.1500 
 22 H        2.6230     1.1220    -1.0440 H     1 <1>   0.0800 
 23 H        3.8930     0.4260    -2.0080 H     1 <1>   0.0800 
 24 H        5.0550    -1.7630    -1.0970 H     1 <1>   0.0800 
 25 H        4.4880    -2.3940     0.4280 H     1 <1>   0.0800 
 26 H        4.1820     1.6740     0.7330 H     1 <1>   0.0800 
 27 H        4.7430     2.3530    -0.7770 H     1 <1>   0.0800 
 28 H        6.6110    -1.1490     0.6760 H     1 <1>   0.0800 
 29 H        5.3150    -0.4430     1.6130 H     1 <1>   0.0800 
 30 H        6.1860     0.4600    -1.0560 H     1 <1>   0.4500 
 31 H        6.5760     1.7580     1.5770 H     1 <1>   0.0800 
 32 H        7.0500     2.4260     0.0290 H     1 <1>   0.0800 
 33 H        7.8260     0.9780     0.6300 H     1 <1>   0.0800 
@<TRIPOS>BOND
  1   1   2  1   
  2   2   3  ar  
  3   2   4  ar  
  4   3   5  1   
  5   3   6  ar  
  6   4   7  ar  
  7   4  16  1   
  8   5   8  1   
  9   5  17  1   
 10   6   9  ar  
 11   6  18  1   
 12   7   9  ar  
 13   7  19  1   
 14   8  10  1   
 15   8  11  1   
 16   8  20  1   
 17   9  21  1   
 18  10  12  1   
 19  10  22  1   
 20  10  23  1   
 21  11  13  1   
 22  11  24  1   
 23  11  25  1   
 24  12  14  1   
 25  12  26  1   
 26  12  27  1   
 27  13  14  1   
 28  13  28  1   
 29  13  29  1   
 30  14  15  1   
 31  14  30  1   
 32  15  31  1   
 33  15  32  1   
 34  15  33  1   
@<TRIPOS>SUBSTRUCTURE
  1 ****   8 GROUP 4 **** **** 0

# MOE 2024.06 (io_trps.svl 2023.06)
