@<TRIPOS>MOLECULE
NONAME
44 45 1 0 0 
SMALL
USER_CHARGES


@<TRIPOS>ATOM
  1 CL       0.4860     0.3050    -1.2830 Cl    1 <1>  -0.1770 
  2 C        0.1470     1.8920    -0.6430 C.ar  1 <1>   0.1770 
  3 C       -1.1670     2.2920    -0.4970 C.ar  1 <1>  -0.1500 
  4 C        1.2010     2.7170    -0.2940 C.ar  1 <1>  -0.1500 
  5 C       -1.4350     3.5590     0.0140 C.ar  1 <1>   0.0830 
  6 C        0.9320     3.9770     0.2140 C.ar  1 <1>  -0.1500 
  7 O       -2.6860     4.0490     0.1970 O.3   1 <1>  -0.3630 
  8 C       -0.3820     4.3910     0.3650 C.ar  1 <1>  -0.1500 
  9 C       -3.8270     3.2900    -0.1220 C.3   1 <1>   0.1200 
 10 C       -5.0530     4.1430     0.2110 C.3   1 <1>  -0.1600 
 11 C       -6.3650     3.4070    -0.0930 C.3   1 <1>  -0.1600 
 12 C       -7.5650     4.2950     0.2490 C.3   1 <1>   0.3430 
 13 N       -8.8400     3.6320    -0.1380 N.4   1 <1>  -0.9590 
 14 C       -9.9510     4.6280    -0.1760 C.3   1 <1>   0.3430 
 15 C       -9.1780     2.4810     0.7540 C.3   1 <1>   0.3430 
 16 C      -11.2200     3.9670    -0.7170 C.3   1 <1>  -0.1600 
 17 C      -10.4310     1.7760     0.2340 C.3   1 <1>  -0.1600 
 18 C      -11.6190     2.7410     0.1170 C.3   1 <1>  -0.0800 
 19 C      -12.8290     2.0370    -0.5040 C.3   1 <1>  -0.2400 
 20 H       -1.9430     1.6110    -0.7840 H     1 <1>   0.1500 
 21 H        2.2120     2.3760    -0.4200 H     1 <1>   0.1500 
 22 H        1.7390     4.6330     0.4900 H     1 <1>   0.1500 
 23 H       -0.5990     5.3680     0.7590 H     1 <1>   0.1500 
 24 H       -3.8090     2.3890     0.4670 H     1 <1>   0.0800 
 25 H       -3.7930     3.0530    -1.1720 H     1 <1>   0.0800 
 26 H       -5.0020     5.0510    -0.3680 H     1 <1>   0.0800 
 27 H       -5.0140     4.4010     1.2560 H     1 <1>   0.0800 
 28 H       -6.3930     2.5020     0.4870 H     1 <1>   0.0800 
 29 H       -6.3890     3.1540    -1.1390 H     1 <1>   0.0800 
 30 H       -7.4660     5.2250    -0.2890 H     1 <1>   0.0800 
 31 H       -7.5680     4.5200     1.3040 H     1 <1>   0.0800 
 32 H       -8.7370     3.2630    -1.0920 H     1 <1>   0.4500 
 33 H       -9.6840     5.4590    -0.8090 H     1 <1>   0.0800 
 34 H      -10.1380     5.0050     0.8170 H     1 <1>   0.0800 
 35 H       -9.3550     2.8360     1.7560 H     1 <1>   0.0800 
 36 H       -8.3630     1.7770     0.7820 H     1 <1>   0.0800 
 37 H      -11.0640     3.6870    -1.7440 H     1 <1>   0.0800 
 38 H      -12.0210     4.6870    -0.6980 H     1 <1>   0.0800 
 39 H      -10.6860     0.9780     0.9100 H     1 <1>   0.0800 
 40 H      -10.2170     1.3290    -0.7220 H     1 <1>   0.0800 
 41 H      -11.8940     3.0710     1.1060 H     1 <1>   0.0800 
 42 H      -12.6080     1.6860    -1.4970 H     1 <1>   0.0800 
 43 H      -13.6670     2.7100    -0.5600 H     1 <1>   0.0800 
 44 H      -13.1210     1.1930     0.0980 H     1 <1>   0.0800 
@<TRIPOS>BOND
  1   1   2  1   
  2   2   3  ar  
  3   2   4  ar  
  4   3   5  ar  
  5   3  20  1   
  6   4   6  ar  
  7   4  21  1   
  8   5   7  1   
  9   5   8  ar  
 10   6   8  ar  
 11   6  22  1   
 12   7   9  1   
 13   8  23  1   
 14   9  10  1   
 15   9  24  1   
 16   9  25  1   
 17  10  11  1   
 18  10  26  1   
 19  10  27  1   
 20  11  12  1   
 21  11  28  1   
 22  11  29  1   
 23  12  13  1   
 24  12  30  1   
 25  12  31  1   
 26  13  14  1   
 27  13  15  1   
 28  13  32  1   
 29  14  16  1   
 30  14  33  1   
 31  14  34  1   
 32  15  17  1   
 33  15  35  1   
 34  15  36  1   
 35  16  18  1   
 36  16  37  1   
 37  16  38  1   
 38  17  18  1   
 39  17  39  1   
 40  17  40  1   
 41  18  19  1   
 42  18  41  1   
 43  19  42  1   
 44  19  43  1   
 45  19  44  1   
@<TRIPOS>SUBSTRUCTURE
  1 ****  10 GROUP 4 **** **** 0

# MOE 2024.06 (io_trps.svl 2023.06)
