@<TRIPOS>MOLECULE
NONAME
28 29 1 0 0 
SMALL
USER_CHARGES


@<TRIPOS>ATOM
  1 S       -0.1080     0.3300     0.7970 S.o2  1 <1>   1.4470 
  2 O       -0.2800     0.8530     2.1350 O.2   1 <1>  -0.6500 
  3 O       -0.5580    -1.0090     0.4930 O.2   1 <1>  -0.6500 
  4 N       -0.9290     1.3800    -0.2450 N.am  1 <1>  -0.8490 
  5 C        1.6240     0.5060     0.2770 C.ar  1 <1>  -0.0090 
  6 C       -2.3430     0.9970    -0.4250 C.3   1 <1>   0.1960 
  7 C       -0.8170     2.7950     0.1260 C.3   1 <1>   0.1960 
  8 C        1.9620     0.5000    -1.0750 C.ar  1 <1>  -0.1500 
  9 C        2.6480     0.6380     1.2180 C.ar  1 <1>  -0.1500 
 10 C       -3.2480     2.1540    -0.9080 C.3   1 <1>   0.1200 
 11 C       -1.4690     3.7110    -0.9370 C.3   1 <1>   0.1200 
 12 C        3.2850     0.6280    -1.4550 C.ar  1 <1>   0.1900 
 13 C        3.9770     0.7670     0.8390 C.ar  1 <1>  -0.1500 
 14 O       -2.5210     3.0990    -1.6380 O.3   1 <1>  -0.5600 
 15 F        3.5770     0.6240    -2.7290 F     1 <1>  -0.1900 
 16 C        4.2850     0.7610    -0.5080 C.ar  1 <1>   0.1900 
 17 F        5.5350     0.8840    -0.8720 F     1 <1>  -0.1900 
 18 H       -2.7460     0.6220     0.5020 H     1 <1>   0.0800 
 19 H       -2.3900     0.1930    -1.1390 H     1 <1>   0.0800 
 20 H        0.2180     3.0700     0.2380 H     1 <1>   0.0800 
 21 H       -1.3010     2.9600     1.0750 H     1 <1>   0.0800 
 22 H        1.1980     0.3950    -1.8260 H     1 <1>   0.1500 
 23 H        2.3980     0.6390     2.2680 H     1 <1>   0.1500 
 24 H       -3.6990     2.6540    -0.0680 H     1 <1>   0.0800 
 25 H       -4.0320     1.7750    -1.5380 H     1 <1>   0.0800 
 26 H       -0.7330     3.9980    -1.6660 H     1 <1>   0.0800 
 27 H       -1.8480     4.6040    -0.4730 H     1 <1>   0.0800 
 28 H        4.7600     0.8680     1.5710 H     1 <1>   0.1500 
@<TRIPOS>BOND
  1   1   2  2   
  2   1   3  2   
  3   1   4  am  
  4   1   5  1   
  5   4   6  1   
  6   4   7  1   
  7   5   8  ar  
  8   5   9  ar  
  9   6  10  1   
 10   6  18  1   
 11   6  19  1   
 12   7  11  1   
 13   7  20  1   
 14   7  21  1   
 15   8  12  ar  
 16   8  22  1   
 17   9  13  ar  
 18   9  23  1   
 19  10  14  1   
 20  10  24  1   
 21  10  25  1   
 22  11  14  1   
 23  11  26  1   
 24  11  27  1   
 25  12  15  1   
 26  12  16  ar  
 27  13  16  ar  
 28  13  28  1   
 29  16  17  1   
@<TRIPOS>SUBSTRUCTURE
  1 ****   5 GROUP 4 **** **** 0

# MOE 2024.06 (io_trps.svl 2023.06)
