@<TRIPOS>MOLECULE
NONAME
46 47 1 0 0 
SMALL
USER_CHARGES


@<TRIPOS>ATOM
  1 O        1.1960     0.2470     1.8870 O.3   1 <1>  -0.6800 
  2 C        2.3120    -0.5530     1.7030 C.3   1 <1>   0.1200 
  3 C        3.0350    -0.0840     0.4360 C.3   1 <1>   0.1100 
  4 N        4.2390    -0.8960     0.1520 N.3   1 <1>  -0.8100 
  5 C        3.8980    -2.2220    -0.4240 C.3   1 <1>   0.1100 
  6 C        5.1490    -0.1630    -0.7630 C.3   1 <1>   0.1100 
  7 C        5.1550    -3.0760    -0.7260 C.3   1 <1>   0.3430 
  8 C        6.4030    -0.9840    -1.1530 C.3   1 <1>   0.3430 
  9 N        6.4140    -2.3110    -0.4530 N.4   1 <1>  -0.9590 
 10 C        7.6610    -3.0930    -0.6540 C.3   1 <1>   0.4860 
 11 C        8.8430    -2.2460    -0.2300 C.ar  1 <1>  -0.1440 
 12 C        9.0700    -1.9740     1.1110 C.ar  1 <1>  -0.1500 
 13 C        9.7040    -1.7230    -1.1830 C.ar  1 <1>  -0.1500 
 14 C       10.1370    -1.1790     1.4900 C.ar  1 <1>  -0.1500 
 15 C       10.7700    -0.9290    -0.7980 C.ar  1 <1>  -0.1500 
 16 C       10.9960    -0.6470     0.5410 C.ar  1 <1>  -0.1440 
 17 C       12.1690     0.2270     0.9800 C.3   1 <1>   0.0630 
 18 C       12.0500     1.6390     0.3970 C.3   1 <1>  -0.2400 
 19 C       13.5050    -0.4120     0.5860 C.3   1 <1>  -0.2400 
 20 H        0.7320     0.0170     2.7170 H     1 <1>   0.4000 
 21 H        1.9780    -1.5700     1.6110 H     1 <1>   0.0800 
 22 H        2.9520    -0.4440     2.5620 H     1 <1>   0.0800 
 23 H        3.3260     0.9410     0.5950 H     1 <1>   0.0800 
 24 H        2.3580    -0.1170    -0.4010 H     1 <1>   0.0800 
 25 H        3.3360    -2.0890    -1.3330 H     1 <1>   0.0800 
 26 H        3.2730    -2.7670     0.2610 H     1 <1>   0.0800 
 27 H        5.4720     0.7470    -0.2850 H     1 <1>   0.0800 
 28 H        4.6220     0.1170    -1.6600 H     1 <1>   0.0800 
 29 H        5.1280    -3.3880    -1.7570 H     1 <1>   0.0800 
 30 H        5.1260    -3.9620    -0.1140 H     1 <1>   0.0800 
 31 H        7.2820    -0.4180    -0.8870 H     1 <1>   0.0800 
 32 H        6.4170    -1.1280    -2.2200 H     1 <1>   0.0800 
 33 H        6.3500    -2.0440     0.5400 H     1 <1>   0.4500 
 34 H        7.7630    -3.3690    -1.6910 H     1 <1>   0.0800 
 35 H        7.6360    -3.9930    -0.0610 H     1 <1>   0.0800 
 36 H        8.4270    -2.3740     1.8760 H     1 <1>   0.1500 
 37 H        9.5630    -1.9250    -2.2310 H     1 <1>   0.1500 
 38 H       10.2990    -0.9780     2.5350 H     1 <1>   0.1500 
 39 H       11.4300    -0.5310    -1.5490 H     1 <1>   0.1500 
 40 H       12.1540     0.3150     2.0530 H     1 <1>   0.0800 
 41 H       12.1100     1.6190    -0.6760 H     1 <1>   0.0800 
 42 H       12.8410     2.2630     0.7730 H     1 <1>   0.0800 
 43 H       11.1080     2.0740     0.6810 H     1 <1>   0.0800 
 44 H       13.6000    -0.4780    -0.4830 H     1 <1>   0.0800 
 45 H       13.5710    -1.4040     0.9970 H     1 <1>   0.0800 
 46 H       14.3230     0.1710     0.9680 H     1 <1>   0.0800 
@<TRIPOS>BOND
  1   1   2  1   
  2   1  20  1   
  3   2   3  1   
  4   2  21  1   
  5   2  22  1   
  6   3   4  1   
  7   3  23  1   
  8   3  24  1   
  9   4   5  1   
 10   4   6  1   
 11   5   7  1   
 12   5  25  1   
 13   5  26  1   
 14   6   8  1   
 15   6  27  1   
 16   6  28  1   
 17   7   9  1   
 18   7  29  1   
 19   7  30  1   
 20   8   9  1   
 21   8  31  1   
 22   8  32  1   
 23   9  10  1   
 24   9  33  1   
 25  10  11  1   
 26  10  34  1   
 27  10  35  1   
 28  11  12  ar  
 29  11  13  ar  
 30  12  14  ar  
 31  12  36  1   
 32  13  15  ar  
 33  13  37  1   
 34  14  16  ar  
 35  14  38  1   
 36  15  16  ar  
 37  15  39  1   
 38  16  17  1   
 39  17  18  1   
 40  17  19  1   
 41  17  40  1   
 42  18  41  1   
 43  18  42  1   
 44  18  43  1   
 45  19  44  1   
 46  19  45  1   
 47  19  46  1   
@<TRIPOS>SUBSTRUCTURE
  1 ****   8 GROUP 4 **** **** 0

# MOE 2024.06 (io_trps.svl 2023.06)
