@<TRIPOS>MOLECULE
NONAME
27 29 1 0 0 
SMALL
USER_CHARGES


@<TRIPOS>ATOM
  1 S       -0.0910    -0.1020    -0.1230 S.3   1 <1>  -0.2860 
  2 C        0.1630     1.5110    -0.8880 C.2   1 <1>   0.2420 
  3 C        1.5640    -0.9200    -0.2030 C.3   1 <1>   0.0700 
  4 N        1.2680     1.8910    -1.4000 N.2   1 <1>  -0.3380 
  5 N       -0.7770     2.4460    -0.9730 N.pl3 1 <1>   0.5930 
  6 C        2.4100    -0.4060     0.9610 C.3   1 <1>  -0.2400 
  7 N        1.0270     3.1270    -1.8260 N.2   1 <1>   0.0000 
  8 N       -0.1870     3.4740    -1.5760 N.2   1 <1>  -0.4180 
  9 C       -2.1310     2.4520    -0.5260 C.ar  1 <1>  -0.0230 
 10 C       -3.0010     1.4140    -0.8680 C.ar  1 <1>  -0.1500 
 11 C       -2.6040     3.5100     0.2600 C.ar  1 <1>  -0.1500 
 12 C       -4.3000     1.4660    -0.4090 C.ar  1 <1>   0.0830 
 13 C       -3.9170     3.5440     0.7130 C.ar  1 <1>  -0.1500 
 14 O       -5.2850     0.5870    -0.6140 O.3   1 <1>  -0.3630 
 15 C       -4.7470     2.5000     0.3610 C.ar  1 <1>   0.0830 
 16 C       -6.4320     1.0900     0.0690 C.3   1 <1>   0.4000 
 17 O       -6.0330     2.3180     0.6760 O.3   1 <1>  -0.3630 
 18 H        2.0030    -0.6850    -1.1570 H     1 <1>   0.0800 
 19 H        1.3960    -1.9800    -0.1270 H     1 <1>   0.0800 
 20 H        2.5530     0.6570     0.8780 H     1 <1>   0.0800 
 21 H        3.3740    -0.8820     0.9490 H     1 <1>   0.0800 
 22 H        1.9280    -0.6250     1.8970 H     1 <1>   0.0800 
 23 H       -2.6860     0.5830    -1.4750 H     1 <1>   0.1500 
 24 H       -1.9400     4.3190     0.5200 H     1 <1>   0.1500 
 25 H       -4.2880     4.3520     1.3180 H     1 <1>   0.1500 
 26 H       -6.7340     0.3920     0.8300 H     1 <1>   0.0800 
 27 H       -7.2210     1.2760    -0.6380 H     1 <1>   0.0800 
@<TRIPOS>BOND
  1   1   2  1   
  2   1   3  1   
  3   2   4  2   
  4   2   5  1   
  5   3   6  1   
  6   3  18  1   
  7   3  19  1   
  8   4   7  1   
  9   5   8  1   
 10   5   9  1   
 11   6  20  1   
 12   6  21  1   
 13   6  22  1   
 14   7   8  2   
 15   9  10  ar  
 16   9  11  ar  
 17  10  12  ar  
 18  10  23  1   
 19  11  13  ar  
 20  11  24  1   
 21  12  14  1   
 22  12  15  ar  
 23  13  15  ar  
 24  13  25  1   
 25  14  16  1   
 26  15  17  1   
 27  16  17  1   
 28  16  26  1   
 29  16  27  1   
@<TRIPOS>SUBSTRUCTURE
  1 ****   9 GROUP 4 **** **** 0

# MOE 2024.06 (io_trps.svl 2023.06)
