@<TRIPOS>MOLECULE
NONAME
36 38 1 0 0 
SMALL
USER_CHARGES


@<TRIPOS>ATOM
  1 S       -1.3810    -1.7270    -0.4170 S.3   1 <1>  -0.0910 
  2 C        0.3020    -1.5220     0.0530 C.2   1 <1>  -0.1510 
  3 C       -1.9380    -1.2010     1.1600 C.2   1 <1>  -0.1210 
  4 C        0.3780    -1.0800     1.3260 C.2   1 <1>  -0.1600 
  5 C        1.3540    -1.8550    -0.9980 C.3   1 <1>   0.7470 
  6 C       -0.8950    -0.9000     1.9530 C.2   1 <1>  -0.1600 
  7 N        1.4590    -3.3380    -1.0670 N.pl3 1 <1>  -0.4650 
  8 C        2.6900    -1.2240    -0.6020 C.2   1 <1>  -0.1350 
  9 N        0.5570    -4.2140    -1.6070 N.2   1 <1>  -0.2690 
 10 C        2.4450    -3.9860    -0.4980 C.cat 1 <1>   1.0680 
 11 C        3.6720    -1.9970    -0.0710 C.2   1 <1>   0.1540 
 12 C        2.7090     0.1800    -0.8410 C.2   1 <1>   0.7000 
 13 C        1.0440    -5.3660    -1.3220 C.2   1 <1>   0.4960 
 14 N        2.2220    -5.2690    -0.6320 N.pl3 1 <1>  -0.7050 
 15 N        3.4840    -3.3610     0.0560 N.pl3 1 <1>  -0.6950 
 16 C        5.0520    -1.5150     0.4020 C.3   1 <1>   0.2490 
 17 O        1.9000     0.7270    -1.5570 O.2   1 <1>  -0.5770 
 18 O        3.6610     0.9090    -0.2560 O.3   1 <1>  -0.4380 
 19 O        5.8720    -2.6340     0.6130 O.3   1 <1>  -0.5670 
 20 C        3.7390     2.3120    -0.4320 C.3   1 <1>   0.0280 
 21 C        7.1610    -2.3090     1.0320 C.3   1 <1>   0.0280 
 22 H       -3.0000    -1.1700     1.3270 H     1 <1>   0.1400 
 23 H        1.2760    -0.8620     1.8790 H     1 <1>   0.1400 
 24 H        1.0340    -1.4960    -1.9630 H     1 <1>   0.0690 
 25 H       -0.9690    -0.5500     2.9690 H     1 <1>   0.1400 
 26 H        0.5930    -6.3120    -1.5880 H     1 <1>   0.1400 
 27 H        2.8060    -6.0300    -0.2960 H     1 <1>   0.4420 
 28 H        4.3020    -3.8750     0.4130 H     1 <1>   0.4420 
 29 H        4.9620    -0.9770     1.3310 H     1 <1>   0.0690 
 30 H        5.5130    -0.8860    -0.3410 H     1 <1>   0.0690 
 31 H        4.5740     2.6830     0.1350 H     1 <1>   0.0690 
 32 H        2.8260     2.7610    -0.0790 H     1 <1>   0.0690 
 33 H        3.8770     2.5270    -1.4780 H     1 <1>   0.0690 
 34 H        7.7130    -3.2230     1.1680 H     1 <1>   0.0690 
 35 H        7.1110    -1.7760     1.9660 H     1 <1>   0.0690 
 36 H        7.6420    -1.7070     0.2790 H     1 <1>   0.0690 
@<TRIPOS>BOND
  1   1   2  1   
  2   1   3  1   
  3   2   4  2   
  4   2   5  1   
  5   3   6  2   
  6   3  22  1   
  7   4   6  1   
  8   4  23  1   
  9   5   7  1   
 10   5   8  1   
 11   5  24  1   
 12   6  25  1   
 13   7   9  1   
 14   7  10  ar  
 15   8  11  2   
 16   8  12  1   
 17   9  13  2   
 18  10  14  ar  
 19  10  15  ar  
 20  11  15  1   
 21  11  16  1   
 22  12  17  2   
 23  12  18  1   
 24  13  14  1   
 25  13  26  1   
 26  14  27  1   
 27  15  28  1   
 28  16  19  1   
 29  16  29  1   
 30  16  30  1   
 31  18  20  1   
 32  19  21  1   
 33  20  31  1   
 34  20  32  1   
 35  20  33  1   
 36  21  34  1   
 37  21  35  1   
 38  21  36  1   
@<TRIPOS>SUBSTRUCTURE
  1 ****   8 GROUP 4 **** **** 0

# MOE 2024.06 (io_trps.svl 2023.06)
