@<TRIPOS>MOLECULE
NONAME
46 48 1 0 0 
SMALL
USER_CHARGES


@<TRIPOS>ATOM
  1 I        1.0460    -0.1040    -2.2270 I     1 <1>  -0.0810 
  2 C        0.3400    -1.8720    -1.2530 C.ar  1 <1>   0.0810 
  3 C        1.0870    -2.4780    -0.2540 C.ar  1 <1>   0.0830 
  4 C       -0.8830    -2.3700    -1.6610 C.ar  1 <1>  -0.1500 
  5 O        2.2770    -1.9900     0.1520 O.3   1 <1>  -0.5330 
  6 C        0.5930    -3.6300     0.3510 C.ar  1 <1>   0.0830 
  7 C       -1.3840    -3.5100    -1.0460 C.ar  1 <1>  -0.1430 
  8 O        1.3630    -4.2030     1.3210 O.3   1 <1>  -0.3630 
  9 C       -0.6420    -4.1390    -0.0500 C.ar  1 <1>  -0.1500 
 10 C       -2.7390    -4.0560    -1.4570 C.3   1 <1>   0.4860 
 11 C        1.0670    -5.4780     1.8490 C.3   1 <1>   0.0400 
 12 N       -3.7330    -3.7120    -0.4020 N.4   1 <1>  -0.9590 
 13 C       -5.0240    -4.4550    -0.5580 C.3   1 <1>   0.4230 
 14 C       -3.9430    -2.2380    -0.3220 C.3   1 <1>   0.3430 
 15 C       -6.1690    -3.8220     0.2870 C.3   1 <1>  -0.0800 
 16 C       -4.8140    -5.9330    -0.1880 C.3   1 <1>  -0.1600 
 17 C       -4.6750    -1.8870     0.9770 C.3   1 <1>  -0.1600 
 18 C       -5.6430    -2.9780     1.4620 C.3   1 <1>  -0.1600 
 19 C       -7.1910    -4.8560     0.8060 C.3   1 <1>  -0.1600 
 20 C       -6.0830    -6.7680    -0.4430 C.3   1 <1>  -0.1600 
 21 C       -7.3880    -5.9880    -0.2070 C.3   1 <1>  -0.1600 
 22 H       -1.4200    -1.8660    -2.4460 H     1 <1>   0.1500 
 23 H        2.6510    -2.5600     0.8540 H     1 <1>   0.4500 
 24 H       -1.0290    -5.0270     0.4140 H     1 <1>   0.1500 
 25 H       -2.6610    -5.1240    -1.5720 H     1 <1>   0.0800 
 26 H       -3.0380    -3.6350    -2.4030 H     1 <1>   0.0800 
 27 H        1.8580    -5.7500     2.5250 H     1 <1>   0.0800 
 28 H        1.0180    -6.1890     1.0440 H     1 <1>   0.0800 
 29 H        0.1360    -5.4300     2.3840 H     1 <1>   0.0800 
 30 H       -3.3340    -3.9890     0.5010 H     1 <1>   0.4500 
 31 H       -5.3300    -4.4170    -1.5910 H     1 <1>   0.0800 
 32 H       -4.5330    -1.9150    -1.1650 H     1 <1>   0.0800 
 33 H       -3.0020    -1.7120    -0.3460 H     1 <1>   0.0800 
 34 H       -6.7070    -3.1650    -0.3760 H     1 <1>   0.0800 
 35 H       -4.5680    -5.9980     0.8580 H     1 <1>   0.0800 
 36 H       -4.0120    -6.3760    -0.7480 H     1 <1>   0.0800 
 37 H       -5.2210    -0.9740     0.8100 H     1 <1>   0.0800 
 38 H       -3.9550    -1.6800     1.7490 H     1 <1>   0.0800 
 39 H       -5.1300    -3.6220     2.1570 H     1 <1>   0.0800 
 40 H       -6.4640    -2.5220     1.9930 H     1 <1>   0.0800 
 41 H       -8.1340    -4.3700     0.9950 H     1 <1>   0.0800 
 42 H       -6.8580    -5.2840     1.7370 H     1 <1>   0.0800 
 43 H       -6.0630    -7.6280     0.2060 H     1 <1>   0.0800 
 44 H       -6.0840    -7.1370    -1.4550 H     1 <1>   0.0800 
 45 H       -7.7360    -5.5710    -1.1370 H     1 <1>   0.0800 
 46 H       -8.1500    -6.6640     0.1440 H     1 <1>   0.0800 
@<TRIPOS>BOND
  1   1   2  1   
  2   2   3  ar  
  3   2   4  ar  
  4   3   5  1   
  5   3   6  ar  
  6   4   7  ar  
  7   4  22  1   
  8   5  23  1   
  9   6   8  1   
 10   6   9  ar  
 11   7   9  ar  
 12   7  10  1   
 13   8  11  1   
 14   9  24  1   
 15  10  12  1   
 16  10  25  1   
 17  10  26  1   
 18  11  27  1   
 19  11  28  1   
 20  11  29  1   
 21  12  13  1   
 22  12  14  1   
 23  12  30  1   
 24  13  15  1   
 25  13  16  1   
 26  13  31  1   
 27  14  17  1   
 28  14  32  1   
 29  14  33  1   
 30  15  18  1   
 31  15  19  1   
 32  15  34  1   
 33  16  20  1   
 34  16  35  1   
 35  16  36  1   
 36  17  18  1   
 37  17  37  1   
 38  17  38  1   
 39  18  39  1   
 40  18  40  1   
 41  19  21  1   
 42  19  41  1   
 43  19  42  1   
 44  20  21  1   
 45  20  43  1   
 46  20  44  1   
 47  21  45  1   
 48  21  46  1   
@<TRIPOS>SUBSTRUCTURE
  1 ****  12 GROUP 4 **** **** 0

# MOE 2024.06 (io_trps.svl 2023.06)
