@<TRIPOS>MOLECULE
NONAME
56 58 1 0 0 
SMALL
USER_CHARGES


@<TRIPOS>ATOM
  1 O       -1.7370    -0.7490     0.9870 O.2   1 <1>  -0.5700 
  2 C       -1.3890    -1.7280     0.3310 C.2   1 <1>   0.6420 
  3 C       -2.3360    -2.7740     0.0440 C.2   1 <1>   0.1410 
  4 C       -0.0400    -1.7960    -0.1360 C.2   1 <1>  -0.1360 
  5 N       -2.0350    -3.8930    -0.6620 N.2   1 <1>  -0.2270 
  6 C       -3.6550    -2.8430     0.3990 C.2   1 <1>  -0.0680 
  7 C        0.9390    -0.8770     0.0550 C.2   1 <1>  -0.0500 
  8 N       -3.0750    -4.6330    -0.7410 N.2   1 <1>  -0.4180 
  9 N       -4.0830    -4.0200    -0.0890 N.pl3 1 <1>   0.3140 
 10 N       -4.4100    -1.9110     1.1170 N.pl3 1 <1>  -0.8530 
 11 N        2.2400    -0.9470    -0.4000 N.pl3 1 <1>  -0.8380 
 12 C       -5.4260    -4.6310     0.0980 C.3   1 <1>   0.1760 
 13 C       -5.5220    -1.2110     0.4540 C.3   1 <1>   0.2890 
 14 C        2.7610    -2.0560    -1.2470 C.3   1 <1>   0.1290 
 15 C        3.2310     0.0970    -0.0300 C.3   1 <1>   0.1290 
 16 C       -5.3250    -6.0050     0.7840 C.3   1 <1>  -0.1600 
 17 C       -6.1710    -4.7380    -1.2460 C.3   1 <1>  -0.1600 
 18 C       -5.0310     0.1610    -0.0150 C.3   1 <1>  -0.1600 
 19 C       -6.6830    -1.0780     1.4420 C.3   1 <1>  -0.1600 
 20 C       -6.7140    -6.6330     0.9710 C.3   1 <1>  -0.1600 
 21 C       -7.5600    -5.3640    -1.0590 C.3   1 <1>  -0.1600 
 22 C       -6.1770     0.9810    -0.6260 C.3   1 <1>  -0.1600 
 23 C       -7.8360    -0.2640     0.8370 C.3   1 <1>  -0.1600 
 24 C       -7.4630    -6.7300    -0.3660 C.3   1 <1>  -0.1600 
 25 C       -7.3500     1.1100     0.3550 C.3   1 <1>  -0.1600 
 26 H        0.1920    -2.6820    -0.6900 H     1 <1>   0.1500 
 27 H        0.6960     0.0090     0.6240 H     1 <1>   0.1500 
 28 H       -3.8160    -1.2080     1.5930 H     1 <1>   0.4000 
 29 H       -5.9870    -3.9840     0.7460 H     1 <1>   0.0800 
 30 H       -5.8490    -1.7750    -0.4030 H     1 <1>   0.0800 
 31 H        3.6190    -1.7260    -1.8060 H     1 <1>   0.0800 
 32 H        2.0080    -2.3770    -1.9450 H     1 <1>   0.0800 
 33 H        3.0450    -2.8850    -0.6230 H     1 <1>   0.0800 
 34 H        4.0640    -0.3550     0.4790 H     1 <1>   0.0800 
 35 H        2.7820     0.8260     0.6230 H     1 <1>   0.0800 
 36 H        3.5820     0.5960    -0.9160 H     1 <1>   0.0800 
 37 H       -4.7210    -6.6640     0.1830 H     1 <1>   0.0800 
 38 H       -4.8520    -5.8920     1.7440 H     1 <1>   0.0800 
 39 H       -6.2760    -3.7610    -1.6820 H     1 <1>   0.0800 
 40 H       -5.5980    -5.3500    -1.9220 H     1 <1>   0.0800 
 41 H       -4.6200     0.7000     0.8210 H     1 <1>   0.0800 
 42 H       -4.2530     0.0290    -0.7470 H     1 <1>   0.0800 
 43 H       -7.0370    -2.0560     1.7140 H     1 <1>   0.0800 
 44 H       -6.3330    -0.5860     2.3330 H     1 <1>   0.0800 
 45 H       -6.6100    -7.6160     1.3970 H     1 <1>   0.0800 
 46 H       -7.2880    -6.0350     1.6590 H     1 <1>   0.0800 
 47 H       -8.1740    -4.7070    -0.4660 H     1 <1>   0.0800 
 48 H       -8.0350    -5.4810    -2.0180 H     1 <1>   0.0800 
 49 H       -5.8160     1.9600    -0.8900 H     1 <1>   0.0800 
 50 H       -6.5170     0.5010    -1.5290 H     1 <1>   0.0800 
 51 H       -8.2580    -0.8040     0.0060 H     1 <1>   0.0800 
 52 H       -8.6110    -0.1340     1.5730 H     1 <1>   0.0800 
 53 H       -8.4520    -7.1200    -0.1970 H     1 <1>   0.0800 
 54 H       -6.9460    -7.4200    -1.0120 H     1 <1>   0.0800 
 55 H       -8.1620     1.6330    -0.1210 H     1 <1>   0.0800 
 56 H       -7.0390     1.6940     1.2050 H     1 <1>   0.0800 
@<TRIPOS>BOND
  1   1   2  2   
  2   2   3  1   
  3   2   4  1   
  4   3   5  1   
  5   3   6  2   
  6   4   7  2   
  7   4  26  1   
  8   5   8  2   
  9   6   9  1   
 10   6  10  1   
 11   7  11  1   
 12   7  27  1   
 13   8   9  1   
 14   9  12  1   
 15  10  13  1   
 16  10  28  1   
 17  11  14  1   
 18  11  15  1   
 19  12  16  1   
 20  12  17  1   
 21  12  29  1   
 22  13  18  1   
 23  13  19  1   
 24  13  30  1   
 25  14  31  1   
 26  14  32  1   
 27  14  33  1   
 28  15  34  1   
 29  15  35  1   
 30  15  36  1   
 31  16  20  1   
 32  16  37  1   
 33  16  38  1   
 34  17  21  1   
 35  17  39  1   
 36  17  40  1   
 37  18  22  1   
 38  18  41  1   
 39  18  42  1   
 40  19  23  1   
 41  19  43  1   
 42  19  44  1   
 43  20  24  1   
 44  20  45  1   
 45  20  46  1   
 46  21  24  1   
 47  21  47  1   
 48  21  48  1   
 49  22  25  1   
 50  22  49  1   
 51  22  50  1   
 52  23  25  1   
 53  23  51  1   
 54  23  52  1   
 55  24  53  1   
 56  24  54  1   
 57  25  55  1   
 58  25  56  1   
@<TRIPOS>SUBSTRUCTURE
  1 ****   6 GROUP 4 **** **** 0

# MOE 2024.06 (io_trps.svl 2023.06)
