@<TRIPOS>MOLECULE
NONAME
43 44 1 0 0 
SMALL
USER_CHARGES


@<TRIPOS>ATOM
  1 CL      -1.3060    -0.3540     0.6390 Cl    1 <1>  -0.1770 
  2 C       -2.6370     0.7490     0.3690 C.ar  1 <1>   0.1770 
  3 C       -2.6230     2.0120     0.9430 C.ar  1 <1>  -0.1440 
  4 C       -3.6840     0.3230    -0.4230 C.ar  1 <1>  -0.1500 
  5 C       -3.6970     2.8540     0.6990 C.ar  1 <1>  -0.1500 
  6 C       -1.4650     2.4730     1.8150 C.3   1 <1>  -0.0960 
  7 C       -4.7640     1.1620    -0.6640 C.ar  1 <1>   0.1170 
  8 C       -4.7500     2.4330    -0.0960 C.ar  1 <1>  -0.1500 
  9 N       -5.8090     0.7050    -1.4800 N.am  1 <1>  -0.5470 
 10 C       -7.1280     1.0380    -1.4840 C.2   1 <1>   0.6900 
 11 O       -7.6140     1.7800    -0.6530 O.2   1 <1>  -0.5700 
 12 N       -7.9340     0.4800    -2.4210 N.am  1 <1>  -0.7300 
 13 C       -9.3370     0.9050    -2.7160 C.3   1 <1>   0.1400 
 14 C      -10.3630     0.2950    -1.7360 C.3   1 <1>   0.3430 
 15 N      -10.1600     0.7880    -0.3420 N.4   1 <1>  -0.9590 
 16 C      -10.4660    -0.2450     0.6840 C.3   1 <1>   0.3430 
 17 C      -10.8450     2.0840    -0.0800 C.3   1 <1>   0.3430 
 18 C      -10.0290     0.2570     2.0610 C.3   1 <1>  -0.1600 
 19 C      -10.4220     2.6210     1.2890 C.3   1 <1>  -0.1600 
 20 C      -10.6790     1.6030     2.4080 C.3   1 <1>  -0.1600 
 21 H       -3.6510    -0.6640    -0.8430 H     1 <1>   0.1500 
 22 H       -3.7190     3.8420     1.1250 H     1 <1>   0.1500 
 23 H       -0.5500     2.4570     1.2500 H     1 <1>   0.0800 
 24 H       -1.3600     1.8170     2.6620 H     1 <1>   0.0800 
 25 H       -1.6260     3.4720     2.1760 H     1 <1>   0.0800 
 26 H       -5.5660     3.1100    -0.2750 H     1 <1>   0.1500 
 27 H       -5.5530    -0.0470    -2.1130 H     1 <1>   0.3700 
 28 H       -7.4740    -0.0250    -3.1810 H     1 <1>   0.3700 
 29 H       -9.5860     0.5920    -3.7160 H     1 <1>   0.0800 
 30 H       -9.4000     1.9800    -2.6880 H     1 <1>   0.0800 
 31 H      -10.2550    -0.7760    -1.7640 H     1 <1>   0.0800 
 32 H      -11.3620     0.5340    -2.0610 H     1 <1>   0.0800 
 33 H       -9.1430     1.0050    -0.2590 H     1 <1>   0.4500 
 34 H       -9.9410    -1.1580     0.4550 H     1 <1>   0.0800 
 35 H      -11.5240    -0.4500     0.6920 H     1 <1>   0.0800 
 36 H      -11.9130     1.9450    -0.0990 H     1 <1>   0.0800 
 37 H      -10.5760     2.8020    -0.8370 H     1 <1>   0.0800 
 38 H       -8.9570     0.3550     2.0770 H     1 <1>   0.0800 
 39 H      -10.2980    -0.4730     2.8050 H     1 <1>   0.0800 
 40 H      -10.9650     3.5260     1.4970 H     1 <1>   0.0800 
 41 H       -9.3760     2.8740     1.2590 H     1 <1>   0.0800 
 42 H      -10.2780     1.9730     3.3370 H     1 <1>   0.0800 
 43 H      -11.7400     1.4690     2.5370 H     1 <1>   0.0800 
@<TRIPOS>BOND
  1   1   2  1   
  2   2   3  ar  
  3   2   4  ar  
  4   3   5  ar  
  5   3   6  1   
  6   4   7  ar  
  7   4  21  1   
  8   5   8  ar  
  9   5  22  1   
 10   6  23  1   
 11   6  24  1   
 12   6  25  1   
 13   7   8  ar  
 14   7   9  1   
 15   8  26  1   
 16   9  10  am  
 17   9  27  1   
 18  10  11  2   
 19  10  12  am  
 20  12  13  1   
 21  12  28  1   
 22  13  14  1   
 23  13  29  1   
 24  13  30  1   
 25  14  15  1   
 26  14  31  1   
 27  14  32  1   
 28  15  16  1   
 29  15  17  1   
 30  15  33  1   
 31  16  18  1   
 32  16  34  1   
 33  16  35  1   
 34  17  19  1   
 35  17  36  1   
 36  17  37  1   
 37  18  20  1   
 38  18  38  1   
 39  18  39  1   
 40  19  20  1   
 41  19  40  1   
 42  19  41  1   
 43  20  42  1   
 44  20  43  1   
@<TRIPOS>SUBSTRUCTURE
  1 ****  11 GROUP 4 **** **** 0

# MOE 2024.06 (io_trps.svl 2023.06)
