@<TRIPOS>MOLECULE
NONAME
45 47 1 0 0 
SMALL
USER_CHARGES


@<TRIPOS>ATOM
  1 CL       1.0850    -0.6670     0.4940 Cl    1 <1>  -0.1770 
  2 C        2.2180     0.6540     0.3430 C.ar  1 <1>   0.1770 
  3 C        2.0890     1.7560     1.1680 C.ar  1 <1>  -0.1500 
  4 C        3.2270     0.5790    -0.5970 C.ar  1 <1>  -0.1500 
  5 C        2.9890     2.8000     1.0440 C.ar  1 <1>  -0.1500 
  6 C        4.1220     1.6290    -0.7140 C.ar  1 <1>  -0.1500 
  7 C        4.0130     2.7530     0.0990 C.ar  1 <1>   0.1000 
  8 N        4.9460     3.7850    -0.0430 N.pl3 1 <1>  -0.6000 
  9 C        4.8390     5.1410     0.0800 C.ar  1 <1>   0.7200 
 10 N        3.6660     5.6770     0.2700 N.ar  1 <1>  -0.6200 
 11 N        5.9710     5.7750    -0.0310 N.ar  1 <1>  -0.6200 
 12 C        3.6760     6.9830     0.3650 C.ar  1 <1>   0.7200 
 13 C        5.8440     7.0680     0.0900 C.ar  1 <1>   0.7200 
 14 N        4.7470     7.7320     0.2870 N.ar  1 <1>  -0.6200 
 15 N        2.4650     7.6120     0.5640 N.pl3 1 <1>  -0.8380 
 16 N        6.9550     7.8330     0.0080 N.pl3 1 <1>  -0.8690 
 17 C        2.3500     9.0220     1.0350 C.3   1 <1>   0.2090 
 18 C        1.1580     6.9640     0.2560 C.3   1 <1>   0.2090 
 19 C        8.2460     7.4110    -0.5880 C.3   1 <1>   0.2090 
 20 C        1.6310     9.8560    -0.0290 C.3   1 <1>  -0.1600 
 21 C        0.4200     7.7860    -0.8060 C.3   1 <1>  -0.1600 
 22 C        9.1650     6.8510     0.5020 C.3   1 <1>   0.1200 
 23 C        0.2650     9.2570    -0.3910 C.3   1 <1>  -0.1600 
 24 O       10.3440     6.3880    -0.0700 O.3   1 <1>  -0.6800 
 25 H        1.2980     1.7940     1.8940 H     1 <1>   0.1500 
 26 H        3.3060    -0.2890    -1.2260 H     1 <1>   0.1500 
 27 H        2.8990     3.6570     1.6870 H     1 <1>   0.1500 
 28 H        4.9070     1.5780    -1.4470 H     1 <1>   0.1500 
 29 H        5.8800     3.5220    -0.3400 H     1 <1>   0.4000 
 30 H        6.7510     8.8320     0.0070 H     1 <1>   0.4000 
 31 H        3.3150     9.4500     1.2430 H     1 <1>   0.0800 
 32 H        1.7840     9.0350     1.9500 H     1 <1>   0.0800 
 33 H        0.5710     6.9160     1.1570 H     1 <1>   0.0800 
 34 H        1.2890     5.9590    -0.1070 H     1 <1>   0.0800 
 35 H        8.7150     8.2590    -1.0540 H     1 <1>   0.0800 
 36 H        8.0660     6.6580    -1.3360 H     1 <1>   0.0800 
 37 H        2.2540     9.9000    -0.9050 H     1 <1>   0.0800 
 38 H        1.5030    10.8600     0.3340 H     1 <1>   0.0800 
 39 H       -0.5500     7.3540    -0.9770 H     1 <1>   0.0800 
 40 H        0.9730     7.7270    -1.7270 H     1 <1>   0.0800 
 41 H        8.6930     6.0320     1.0170 H     1 <1>   0.0800 
 42 H        9.4200     7.6240     1.2060 H     1 <1>   0.0800 
 43 H       -0.1780     9.8180    -1.1960 H     1 <1>   0.0800 
 44 H       -0.3900     9.3200     0.4610 H     1 <1>   0.0800 
 45 H       10.1860     5.5590    -0.5620 H     1 <1>   0.4000 
@<TRIPOS>BOND
  1   1   2  1   
  2   2   3  ar  
  3   2   4  ar  
  4   3   5  ar  
  5   3  25  1   
  6   4   6  ar  
  7   4  26  1   
  8   5   7  ar  
  9   5  27  1   
 10   6   7  ar  
 11   6  28  1   
 12   7   8  1   
 13   8   9  1   
 14   8  29  1   
 15   9  10  ar  
 16   9  11  ar  
 17  10  12  ar  
 18  11  13  ar  
 19  12  14  ar  
 20  12  15  1   
 21  13  14  ar  
 22  13  16  1   
 23  15  17  1   
 24  15  18  1   
 25  16  19  1   
 26  16  30  1   
 27  17  20  1   
 28  17  31  1   
 29  17  32  1   
 30  18  21  1   
 31  18  33  1   
 32  18  34  1   
 33  19  22  1   
 34  19  35  1   
 35  19  36  1   
 36  20  23  1   
 37  20  37  1   
 38  20  38  1   
 39  21  23  1   
 40  21  39  1   
 41  21  40  1   
 42  22  24  1   
 43  22  41  1   
 44  22  42  1   
 45  23  43  1   
 46  23  44  1   
 47  24  45  1   
@<TRIPOS>SUBSTRUCTURE
  1 ****  10 GROUP 4 **** **** 0

# MOE 2024.06 (io_trps.svl 2023.06)
