@<TRIPOS>MOLECULE
NONAME
51 55 1 0 0 
SMALL
USER_CHARGES


@<TRIPOS>ATOM
  1 F       -0.0090     1.8670    -1.9890 F     1 <1>  -0.1900 
  2 C       -0.9720     1.8410    -1.0970 C.ar  1 <1>   0.1900 
  3 C       -0.8590     2.6160     0.0640 C.ar  1 <1>   0.1000 
  4 C       -2.0640     1.0360    -1.3580 C.ar  1 <1>  -0.1500 
  5 N        0.2320     3.4450     0.3650 N.pl3 1 <1>  -0.8380 
  6 C       -1.9100     2.5460     0.9700 C.ar  1 <1>  -0.1500 
  7 C       -3.0940     0.9890    -0.4340 C.ar  1 <1>  -0.1500 
  8 C        0.3860     4.6330    -0.5250 C.3   1 <1>   0.2090 
  9 C        1.5130     2.7300     0.6360 C.3   1 <1>   0.2090 
 10 C       -3.0130     1.7450     0.7260 C.ar  1 <1>  -0.1500 
 11 C        1.4840     5.5830    -0.0040 C.3   1 <1>   0.3430 
 12 C        2.5980     3.7010     1.1440 C.3   1 <1>   0.3430 
 13 N        2.8070     4.8870     0.2280 N.4   1 <1>  -0.9590 
 14 C        3.8860     5.8180     0.7070 C.3   1 <1>   0.4230 
 15 C        4.1010     6.9880    -0.2920 C.3   1 <1>  -0.0800 
 16 C        5.2370     5.0700     0.8780 C.3   1 <1>  -0.0800 
 17 C        4.6000     6.4560    -1.6560 C.3   1 <1>  -0.1600 
 18 C        5.1610     7.9530     0.2770 C.3   1 <1>  -0.1600 
 19 C        5.7390     4.5320    -0.4820 C.3   1 <1>  -0.1600 
 20 C        6.2910     6.0460     1.4400 C.3   1 <1>  -0.1600 
 21 C        5.9300     5.7000    -1.4690 C.3   1 <1>  -0.0800 
 22 C        6.4990     7.2190     0.4680 C.3   1 <1>  -0.0800 
 23 C        6.9750     6.6720    -0.8900 C.3   1 <1>  -0.1600 
 24 H       -2.1070     0.4580    -2.2630 H     1 <1>   0.1500 
 25 H       -1.8570     3.1280     1.8720 H     1 <1>   0.1500 
 26 H       -3.9560     0.3690    -0.6150 H     1 <1>   0.1500 
 27 H       -0.5510     5.1630    -0.5690 H     1 <1>   0.0800 
 28 H        0.6290     4.3140    -1.5240 H     1 <1>   0.0800 
 29 H        1.8560     2.2410    -0.2600 H     1 <1>   0.0800 
 30 H        1.3390     1.9700     1.3790 H     1 <1>   0.0800 
 31 H       -3.8160     1.7070     1.4440 H     1 <1>   0.1500 
 32 H        1.1400     6.0180     0.9200 H     1 <1>   0.0800 
 33 H        1.6030     6.3770    -0.7190 H     1 <1>   0.0800 
 34 H        3.5150     3.1480     1.2510 H     1 <1>   0.0800 
 35 H        2.3050     4.0480     2.1210 H     1 <1>   0.0800 
 36 H        3.1320     4.5270    -0.6770 H     1 <1>   0.4500 
 37 H        3.5980     6.2290     1.6610 H     1 <1>   0.0800 
 38 H        3.1990     7.5560    -0.4230 H     1 <1>   0.0800 
 39 H        5.1480     4.2660     1.5850 H     1 <1>   0.0800 
 40 H        3.8710     5.8110    -2.1130 H     1 <1>   0.0800 
 41 H        4.7540     7.2830    -2.3300 H     1 <1>   0.0800 
 42 H        4.8300     8.3580     1.2180 H     1 <1>   0.0800 
 43 H        5.3010     8.7820    -0.3970 H     1 <1>   0.0800 
 44 H        5.0550     3.8120    -0.8930 H     1 <1>   0.0800 
 45 H        6.6810     4.0280    -0.3450 H     1 <1>   0.0800 
 46 H        5.9780     6.4200     2.4010 H     1 <1>   0.0800 
 47 H        7.2260     5.5310     1.5860 H     1 <1>   0.0800 
 48 H        6.2760     5.3260    -2.4190 H     1 <1>   0.0800 
 49 H        7.2360     7.8970     0.8650 H     1 <1>   0.0800 
 50 H        7.1360     7.4880    -1.5750 H     1 <1>   0.0800 
 51 H        7.9180     6.1660    -0.7690 H     1 <1>   0.0800 
@<TRIPOS>BOND
  1   1   2  1   
  2   2   3  ar  
  3   2   4  ar  
  4   3   5  1   
  5   3   6  ar  
  6   4   7  ar  
  7   4  24  1   
  8   5   8  1   
  9   5   9  1   
 10   6  10  ar  
 11   6  25  1   
 12   7  10  ar  
 13   7  26  1   
 14   8  11  1   
 15   8  27  1   
 16   8  28  1   
 17   9  12  1   
 18   9  29  1   
 19   9  30  1   
 20  10  31  1   
 21  11  13  1   
 22  11  32  1   
 23  11  33  1   
 24  12  13  1   
 25  12  34  1   
 26  12  35  1   
 27  13  14  1   
 28  13  36  1   
 29  14  15  1   
 30  14  16  1   
 31  14  37  1   
 32  15  17  1   
 33  15  18  1   
 34  15  38  1   
 35  16  19  1   
 36  16  20  1   
 37  16  39  1   
 38  17  21  1   
 39  17  40  1   
 40  17  41  1   
 41  18  22  1   
 42  18  42  1   
 43  18  43  1   
 44  19  21  1   
 45  19  44  1   
 46  19  45  1   
 47  20  22  1   
 48  20  46  1   
 49  20  47  1   
 50  21  23  1   
 51  21  48  1   
 52  22  23  1   
 53  22  49  1   
 54  23  50  1   
 55  23  51  1   
@<TRIPOS>SUBSTRUCTURE
  1 ****  13 GROUP 4 **** **** 0

# MOE 2024.06 (io_trps.svl 2023.06)
