@<TRIPOS>MOLECULE
NONAME
51 52 1 0 0 
SMALL
USER_CHARGES


@<TRIPOS>ATOM
  1 CL      -0.1500     0.1000    -2.8980 Cl    1 <1>  -0.1770 
  2 C       -1.5610    -0.2500    -1.9080 C.ar  1 <1>   0.1770 
  3 C       -2.0090     0.6750    -0.9520 C.ar  1 <1>  -0.1710 
  4 C       -2.1810    -1.4630    -2.1120 C.ar  1 <1>  -0.1500 
  5 O       -1.3760     1.7720    -0.8140 O.3   1 <1>  -0.8290 
  6 C       -3.1570     0.3080    -0.1930 C.ar  1 <1>   0.0820 
  7 C       -3.2890    -1.8180    -1.3560 C.ar  1 <1>  -0.1440 
  8 O       -3.7610     1.0660     0.7810 O.3   1 <1>  -0.3620 
  9 C       -3.7620    -0.9150    -0.4100 C.ar  1 <1>  -0.1500 
 10 C       -3.9430    -3.1790    -1.5500 C.3   1 <1>   0.5020 
 11 C       -3.2310     2.3260     1.1180 C.3   1 <1>   0.0400 
 12 N       -5.2750    -2.9460    -2.1360 N.am  1 <1>  -0.7300 
 13 C       -3.9850    -3.9950    -0.2510 C.2   1 <1>  -0.1240 
 14 C       -6.4200    -3.3470    -1.5640 C.2   1 <1>   0.6900 
 15 C       -5.1900    -4.4210     0.2230 C.2   1 <1>  -0.0290 
 16 C       -2.6880    -4.1930     0.3270 C.2   1 <1>   0.7060 
 17 O       -7.4920    -3.0370    -2.0320 O.2   1 <1>  -0.5700 
 18 N       -6.3570    -4.1010    -0.4400 N.am  1 <1>  -0.5390 
 19 C       -5.4200    -5.2560     1.4740 C.3   1 <1>  -0.1020 
 20 O       -2.5130    -4.4430     1.5030 O.2   1 <1>  -0.5700 
 21 O       -1.6270    -4.0760    -0.4850 O.3   1 <1>  -0.4300 
 22 C       -0.2630    -3.8590    -0.1470 C.3   1 <1>   0.2000 
 23 C        0.5290    -5.1970     0.0220 C.3   1 <1>   0.0000 
 24 C       -0.1290    -2.8060     0.9680 C.3   1 <1>  -0.2400 
 25 C        0.0690    -6.0470     1.2190 C.3   1 <1>  -0.2400 
 26 C        0.3800    -6.0480    -1.2530 C.3   1 <1>  -0.2400 
 27 C        2.0280    -4.8980     0.2060 C.3   1 <1>  -0.2400 
 28 H       -1.7800    -2.1230    -2.8560 H     1 <1>   0.1500 
 29 H       -4.6230    -1.1650     0.1830 H     1 <1>   0.1500 
 30 H       -3.3740    -3.7370    -2.2740 H     1 <1>   0.0800 
 31 H       -3.8320     2.7530     1.8970 H     1 <1>   0.0800 
 32 H       -3.2490     2.9500     0.2420 H     1 <1>   0.0800 
 33 H       -2.2180     2.1920     1.4540 H     1 <1>   0.0800 
 34 H       -5.3360    -2.1590    -2.7800 H     1 <1>   0.3700 
 35 H       -7.2720    -4.3620    -0.0740 H     1 <1>   0.3700 
 36 H       -5.7640    -4.6250     2.2730 H     1 <1>   0.0800 
 37 H       -4.5280    -5.7590     1.7940 H     1 <1>   0.0800 
 38 H       -6.1610    -6.0120     1.2840 H     1 <1>   0.0800 
 39 H        0.1470    -3.3860    -1.0230 H     1 <1>   0.0800 
 40 H       -0.3780    -3.2080     1.9310 H     1 <1>   0.0800 
 41 H       -0.7650    -1.9640     0.7570 H     1 <1>   0.0800 
 42 H        0.8800    -2.4410     1.0110 H     1 <1>   0.0800 
 43 H        0.7000    -6.9100     1.3370 H     1 <1>   0.0800 
 44 H       -0.9370    -6.3940     1.0750 H     1 <1>   0.0800 
 45 H        0.1040    -5.4780     2.1300 H     1 <1>   0.0800 
 46 H       -0.6480    -6.3230    -1.4070 H     1 <1>   0.0800 
 47 H        0.9600    -6.9510    -1.1780 H     1 <1>   0.0800 
 48 H        0.7160    -5.4990    -2.1150 H     1 <1>   0.0800 
 49 H        2.2030    -4.3850     1.1360 H     1 <1>   0.0800 
 50 H        2.3930    -4.2820    -0.5970 H     1 <1>   0.0800 
 51 H        2.5990    -5.8090     0.2190 H     1 <1>   0.0800 
@<TRIPOS>BOND
  1   1   2  1   
  2   2   3  ar  
  3   2   4  ar  
  4   3   5  1   
  5   3   6  ar  
  6   4   7  ar  
  7   4  28  1   
  8   6   8  1   
  9   6   9  ar  
 10   7   9  ar  
 11   7  10  1   
 12   8  11  1   
 13   9  29  1   
 14  10  12  1   
 15  10  13  1   
 16  10  30  1   
 17  11  31  1   
 18  11  32  1   
 19  11  33  1   
 20  12  14  am  
 21  12  34  1   
 22  13  15  2   
 23  13  16  1   
 24  14  17  2   
 25  14  18  am  
 26  15  18  1   
 27  15  19  1   
 28  16  20  2   
 29  16  21  1   
 30  18  35  1   
 31  19  36  1   
 32  19  37  1   
 33  19  38  1   
 34  21  22  1   
 35  22  23  1   
 36  22  24  1   
 37  22  39  1   
 38  23  25  1   
 39  23  26  1   
 40  23  27  1   
 41  24  40  1   
 42  24  41  1   
 43  24  42  1   
 44  25  43  1   
 45  25  44  1   
 46  25  45  1   
 47  26  46  1   
 48  26  47  1   
 49  26  48  1   
 50  27  49  1   
 51  27  50  1   
 52  27  51  1   
@<TRIPOS>SUBSTRUCTURE
  1 ****   7 GROUP 4 **** **** 0

# MOE 2024.06 (io_trps.svl 2023.06)
