@<TRIPOS>MOLECULE
NONAME
43 43 1 0 0 
SMALL
USER_CHARGES


@<TRIPOS>ATOM
  1 O        8.3750    -0.7990     0.0130 O.3   1 <1>  -0.3630 
  2 C        9.5370    -0.0990    -0.0680 C.ar  1 <1>   0.0830 
  3 C        8.3430    -2.1940     0.1620 C.3   1 <1>   0.1200 
  4 C        9.4690     1.2790    -0.2970 C.ar  1 <1>  -0.1440 
  5 C       10.7790    -0.7190     0.0710 C.ar  1 <1>  -0.1500 
  6 C        6.8690    -2.6010     0.1550 C.3   1 <1>   0.3430 
  7 C       10.6540     1.9990    -0.3820 C.ar  1 <1>  -0.1500 
  8 C        8.1540     2.0560    -0.4630 C.3   1 <1>   0.0640 
  9 C       11.9440     0.0180    -0.0180 C.ar  1 <1>  -0.1500 
 10 N        6.6980    -4.0810     0.2960 N.4   1 <1>  -0.9060 
 11 C       11.8820     1.3790    -0.2440 C.ar  1 <1>  -0.1500 
 12 C        7.3170     2.0280     0.8310 C.3   1 <1>  -0.1600 
 13 C        7.3750     1.5820    -1.6990 C.3   1 <1>  -0.2400 
 14 C        5.2910    -4.5030     0.3200 C.3   1 <1>   0.4230 
 15 C        6.1200     2.9880     0.8060 C.3   1 <1>  -0.2400 
 16 C        5.2580    -5.9460     0.8030 C.3   1 <1>  -0.2400 
 17 C        4.7030    -4.3890    -1.0840 C.3   1 <1>  -0.2400 
 18 H        8.8120    -2.4400     1.0980 H     1 <1>   0.0800 
 19 H        8.8710    -2.6290    -0.6680 H     1 <1>   0.0800 
 20 H       10.8710    -1.7710     0.2500 H     1 <1>   0.1500 
 21 H        6.4290    -2.2700    -0.7710 H     1 <1>   0.0800 
 22 H        6.3700    -2.0990     0.9680 H     1 <1>   0.0800 
 23 H       10.6340     3.0610    -0.5570 H     1 <1>   0.1500 
 24 H        8.4060     3.0870    -0.6430 H     1 <1>   0.0800 
 25 H       12.9020    -0.4630     0.0900 H     1 <1>   0.1500 
 26 H        7.1390    -4.4000     1.1660 H     1 <1>   0.4500 
 27 H        7.1620    -4.5700    -0.4780 H     1 <1>   0.4500 
 28 H       12.7870     1.9560    -0.3140 H     1 <1>   0.1500 
 29 H        7.9580     2.3030     1.6520 H     1 <1>   0.0800 
 30 H        6.9610     1.0330     1.0210 H     1 <1>   0.0800 
 31 H        6.9450     0.6120    -1.5400 H     1 <1>   0.0800 
 32 H        8.0360     1.5310    -2.5460 H     1 <1>   0.0800 
 33 H        6.5860     2.2730    -1.9340 H     1 <1>   0.0800 
 34 H        4.7280    -3.8850     1.0050 H     1 <1>   0.0800 
 35 H        6.4460     3.9930     0.6000 H     1 <1>   0.0800 
 36 H        5.6280     2.9830     1.7630 H     1 <1>   0.0800 
 37 H        5.4040     2.6940     0.0600 H     1 <1>   0.0800 
 38 H        5.8070    -6.5950     0.1430 H     1 <1>   0.0800 
 39 H        4.2390    -6.2920     0.8330 H     1 <1>   0.0800 
 40 H        5.6550    -6.0260     1.7990 H     1 <1>   0.0800 
 41 H        5.2590    -4.9780    -1.7920 H     1 <1>   0.0800 
 42 H        4.6720    -3.3660    -1.4140 H     1 <1>   0.0800 
 43 H        3.6900    -4.7510    -1.0780 H     1 <1>   0.0800 
@<TRIPOS>BOND
  1   1   2  1   
  2   1   3  1   
  3   2   4  ar  
  4   2   5  ar  
  5   3   6  1   
  6   3  18  1   
  7   3  19  1   
  8   4   7  ar  
  9   4   8  1   
 10   5   9  ar  
 11   5  20  1   
 12   6  10  1   
 13   6  21  1   
 14   6  22  1   
 15   7  11  ar  
 16   7  23  1   
 17   8  12  1   
 18   8  13  1   
 19   8  24  1   
 20   9  11  ar  
 21   9  25  1   
 22  10  14  1   
 23  10  26  1   
 24  10  27  1   
 25  11  28  1   
 26  12  15  1   
 27  12  29  1   
 28  12  30  1   
 29  13  31  1   
 30  13  32  1   
 31  13  33  1   
 32  14  16  1   
 33  14  17  1   
 34  14  34  1   
 35  15  35  1   
 36  15  36  1   
 37  15  37  1   
 38  16  38  1   
 39  16  39  1   
 40  16  40  1   
 41  17  41  1   
 42  17  42  1   
 43  17  43  1   
@<TRIPOS>SUBSTRUCTURE
  1 ****   1 GROUP 4 **** **** 0

# MOE 2024.06 (io_trps.svl 2023.06)
