@<TRIPOS>MOLECULE
NONAME
38 39 1 0 0 
SMALL
USER_CHARGES


@<TRIPOS>ATOM
  1 S       -0.0290    -0.5860    -1.5390 S.3   1 <1>  -0.9360 
  2 C       -1.4920    -0.0340    -1.1110 C.cat 1 <1>   0.7360 
  3 N       -1.9700     1.1590    -1.3830 N.pl3 1 <1>  -0.3930 
  4 N       -2.3990    -0.7070    -0.4300 N.pl3 1 <1>  -0.7640 
  5 N       -3.2300     1.2960    -0.8770 N.2   1 <1>  -0.2600 
  6 C       -3.4610     0.1630    -0.3110 C.2   1 <1>   0.4850 
  7 C       -2.1750    -2.0930     0.0350 C.3   1 <1>   0.2740 
  8 C       -4.7410    -0.2270     0.4190 C.3   1 <1>   0.1520 
  9 C       -5.7990     0.8690     0.4110 C.ar  1 <1>  -0.1440 
 10 C       -6.7020     0.9640    -0.6380 C.ar  1 <1>  -0.1500 
 11 C       -5.8680     1.7840     1.4520 C.ar  1 <1>  -0.1500 
 12 C       -7.6630     1.9600    -0.6510 C.ar  1 <1>  -0.1500 
 13 C       -6.8280     2.7800     1.4410 C.ar  1 <1>  -0.1500 
 14 C       -7.7300     2.8760     0.3940 C.ar  1 <1>   0.0830 
 15 O       -8.6360     3.8820     0.4620 O.3   1 <1>  -0.3630 
 16 C       -9.5880     4.0830    -0.5580 C.3   1 <1>   0.1200 
 17 C      -10.4560     5.2950    -0.2060 C.3   1 <1>  -0.1600 
 18 C       -9.6420     6.5930    -0.0950 C.3   1 <1>  -0.1600 
 19 C      -10.5480     7.7890     0.2090 C.3   1 <1>  -0.2400 
 20 H       -1.4230     1.8430    -1.9050 H     1 <1>   0.4500 
 21 H       -1.3030    -2.1230     0.6660 H     1 <1>   0.0800 
 22 H       -2.0000    -2.7320    -0.8150 H     1 <1>   0.0800 
 23 H       -3.0230    -2.4580     0.5850 H     1 <1>   0.0800 
 24 H       -4.4920    -0.4750     1.4340 H     1 <1>   0.0800 
 25 H       -5.1420    -1.1090    -0.0450 H     1 <1>   0.0800 
 26 H       -6.6620     0.2670    -1.4570 H     1 <1>   0.1500 
 27 H       -5.1760     1.7350     2.2750 H     1 <1>   0.1500 
 28 H       -8.3450     2.0070    -1.4780 H     1 <1>   0.1500 
 29 H       -6.8850     3.4920     2.2440 H     1 <1>   0.1500 
 30 H      -10.1940     3.1970    -0.6320 H     1 <1>   0.0800 
 31 H       -9.0640     4.2510    -1.4830 H     1 <1>   0.0800 
 32 H      -10.9660     5.1000     0.7220 H     1 <1>   0.0800 
 33 H      -11.2030     5.4110    -0.9710 H     1 <1>   0.0800 
 34 H       -9.1150     6.7700    -1.0170 H     1 <1>   0.0800 
 35 H       -8.9110     6.4960     0.6900 H     1 <1>   0.0800 
 36 H      -11.2730     7.9220    -0.5750 H     1 <1>   0.0800 
 37 H       -9.9590     8.6850     0.2860 H     1 <1>   0.0800 
 38 H      -11.0660     7.6390     1.1400 H     1 <1>   0.0800 
@<TRIPOS>BOND
  1   1   2  1   
  2   2   3  ar  
  3   2   4  ar  
  4   3   5  1   
  5   3  20  1   
  6   4   6  1   
  7   4   7  1   
  8   5   6  2   
  9   6   8  1   
 10   7  21  1   
 11   7  22  1   
 12   7  23  1   
 13   8   9  1   
 14   8  24  1   
 15   8  25  1   
 16   9  10  ar  
 17   9  11  ar  
 18  10  12  ar  
 19  10  26  1   
 20  11  13  ar  
 21  11  27  1   
 22  12  14  ar  
 23  12  28  1   
 24  13  14  ar  
 25  13  29  1   
 26  14  15  1   
 27  15  16  1   
 28  16  17  1   
 29  16  30  1   
 30  16  31  1   
 31  17  18  1   
 32  17  32  1   
 33  17  33  1   
 34  18  19  1   
 35  18  34  1   
 36  18  35  1   
 37  19  36  1   
 38  19  37  1   
 39  19  38  1   
@<TRIPOS>SUBSTRUCTURE
  1 ****   9 GROUP 4 **** **** 0

# MOE 2024.06 (io_trps.svl 2023.06)
