@<TRIPOS>MOLECULE
NONAME
43 45 1 0 0 
SMALL
USER_CHARGES


@<TRIPOS>ATOM
  1 O        0.6400    -0.6960    -0.7170 O.3   1 <1>  -0.3630 
  2 C       -0.0790    -1.7560    -0.3390 C.ar  1 <1>   0.0830 
  3 C        1.7430    -0.6070     0.1850 C.3   1 <1>   0.4000 
  4 C        0.4840    -2.3410     0.7560 C.ar  1 <1>   0.0830 
  5 C       -1.2310    -2.2530    -0.9130 C.ar  1 <1>  -0.1500 
  6 O        1.5850    -1.6750     1.1180 O.3   1 <1>  -0.3630 
  7 C       -0.0730    -3.4600     1.3390 C.ar  1 <1>  -0.1500 
  8 C       -1.8210    -3.3760    -0.3380 C.ar  1 <1>  -0.1440 
  9 C       -1.2350    -3.9780     0.7790 C.ar  1 <1>  -0.1500 
 10 C       -3.0990    -3.9390    -0.9270 C.3   1 <1>   0.4870 
 11 N       -4.2440    -3.5890    -0.0200 N.4   1 <1>  -0.9590 
 12 C       -5.5130    -4.3390    -0.3180 C.3   1 <1>   0.4230 
 13 C       -4.4100    -2.0900    -0.0230 C.3   1 <1>   0.2630 
 14 C       -6.6310    -3.9160     0.6500 C.3   1 <1>  -0.1600 
 15 C       -5.2860    -5.8560    -0.2060 C.3   1 <1>  -0.1600 
 16 C       -7.9090    -4.7320     0.4480 C.3   1 <1>   0.3430 
 17 C       -6.5830    -6.6480    -0.3940 C.3   1 <1>   0.3430 
 18 N       -7.6110    -6.1850     0.5770 N.4   1 <1>  -0.9590 
 19 C       -8.8710    -6.9860     0.4180 C.3   1 <1>   0.2630 
 20 H        1.7130     0.3350     0.7050 H     1 <1>   0.0800 
 21 H        2.6640    -0.7340    -0.3560 H     1 <1>   0.0800 
 22 H       -1.6310    -1.7610    -1.7830 H     1 <1>   0.1500 
 23 H        0.3960    -3.9080     2.1980 H     1 <1>   0.1500 
 24 H       -1.6630    -4.8570     1.2270 H     1 <1>   0.1500 
 25 H       -2.9860    -5.0060    -1.0130 H     1 <1>   0.0800 
 26 H       -3.2610    -3.5320    -1.9120 H     1 <1>   0.0800 
 27 H       -3.9170    -3.8400     0.9240 H     1 <1>   0.4500 
 28 H       -5.8270    -4.1100    -1.3260 H     1 <1>   0.0800 
 29 H       -4.7340    -1.7460    -0.9910 H     1 <1>   0.0800 
 30 H       -3.4750    -1.6070     0.2140 H     1 <1>   0.0800 
 31 H       -5.1310    -1.7820     0.7160 H     1 <1>   0.0800 
 32 H       -6.8950    -2.8870     0.4870 H     1 <1>   0.0800 
 33 H       -6.3070    -4.0230     1.6700 H     1 <1>   0.0800 
 34 H       -4.8660    -6.1050     0.7530 H     1 <1>   0.0800 
 35 H       -4.6080    -6.1930    -0.9680 H     1 <1>   0.0800 
 36 H       -8.3210    -4.5310    -0.5280 H     1 <1>   0.0800 
 37 H       -8.6420    -4.4410     1.1850 H     1 <1>   0.0800 
 38 H       -6.3880    -7.7000    -0.2480 H     1 <1>   0.0800 
 39 H       -6.9490    -6.5150    -1.4010 H     1 <1>   0.0800 
 40 H       -7.2680    -6.3680     1.5350 H     1 <1>   0.4500 
 41 H       -9.2900    -6.8430    -0.5660 H     1 <1>   0.0800 
 42 H       -9.6040    -6.6840     1.1490 H     1 <1>   0.0800 
 43 H       -8.6690    -8.0370     0.5550 H     1 <1>   0.0800 
@<TRIPOS>BOND
  1   1   2  1   
  2   1   3  1   
  3   2   4  ar  
  4   2   5  ar  
  5   3   6  1   
  6   3  20  1   
  7   3  21  1   
  8   4   6  1   
  9   4   7  ar  
 10   5   8  ar  
 11   5  22  1   
 12   7   9  ar  
 13   7  23  1   
 14   8   9  ar  
 15   8  10  1   
 16   9  24  1   
 17  10  11  1   
 18  10  25  1   
 19  10  26  1   
 20  11  12  1   
 21  11  13  1   
 22  11  27  1   
 23  12  14  1   
 24  12  15  1   
 25  12  28  1   
 26  13  29  1   
 27  13  30  1   
 28  13  31  1   
 29  14  16  1   
 30  14  32  1   
 31  14  33  1   
 32  15  17  1   
 33  15  34  1   
 34  15  35  1   
 35  16  18  1   
 36  16  36  1   
 37  16  37  1   
 38  17  18  1   
 39  17  38  1   
 40  17  39  1   
 41  18  19  1   
 42  18  40  1   
 43  19  41  1   
 44  19  42  1   
 45  19  43  1   
@<TRIPOS>SUBSTRUCTURE
  1 ****  11 GROUP 4 **** **** 0

# MOE 2024.06 (io_trps.svl 2023.06)
