@<TRIPOS>MOLECULE
NONAME
56 57 1 0 0 
SMALL
USER_CHARGES


@<TRIPOS>ATOM
  1 O       -0.7770    -2.1900    -0.1990 O.3   1 <1>  -0.3630 
  2 C       -2.0610    -2.6040    -0.0520 C.ar  1 <1>   0.0830 
  3 C       -0.4520    -0.8150    -0.2730 C.3   1 <1>   0.1200 
  4 C       -3.1450    -1.7490     0.1030 C.ar  1 <1>  -0.1500 
  5 C       -2.2810    -3.9670    -0.0620 C.ar  1 <1>  -0.1500 
  6 C        1.0620    -0.6690    -0.4610 C.3   1 <1>   0.2000 
  7 C       -4.4360    -2.2400     0.2460 C.ar  1 <1>  -0.1440 
  8 C       -3.5620    -4.4650     0.0760 C.ar  1 <1>  -0.1500 
  9 O        1.7010    -1.3950     0.5400 O.3   1 <1>  -0.6800 
 10 C        1.5090     0.8130    -0.4420 C.3   1 <1>   0.1100 
 11 C       -4.6590    -3.6230     0.2270 C.ar  1 <1>  -0.1430 
 12 C       -5.5390    -1.2020     0.4120 C.3   1 <1>  -0.0970 
 13 N        2.9700     1.0150    -0.3020 N.3   1 <1>  -0.8100 
 14 C       -6.0220    -4.3230     0.3670 C.3   1 <1>   0.0630 
 15 C        3.7830     0.3950    -1.3760 C.3   1 <1>   0.1100 
 16 C        3.3510     2.4270    -0.0860 C.3   1 <1>   0.1100 
 17 C       -7.1140    -3.7910    -0.5690 C.3   1 <1>  -0.2400 
 18 C       -6.4910    -4.3600     1.8260 C.3   1 <1>  -0.2400 
 19 C        5.3010     0.5750    -1.1280 C.3   1 <1>   0.3430 
 20 C        4.8580     2.5650     0.2490 C.3   1 <1>   0.3430 
 21 N        5.5470     1.2300     0.1970 N.4   1 <1>  -0.9590 
 22 C        6.9720     1.2310     0.6000 C.3   1 <1>   0.3430 
 23 C        7.0870     1.5450     2.0860 C.3   1 <1>  -0.2400 
 24 H       -0.7630    -0.3420     0.6420 H     1 <1>   0.0800 
 25 H       -0.9790    -0.3860    -1.1070 H     1 <1>   0.0800 
 26 H       -2.9940    -0.6880     0.1160 H     1 <1>   0.1500 
 27 H       -1.4480    -4.6360    -0.1790 H     1 <1>   0.1500 
 28 H        1.3300    -1.1110    -1.4040 H     1 <1>   0.0800 
 29 H       -3.6930    -5.5320     0.0650 H     1 <1>   0.1500 
 30 H        1.1970    -2.2260     0.6790 H     1 <1>   0.4000 
 31 H        1.0200     1.2910     0.3900 H     1 <1>   0.0800 
 32 H        1.1620     1.2950    -1.3400 H     1 <1>   0.0800 
 33 H       -5.1320    -0.2490     0.6980 H     1 <1>   0.0800 
 34 H       -6.2330    -1.4920     1.1750 H     1 <1>   0.0800 
 35 H       -6.0620    -1.0760    -0.5180 H     1 <1>   0.0800 
 36 H       -5.8830    -5.3500     0.0740 H     1 <1>   0.0800 
 37 H        3.5210     0.8170    -2.3310 H     1 <1>   0.0800 
 38 H        3.5760    -0.6610    -1.4170 H     1 <1>   0.0800 
 39 H        2.7780     2.8320     0.7320 H     1 <1>   0.0800 
 40 H        3.1220     3.0080    -0.9640 H     1 <1>   0.0800 
 41 H       -7.5340    -2.8720    -0.2100 H     1 <1>   0.0800 
 42 H       -7.9120    -4.5080    -0.6400 H     1 <1>   0.0800 
 43 H       -6.7090    -3.6340    -1.5530 H     1 <1>   0.0800 
 44 H       -6.7000    -3.3760     2.1970 H     1 <1>   0.0800 
 45 H       -5.7260    -4.7980     2.4410 H     1 <1>   0.0800 
 46 H       -7.3820    -4.9560     1.9140 H     1 <1>   0.0800 
 47 H        5.7240     1.1720    -1.9190 H     1 <1>   0.0800 
 48 H        5.7740    -0.3930    -1.1550 H     1 <1>   0.0800 
 49 H        4.9520     2.9880     1.2350 H     1 <1>   0.0800 
 50 H        5.3180     3.2470    -0.4470 H     1 <1>   0.0800 
 51 H        4.9900     0.6480     0.8480 H     1 <1>   0.4500 
 52 H        7.5230     1.9560     0.0220 H     1 <1>   0.0800 
 53 H        7.3980     0.2570     0.4160 H     1 <1>   0.0800 
 54 H        6.7710     2.5490     2.3010 H     1 <1>   0.0800 
 55 H        8.1160     1.4560     2.3860 H     1 <1>   0.0800 
 56 H        6.5100     0.8490     2.6690 H     1 <1>   0.0800 
@<TRIPOS>BOND
  1   1   2  1   
  2   1   3  1   
  3   2   4  ar  
  4   2   5  ar  
  5   3   6  1   
  6   3  24  1   
  7   3  25  1   
  8   4   7  ar  
  9   4  26  1   
 10   5   8  ar  
 11   5  27  1   
 12   6   9  1   
 13   6  10  1   
 14   6  28  1   
 15   7  11  ar  
 16   7  12  1   
 17   8  11  ar  
 18   8  29  1   
 19   9  30  1   
 20  10  13  1   
 21  10  31  1   
 22  10  32  1   
 23  11  14  1   
 24  12  33  1   
 25  12  34  1   
 26  12  35  1   
 27  13  15  1   
 28  13  16  1   
 29  14  17  1   
 30  14  18  1   
 31  14  36  1   
 32  15  19  1   
 33  15  37  1   
 34  15  38  1   
 35  16  20  1   
 36  16  39  1   
 37  16  40  1   
 38  17  41  1   
 39  17  42  1   
 40  17  43  1   
 41  18  44  1   
 42  18  45  1   
 43  18  46  1   
 44  19  21  1   
 45  19  47  1   
 46  19  48  1   
 47  20  21  1   
 48  20  49  1   
 49  20  50  1   
 50  21  22  1   
 51  21  51  1   
 52  22  23  1   
 53  22  52  1   
 54  22  53  1   
 55  23  54  1   
 56  23  55  1   
 57  23  56  1   
@<TRIPOS>SUBSTRUCTURE
  1 ****   3 GROUP 4 **** **** 0

# MOE 2024.06 (io_trps.svl 2023.06)
