@<TRIPOS>MOLECULE
NONAME
39 41 1 0 0 
SMALL
USER_CHARGES


@<TRIPOS>ATOM
  1 O        0.5630    -6.1470     0.4590 O.3   1 <1>  -0.6800 
  2 C        0.2960    -5.5450    -0.7750 C.3   1 <1>   0.2000 
  3 C        1.4930    -4.6860    -1.2100 C.3   1 <1>   0.0960 
  4 C       -1.0060    -4.7230    -0.6470 C.3   1 <1>   0.3430 
  5 N        2.6870    -5.5370    -1.3610 N.pl3 1 <1>   0.0480 
  6 N       -1.9830    -5.4320     0.2340 N.4   1 <1>  -0.9590 
  7 C        3.5220    -5.9510    -0.3490 C.ar  1 <1>  -0.1520 
  8 C        3.0130    -6.2390    -2.4860 C.2   1 <1>  -0.3020 
  9 C       -2.6990    -6.5600    -0.4020 C.3   1 <1>   0.3430 
 10 C       -3.0050    -4.5710     0.8680 C.3   1 <1>   0.3430 
 11 C        4.3720    -6.9290    -0.8580 C.ar  1 <1>   0.0000 
 12 C        3.6130    -5.5610     0.9920 C.ar  1 <1>  -0.1500 
 13 C        4.0330    -7.0870    -2.2160 C.2   1 <1>  -0.1500 
 14 C       -3.8650    -6.8350     0.5370 C.3   1 <1>  -0.1600 
 15 C       -4.0800    -5.5440     1.3350 C.3   1 <1>  -0.1600 
 16 C        5.3160    -7.5350    -0.0240 C.ar  1 <1>  -0.1500 
 17 C        4.5460    -6.1660     1.8030 C.ar  1 <1>  -0.1500 
 18 C        5.3960    -7.1550     1.2950 C.ar  1 <1>  -0.1500 
 19 H        1.4580    -6.5690     0.4420 H     1 <1>   0.4000 
 20 H        0.1480    -6.3320    -1.4960 H     1 <1>   0.0800 
 21 H        1.6940    -3.9170    -0.4860 H     1 <1>   0.0800 
 22 H        1.2920    -4.2180    -2.1560 H     1 <1>   0.0800 
 23 H       -1.4310    -4.5370    -1.6190 H     1 <1>   0.0800 
 24 H       -0.7580    -3.7730    -0.2050 H     1 <1>   0.0800 
 25 H       -1.3910    -5.8490     0.9790 H     1 <1>   0.4500 
 26 H        2.5030    -6.1010    -3.4240 H     1 <1>   0.1500 
 27 H       -2.0630    -7.4240    -0.5130 H     1 <1>   0.0800 
 28 H       -3.0760    -6.2590    -1.3670 H     1 <1>   0.0800 
 29 H       -3.4230    -3.8980     0.1360 H     1 <1>   0.0800 
 30 H       -2.5960    -4.0040     1.6880 H     1 <1>   0.0800 
 31 H        2.9680    -4.7960     1.3850 H     1 <1>   0.1500 
 32 H        4.5250    -7.7740    -2.8820 H     1 <1>   0.1500 
 33 H       -3.6120    -7.6460     1.1980 H     1 <1>   0.0800 
 34 H       -4.7430    -7.1120    -0.0220 H     1 <1>   0.0800 
 35 H       -5.0580    -5.1290     1.1670 H     1 <1>   0.0800 
 36 H       -3.9670    -5.7330     2.3900 H     1 <1>   0.0800 
 37 H        5.9640    -8.2910    -0.4290 H     1 <1>   0.1500 
 38 H        4.6340    -5.8830     2.8370 H     1 <1>   0.1500 
 39 H        6.1170    -7.6120     1.9500 H     1 <1>   0.1500 
@<TRIPOS>BOND
  1   1   2  1   
  2   1  19  1   
  3   2   3  1   
  4   2   4  1   
  5   2  20  1   
  6   3   5  1   
  7   3  21  1   
  8   3  22  1   
  9   4   6  1   
 10   4  23  1   
 11   4  24  1   
 12   5   7  1   
 13   5   8  1   
 14   6   9  1   
 15   6  10  1   
 16   6  25  1   
 17   7  11  ar  
 18   7  12  ar  
 19   8  13  2   
 20   8  26  1   
 21   9  14  1   
 22   9  27  1   
 23   9  28  1   
 24  10  15  1   
 25  10  29  1   
 26  10  30  1   
 27  11  13  1   
 28  11  16  ar  
 29  12  17  ar  
 30  12  31  1   
 31  13  32  1   
 32  14  15  1   
 33  14  33  1   
 34  14  34  1   
 35  15  35  1   
 36  15  36  1   
 37  16  18  ar  
 38  16  37  1   
 39  17  18  ar  
 40  17  38  1   
 41  18  39  1   
@<TRIPOS>SUBSTRUCTURE
  1 ****   1 GROUP 4 **** **** 0

# MOE 2024.06 (io_trps.svl 2023.06)
