@<TRIPOS>MOLECULE
NONAME
46 49 1 0 0 
SMALL
USER_CHARGES


@<TRIPOS>ATOM
  1 S       -0.6540    -0.8140     0.4330 S.3   1 <1>  -0.2860 
  2 C       -2.1110     0.1780     0.0930 C.2   1 <1>   0.2420 
  3 C        0.7170     0.4310     0.3390 C.3   1 <1>   0.1310 
  4 N       -2.0750     1.4490    -0.0890 N.2   1 <1>  -0.3380 
  5 N       -3.3340    -0.3380     0.0220 N.pl3 1 <1>   0.0480 
  6 C        2.0370    -0.2390     0.6750 C.2   1 <1>   0.5180 
  7 N       -3.3390     1.8230    -0.2800 N.2   1 <1>  -0.3380 
  8 C       -4.0890     0.7560    -0.2120 C.2   1 <1>   0.1330 
  9 C       -3.7540    -1.7400     0.2500 C.3   1 <1>   0.0960 
 10 O        2.4720    -0.1100     1.7970 O.2   1 <1>  -0.5700 
 11 N        2.6820    -0.9710    -0.3580 N.pl3 1 <1>   0.5610 
 12 C       -5.5250     0.7500    -0.3350 C.ar  1 <1>   0.0530 
 13 C       -3.4790    -2.6100    -0.9820 C.3   1 <1>  -0.2400 
 14 N        2.3040    -0.9000    -1.6770 N.2   1 <1>  -0.7070 
 15 C        3.7520    -1.8300    -0.2630 C.2   1 <1>  -0.3320 
 16 C       -6.1710     0.0100    -1.3300 C.ar  1 <1>  -0.1500 
 17 C       -6.3080     1.4960     0.5570 C.ar  1 <1>  -0.1500 
 18 C        3.1020    -1.6740    -2.3290 C.2   1 <1>   0.1080 
 19 C        4.0320    -2.2860    -1.4990 C.2   1 <1>  -0.1500 
 20 C        4.4720    -2.1860     1.0300 C.3   1 <1>  -0.0600 
 21 C       -7.5480     0.0200    -1.3810 C.ar  1 <1>   0.0830 
 22 C       -7.6940     1.5000     0.4910 C.ar  1 <1>  -0.1500 
 23 C        3.0070    -1.8710    -3.8240 C.3   1 <1>  -0.0590 
 24 O       -8.3500    -0.6220    -2.2380 O.3   1 <1>  -0.3630 
 25 C       -8.2920     0.7430    -0.4960 C.ar  1 <1>   0.0830 
 26 C       -9.6880    -0.2740    -1.8850 C.3   1 <1>   0.4000 
 27 O       -9.5940     0.5890    -0.7540 O.3   1 <1>  -0.3630 
 28 H        0.4910     1.2000     1.0540 H     1 <1>   0.0800 
 29 H        0.7120     0.8450    -0.6530 H     1 <1>   0.0800 
 30 H       -4.8030    -1.7590     0.4870 H     1 <1>   0.0800 
 31 H       -3.2140    -2.1260     1.0970 H     1 <1>   0.0800 
 32 H       -4.0090    -2.2390    -1.8400 H     1 <1>   0.0800 
 33 H       -3.8050    -3.6180    -0.7930 H     1 <1>   0.0800 
 34 H       -2.4260    -2.6340    -1.2010 H     1 <1>   0.0800 
 35 H       -5.6130    -0.5530    -2.0540 H     1 <1>   0.1500 
 36 H       -5.8110     2.0830     1.3110 H     1 <1>   0.1500 
 37 H        4.7990    -2.9730    -1.8110 H     1 <1>   0.1500 
 38 H        5.2540    -2.8990     0.8390 H     1 <1>   0.0800 
 39 H        4.9100    -1.3060     1.4670 H     1 <1>   0.0800 
 40 H        3.7820    -2.6160     1.7350 H     1 <1>   0.0800 
 41 H       -8.2930     2.0720     1.1760 H     1 <1>   0.1500 
 42 H        3.1700    -0.9310    -4.3200 H     1 <1>   0.0800 
 43 H        2.0280    -2.2330    -4.0770 H     1 <1>   0.0800 
 44 H        3.7420    -2.5780    -4.1590 H     1 <1>   0.0800 
 45 H      -10.2340    -1.1610    -1.6180 H     1 <1>   0.0800 
 46 H      -10.1520     0.2500    -2.7010 H     1 <1>   0.0800 
@<TRIPOS>BOND
  1   1   2  1   
  2   1   3  1   
  3   2   4  2   
  4   2   5  1   
  5   3   6  1   
  6   3  28  1   
  7   3  29  1   
  8   4   7  1   
  9   5   8  1   
 10   5   9  1   
 11   6  10  2   
 12   6  11  1   
 13   7   8  2   
 14   8  12  1   
 15   9  13  1   
 16   9  30  1   
 17   9  31  1   
 18  11  14  1   
 19  11  15  1   
 20  12  16  ar  
 21  12  17  ar  
 22  13  32  1   
 23  13  33  1   
 24  13  34  1   
 25  14  18  2   
 26  15  19  2   
 27  15  20  1   
 28  16  21  ar  
 29  16  35  1   
 30  17  22  ar  
 31  17  36  1   
 32  18  19  1   
 33  18  23  1   
 34  19  37  1   
 35  20  38  1   
 36  20  39  1   
 37  20  40  1   
 38  21  24  1   
 39  21  25  ar  
 40  22  25  ar  
 41  22  41  1   
 42  23  42  1   
 43  23  43  1   
 44  23  44  1   
 45  24  26  1   
 46  25  27  1   
 47  26  27  1   
 48  26  45  1   
 49  26  46  1   
@<TRIPOS>SUBSTRUCTURE
  1 ****   2 GROUP 4 **** **** 0

# MOE 2024.06 (io_trps.svl 2023.06)
