@<TRIPOS>MOLECULE
NONAME
35 36 1 0 0 
SMALL
USER_CHARGES


@<TRIPOS>ATOM
  1 CL      -1.6760    -0.9460    -0.6800 Cl    1 <1>  -0.1770 
  2 C       -1.8600     0.7740    -0.4270 C.ar  1 <1>   0.1770 
  3 C       -0.7590     1.5710    -0.1590 C.ar  1 <1>   0.1770 
  4 C       -3.1240     1.3260    -0.5000 C.ar  1 <1>  -0.1500 
  5 CL       0.8480     0.8820    -0.0640 Cl    1 <1>  -0.1770 
  6 C       -0.9180     2.9300     0.0360 C.ar  1 <1>  -0.1500 
  7 C       -3.3050     2.6910    -0.3030 C.ar  1 <1>   0.1170 
  8 C       -2.1860     3.4820    -0.0390 C.ar  1 <1>  -0.1500 
  9 N       -4.6020     3.2160    -0.3930 N.am  1 <1>  -0.5470 
 10 C       -5.1590     4.3260     0.1680 C.2   1 <1>   0.6900 
 11 O       -4.5330     5.0640     0.9030 O.2   1 <1>  -0.5700 
 12 N       -6.4610     4.5690    -0.1100 N.am  1 <1>  -0.7300 
 13 C       -7.2820     5.5760     0.5890 C.3   1 <1>   0.2200 
 14 C       -8.7790     5.1910     0.4750 C.3   1 <1>   0.2000 
 15 C       -6.9750     6.9650     0.0180 C.3   1 <1>  -0.2400 
 16 O       -8.9450     3.8190     0.6780 O.3   1 <1>  -0.5600 
 17 C       -9.4320     5.4220    -0.8860 C.3   1 <1>  -0.1600 
 18 C      -10.1920     3.4210     0.2090 C.3   1 <1>   0.1200 
 19 C      -10.5430     4.3840    -0.9230 C.3   1 <1>  -0.1600 
 20 H       -3.9640     0.6890    -0.7050 H     1 <1>   0.1500 
 21 H       -0.0610     3.5470     0.2440 H     1 <1>   0.1500 
 22 H       -2.3030     4.5410     0.1070 H     1 <1>   0.1500 
 23 H       -5.2600     2.6740    -0.9420 H     1 <1>   0.3700 
 24 H       -7.0480     3.7650    -0.3380 H     1 <1>   0.3700 
 25 H       -7.0170     5.5690     1.6340 H     1 <1>   0.0800 
 26 H       -9.3420     5.7040     1.2360 H     1 <1>   0.0800 
 27 H       -7.1250     6.9890    -1.0460 H     1 <1>   0.0800 
 28 H       -5.9540     7.2280     0.2290 H     1 <1>   0.0800 
 29 H       -7.6090     7.7000     0.4780 H     1 <1>   0.0800 
 30 H       -8.7230     5.2280    -1.6720 H     1 <1>   0.0800 
 31 H       -9.8030     6.4270    -0.9850 H     1 <1>   0.0800 
 32 H      -10.8960     3.4970     1.0200 H     1 <1>   0.0800 
 33 H      -10.1260     2.4000    -0.1270 H     1 <1>   0.0800 
 34 H      -10.5740     3.8740    -1.8690 H     1 <1>   0.0800 
 35 H      -11.5030     4.8310    -0.7350 H     1 <1>   0.0800 
@<TRIPOS>BOND
  1   1   2  1   
  2   2   3  ar  
  3   2   4  ar  
  4   3   5  1   
  5   3   6  ar  
  6   4   7  ar  
  7   4  20  1   
  8   6   8  ar  
  9   6  21  1   
 10   7   8  ar  
 11   7   9  1   
 12   8  22  1   
 13   9  10  am  
 14   9  23  1   
 15  10  11  2   
 16  10  12  am  
 17  12  13  1   
 18  12  24  1   
 19  13  14  1   
 20  13  15  1   
 21  13  25  1   
 22  14  16  1   
 23  14  17  1   
 24  14  26  1   
 25  15  27  1   
 26  15  28  1   
 27  15  29  1   
 28  16  18  1   
 29  17  19  1   
 30  17  30  1   
 31  17  31  1   
 32  18  19  1   
 33  18  32  1   
 34  18  33  1   
 35  19  34  1   
 36  19  35  1   
@<TRIPOS>SUBSTRUCTURE
  1 ****   9 GROUP 4 **** **** 0

# MOE 2024.06 (io_trps.svl 2023.06)
