@<TRIPOS>MOLECULE
NONAME
43 43 1 0 0 
SMALL
USER_CHARGES


@<TRIPOS>ATOM
  1 S        0.0890     0.2000    -0.1930 S.3   1 <1>  -0.2860 
  2 C       -1.6520     0.6220    -0.3130 C.2   1 <1>   0.2420 
  3 C        0.9230     1.7410    -0.8240 C.3   1 <1>   0.1310 
  4 N       -2.0820     1.7660    -0.7100 N.2   1 <1>  -0.3380 
  5 N       -2.6230    -0.2310     0.0090 N.pl3 1 <1>   0.0480 
  6 C        2.4390     1.6340    -0.7530 C.2   1 <1>   0.5690 
  7 N       -3.4150     1.6890    -0.6530 N.2   1 <1>  -0.3380 
  8 C       -3.7210     0.5060    -0.2250 C.2   1 <1>   0.0060 
  9 C       -2.4900    -1.6170     0.5010 C.3   1 <1>   0.0160 
 10 O        3.0900     2.3580    -1.4670 O.2   1 <1>  -0.5700 
 11 N        3.0020     0.7430     0.1110 N.am  1 <1>  -0.7300 
 12 C       -5.1390    -0.0120    -0.0060 C.3   1 <1>   0.0200 
 13 C        4.4160     0.4550     0.3590 C.3   1 <1>   0.3000 
 14 C       -6.2190     1.0530    -0.2460 C.3   1 <1>  -0.1600 
 15 C        5.1160     1.7120     0.8770 C.3   1 <1>  -0.2400 
 16 C        4.4570    -0.6330     1.4300 C.3   1 <1>  -0.2400 
 17 C        5.0690    -0.0610    -0.9230 C.3   1 <1>  -0.2400 
 18 C       -7.6280     0.4960    -0.0050 C.3   1 <1>  -0.1600 
 19 C       -8.6910     1.5700    -0.2490 C.3   1 <1>  -0.2400 
 20 H        0.5800     2.5610    -0.2220 H     1 <1>   0.0800 
 21 H        0.6050     1.8800    -1.8410 H     1 <1>   0.0800 
 22 H       -2.2400    -1.5990     1.5460 H     1 <1>   0.0800 
 23 H       -1.7100    -2.1170    -0.0450 H     1 <1>   0.0800 
 24 H       -3.4130    -2.1490     0.3600 H     1 <1>   0.0800 
 25 H        2.3670     0.1420     0.6360 H     1 <1>   0.3700 
 26 H       -5.2220    -0.3700     1.0050 H     1 <1>   0.0800 
 27 H       -5.3090    -0.8390    -0.6720 H     1 <1>   0.0800 
 28 H       -6.1420     1.4120    -1.2580 H     1 <1>   0.0800 
 29 H       -6.0440     1.8870     0.4130 H     1 <1>   0.0800 
 30 H        4.6180     2.0870     1.7510 H     1 <1>   0.0800 
 31 H        5.1250     2.4780     0.1230 H     1 <1>   0.0800 
 32 H        6.1360     1.4890     1.1330 H     1 <1>   0.0800 
 33 H        3.9880    -0.2910     2.3350 H     1 <1>   0.0800 
 34 H        5.4760    -0.8890     1.6570 H     1 <1>   0.0800 
 35 H        3.9580    -1.5220     1.0850 H     1 <1>   0.0800 
 36 H        5.0760     0.7040    -1.6790 H     1 <1>   0.0800 
 37 H        4.5390    -0.9170    -1.2980 H     1 <1>   0.0800 
 38 H        6.0880    -0.3450    -0.7320 H     1 <1>   0.0800 
 39 H       -7.7110     0.1420     1.0090 H     1 <1>   0.0800 
 40 H       -7.8090    -0.3340    -0.6670 H     1 <1>   0.0800 
 41 H       -8.5430     2.4030     0.4160 H     1 <1>   0.0800 
 42 H       -9.6730     1.1650    -0.0760 H     1 <1>   0.0800 
 43 H       -8.6410     1.9250    -1.2630 H     1 <1>   0.0800 
@<TRIPOS>BOND
  1   1   2  1   
  2   1   3  1   
  3   2   4  2   
  4   2   5  1   
  5   3   6  1   
  6   3  20  1   
  7   3  21  1   
  8   4   7  1   
  9   5   8  1   
 10   5   9  1   
 11   6  10  2   
 12   6  11  am  
 13   7   8  2   
 14   8  12  1   
 15   9  22  1   
 16   9  23  1   
 17   9  24  1   
 18  11  13  1   
 19  11  25  1   
 20  12  14  1   
 21  12  26  1   
 22  12  27  1   
 23  13  15  1   
 24  13  16  1   
 25  13  17  1   
 26  14  18  1   
 27  14  28  1   
 28  14  29  1   
 29  15  30  1   
 30  15  31  1   
 31  15  32  1   
 32  16  33  1   
 33  16  34  1   
 34  16  35  1   
 35  17  36  1   
 36  17  37  1   
 37  17  38  1   
 38  18  19  1   
 39  18  39  1   
 40  18  40  1   
 41  19  41  1   
 42  19  42  1   
 43  19  43  1   
@<TRIPOS>SUBSTRUCTURE
  1 ****   2 GROUP 4 **** **** 0

# MOE 2024.06 (io_trps.svl 2023.06)
