@<TRIPOS>MOLECULE
NONAME
38 39 1 0 0 
SMALL
USER_CHARGES


@<TRIPOS>ATOM
  1 O        2.5500    -0.1990     1.2590 O.3   1 <1>  -0.6800 
  2 C        1.8300     0.4090     0.2330 C.3   1 <1>   0.2000 
  3 C        2.7110     0.3430    -1.0300 C.3   1 <1>   0.3430 
  4 C        1.5660     1.8700     0.6520 C.3   1 <1>  -0.1600 
  5 N        4.0050     0.9960    -0.6800 N.4   1 <1>  -0.9590 
  6 C        2.4400     2.8920    -0.1130 C.3   1 <1>  -0.1600 
  7 C        3.8970     2.4530    -0.3490 C.3   1 <1>   0.3430 
  8 C        5.1350     0.6660    -1.5810 C.3   1 <1>   0.4860 
  9 C        6.4190     1.1310    -0.9210 C.ar  1 <1>  -0.1430 
 10 C        6.9630     0.4720     0.1800 C.ar  1 <1>  -0.1430 
 11 C        7.0530     2.2560    -1.4300 C.ar  1 <1>  -0.1500 
 12 C        8.1210     0.9670     0.7580 C.ar  1 <1>  -0.1500 
 13 C        6.3400    -0.7810     0.7850 C.3   1 <1>  -0.0970 
 14 C        8.2100     2.7350    -0.8450 C.ar  1 <1>  -0.1500 
 15 C        8.7490     2.0930     0.2550 C.ar  1 <1>  -0.1430 
 16 C       10.0170     2.6160     0.9050 C.3   1 <1>  -0.0970 
 17 H        1.9980    -0.2750     2.0670 H     1 <1>   0.4000 
 18 H        0.9100    -0.1340     0.0940 H     1 <1>   0.0800 
 19 H        2.2350     0.8530    -1.8510 H     1 <1>   0.0800 
 20 H        2.8650    -0.6890    -1.2990 H     1 <1>   0.0800 
 21 H        1.7180     1.9890     1.7120 H     1 <1>   0.0800 
 22 H        0.5340     2.1060     0.4560 H     1 <1>   0.0800 
 23 H        4.2310     0.5510     0.2270 H     1 <1>   0.4500 
 24 H        2.4390     3.8320     0.4120 H     1 <1>   0.0800 
 25 H        1.9940     3.0800    -1.0740 H     1 <1>   0.0800 
 26 H        4.3150     3.0450    -1.1470 H     1 <1>   0.0800 
 27 H        4.4790     2.6500     0.5380 H     1 <1>   0.0800 
 28 H        5.0090     1.1550    -2.5320 H     1 <1>   0.0800 
 29 H        5.1830    -0.3980    -1.7450 H     1 <1>   0.0800 
 30 H        6.6590     2.7740    -2.2870 H     1 <1>   0.1500 
 31 H        8.5480     0.4720     1.6140 H     1 <1>   0.1500 
 32 H        5.5260    -0.5190     1.4360 H     1 <1>   0.0800 
 33 H        7.0690    -1.3180     1.3670 H     1 <1>   0.0800 
 34 H        5.9870    -1.4490     0.0210 H     1 <1>   0.0800 
 35 H        8.6920     3.6090    -1.2480 H     1 <1>   0.1500 
 36 H       10.6110     1.8000     1.2770 H     1 <1>   0.0800 
 37 H        9.7670     3.2650     1.7240 H     1 <1>   0.0800 
 38 H       10.6080     3.1650     0.1950 H     1 <1>   0.0800 
@<TRIPOS>BOND
  1   1   2  1   
  2   1  17  1   
  3   2   3  1   
  4   2   4  1   
  5   2  18  1   
  6   3   5  1   
  7   3  19  1   
  8   3  20  1   
  9   4   6  1   
 10   4  21  1   
 11   4  22  1   
 12   5   7  1   
 13   5   8  1   
 14   5  23  1   
 15   6   7  1   
 16   6  24  1   
 17   6  25  1   
 18   7  26  1   
 19   7  27  1   
 20   8   9  1   
 21   8  28  1   
 22   8  29  1   
 23   9  10  ar  
 24   9  11  ar  
 25  10  12  ar  
 26  10  13  1   
 27  11  14  ar  
 28  11  30  1   
 29  12  15  ar  
 30  12  31  1   
 31  13  32  1   
 32  13  33  1   
 33  13  34  1   
 34  14  15  ar  
 35  14  35  1   
 36  15  16  1   
 37  16  36  1   
 38  16  37  1   
 39  16  38  1   
@<TRIPOS>SUBSTRUCTURE
  1 ****   9 GROUP 4 **** **** 0

# MOE 2024.06 (io_trps.svl 2023.06)
