@<TRIPOS>MOLECULE
NONAME
45 47 1 0 0 
SMALL
USER_CHARGES


@<TRIPOS>ATOM
  1 O        2.5210    -0.0580    -1.0330 O.3   1 <1>  -0.3630 
  2 C        1.7720    -1.1780    -0.7960 C.ar  1 <1>   0.0830 
  3 C        1.9700     1.0880    -1.6490 C.3   1 <1>   0.0400 
  4 C        2.4190    -2.2860    -0.1820 C.ar  1 <1>   0.3100 
  5 C        0.4370    -1.2500    -1.1340 C.ar  1 <1>  -0.1500 
  6 N        3.7360    -2.1840     0.1390 N.ar  1 <1>  -0.6200 
  7 C        1.6690    -3.4620     0.0740 C.ar  1 <1>   0.0000 
  8 C       -0.2940    -2.4090    -0.8790 C.ar  1 <1>  -0.1500 
  9 C        4.3120    -3.2050     0.6990 C.ar  1 <1>   0.4100 
 10 C        2.3300    -4.5550     0.6850 C.ar  1 <1>  -0.1440 
 11 C        0.3080    -3.4860    -0.2900 C.ar  1 <1>  -0.1500 
 12 N        5.6460    -3.0680     1.0120 N.pl3 1 <1>  -0.8380 
 13 C        3.6470    -4.4050     0.9880 C.ar  1 <1>  -0.1500 
 14 C        1.6080    -5.8580     0.9990 C.3   1 <1>  -0.0970 
 15 C        6.5540    -2.9380    -0.1660 C.3   1 <1>   0.2090 
 16 C        5.9370    -2.0670     2.0800 C.3   1 <1>   0.2090 
 17 C        6.5640    -1.4920    -0.7180 C.3   1 <1>   0.3430 
 18 C        5.9460    -0.6260     1.5180 C.3   1 <1>   0.3430 
 19 N        6.8720    -0.4510     0.3360 N.4   1 <1>  -0.9590 
 20 C        6.7240     0.9200    -0.2070 C.3   1 <1>   0.3430 
 21 C        7.8790     1.2290    -1.1530 C.3   1 <1>  -0.2400 
 22 H        2.7430     1.8290    -1.7330 H     1 <1>   0.0800 
 23 H        1.1690     1.4640    -1.0370 H     1 <1>   0.0800 
 24 H        1.6140     0.8210    -2.6290 H     1 <1>   0.0800 
 25 H       -0.0820    -0.4340    -1.5980 H     1 <1>   0.1500 
 26 H       -1.3350    -2.4430    -1.1510 H     1 <1>   0.1500 
 27 H       -0.2740    -4.3700    -0.1010 H     1 <1>   0.1500 
 28 H        4.2210    -5.1850     1.4510 H     1 <1>   0.1500 
 29 H        1.2250    -6.2950     0.0940 H     1 <1>   0.0800 
 30 H        0.7920    -5.6740     1.6750 H     1 <1>   0.0800 
 31 H        2.2750    -6.5650     1.4600 H     1 <1>   0.0800 
 32 H        6.2230    -3.6060    -0.9430 H     1 <1>   0.0800 
 33 H        7.5500    -3.2320     0.1150 H     1 <1>   0.0800 
 34 H        6.8860    -2.2930     2.5340 H     1 <1>   0.0800 
 35 H        5.1830    -2.1390     2.8460 H     1 <1>   0.0800 
 36 H        5.5910    -1.2940    -1.1380 H     1 <1>   0.0800 
 37 H        7.2820    -1.4310    -1.5180 H     1 <1>   0.0800 
 38 H        6.2240     0.0550     2.3050 H     1 <1>   0.0800 
 39 H        4.9390    -0.3850     1.2180 H     1 <1>   0.0800 
 40 H        7.8370    -0.5880     0.6580 H     1 <1>   0.4500 
 41 H        6.7350     1.6340     0.6010 H     1 <1>   0.0800 
 42 H        5.7810     1.0120    -0.7240 H     1 <1>   0.0800 
 43 H        8.8250     1.1180    -0.6530 H     1 <1>   0.0800 
 44 H        7.7970     2.2500    -1.4830 H     1 <1>   0.0800 
 45 H        7.8510     0.6030    -2.0260 H     1 <1>   0.0800 
@<TRIPOS>BOND
  1   1   2  1   
  2   1   3  1   
  3   2   4  ar  
  4   2   5  ar  
  5   3  22  1   
  6   3  23  1   
  7   3  24  1   
  8   4   6  ar  
  9   4   7  ar  
 10   5   8  ar  
 11   5  25  1   
 12   6   9  ar  
 13   7  10  ar  
 14   7  11  ar  
 15   8  11  ar  
 16   8  26  1   
 17   9  12  1   
 18   9  13  ar  
 19  10  13  ar  
 20  10  14  1   
 21  11  27  1   
 22  12  15  1   
 23  12  16  1   
 24  13  28  1   
 25  14  29  1   
 26  14  30  1   
 27  14  31  1   
 28  15  17  1   
 29  15  32  1   
 30  15  33  1   
 31  16  18  1   
 32  16  34  1   
 33  16  35  1   
 34  17  19  1   
 35  17  36  1   
 36  17  37  1   
 37  18  19  1   
 38  18  38  1   
 39  18  39  1   
 40  19  20  1   
 41  19  40  1   
 42  20  21  1   
 43  20  41  1   
 44  20  42  1   
 45  21  43  1   
 46  21  44  1   
 47  21  45  1   
@<TRIPOS>SUBSTRUCTURE
  1 ****   6 GROUP 4 **** **** 0

# MOE 2024.06 (io_trps.svl 2023.06)
