@<TRIPOS>MOLECULE
NONAME
43 44 1 0 0 
SMALL
USER_CHARGES


@<TRIPOS>ATOM
  1 N       -0.3810     0.0570    -0.0500 N.4   1 <1>  -0.9590 
  2 C       -1.4930     0.5650     0.7980 C.3   1 <1>   0.3430 
  3 C       -0.1810    -1.4120     0.1050 C.3   1 <1>   0.3430 
  4 C        0.8710     0.8140     0.2510 C.3   1 <1>   0.3430 
  5 C       -2.7970    -0.1520     0.4440 C.3   1 <1>  -0.1600 
  6 C       -1.4650    -2.1590    -0.2590 C.3   1 <1>  -0.1600 
  7 C        1.8770     0.6160    -0.8770 C.3   1 <1>  -0.2400 
  8 C       -2.6700    -1.6790     0.5660 C.3   1 <1>   0.4230 
  9 N       -3.9290    -2.3530     0.1000 N.4   1 <1>  -0.9590 
 10 C       -5.1580    -1.9550     0.8640 C.3   1 <1>   0.4860 
 11 C       -3.8510    -3.8580     0.0860 C.3   1 <1>   0.2630 
 12 C       -6.3720    -2.3930     0.0730 C.ar  1 <1>  -0.1430 
 13 C       -6.7310    -1.7210    -1.0880 C.ar  1 <1>  -0.1500 
 14 C       -7.1330    -3.4720     0.5000 C.ar  1 <1>  -0.1500 
 15 C       -7.8280    -2.1360    -1.8220 C.ar  1 <1>  -0.1500 
 16 C       -8.2300    -3.8850    -0.2350 C.ar  1 <1>  -0.1500 
 17 C       -8.5760    -3.2200    -1.3970 C.ar  1 <1>  -0.1500 
 18 H       -0.5980     0.2600    -1.0380 H     1 <1>   0.4500 
 19 H       -1.6140     1.6270     0.6450 H     1 <1>   0.0800 
 20 H       -1.2580     0.4040     1.8390 H     1 <1>   0.0800 
 21 H        0.0970    -1.6360     1.1230 H     1 <1>   0.0800 
 22 H        0.6190    -1.7460    -0.5380 H     1 <1>   0.0800 
 23 H        1.2950     0.4870     1.1880 H     1 <1>   0.0800 
 24 H        0.6500     1.8670     0.3320 H     1 <1>   0.0800 
 25 H       -3.0830     0.1240    -0.5570 H     1 <1>   0.0800 
 26 H       -3.5450     0.2180     1.1210 H     1 <1>   0.0800 
 27 H       -1.2780    -3.2010    -0.0750 H     1 <1>   0.0800 
 28 H       -1.6530    -2.0320    -1.3110 H     1 <1>   0.0800 
 29 H        2.2130    -0.4030    -0.9390 H     1 <1>   0.0800 
 30 H        2.7410     1.2280    -0.6840 H     1 <1>   0.0800 
 31 H        1.4650     0.9230    -1.8220 H     1 <1>   0.0800 
 32 H       -2.4990    -1.9320     1.6020 H     1 <1>   0.0800 
 33 H       -4.1270    -2.0690    -0.8700 H     1 <1>   0.4500 
 34 H       -5.2080    -0.8870     0.9900 H     1 <1>   0.0800 
 35 H       -5.1640    -2.4150     1.8390 H     1 <1>   0.0800 
 36 H       -3.6650    -4.2380     1.0780 H     1 <1>   0.0800 
 37 H       -3.0660    -4.1950    -0.5700 H     1 <1>   0.0800 
 38 H       -4.7780    -4.2790    -0.2720 H     1 <1>   0.0800 
 39 H       -6.1770    -0.8670    -1.4390 H     1 <1>   0.1500 
 40 H       -6.8910    -4.0040     1.4050 H     1 <1>   0.1500 
 41 H       -8.1090    -1.6170    -2.7230 H     1 <1>   0.1500 
 42 H       -8.8220    -4.7230     0.0950 H     1 <1>   0.1500 
 43 H       -9.4310    -3.5410    -1.9680 H     1 <1>   0.1500 
@<TRIPOS>BOND
  1   1   2  1   
  2   1   3  1   
  3   1   4  1   
  4   1  18  1   
  5   2   5  1   
  6   2  19  1   
  7   2  20  1   
  8   3   6  1   
  9   3  21  1   
 10   3  22  1   
 11   4   7  1   
 12   4  23  1   
 13   4  24  1   
 14   5   8  1   
 15   5  25  1   
 16   5  26  1   
 17   6   8  1   
 18   6  27  1   
 19   6  28  1   
 20   7  29  1   
 21   7  30  1   
 22   7  31  1   
 23   8   9  1   
 24   8  32  1   
 25   9  10  1   
 26   9  11  1   
 27   9  33  1   
 28  10  12  1   
 29  10  34  1   
 30  10  35  1   
 31  11  36  1   
 32  11  37  1   
 33  11  38  1   
 34  12  13  ar  
 35  12  14  ar  
 36  13  15  ar  
 37  13  39  1   
 38  14  16  ar  
 39  14  40  1   
 40  15  17  ar  
 41  15  41  1   
 42  16  17  ar  
 43  16  42  1   
 44  17  43  1   
@<TRIPOS>SUBSTRUCTURE
  1 ****   9 GROUP 4 **** **** 0

# MOE 2024.06 (io_trps.svl 2023.06)
