@<TRIPOS>MOLECULE
NONAME
47 48 1 0 0 
SMALL
USER_CHARGES


@<TRIPOS>ATOM
  1 S       -0.8390    -0.8090     0.0250 S.o2  1 <1>   1.4470 
  2 O       -1.1120     0.5610     0.3920 O.2   1 <1>  -0.6500 
  3 O       -1.6500    -1.3960    -1.0160 O.2   1 <1>  -0.6500 
  4 N       -1.2580    -1.6470     1.4240 N.am  1 <1>  -0.9140 
  5 C        0.9290    -1.1660    -0.2150 C.ar  1 <1>  -0.0090 
  6 C       -2.6210    -1.3960     1.9130 C.3   1 <1>   0.1960 
  7 C        1.8340    -0.2340    -0.7300 C.ar  1 <1>  -0.1430 
  8 C        1.4110    -2.4320     0.1040 C.ar  1 <1>  -0.1500 
  9 C       -3.7320    -1.9700     0.9980 C.3   1 <1>   0.3430 
 10 C        3.1720    -0.5670    -0.8770 C.ar  1 <1>  -0.1500 
 11 C        1.4040     1.1670    -1.1500 C.3   1 <1>  -0.0960 
 12 C        2.7520    -2.7690    -0.0470 C.ar  1 <1>   0.0830 
 13 N       -4.7520    -0.9500     0.5610 N.4   1 <1>  -0.9590 
 14 C        3.6400    -1.8220    -0.5370 C.ar  1 <1>  -0.1430 
 15 O        3.2460    -3.9960     0.2640 O.3   1 <1>  -0.3620 
 16 C       -5.9060    -1.6270    -0.1260 C.3   1 <1>   0.3430 
 17 C       -4.1710     0.0870    -0.3710 C.3   1 <1>   0.3430 
 18 C        5.1150    -2.1560    -0.7090 C.3   1 <1>  -0.0970 
 19 C        2.4130    -5.0680     0.6460 C.3   1 <1>   0.0400 
 20 C       -6.9290    -0.6010    -0.6530 C.3   1 <1>   0.1200 
 21 C       -5.2540     1.0460    -0.9010 C.3   1 <1>   0.1200 
 22 O       -6.3020     0.3270    -1.4880 O.3   1 <1>  -0.5600 
 23 H       -0.6230    -1.2630     2.1270 H     1 <1>   0.4200 
 24 H       -2.7650    -0.3390     2.0640 H     1 <1>   0.0800 
 25 H       -2.7140    -1.8710     2.8760 H     1 <1>   0.0800 
 26 H        0.7180    -3.1620     0.4750 H     1 <1>   0.1500 
 27 H       -4.2350    -2.7520     1.5430 H     1 <1>   0.0800 
 28 H       -3.2820    -2.4250     0.1310 H     1 <1>   0.0800 
 29 H        3.8630     0.1610    -1.2640 H     1 <1>   0.1500 
 30 H        0.5400     1.1250    -1.7890 H     1 <1>   0.0800 
 31 H        2.1870     1.6650    -1.6930 H     1 <1>   0.0800 
 32 H        1.1720     1.7610    -0.2830 H     1 <1>   0.0800 
 33 H       -5.1250    -0.4560     1.3810 H     1 <1>   0.4500 
 34 H       -6.3990    -2.3010     0.5550 H     1 <1>   0.0800 
 35 H       -5.5450    -2.2030    -0.9620 H     1 <1>   0.0800 
 36 H       -3.7110    -0.3990    -1.2160 H     1 <1>   0.0800 
 37 H       -3.4120     0.6610     0.1330 H     1 <1>   0.0800 
 38 H        5.6660    -1.3140    -1.0870 H     1 <1>   0.0800 
 39 H        5.2240    -2.9750    -1.3970 H     1 <1>   0.0800 
 40 H        5.5350    -2.4450     0.2380 H     1 <1>   0.0800 
 41 H        3.0320    -5.9360     0.7850 H     1 <1>   0.0800 
 42 H        1.6990    -5.2520    -0.1370 H     1 <1>   0.0800 
 43 H        1.9240    -4.8180     1.5700 H     1 <1>   0.0800 
 44 H       -7.4080    -0.0740     0.1550 H     1 <1>   0.0800 
 45 H       -7.6870    -1.0990    -1.2330 H     1 <1>   0.0800 
 46 H       -4.8360     1.6890    -1.6570 H     1 <1>   0.0800 
 47 H       -5.6520     1.6590    -0.1120 H     1 <1>   0.0800 
@<TRIPOS>BOND
  1   1   2  2   
  2   1   3  2   
  3   1   4  am  
  4   1   5  1   
  5   4   6  1   
  6   4  23  1   
  7   5   7  ar  
  8   5   8  ar  
  9   6   9  1   
 10   6  24  1   
 11   6  25  1   
 12   7  10  ar  
 13   7  11  1   
 14   8  12  ar  
 15   8  26  1   
 16   9  13  1   
 17   9  27  1   
 18   9  28  1   
 19  10  14  ar  
 20  10  29  1   
 21  11  30  1   
 22  11  31  1   
 23  11  32  1   
 24  12  14  ar  
 25  12  15  1   
 26  13  16  1   
 27  13  17  1   
 28  13  33  1   
 29  14  18  1   
 30  15  19  1   
 31  16  20  1   
 32  16  34  1   
 33  16  35  1   
 34  17  21  1   
 35  17  36  1   
 36  17  37  1   
 37  18  38  1   
 38  18  39  1   
 39  18  40  1   
 40  19  41  1   
 41  19  42  1   
 42  19  43  1   
 43  20  22  1   
 44  20  44  1   
 45  20  45  1   
 46  21  22  1   
 47  21  46  1   
 48  21  47  1   
@<TRIPOS>SUBSTRUCTURE
  1 ****   1 GROUP 4 **** **** 0

# MOE 2024.06 (io_trps.svl 2023.06)
