@<TRIPOS>MOLECULE
NONAME
35 36 1 0 0 
SMALL
USER_CHARGES


@<TRIPOS>ATOM
  1 S        0.1570    -0.4410    -0.6770 S.3   1 <1>  -0.4600 
  2 C        1.7510     0.3810    -0.9350 C.3   1 <1>   0.0700 
  3 C        0.6400    -2.1650    -0.3990 C.3   1 <1>   0.0700 
  4 C        2.6830     0.0460     0.2360 C.3   1 <1>   0.3430 
  5 C        1.6940    -2.2150     0.7150 C.3   1 <1>   0.3430 
  6 N        2.9310    -1.4340     0.3750 N.4   1 <1>  -0.9590 
  7 C        4.0180    -1.7010     1.3570 C.3   1 <1>   0.4860 
  8 C        5.3080    -1.1310     0.8010 C.ar  1 <1>  -0.1430 
  9 C        5.9980    -1.7470    -0.2410 C.ar  1 <1>  -0.1430 
 10 C        5.8000     0.0460     1.3480 C.ar  1 <1>  -0.1500 
 11 C        7.1520    -1.1540    -0.7300 C.ar  1 <1>  -0.1500 
 12 C        5.5490    -3.0590    -0.8740 C.3   1 <1>  -0.0970 
 13 C        6.9540     0.6220     0.8530 C.ar  1 <1>  -0.1500 
 14 C        7.6340     0.0260    -0.1920 C.ar  1 <1>  -0.1430 
 15 C        8.9030     0.6540    -0.7430 C.3   1 <1>  -0.0970 
 16 H        1.5550     1.4380    -0.9850 H     1 <1>   0.0800 
 17 H        2.1500     0.0450    -1.8750 H     1 <1>   0.0800 
 18 H        1.0150    -2.5570    -1.3280 H     1 <1>   0.0800 
 19 H       -0.2510    -2.6980    -0.1160 H     1 <1>   0.0800 
 20 H        2.2510     0.4310     1.1460 H     1 <1>   0.0800 
 21 H        3.6190     0.5570     0.0730 H     1 <1>   0.0800 
 22 H        1.9540    -3.2460     0.8900 H     1 <1>   0.0800 
 23 H        1.2560    -1.8260     1.6210 H     1 <1>   0.0800 
 24 H        3.3010    -1.7560    -0.5280 H     1 <1>   0.4500 
 25 H        4.1350    -2.7610     1.5100 H     1 <1>   0.0800 
 26 H        3.7890    -1.2430     2.3050 H     1 <1>   0.0800 
 27 H        5.2970     0.5320     2.1670 H     1 <1>   0.1500 
 28 H        7.6930    -1.6140    -1.5400 H     1 <1>   0.1500 
 29 H        4.7810    -2.8820    -1.6040 H     1 <1>   0.0800 
 30 H        5.1920    -3.7490    -0.1310 H     1 <1>   0.0800 
 31 H        6.3770    -3.5320    -1.3750 H     1 <1>   0.0800 
 32 H        7.3250     1.5370     1.2850 H     1 <1>   0.1500 
 33 H        9.6090    -0.1090    -1.0180 H     1 <1>   0.0800 
 34 H        9.3630     1.2890    -0.0090 H     1 <1>   0.0800 
 35 H        8.6710     1.2410    -1.6130 H     1 <1>   0.0800 
@<TRIPOS>BOND
  1   1   2  1   
  2   1   3  1   
  3   2   4  1   
  4   2  16  1   
  5   2  17  1   
  6   3   5  1   
  7   3  18  1   
  8   3  19  1   
  9   4   6  1   
 10   4  20  1   
 11   4  21  1   
 12   5   6  1   
 13   5  22  1   
 14   5  23  1   
 15   6   7  1   
 16   6  24  1   
 17   7   8  1   
 18   7  25  1   
 19   7  26  1   
 20   8   9  ar  
 21   8  10  ar  
 22   9  11  ar  
 23   9  12  1   
 24  10  13  ar  
 25  10  27  1   
 26  11  14  ar  
 27  11  28  1   
 28  12  29  1   
 29  12  30  1   
 30  12  31  1   
 31  13  14  ar  
 32  13  32  1   
 33  14  15  1   
 34  15  33  1   
 35  15  34  1   
 36  15  35  1   
@<TRIPOS>SUBSTRUCTURE
  1 ****   8 GROUP 4 **** **** 0

# MOE 2024.06 (io_trps.svl 2023.06)
