@<TRIPOS>MOLECULE
NONAME
30 32 1 0 0 
SMALL
USER_CHARGES


@<TRIPOS>ATOM
  1 O        2.5640    -2.0400     0.0980 O.3   1 <1>  -0.5600 
  2 C        3.6790    -2.7110    -0.4250 C.3   1 <1>   0.4560 
  3 C        2.7510    -0.6480     0.0300 C.3   1 <1>   0.2000 
  4 N        3.8630    -3.9870     0.2870 N.pl3 1 <1>   0.0480 
  5 C        4.8550    -1.7520    -0.2400 C.3   1 <1>   0.2000 
  6 C        4.1850    -0.4030    -0.4690 C.3   1 <1>   0.2000 
  7 C        2.5080    -0.0550     1.4260 C.3   1 <1>   0.1200 
  8 C        4.2670    -5.1490    -0.2640 C.ar  1 <1>   0.1050 
  9 C        3.7140    -4.2550     1.6150 C.2   1 <1>   0.0360 
 10 O        5.8880    -1.9660    -1.1510 O.3   1 <1>  -0.6800 
 11 O        4.1640    -0.1130    -1.8410 O.3   1 <1>  -0.6800 
 12 O        1.2770    -0.4780     1.8950 O.3   1 <1>  -0.6800 
 13 N        4.5460    -5.4420    -1.5390 N.ar  1 <1>  -0.5670 
 14 C        4.3530    -6.0540     0.7660 C.ar  1 <1>   0.2270 
 15 N        3.9980    -5.4680     1.9490 N.2   1 <1>  -0.5650 
 16 C        4.9250    -6.6850    -1.7290 C.ar  1 <1>   0.4700 
 17 C        4.7630    -7.3370     0.4260 C.ar  1 <1>   0.1600 
 18 N        5.0520    -7.6650    -0.8120 N.ar  1 <1>  -0.6200 
 19 H        3.4970    -2.8900    -1.4710 H     1 <1>   0.0800 
 20 H        2.0320    -0.2420    -0.6610 H     1 <1>   0.0800 
 21 H        5.2500    -1.8330     0.7570 H     1 <1>   0.0800 
 22 H        4.6830     0.3990     0.0490 H     1 <1>   0.0800 
 23 H        2.5040     1.0210     1.3980 H     1 <1>   0.0800 
 24 H        3.2610    -0.3870     2.1200 H     1 <1>   0.0800 
 25 H        3.3830    -3.4970     2.3040 H     1 <1>   0.1500 
 26 H        5.6510    -1.4990    -1.9850 H     1 <1>   0.4000 
 27 H        3.7900     0.7760    -2.0120 H     1 <1>   0.4000 
 28 H        1.1460    -1.4190     1.6470 H     1 <1>   0.4000 
 29 H        5.1660    -6.9690    -2.7400 H     1 <1>   0.1500 
 30 H        4.8430    -8.0730     1.2050 H     1 <1>   0.1500 
@<TRIPOS>BOND
  1   1   2  1   
  2   1   3  1   
  3   2   4  1   
  4   2   5  1   
  5   2  19  1   
  6   3   6  1   
  7   3   7  1   
  8   3  20  1   
  9   4   8  1   
 10   4   9  1   
 11   5   6  1   
 12   5  10  1   
 13   5  21  1   
 14   6  11  1   
 15   6  22  1   
 16   7  12  1   
 17   7  23  1   
 18   7  24  1   
 19   8  13  ar  
 20   8  14  ar  
 21   9  15  2   
 22   9  25  1   
 23  10  26  1   
 24  11  27  1   
 25  12  28  1   
 26  13  16  ar  
 27  14  15  1   
 28  14  17  ar  
 29  16  18  ar  
 30  16  29  1   
 31  17  18  ar  
 32  17  30  1   
@<TRIPOS>SUBSTRUCTURE
  1 ****   4 GROUP 4 **** **** 0

# MOE 2024.06 (io_trps.svl 2023.06)
