@<TRIPOS>MOLECULE
NONAME
54 56 1 0 0 
SMALL
USER_CHARGES


@<TRIPOS>ATOM
  1 S       -0.3670    -0.2040    -0.2700 S.o2  1 <1>   1.4470 
  2 O       -0.0540     0.1090    -1.6420 O.2   1 <1>  -0.6500 
  3 O        0.5540    -0.9620     0.5400 O.2   1 <1>  -0.6500 
  4 N       -0.3420     1.2790     0.4640 N.am  1 <1>  -0.9780 
  5 C       -2.0760    -0.7750    -0.0800 C.ar  1 <1>  -0.0090 
  6 C       -3.0860    -0.3020    -0.9090 C.ar  1 <1>  -0.1500 
  7 C       -2.4290    -1.6850     0.9100 C.ar  1 <1>  -0.1500 
  8 C       -4.3950    -0.7240    -0.7600 C.ar  1 <1>  -0.1500 
  9 C       -3.7370    -2.1100     1.0620 C.ar  1 <1>  -0.1500 
 10 C       -4.7430    -1.6340     0.2290 C.ar  1 <1>   0.1170 
 11 N       -6.0830    -2.0260     0.3350 N.am  1 <1>  -0.5470 
 12 C       -6.7780    -2.7660     1.2480 C.2   1 <1>   0.5690 
 13 O       -6.2990    -3.2650     2.2370 O.2   1 <1>  -0.5700 
 14 C       -8.2700    -2.9450     0.9660 C.3   1 <1>   0.1710 
 15 N       -8.8370    -1.8780     0.0870 N.3   1 <1>  -0.8100 
 16 C      -10.1410    -2.3020    -0.4740 C.3   1 <1>   0.1100 
 17 C       -9.0200    -0.6140     0.8470 C.3   1 <1>   0.1100 
 18 C      -10.7660    -1.2320    -1.3910 C.3   1 <1>   0.2090 
 19 C       -9.6140     0.5190    -0.0130 C.3   1 <1>   0.2090 
 20 N      -10.8540     0.0990    -0.7270 N.pl3 1 <1>  -0.8380 
 21 C      -12.0880     0.5010    -0.2110 C.ar  1 <1>   0.1000 
 22 C      -12.8670     1.4630    -0.8640 C.ar  1 <1>  -0.1430 
 23 C      -12.5570    -0.0650     0.9680 C.ar  1 <1>  -0.1500 
 24 C      -14.0990     1.8360    -0.3310 C.ar  1 <1>  -0.1430 
 25 C      -12.3230     2.0700    -2.1580 C.3   1 <1>  -0.0970 
 26 C      -13.7740     0.3080     1.4980 C.ar  1 <1>  -0.1500 
 27 C      -14.5410     1.2550     0.8490 C.ar  1 <1>  -0.1500 
 28 C      -14.9990     2.8670    -0.9980 C.3   1 <1>  -0.0970 
 29 H        0.2230     1.8410    -0.1670 H     1 <1>   0.4200 
 30 H        0.2290     1.1210     1.2900 H     1 <1>   0.4200 
 31 H       -2.8410     0.4060    -1.6840 H     1 <1>   0.1500 
 32 H       -1.6710    -2.0710     1.5710 H     1 <1>   0.1500 
 33 H       -5.1520    -0.3410    -1.4200 H     1 <1>   0.1500 
 34 H       -3.9670    -2.8180     1.8370 H     1 <1>   0.1500 
 35 H       -6.7220    -1.6530    -0.3760 H     1 <1>   0.3700 
 36 H       -8.8030    -2.9810     1.9000 H     1 <1>   0.0800 
 37 H       -8.3840    -3.9010     0.4850 H     1 <1>   0.0800 
 38 H      -10.8300    -2.5180     0.3230 H     1 <1>   0.0800 
 39 H      -10.0060    -3.2020    -1.0480 H     1 <1>   0.0800 
 40 H       -8.0740    -0.2820     1.2360 H     1 <1>   0.0800 
 41 H       -9.6730    -0.7830     1.6850 H     1 <1>   0.0800 
 42 H      -11.7520    -1.5470    -1.6880 H     1 <1>   0.0800 
 43 H      -10.1690    -1.1360    -2.2800 H     1 <1>   0.0800 
 44 H       -8.8860     0.8300    -0.7410 H     1 <1>   0.0800 
 45 H       -9.8340     1.3670     0.6130 H     1 <1>   0.0800 
 46 H      -11.9620    -0.8010     1.4690 H     1 <1>   0.1500 
 47 H      -12.3020     1.3140    -2.9220 H     1 <1>   0.0800 
 48 H      -11.3190     2.4180    -1.9980 H     1 <1>   0.0800 
 49 H      -12.9030     2.8980    -2.5130 H     1 <1>   0.0800 
 50 H      -14.1250    -0.1360     2.4120 H     1 <1>   0.1500 
 51 H      -15.4900     1.5370     1.2710 H     1 <1>   0.1500 
 52 H      -14.5100     3.8250    -1.0110 H     1 <1>   0.0800 
 53 H      -15.9290     2.9700    -0.4710 H     1 <1>   0.0800 
 54 H      -15.2170     2.5660    -2.0070 H     1 <1>   0.0800 
@<TRIPOS>BOND
  1   1   2  2   
  2   1   3  2   
  3   1   4  am  
  4   1   5  1   
  5   4  29  1   
  6   4  30  1   
  7   5   6  ar  
  8   5   7  ar  
  9   6   8  ar  
 10   6  31  1   
 11   7   9  ar  
 12   7  32  1   
 13   8  10  ar  
 14   8  33  1   
 15   9  10  ar  
 16   9  34  1   
 17  10  11  1   
 18  11  12  am  
 19  11  35  1   
 20  12  13  2   
 21  12  14  1   
 22  14  15  1   
 23  14  36  1   
 24  14  37  1   
 25  15  16  1   
 26  15  17  1   
 27  16  18  1   
 28  16  38  1   
 29  16  39  1   
 30  17  19  1   
 31  17  40  1   
 32  17  41  1   
 33  18  20  1   
 34  18  42  1   
 35  18  43  1   
 36  19  20  1   
 37  19  44  1   
 38  19  45  1   
 39  20  21  1   
 40  21  22  ar  
 41  21  23  ar  
 42  22  24  ar  
 43  22  25  1   
 44  23  26  ar  
 45  23  46  1   
 46  24  27  ar  
 47  24  28  1   
 48  25  47  1   
 49  25  48  1   
 50  25  49  1   
 51  26  27  ar  
 52  26  50  1   
 53  27  51  1   
 54  28  52  1   
 55  28  53  1   
 56  28  54  1   
@<TRIPOS>SUBSTRUCTURE
  1 ****  17 GROUP 4 **** **** 0

# MOE 2024.06 (io_trps.svl 2023.06)
