@<TRIPOS>MOLECULE
NONAME
40 41 1 0 0 
SMALL
USER_CHARGES


@<TRIPOS>ATOM
  1 O       -0.1380    -0.4440    -0.2040 O.2   1 <1>  -0.5700 
  2 C       -0.1850    -1.6590    -0.1520 C.2   1 <1>   0.6160 
  3 N        0.9640    -2.3820    -0.4000 N.am  1 <1>  -0.6600 
  4 C       -1.4340    -2.3030     0.1480 C.2   1 <1>   0.0790 
  5 C        2.2210    -1.7340    -0.8900 C.3   1 <1>   0.1400 
  6 C        1.1590    -3.8140    -0.0130 C.3   1 <1>   0.1400 
  7 C       -1.9690    -1.9110     1.4120 C.1   1 <1>   0.4920 
  8 C       -2.0140    -3.2100    -0.6860 C.2   1 <1>  -0.1780 
  9 C        3.3860    -2.0090     0.0740 C.3   1 <1>   0.1200 
 10 C        2.3900    -3.9660     0.8980 C.3   1 <1>   0.1200 
 11 N       -2.4230    -1.6500     2.4260 N.1   1 <1>  -0.5570 
 12 C       -3.2380    -3.9570    -0.5570 C.ar  1 <1>   0.0280 
 13 O        3.5150    -3.3840     0.3080 O.3   1 <1>  -0.5600 
 14 C       -3.3140    -5.2390    -1.1010 C.ar  1 <1>  -0.1500 
 15 C       -4.3810    -3.4650     0.0770 C.ar  1 <1>  -0.1500 
 16 C       -4.4630    -6.0000    -0.9990 C.ar  1 <1>  -0.1500 
 17 C       -5.5330    -4.2210     0.1870 C.ar  1 <1>  -0.1500 
 18 C       -5.5820    -5.5040    -0.3510 C.ar  1 <1>   0.0830 
 19 O       -6.6640    -6.3110    -0.2860 O.3   1 <1>  -0.3630 
 20 C       -7.8540    -5.9080     0.3840 C.3   1 <1>   0.1810 
 21 C       -8.9230    -6.9960     0.3400 C.2   1 <1>   0.5690 
 22 O       -9.9880    -6.7960     0.8660 O.2   1 <1>  -0.5700 
 23 N       -8.6880    -8.1710    -0.2790 N.am  1 <1>  -0.8000 
 24 H        2.4670    -2.1290    -1.8600 H     1 <1>   0.0800 
 25 H        2.0930    -0.6700    -0.9940 H     1 <1>   0.0800 
 26 H        0.2980    -4.1960     0.5040 H     1 <1>   0.0800 
 27 H        1.3060    -4.4040    -0.9010 H     1 <1>   0.0800 
 28 H       -1.4890    -3.4340    -1.6000 H     1 <1>   0.1500 
 29 H        3.2250    -1.5100     1.0140 H     1 <1>   0.0800 
 30 H        4.3100    -1.6590    -0.3500 H     1 <1>   0.0800 
 31 H        2.6070    -5.0070     1.0600 H     1 <1>   0.0800 
 32 H        2.2190    -3.4970     1.8520 H     1 <1>   0.0800 
 33 H       -2.4600    -5.6500    -1.6100 H     1 <1>   0.1500 
 34 H       -4.3850    -2.4720     0.4890 H     1 <1>   0.1500 
 35 H       -4.4990    -6.9880    -1.4220 H     1 <1>   0.1500 
 36 H       -6.3790    -3.7930     0.6910 H     1 <1>   0.1500 
 37 H       -7.6120    -5.6960     1.4090 H     1 <1>   0.0800 
 38 H       -8.2320    -5.0250    -0.0960 H     1 <1>   0.0800 
 39 H       -9.4070    -8.8940    -0.3050 H     1 <1>   0.3700 
 40 H       -7.7960    -8.3710    -0.7340 H     1 <1>   0.3700 
@<TRIPOS>BOND
  1   1   2  2   
  2   2   3  am  
  3   2   4  1   
  4   3   5  1   
  5   3   6  1   
  6   4   7  1   
  7   4   8  2   
  8   5   9  1   
  9   5  24  1   
 10   5  25  1   
 11   6  10  1   
 12   6  26  1   
 13   6  27  1   
 14   7  11  3   
 15   8  12  1   
 16   8  28  1   
 17   9  13  1   
 18   9  29  1   
 19   9  30  1   
 20  10  13  1   
 21  10  31  1   
 22  10  32  1   
 23  12  14  ar  
 24  12  15  ar  
 25  14  16  ar  
 26  14  33  1   
 27  15  17  ar  
 28  15  34  1   
 29  16  18  ar  
 30  16  35  1   
 31  17  18  ar  
 32  17  36  1   
 33  18  19  1   
 34  19  20  1   
 35  20  21  1   
 36  20  37  1   
 37  20  38  1   
 38  21  22  2   
 39  21  23  am  
 40  23  39  1   
 41  23  40  1   
@<TRIPOS>SUBSTRUCTURE
  1 ****  12 GROUP 4 **** **** 0

# MOE 2024.06 (io_trps.svl 2023.06)
