@<TRIPOS>MOLECULE
NONAME
36 36 1 0 0 
SMALL
USER_CHARGES


@<TRIPOS>ATOM
  1 S        0.0360     0.4460    -1.1830 S.3   1 <1>  -0.0800 
  2 C        1.1930    -0.4630    -0.2680 C.2   1 <1>   0.4420 
  3 C       -1.1650    -0.0930    -0.0590 C.2   1 <1>   0.1980 
  4 N        0.6600    -1.0550     0.7370 N.2   1 <1>  -0.3380 
  5 N        2.4960    -0.4290    -0.7050 N.am  1 <1>  -0.4940 
  6 N       -0.6860    -0.8460     0.8460 N.2   1 <1>  -0.3380 
  7 C       -2.5990     0.3600    -0.2590 C.3   1 <1>   0.0200 
  8 C        3.6340    -0.9990    -0.2280 C.2   1 <1>   0.7800 
  9 C       -2.7780     1.8440     0.0930 C.3   1 <1>  -0.1600 
 10 O        4.6850    -0.4350    -0.4220 O.2   1 <1>  -0.5700 
 11 O        3.6690    -2.1860     0.3790 O.3   1 <1>  -0.4300 
 12 C       -4.2360     2.2910    -0.0810 C.3   1 <1>  -0.1600 
 13 C        2.7320    -3.2230     0.1890 C.3   1 <1>   0.1200 
 14 C       -4.4030     3.7730     0.2740 C.3   1 <1>  -0.1600 
 15 C        3.4900    -4.5510     0.1950 C.3   1 <1>  -0.1600 
 16 C       -5.8580     4.2190     0.1020 C.3   1 <1>  -0.2400 
 17 C        2.5370    -5.7350    -0.0040 C.3   1 <1>  -0.2400 
 18 H        2.7180     0.3220    -1.3500 H     1 <1>   0.3700 
 19 H       -3.2360    -0.2360     0.3710 H     1 <1>   0.0800 
 20 H       -2.8830     0.1850    -1.2810 H     1 <1>   0.0800 
 21 H       -2.1440     2.4430    -0.5390 H     1 <1>   0.0800 
 22 H       -2.4740     2.0010     1.1140 H     1 <1>   0.0800 
 23 H       -4.8720     1.7000     0.5560 H     1 <1>   0.0800 
 24 H       -4.5430     2.1330    -1.1010 H     1 <1>   0.0800 
 25 H        2.2250    -3.0830    -0.7500 H     1 <1>   0.0800 
 26 H        2.0260    -3.1940     1.0010 H     1 <1>   0.0800 
 27 H       -3.7730     4.3730    -0.3610 H     1 <1>   0.0800 
 28 H       -4.1020     3.9380     1.2950 H     1 <1>   0.0800 
 29 H        4.0010    -4.6610     1.1360 H     1 <1>   0.0800 
 30 H        4.2210    -4.5460    -0.5950 H     1 <1>   0.0800 
 31 H       -6.1750     4.0850    -0.9170 H     1 <1>   0.0800 
 32 H       -5.9550     5.2600     0.3560 H     1 <1>   0.0800 
 33 H       -6.5050     3.6490     0.7450 H     1 <1>   0.0800 
 34 H        1.8060    -5.7660     0.7850 H     1 <1>   0.0800 
 35 H        3.0910    -6.6580     0.0080 H     1 <1>   0.0800 
 36 H        2.0270    -5.6550    -0.9480 H     1 <1>   0.0800 
@<TRIPOS>BOND
  1   1   2  1   
  2   1   3  1   
  3   2   4  2   
  4   2   5  1   
  5   3   6  2   
  6   3   7  1   
  7   4   6  1   
  8   5   8  am  
  9   5  18  1   
 10   7   9  1   
 11   7  19  1   
 12   7  20  1   
 13   8  10  2   
 14   8  11  1   
 15   9  12  1   
 16   9  21  1   
 17   9  22  1   
 18  11  13  1   
 19  12  14  1   
 20  12  23  1   
 21  12  24  1   
 22  13  15  1   
 23  13  25  1   
 24  13  26  1   
 25  14  16  1   
 26  14  27  1   
 27  14  28  1   
 28  15  17  1   
 29  15  29  1   
 30  15  30  1   
 31  16  31  1   
 32  16  32  1   
 33  16  33  1   
 34  17  34  1   
 35  17  35  1   
 36  17  36  1   
@<TRIPOS>SUBSTRUCTURE
  1 ****   2 GROUP 4 **** **** 0

# MOE 2024.06 (io_trps.svl 2023.06)
