@<TRIPOS>MOLECULE
NONAME
49 50 1 0 0 
SMALL
USER_CHARGES


@<TRIPOS>ATOM
  1 S        0.0520    -0.4220    -0.1610 S.o2  1 <1>   1.4470 
  2 O       -0.7250    -0.7840     1.0060 O.2   1 <1>  -0.6500 
  3 O       -0.3240    -0.9620    -1.4490 O.2   1 <1>  -0.6500 
  4 N        0.0170     1.2730    -0.2630 N.am  1 <1>  -0.8490 
  5 C        1.8080    -0.7780     0.1350 C.ar  1 <1>  -0.0090 
  6 C       -1.1250     1.7680    -1.0340 C.3   1 <1>   0.1960 
  7 C        0.1320     1.9130     1.0470 C.3   1 <1>   0.1960 
  8 C        2.8040    -0.0750    -0.5290 C.ar  1 <1>  -0.1500 
  9 C        2.1980    -1.7710     1.0240 C.ar  1 <1>  -0.1500 
 10 C       -0.6460     2.1170    -2.4380 C.3   1 <1>  -0.2400 
 11 C        0.7180     3.3150     0.8870 C.3   1 <1>  -0.2400 
 12 C        4.1630    -0.3140    -0.3280 C.ar  1 <1>   0.0860 
 13 C        3.5350    -2.0460     1.2410 C.ar  1 <1>  -0.1500 
 14 C        5.1670     0.4680    -1.0290 C.2   1 <1>   0.5440 
 15 C        4.5050    -1.3260     0.5700 C.ar  1 <1>  -0.1500 
 16 O        4.9160     0.9740    -2.1050 O.2   1 <1>  -0.5700 
 17 N        6.4030     0.6670    -0.4800 N.am  1 <1>  -0.7300 
 18 C        7.4970     1.4410    -1.0900 C.3   1 <1>   0.2200 
 19 C        8.7590     0.5730    -1.1250 C.3   1 <1>  -0.1600 
 20 C        7.7190     2.7150    -0.2680 C.3   1 <1>  -0.1600 
 21 C        9.9620     1.3670    -1.6550 C.3   1 <1>  -0.1600 
 22 C        8.9210     3.5120    -0.7970 C.3   1 <1>  -0.1600 
 23 C       10.1870     2.6460    -0.8370 C.3   1 <1>  -0.1600 
 24 H       -1.5420     2.6530    -0.5830 H     1 <1>   0.0800 
 25 H       -1.9090     1.0280    -1.0780 H     1 <1>   0.0800 
 26 H        0.8000     1.3440     1.6730 H     1 <1>   0.0800 
 27 H       -0.8290     1.9460     1.5350 H     1 <1>   0.0800 
 28 H        2.5170     0.6920    -1.2310 H     1 <1>   0.1500 
 29 H        1.4440    -2.3360     1.5500 H     1 <1>   0.1500 
 30 H        0.1270     2.8630    -2.3910 H     1 <1>   0.0800 
 31 H       -1.4650     2.5050    -3.0150 H     1 <1>   0.0800 
 32 H       -0.2660     1.2430    -2.9350 H     1 <1>   0.0800 
 33 H        1.6680     3.2600     0.3860 H     1 <1>   0.0800 
 34 H        0.8700     3.7530     1.8570 H     1 <1>   0.0800 
 35 H        0.0590     3.9530     0.3290 H     1 <1>   0.0800 
 36 H        3.8180    -2.8240     1.9300 H     1 <1>   0.1500 
 37 H        5.5400    -1.5600     0.7400 H     1 <1>   0.1500 
 38 H        6.5880     0.3440     0.4670 H     1 <1>   0.3700 
 39 H        7.2330     1.7160    -2.0990 H     1 <1>   0.0800 
 40 H        8.5860    -0.2770    -1.7620 H     1 <1>   0.0800 
 41 H        8.9830     0.2200    -0.1340 H     1 <1>   0.0800 
 42 H        7.8970     2.4560     0.7600 H     1 <1>   0.0800 
 43 H        6.8360     3.3270    -0.3210 H     1 <1>   0.0800 
 44 H        9.7890     1.6290    -2.6850 H     1 <1>   0.0800 
 45 H       10.8460     0.7530    -1.6150 H     1 <1>   0.0800 
 46 H        9.0890     4.3700    -0.1690 H     1 <1>   0.0800 
 47 H        8.7010     3.8680    -1.7890 H     1 <1>   0.0800 
 48 H       10.9960     3.2110    -1.2680 H     1 <1>   0.0800 
 49 H       10.4710     2.3820     0.1680 H     1 <1>   0.0800 
@<TRIPOS>BOND
  1   1   2  2   
  2   1   3  2   
  3   1   4  am  
  4   1   5  1   
  5   4   6  1   
  6   4   7  1   
  7   5   8  ar  
  8   5   9  ar  
  9   6  10  1   
 10   6  24  1   
 11   6  25  1   
 12   7  11  1   
 13   7  26  1   
 14   7  27  1   
 15   8  12  ar  
 16   8  28  1   
 17   9  13  ar  
 18   9  29  1   
 19  10  30  1   
 20  10  31  1   
 21  10  32  1   
 22  11  33  1   
 23  11  34  1   
 24  11  35  1   
 25  12  14  1   
 26  12  15  ar  
 27  13  15  ar  
 28  13  36  1   
 29  14  16  2   
 30  14  17  am  
 31  15  37  1   
 32  17  18  1   
 33  17  38  1   
 34  18  19  1   
 35  18  20  1   
 36  18  39  1   
 37  19  21  1   
 38  19  40  1   
 39  19  41  1   
 40  20  22  1   
 41  20  42  1   
 42  20  43  1   
 43  21  23  1   
 44  21  44  1   
 45  21  45  1   
 46  22  23  1   
 47  22  46  1   
 48  22  47  1   
 49  23  48  1   
 50  23  49  1   
@<TRIPOS>SUBSTRUCTURE
  1 ****  12 GROUP 4 **** **** 0

# MOE 2024.06 (io_trps.svl 2023.06)
