@<TRIPOS>MOLECULE
NONAME
41 43 1 0 0 
SMALL
USER_CHARGES


@<TRIPOS>ATOM
  1 O        0.3040    -0.1920     1.5850 O.co2 1 <1>  -0.9000 
  2 C        0.5040    -1.0230     0.6910 C.2   1 <1>   0.9060 
  3 O       -0.3330    -1.2410    -0.1860 O.co2 1 <1>  -0.9000 
  4 C        1.7940    -1.8090     0.7740 C.3   1 <1>  -0.1860 
  5 C        3.1440    -1.0630     0.5730 C.3   1 <1>  -0.0190 
  6 C        1.9010    -2.9280    -0.2710 C.3   1 <1>   0.2000 
  7 C        3.1610     0.3970     0.0880 C.2   1 <1>   0.5690 
  8 C        3.8090    -2.0020    -0.4500 C.3   1 <1>   0.2000 
  9 O        2.7320    -2.3710    -1.2220 O.3   1 <1>  -0.5600 
 10 C        2.8130    -4.0390     0.2550 C.3   1 <1>  -0.1600 
 11 O        3.9550     0.7240    -0.7670 O.2   1 <1>  -0.5700 
 12 N        2.3610     1.3140     0.7010 N.am  1 <1>  -0.5470 
 13 C        4.1820    -3.3540     0.1780 C.3   1 <1>  -0.1600 
 14 C        2.2190     2.6840     0.4300 C.ar  1 <1>   0.1170 
 15 C        3.2470     3.6210     0.5920 C.ar  1 <1>   0.0830 
 16 C        0.9790     3.1290    -0.0050 C.ar  1 <1>  -0.1500 
 17 O        4.4630     3.2370     1.0570 O.3   1 <1>  -0.3630 
 18 C        3.0310     4.9620     0.3140 C.ar  1 <1>  -0.1500 
 19 C        0.7650     4.4670    -0.2890 C.ar  1 <1>  -0.1500 
 20 C        5.5260     3.3060     0.1340 C.3   1 <1>   0.0400 
 21 C        1.7850     5.3910    -0.1340 C.ar  1 <1>   0.0830 
 22 O        1.4920     6.6860    -0.4310 O.3   1 <1>  -0.3630 
 23 C        2.4550     7.7010    -0.2610 C.3   1 <1>   0.0400 
 24 H        1.7750    -2.2480     1.7530 H     1 <1>   0.0800 
 25 H        3.7050    -1.0770     1.4870 H     1 <1>   0.0800 
 26 H        0.9710    -3.2600    -0.7030 H     1 <1>   0.0800 
 27 H        4.5890    -1.5690    -1.0530 H     1 <1>   0.0800 
 28 H        2.7660    -4.8850    -0.4090 H     1 <1>   0.0800 
 29 H        2.5480    -4.3480     1.2500 H     1 <1>   0.0800 
 30 H        1.5640     0.9000     1.2220 H     1 <1>   0.3700 
 31 H        4.6430    -3.2330     1.1410 H     1 <1>   0.0800 
 32 H        4.8440    -3.8910    -0.4770 H     1 <1>   0.0800 
 33 H        0.1830     2.4110    -0.1220 H     1 <1>   0.1500 
 34 H        3.8400     5.6470     0.4620 H     1 <1>   0.1500 
 35 H       -0.1990     4.7970    -0.6300 H     1 <1>   0.1500 
 36 H        6.3500     2.7410     0.5300 H     1 <1>   0.0800 
 37 H        5.8080     4.3340     0.0010 H     1 <1>   0.0800 
 38 H        5.2070     2.8800    -0.8010 H     1 <1>   0.0800 
 39 H        2.0060     8.6370    -0.5400 H     1 <1>   0.0800 
 40 H        3.2970     7.4940    -0.8980 H     1 <1>   0.0800 
 41 H        2.7510     7.7320     0.7730 H     1 <1>   0.0800 
@<TRIPOS>BOND
  1   1   2  ar  
  2   2   3  ar  
  3   2   4  1   
  4   4   5  1   
  5   4   6  1   
  6   4  24  1   
  7   5   7  1   
  8   5   8  1   
  9   5  25  1   
 10   6   9  1   
 11   6  10  1   
 12   6  26  1   
 13   7  11  2   
 14   7  12  am  
 15   8   9  1   
 16   8  13  1   
 17   8  27  1   
 18  10  13  1   
 19  10  28  1   
 20  10  29  1   
 21  12  14  1   
 22  12  30  1   
 23  13  31  1   
 24  13  32  1   
 25  14  15  ar  
 26  14  16  ar  
 27  15  17  1   
 28  15  18  ar  
 29  16  19  ar  
 30  16  33  1   
 31  17  20  1   
 32  18  21  ar  
 33  18  34  1   
 34  19  21  ar  
 35  19  35  1   
 36  20  36  1   
 37  20  37  1   
 38  20  38  1   
 39  21  22  1   
 40  22  23  1   
 41  23  39  1   
 42  23  40  1   
 43  23  41  1   
@<TRIPOS>SUBSTRUCTURE
  1 ****  12 GROUP 4 **** **** 0

# MOE 2024.06 (io_trps.svl 2023.06)
