@<TRIPOS>MOLECULE
NONAME
26 28 1 0 0 
SMALL
USER_CHARGES


@<TRIPOS>ATOM
  1 O       -0.0390    -0.2580     0.5900 O.2   1 <1>  -0.5700 
  2 C        0.0270    -1.3820     0.1400 C.2   1 <1>   0.4950 
  3 C        1.1960    -2.1850    -0.0060 C.2   1 <1>  -0.2360 
  4 C       -1.2640    -2.0690    -0.2850 C.3   1 <1>   0.1190 
  5 C        2.4470    -1.5160    -0.1610 C.2   1 <1>   1.0500 
  6 C        1.0970    -3.5550    -0.0430 C.2   1 <1>  -0.0500 
  7 C       -2.6460    -1.4130    -0.1330 C.2   1 <1>  -0.2880 
  8 C       -1.2740    -3.3880     0.4800 C.3   1 <1>   0.4270 
  9 O        2.5970    -0.6380    -1.0290 O.co2 1 <1>  -0.9000 
 10 O        3.4400    -1.8890     0.4910 O.co2 1 <1>  -0.9000 
 11 N       -0.1020    -4.1930     0.1240 N.pl3 1 <1>  -0.8380 
 12 C       -3.7470    -2.1900    -0.0800 C.2   1 <1>  -0.1500 
 13 C       -2.4680    -4.2310     0.1220 C.2   1 <1>  -0.2760 
 14 C       -0.4870    -5.5900    -0.1820 C.3   1 <1>   0.2090 
 15 C       -3.6480    -3.6350    -0.1210 C.2   1 <1>  -0.1500 
 16 C       -2.0000    -5.6720     0.0930 C.3   1 <1>  -0.0220 
 17 H       -1.1530    -2.2940    -1.3300 H     1 <1>   0.0800 
 18 H        1.9800    -4.1550    -0.2140 H     1 <1>   0.1500 
 19 H       -2.6330    -0.3370    -0.1090 H     1 <1>   0.1500 
 20 H       -1.2650    -3.2060     1.5420 H     1 <1>   0.0800 
 21 H       -4.7380    -1.7750    -0.0150 H     1 <1>   0.1500 
 22 H        0.0650    -6.2760     0.4370 H     1 <1>   0.0800 
 23 H       -0.2810    -5.7880    -1.2200 H     1 <1>   0.0800 
 24 H       -4.5440    -4.1830    -0.3570 H     1 <1>   0.1500 
 25 H       -2.5100    -6.2500    -0.6550 H     1 <1>   0.0800 
 26 H       -2.1560    -6.1200     1.0580 H     1 <1>   0.0800 
@<TRIPOS>BOND
  1   1   2  2   
  2   2   3  1   
  3   2   4  1   
  4   3   5  1   
  5   3   6  2   
  6   4   7  1   
  7   4   8  1   
  8   4  17  1   
  9   5   9  ar  
 10   5  10  ar  
 11   6  11  1   
 12   6  18  1   
 13   7  12  2   
 14   7  19  1   
 15   8  11  1   
 16   8  13  1   
 17   8  20  1   
 18  11  14  1   
 19  12  15  1   
 20  12  21  1   
 21  13  15  2   
 22  13  16  1   
 23  14  16  1   
 24  14  22  1   
 25  14  23  1   
 26  15  24  1   
 27  16  25  1   
 28  16  26  1   
@<TRIPOS>SUBSTRUCTURE
  1 ****   4 GROUP 4 **** **** 0

# MOE 2024.06 (io_trps.svl 2023.06)
