@<TRIPOS>MOLECULE
NONAME
37 38 1 0 0 
SMALL
USER_CHARGES


@<TRIPOS>ATOM
  1 BR      -2.2830     1.3120     2.2950 Br    1 <1>  -0.1110 
  2 C       -1.1400     2.4190     1.2050 C.ar  1 <1>   0.1110 
  3 C       -1.3650     2.5090    -0.1620 C.ar  1 <1>  -0.1440 
  4 C       -0.1220     3.1050     1.8380 C.ar  1 <1>  -0.1500 
  5 C       -0.5200     3.3190    -0.9090 C.ar  1 <1>  -0.1500 
  6 C       -2.4980     1.7530    -0.8270 C.3   1 <1>   0.4870 
  7 C        0.7050     3.9130     1.0780 C.ar  1 <1>  -0.1500 
  8 C        0.5050     4.0170    -0.2900 C.ar  1 <1>  -0.1500 
  9 N       -3.7960     2.3210    -0.3400 N.4   1 <1>  -0.9590 
 10 C       -4.9440     1.4190    -0.7210 C.3   1 <1>   0.3430 
 11 C       -3.9720     3.7190    -0.8280 C.3   1 <1>   0.3430 
 12 C       -6.2920     1.6910     0.0130 C.3   1 <1>   0.3430 
 13 C       -4.6950     4.5870     0.2020 C.3   1 <1>  -0.1600 
 14 N       -6.7400     3.1350     0.1030 N.4   1 <1>  -0.9590 
 15 C       -5.8550     3.9600     0.9780 C.3   1 <1>   0.3430 
 16 C       -8.1390     3.1800     0.6530 C.3   1 <1>   0.2630 
 17 H        0.0290     3.0110     2.9000 H     1 <1>   0.1500 
 18 H       -0.6360     3.4170    -1.9760 H     1 <1>   0.1500 
 19 H       -2.4200     0.7100    -0.5620 H     1 <1>   0.0800 
 20 H       -2.4220     1.8390    -1.8990 H     1 <1>   0.0800 
 21 H        1.5080     4.4580     1.5480 H     1 <1>   0.1500 
 22 H        1.1600     4.6430    -0.8730 H     1 <1>   0.1500 
 23 H       -3.6690     2.3400     0.6830 H     1 <1>   0.4500 
 24 H       -4.6690     0.3960    -0.5220 H     1 <1>   0.0800 
 25 H       -5.1130     1.4930    -1.7830 H     1 <1>   0.0800 
 26 H       -4.5220     3.7120    -1.7560 H     1 <1>   0.0800 
 27 H       -3.0110     4.1690    -1.0280 H     1 <1>   0.0800 
 28 H       -6.2170     1.2890     1.0100 H     1 <1>   0.0800 
 29 H       -7.0570     1.1200    -0.4900 H     1 <1>   0.0800 
 30 H       -5.0540     5.4700    -0.2990 H     1 <1>   0.0800 
 31 H       -3.9690     4.9350     0.9180 H     1 <1>   0.0800 
 32 H       -6.7890     3.5650    -0.8340 H     1 <1>   0.4500 
 33 H       -6.4270     4.7580     1.4280 H     1 <1>   0.0800 
 34 H       -5.4720     3.3510     1.7820 H     1 <1>   0.0800 
 35 H       -8.1710     2.7600     1.6460 H     1 <1>   0.0800 
 36 H       -8.8120     2.6200     0.0220 H     1 <1>   0.0800 
 37 H       -8.4920     4.1980     0.7020 H     1 <1>   0.0800 
@<TRIPOS>BOND
  1   1   2  1   
  2   2   3  ar  
  3   2   4  ar  
  4   3   5  ar  
  5   3   6  1   
  6   4   7  ar  
  7   4  17  1   
  8   5   8  ar  
  9   5  18  1   
 10   6   9  1   
 11   6  19  1   
 12   6  20  1   
 13   7   8  ar  
 14   7  21  1   
 15   8  22  1   
 16   9  10  1   
 17   9  11  1   
 18   9  23  1   
 19  10  12  1   
 20  10  24  1   
 21  10  25  1   
 22  11  13  1   
 23  11  26  1   
 24  11  27  1   
 25  12  14  1   
 26  12  28  1   
 27  12  29  1   
 28  13  15  1   
 29  13  30  1   
 30  13  31  1   
 31  14  15  1   
 32  14  16  1   
 33  14  32  1   
 34  15  33  1   
 35  15  34  1   
 36  16  35  1   
 37  16  36  1   
 38  16  37  1   
@<TRIPOS>SUBSTRUCTURE
  1 ****   9 GROUP 4 **** **** 0

# MOE 2024.06 (io_trps.svl 2023.06)
