@<TRIPOS>MOLECULE
NONAME
30 30 1 0 0 
SMALL
USER_CHARGES


@<TRIPOS>ATOM
  1 CL      -1.7070    -1.5190     2.2560 Cl    1 <1>  -0.1770 
  2 C       -0.6780    -2.1060     0.9730 C.ar  1 <1>   0.1770 
  3 C       -1.1340    -2.1790    -0.3380 C.ar  1 <1>  -0.0090 
  4 C        0.6040    -2.4930     1.3300 C.ar  1 <1>  -0.1500 
  5 S       -2.8120    -1.6840    -0.7870 S.o2  1 <1>   1.4470 
  6 C       -0.2490    -2.6590    -1.3000 C.ar  1 <1>  -0.1500 
  7 C        1.4710    -2.9690     0.3620 C.ar  1 <1>  -0.1500 
  8 O       -3.0730    -0.3370    -0.3330 O.2   1 <1>  -0.6500 
  9 O       -3.0550    -1.9920    -2.1800 O.2   1 <1>  -0.6500 
 10 N       -3.8050    -2.7380     0.0910 N.am  1 <1>  -0.8490 
 11 C        1.0300    -3.0460    -0.9450 C.ar  1 <1>   0.1770 
 12 C       -5.1510    -2.1290     0.2780 C.3   1 <1>   0.2570 
 13 C       -3.8200    -4.1010    -0.4450 C.3   1 <1>   0.1960 
 14 CL       2.1080    -3.6480    -2.1760 Cl    1 <1>  -0.1770 
 15 C       -6.2510    -2.9960     0.9110 C.2   1 <1>   0.5690 
 16 C       -3.7230    -5.0940     0.7090 C.3   1 <1>  -0.2400 
 17 O       -6.3760    -3.0470     2.1080 O.2   1 <1>  -0.5700 
 18 N       -7.1060    -3.6950     0.1310 N.am  1 <1>  -0.8000 
 19 H        0.9160    -2.4190     2.3580 H     1 <1>   0.1500 
 20 H       -0.5520    -2.7330    -2.3310 H     1 <1>   0.1500 
 21 H        2.4710    -3.2760     0.6120 H     1 <1>   0.1500 
 22 H       -5.5150    -1.7870    -0.6760 H     1 <1>   0.0800 
 23 H       -5.0440    -1.2600     0.9050 H     1 <1>   0.0800 
 24 H       -2.9660    -4.2640    -1.0830 H     1 <1>   0.0800 
 25 H       -4.7020    -4.2750    -1.0380 H     1 <1>   0.0800 
 26 H       -2.8280    -4.9130     1.2780 H     1 <1>   0.0800 
 27 H       -3.6840    -6.0960     0.3230 H     1 <1>   0.0800 
 28 H       -4.5710    -5.0200     1.3640 H     1 <1>   0.0800 
 29 H       -7.8370    -4.2490     0.5810 H     1 <1>   0.3700 
 30 H       -7.1030    -3.6880    -0.8880 H     1 <1>   0.3700 
@<TRIPOS>BOND
  1   1   2  1   
  2   2   3  ar  
  3   2   4  ar  
  4   3   5  1   
  5   3   6  ar  
  6   4   7  ar  
  7   4  19  1   
  8   5   8  2   
  9   5   9  2   
 10   5  10  am  
 11   6  11  ar  
 12   6  20  1   
 13   7  11  ar  
 14   7  21  1   
 15  10  12  1   
 16  10  13  1   
 17  11  14  1   
 18  12  15  1   
 19  12  22  1   
 20  12  23  1   
 21  13  16  1   
 22  13  24  1   
 23  13  25  1   
 24  15  17  2   
 25  15  18  am  
 26  16  26  1   
 27  16  27  1   
 28  16  28  1   
 29  18  29  1   
 30  18  30  1   
@<TRIPOS>SUBSTRUCTURE
  1 ****   5 GROUP 4 **** **** 0

# MOE 2024.06 (io_trps.svl 2023.06)
