@<TRIPOS>MOLECULE
NONAME
40 41 1 0 0 
SMALL
USER_CHARGES


@<TRIPOS>ATOM
  1 CL       0.4430     1.1380    -0.3230 Cl    1 <1>  -0.1770 
  2 C        1.6230    -0.1390    -0.1290 C.ar  1 <1>   0.1770 
  3 C        1.2340    -1.4230     0.2110 C.ar  1 <1>   0.1900 
  4 C        2.9610     0.1480    -0.3210 C.ar  1 <1>  -0.1500 
  5 F       -0.0330    -1.6990     0.3940 F     1 <1>  -0.1900 
  6 C        2.1620    -2.4350     0.3630 C.ar  1 <1>  -0.1500 
  7 C        3.9190    -0.8520    -0.1710 C.ar  1 <1>   0.1170 
  8 C        3.5020    -2.1410     0.1680 C.ar  1 <1>  -0.1500 
  9 N        5.2670    -0.5290    -0.3840 N.am  1 <1>  -0.5470 
 10 C        6.3950    -1.0810     0.1450 C.2   1 <1>   0.6900 
 11 O        6.3580    -1.9320     1.0100 O.2   1 <1>  -0.5700 
 12 N        7.5940    -0.6520    -0.3210 N.am  1 <1>  -0.7300 
 13 C        8.8760    -1.1350     0.2130 C.3   1 <1>   0.2200 
 14 C        9.9410    -0.0520     0.0730 C.3   1 <1>  -0.1600 
 15 C        9.2900    -2.4010    -0.5310 C.3   1 <1>  -0.1600 
 16 C       11.2880    -0.5740     0.5710 C.3   1 <1>   0.3430 
 17 C       10.6400    -2.8930    -0.0180 C.3   1 <1>   0.3430 
 18 N       11.6660    -1.8180    -0.1720 N.4   1 <1>  -0.9590 
 19 C       13.0030    -2.3270     0.2360 C.3   1 <1>   0.3430 
 20 C       14.0920    -1.4120    -0.3100 C.3   1 <1>  -0.2400 
 21 H        3.2490     1.1490    -0.5810 H     1 <1>   0.1500 
 22 H        1.8430    -3.4280     0.6280 H     1 <1>   0.1500 
 23 H        4.2290    -2.9260     0.2810 H     1 <1>   0.1500 
 24 H        5.4300     0.3250    -0.9080 H     1 <1>   0.3700 
 25 H        7.6240    -0.0950    -1.1730 H     1 <1>   0.3700 
 26 H        8.7490    -1.3670     1.2600 H     1 <1>   0.0800 
 27 H        9.6600     0.8010     0.6650 H     1 <1>   0.0800 
 28 H       10.0350     0.2610    -0.9520 H     1 <1>   0.0800 
 29 H        9.3460    -2.2230    -1.5900 H     1 <1>   0.0800 
 30 H        8.5560    -3.1690    -0.3560 H     1 <1>   0.0800 
 31 H       11.2210    -0.7880     1.6260 H     1 <1>   0.0800 
 32 H       12.0380     0.1870     0.4290 H     1 <1>   0.0800 
 33 H       10.9340    -3.7700    -0.5720 H     1 <1>   0.0800 
 34 H       10.5490    -3.1660     1.0220 H     1 <1>   0.0800 
 35 H       11.7200    -1.5840    -1.1730 H     1 <1>   0.4500 
 36 H       13.1510    -3.3180    -0.1640 H     1 <1>   0.0800 
 37 H       13.0690    -2.3850     1.3120 H     1 <1>   0.0800 
 38 H       14.0250    -1.3310    -1.3810 H     1 <1>   0.0800 
 39 H       15.0540    -1.8330    -0.0730 H     1 <1>   0.0800 
 40 H       14.0490    -0.4340     0.1330 H     1 <1>   0.0800 
@<TRIPOS>BOND
  1   1   2  1   
  2   2   3  ar  
  3   2   4  ar  
  4   3   5  1   
  5   3   6  ar  
  6   4   7  ar  
  7   4  21  1   
  8   6   8  ar  
  9   6  22  1   
 10   7   8  ar  
 11   7   9  1   
 12   8  23  1   
 13   9  10  am  
 14   9  24  1   
 15  10  11  2   
 16  10  12  am  
 17  12  13  1   
 18  12  25  1   
 19  13  14  1   
 20  13  15  1   
 21  13  26  1   
 22  14  16  1   
 23  14  27  1   
 24  14  28  1   
 25  15  17  1   
 26  15  29  1   
 27  15  30  1   
 28  16  18  1   
 29  16  31  1   
 30  16  32  1   
 31  17  18  1   
 32  17  33  1   
 33  17  34  1   
 34  18  19  1   
 35  18  35  1   
 36  19  20  1   
 37  19  36  1   
 38  19  37  1   
 39  20  38  1   
 40  20  39  1   
 41  20  40  1   
@<TRIPOS>SUBSTRUCTURE
  1 ****  10 GROUP 4 **** **** 0

# MOE 2024.06 (io_trps.svl 2023.06)
