@<TRIPOS>MOLECULE
NONAME
44 45 1 0 0 
SMALL
USER_CHARGES


@<TRIPOS>ATOM
  1 O        0.6230    -3.8180    -2.1230 O.2   1 <1>  -0.5700 
  2 C        0.0290    -3.1200    -1.3210 C.2   1 <1>   0.5440 
  3 N        0.6840    -2.0260    -0.8340 N.am  1 <1>  -0.7300 
  4 C       -1.3340    -3.4460    -0.9250 C.ar  1 <1>   0.0860 
  5 C        2.1000    -1.6580    -1.0680 C.3   1 <1>   0.1400 
  6 C       -1.9460    -2.9940     0.2610 C.ar  1 <1>   0.0830 
  7 C       -2.1030    -4.2600    -1.7640 C.ar  1 <1>  -0.1500 
  8 C        2.8480    -1.5420     0.2680 C.3   1 <1>   0.2000 
  9 O       -1.2280    -2.2160     1.1100 O.3   1 <1>  -0.3630 
 10 C       -3.2610    -3.3470     0.5550 C.ar  1 <1>  -0.1500 
 11 C       -3.4050    -4.6110    -1.4680 C.ar  1 <1>  -0.1500 
 12 O        2.2250    -0.6170     1.1020 O.3   1 <1>  -0.5600 
 13 C        4.2750    -1.0280     0.1410 C.3   1 <1>  -0.1600 
 14 C       -1.7280    -1.7250     2.3320 C.3   1 <1>   0.1200 
 15 C       -3.9950    -4.1500    -0.2970 C.ar  1 <1>   0.0830 
 16 C        3.1200    -0.1610     2.0650 C.3   1 <1>   0.1200 
 17 C        4.5200    -0.3790     1.4940 C.3   1 <1>  -0.1600 
 18 C       -0.6210    -0.9080     2.9910 C.3   1 <1>  -0.2400 
 19 O       -5.2630    -4.4400     0.0730 O.3   1 <1>  -0.3630 
 20 C       -6.0980    -5.2550    -0.7160 C.3   1 <1>   0.1200 
 21 C       -7.4440    -5.3770    -0.0080 C.3   1 <1>  -0.2400 
 22 H        0.2630    -1.5490    -0.0250 H     1 <1>   0.3700 
 23 H        2.1360    -0.7150    -1.5850 H     1 <1>   0.0800 
 24 H        2.5770    -2.3990    -1.6850 H     1 <1>   0.0800 
 25 H       -1.6600    -4.6250    -2.6750 H     1 <1>   0.1500 
 26 H        2.8420    -2.4930     0.7730 H     1 <1>   0.0800 
 27 H       -3.7490    -3.0130     1.4490 H     1 <1>   0.1500 
 28 H       -3.9400    -5.2390    -2.1550 H     1 <1>   0.1500 
 29 H        4.3280    -0.2880    -0.6380 H     1 <1>   0.0800 
 30 H        4.9680    -1.8220    -0.0720 H     1 <1>   0.0800 
 31 H       -2.0030    -2.5630     2.9490 H     1 <1>   0.0800 
 32 H       -2.5860    -1.1090     2.1280 H     1 <1>   0.0800 
 33 H        2.9690    -0.7350     2.9630 H     1 <1>   0.0800 
 34 H        2.9160     0.8790     2.2520 H     1 <1>   0.0800 
 35 H        5.0520     0.5510     1.3980 H     1 <1>   0.0800 
 36 H        5.0740    -1.0350     2.1420 H     1 <1>   0.0800 
 37 H        0.2400    -1.5280     3.1670 H     1 <1>   0.0800 
 38 H       -0.9640    -0.5180     3.9310 H     1 <1>   0.0800 
 39 H       -0.3410    -0.0850     2.3570 H     1 <1>   0.0800 
 40 H       -5.6340    -6.2210    -0.8190 H     1 <1>   0.0800 
 41 H       -6.2160    -4.7910    -1.6800 H     1 <1>   0.0800 
 42 H       -7.3130    -5.8270     0.9600 H     1 <1>   0.0800 
 43 H       -8.1060    -5.9950    -0.5870 H     1 <1>   0.0800 
 44 H       -7.8920    -4.4060     0.1040 H     1 <1>   0.0800 
@<TRIPOS>BOND
  1   1   2  2   
  2   2   3  am  
  3   2   4  1   
  4   3   5  1   
  5   3  22  1   
  6   4   6  ar  
  7   4   7  ar  
  8   5   8  1   
  9   5  23  1   
 10   5  24  1   
 11   6   9  1   
 12   6  10  ar  
 13   7  11  ar  
 14   7  25  1   
 15   8  12  1   
 16   8  13  1   
 17   8  26  1   
 18   9  14  1   
 19  10  15  ar  
 20  10  27  1   
 21  11  15  ar  
 22  11  28  1   
 23  12  16  1   
 24  13  17  1   
 25  13  29  1   
 26  13  30  1   
 27  14  18  1   
 28  14  31  1   
 29  14  32  1   
 30  15  19  1   
 31  16  17  1   
 32  16  33  1   
 33  16  34  1   
 34  17  35  1   
 35  17  36  1   
 36  18  37  1   
 37  18  38  1   
 38  18  39  1   
 39  19  20  1   
 40  20  21  1   
 41  20  40  1   
 42  20  41  1   
 43  21  42  1   
 44  21  43  1   
 45  21  44  1   
@<TRIPOS>SUBSTRUCTURE
  1 ****   6 GROUP 4 **** **** 0

# MOE 2024.06 (io_trps.svl 2023.06)
