@<TRIPOS>MOLECULE
NONAME
46 47 1 0 0 
SMALL
USER_CHARGES


@<TRIPOS>ATOM
  1 O       -0.0990     0.7680     1.1440 O.3   1 <1>  -0.3630 
  2 C        0.7580     1.6400     0.5500 C.ar  1 <1>   0.0830 
  3 C       -1.4870     0.8230     0.9030 C.3   1 <1>   0.0400 
  4 C        0.3620     2.6110    -0.3650 C.ar  1 <1>  -0.1500 
  5 C        2.0930     1.5270     0.8960 C.ar  1 <1>  -0.1500 
  6 C        1.3130     3.4630    -0.9220 C.ar  1 <1>   0.0830 
  7 C        3.0510     2.3650     0.3400 C.ar  1 <1>   0.1000 
  8 O        1.0180     4.4410    -1.8190 O.3   1 <1>  -0.3630 
  9 C        2.6430     3.3340    -0.5640 C.ar  1 <1>  -0.1500 
 10 N        4.3930     2.2490     0.6760 N.pl3 1 <1>  -0.8690 
 11 C       -0.3070     4.6770    -2.2390 C.3   1 <1>   0.0400 
 12 C        5.0280     0.9330     0.5030 C.3   1 <1>   0.3470 
 13 C        6.4830     1.1770     0.1380 C.2   1 <1>  -0.2760 
 14 C        6.9770     0.9590    -1.0860 C.2   1 <1>  -0.2880 
 15 C        7.3430     1.6890     1.2900 C.3   1 <1>  -0.0220 
 16 C        8.4350     1.1670    -1.4700 C.3   1 <1>  -0.0220 
 17 C        8.6810     2.2540     0.7900 C.3   1 <1>  -0.1600 
 18 C        9.3420     1.3180    -0.2360 C.3   1 <1>   0.0580 
 19 C       10.7490     1.7740    -0.6460 C.2   1 <1>  -0.2760 
 20 C       11.2520     3.0000    -0.4620 C.2   1 <1>  -0.3000 
 21 C       11.5800     0.6800    -1.3040 C.3   1 <1>  -0.1020 
 22 H       -1.9580     0.0580     1.4930 H     1 <1>   0.0800 
 23 H       -1.6670     0.6430    -0.1410 H     1 <1>   0.0800 
 24 H       -1.8540     1.7900     1.1990 H     1 <1>   0.0800 
 25 H       -0.6670     2.7030    -0.6390 H     1 <1>   0.1500 
 26 H        2.3880     0.7850     1.6120 H     1 <1>   0.1500 
 27 H        3.3670     3.9970    -0.9980 H     1 <1>   0.1500 
 28 H        4.9870     2.9380     0.2050 H     1 <1>   0.4000 
 29 H       -0.2940     5.4960    -2.9350 H     1 <1>   0.0800 
 30 H       -0.9030     4.9350    -1.3820 H     1 <1>   0.0800 
 31 H       -0.6830     3.7930    -2.7220 H     1 <1>   0.0800 
 32 H        4.5320     0.3930    -0.2870 H     1 <1>   0.0800 
 33 H        4.9540     0.3650     1.4140 H     1 <1>   0.0800 
 34 H        6.3740     0.6190    -1.9110 H     1 <1>   0.1500 
 35 H        7.5240     0.8790     1.9750 H     1 <1>   0.0800 
 36 H        6.8240     2.4640     1.8280 H     1 <1>   0.0800 
 37 H        8.5120     2.0480    -2.0830 H     1 <1>   0.0800 
 38 H        8.7670     0.3260    -2.0520 H     1 <1>   0.0800 
 39 H        9.3390     2.4030     1.6280 H     1 <1>   0.0800 
 40 H        8.4990     3.2090     0.3290 H     1 <1>   0.0800 
 41 H        9.4300     0.3530     0.2360 H     1 <1>   0.0800 
 42 H       12.2450     3.2920    -0.7570 H     1 <1>   0.1500 
 43 H       10.7280     3.8220    -0.0070 H     1 <1>   0.1500 
 44 H       11.1280     0.3600    -2.2250 H     1 <1>   0.0800 
 45 H       11.6700    -0.1660    -0.6460 H     1 <1>   0.0800 
 46 H       12.5690     1.0380    -1.5270 H     1 <1>   0.0800 
@<TRIPOS>BOND
  1   1   2  1   
  2   1   3  1   
  3   2   4  ar  
  4   2   5  ar  
  5   3  22  1   
  6   3  23  1   
  7   3  24  1   
  8   4   6  ar  
  9   4  25  1   
 10   5   7  ar  
 11   5  26  1   
 12   6   8  1   
 13   6   9  ar  
 14   7   9  ar  
 15   7  10  1   
 16   8  11  1   
 17   9  27  1   
 18  10  12  1   
 19  10  28  1   
 20  11  29  1   
 21  11  30  1   
 22  11  31  1   
 23  12  13  1   
 24  12  32  1   
 25  12  33  1   
 26  13  14  2   
 27  13  15  1   
 28  14  16  1   
 29  14  34  1   
 30  15  17  1   
 31  15  35  1   
 32  15  36  1   
 33  16  18  1   
 34  16  37  1   
 35  16  38  1   
 36  17  18  1   
 37  17  39  1   
 38  17  40  1   
 39  18  19  1   
 40  18  41  1   
 41  19  20  2   
 42  19  21  1   
 43  20  42  1   
 44  20  43  1   
 45  21  44  1   
 46  21  45  1   
 47  21  46  1   
@<TRIPOS>SUBSTRUCTURE
  1 ****  10 GROUP 4 **** **** 0

# MOE 2024.06 (io_trps.svl 2023.06)
