@<TRIPOS>MOLECULE
NONAME
40 40 1 0 0 
SMALL
USER_CHARGES


@<TRIPOS>ATOM
  1 O        0.4400    -0.5220    -0.3950 O.3   1 <1>  -0.3630 
  2 C       -0.8410    -0.9390    -0.2110 C.ar  1 <1>   0.0830 
  3 C        1.5180    -1.4370    -0.4100 C.3   1 <1>   0.1200 
  4 C       -1.8490     0.0200    -0.2680 C.ar  1 <1>  -0.1440 
  5 C       -1.1730    -2.2710     0.0320 C.ar  1 <1>  -0.1500 
  6 C        2.8100    -0.6310    -0.5840 C.3   1 <1>   0.3430 
  7 C       -3.1670    -0.3620    -0.0720 C.ar  1 <1>  -0.1500 
  8 C       -1.5380     1.4840    -0.5470 C.3   1 <1>  -0.0960 
  9 C       -2.4930    -2.6360     0.2240 C.ar  1 <1>  -0.1500 
 10 N        2.7360     0.6110     0.2500 N.4   1 <1>  -0.9060 
 11 C       -3.4960    -1.6840     0.1760 C.ar  1 <1>  -0.1430 
 12 C        3.6460     1.7220    -0.1370 C.3   1 <1>   0.3430 
 13 C       -4.9450    -2.0820     0.3870 C.3   1 <1>  -0.0970 
 14 C        5.1000     1.4200     0.2630 C.3   1 <1>  -0.1600 
 15 C        6.0200     2.6100    -0.0570 C.3   1 <1>   0.3430 
 16 N        7.4180     2.3170     0.3580 N.4   1 <1>  -0.8530 
 17 H        1.3790    -2.1280    -1.2250 H     1 <1>   0.0800 
 18 H        1.5280    -1.9710     0.5240 H     1 <1>   0.0800 
 19 H       -0.4330    -3.0450     0.0780 H     1 <1>   0.1500 
 20 H        2.9000    -0.3660    -1.6260 H     1 <1>   0.0800 
 21 H        3.6620    -1.2320    -0.3130 H     1 <1>   0.0800 
 22 H       -3.9510     0.3730    -0.1140 H     1 <1>   0.1500 
 23 H       -0.9510     1.5710    -1.4430 H     1 <1>   0.0800 
 24 H       -0.9960     1.9060     0.2790 H     1 <1>   0.0800 
 25 H       -2.4430     2.0490    -0.6840 H     1 <1>   0.0800 
 26 H       -2.7400    -3.6670     0.4110 H     1 <1>   0.1500 
 27 H        2.8010     0.3730     1.2490 H     1 <1>   0.4500 
 28 H        1.7480     0.9150     0.1350 H     1 <1>   0.4500 
 29 H        3.3220     2.6250     0.3580 H     1 <1>   0.0800 
 30 H        3.5780     1.8890    -1.2020 H     1 <1>   0.0800 
 31 H       -5.4780    -1.3000     0.8970 H     1 <1>   0.0800 
 32 H       -5.0100    -2.9770     0.9790 H     1 <1>   0.0800 
 33 H       -5.4150    -2.2600    -0.5640 H     1 <1>   0.0800 
 34 H        5.4430     0.5540    -0.2770 H     1 <1>   0.0800 
 35 H        5.1350     1.2230     1.3200 H     1 <1>   0.0800 
 36 H        5.6690     3.4900     0.4620 H     1 <1>   0.0800 
 37 H        5.9950     2.8160    -1.1160 H     1 <1>   0.0800 
 38 H        7.5010     2.1440     1.3680 H     1 <1>   0.4500 
 39 H        8.0350     3.1160     0.1480 H     1 <1>   0.4500 
 40 H        7.8140     1.5060    -0.1340 H     1 <1>   0.4500 
@<TRIPOS>BOND
  1   1   2  1   
  2   1   3  1   
  3   2   4  ar  
  4   2   5  ar  
  5   3   6  1   
  6   3  17  1   
  7   3  18  1   
  8   4   7  ar  
  9   4   8  1   
 10   5   9  ar  
 11   5  19  1   
 12   6  10  1   
 13   6  20  1   
 14   6  21  1   
 15   7  11  ar  
 16   7  22  1   
 17   8  23  1   
 18   8  24  1   
 19   8  25  1   
 20   9  11  ar  
 21   9  26  1   
 22  10  12  1   
 23  10  27  1   
 24  10  28  1   
 25  11  13  1   
 26  12  14  1   
 27  12  29  1   
 28  12  30  1   
 29  13  31  1   
 30  13  32  1   
 31  13  33  1   
 32  14  15  1   
 33  14  34  1   
 34  14  35  1   
 35  15  16  1   
 36  15  36  1   
 37  15  37  1   
 38  16  38  1   
 39  16  39  1   
 40  16  40  1   
@<TRIPOS>SUBSTRUCTURE
  1 ****   1 GROUP 4 **** **** 0

# MOE 2024.06 (io_trps.svl 2023.06)
