@<TRIPOS>MOLECULE
NONAME
51 53 1 0 0 
SMALL
USER_CHARGES


@<TRIPOS>ATOM
  1 O       -2.2050     1.4320     1.3240 O.3   1 <1>  -0.3630 
  2 C       -1.2230     2.1180     0.6760 C.ar  1 <1>   0.0830 
  3 C       -1.9530     0.8490     2.5900 C.3   1 <1>   0.0400 
  4 C       -1.3740     2.3320    -0.6920 C.ar  1 <1>  -0.1440 
  5 C       -0.0970     2.6120     1.3280 C.ar  1 <1>  -0.1500 
  6 C       -0.4020     3.0290    -1.3940 C.ar  1 <1>  -0.1500 
  7 C       -2.5970     1.8080    -1.4170 C.3   1 <1>   0.4870 
  8 C        0.8650     3.3090     0.6200 C.ar  1 <1>  -0.1500 
  9 C        0.7140     3.5170    -0.7380 C.ar  1 <1>  -0.1500 
 10 N       -3.8040     2.4080    -0.7780 N.4   1 <1>  -0.9590 
 11 C       -5.0500     1.7130    -1.1880 C.3   1 <1>   0.3430 
 12 C       -3.8310     3.8880    -0.9490 C.3   1 <1>   0.3430 
 13 C       -6.2350     2.2840    -0.4060 C.3   1 <1>  -0.1600 
 14 C       -5.0060     4.4720    -0.1650 C.3   1 <1>  -0.1600 
 15 C       -6.3200     3.8070    -0.5830 C.3   1 <1>   0.4230 
 16 N       -7.4670     4.4110     0.1620 N.4   1 <1>  -0.9590 
 17 C       -7.5050     4.1260     1.6360 C.3   1 <1>   0.3430 
 18 C       -8.7830     4.0850    -0.4750 C.3   1 <1>   0.3430 
 19 C       -8.5800     4.9860     2.3010 C.3   1 <1>  -0.1600 
 20 C       -9.8860     4.9440     0.1460 C.3   1 <1>  -0.1600 
 21 C       -9.9580     4.7630     1.6670 C.3   1 <1>  -0.1600 
 22 H       -1.8370     1.6280     3.3230 H     1 <1>   0.0800 
 23 H       -1.0610     0.2480     2.5300 H     1 <1>   0.0800 
 24 H       -2.7900     0.2260     2.8520 H     1 <1>   0.0800 
 25 H        0.0530     2.4700     2.3830 H     1 <1>   0.1500 
 26 H       -0.4910     3.1990    -2.4540 H     1 <1>   0.1500 
 27 H       -2.6210     0.7340    -1.3210 H     1 <1>   0.0800 
 28 H       -2.5530     2.0620    -2.4630 H     1 <1>   0.0800 
 29 H        1.7370     3.6890     1.1270 H     1 <1>   0.1500 
 30 H        1.4710     4.0570    -1.2830 H     1 <1>   0.1500 
 31 H       -3.6120     2.2090     0.2240 H     1 <1>   0.4500 
 32 H       -4.9640     0.6550    -0.9900 H     1 <1>   0.0800 
 33 H       -5.2110     1.8450    -2.2460 H     1 <1>   0.0800 
 34 H       -3.9260     4.1340    -1.9950 H     1 <1>   0.0800 
 35 H       -2.9090     4.3180    -0.5860 H     1 <1>   0.0800 
 36 H       -6.1150     2.0180     0.6280 H     1 <1>   0.0800 
 37 H       -7.1320     1.8180    -0.7730 H     1 <1>   0.0800 
 38 H       -5.0510     5.5280    -0.3630 H     1 <1>   0.0800 
 39 H       -4.8120     4.3330     0.8840 H     1 <1>   0.0800 
 40 H       -6.4630     4.0100    -1.6340 H     1 <1>   0.0800 
 41 H       -7.3830     5.4350     0.0860 H     1 <1>   0.4500 
 42 H       -6.5520     4.3470     2.0880 H     1 <1>   0.0800 
 43 H       -7.7290     3.0850     1.8030 H     1 <1>   0.0800 
 44 H       -9.0170     3.0430    -0.3250 H     1 <1>   0.0800 
 45 H       -8.7430     4.2760    -1.5360 H     1 <1>   0.0800 
 46 H       -8.3060     6.0250     2.2310 H     1 <1>   0.0800 
 47 H       -8.6300     4.7400     3.3480 H     1 <1>   0.0800 
 48 H      -10.8330     4.6680    -0.2870 H     1 <1>   0.0800 
 49 H       -9.7160     5.9790    -0.0940 H     1 <1>   0.0800 
 50 H      -10.6700     5.4570     2.0840 H     1 <1>   0.0800 
 51 H      -10.3040     3.7680     1.8960 H     1 <1>   0.0800 
@<TRIPOS>BOND
  1   1   2  1   
  2   1   3  1   
  3   2   4  ar  
  4   2   5  ar  
  5   3  22  1   
  6   3  23  1   
  7   3  24  1   
  8   4   6  ar  
  9   4   7  1   
 10   5   8  ar  
 11   5  25  1   
 12   6   9  ar  
 13   6  26  1   
 14   7  10  1   
 15   7  27  1   
 16   7  28  1   
 17   8   9  ar  
 18   8  29  1   
 19   9  30  1   
 20  10  11  1   
 21  10  12  1   
 22  10  31  1   
 23  11  13  1   
 24  11  32  1   
 25  11  33  1   
 26  12  14  1   
 27  12  34  1   
 28  12  35  1   
 29  13  15  1   
 30  13  36  1   
 31  13  37  1   
 32  14  15  1   
 33  14  38  1   
 34  14  39  1   
 35  15  16  1   
 36  15  40  1   
 37  16  17  1   
 38  16  18  1   
 39  16  41  1   
 40  17  19  1   
 41  17  42  1   
 42  17  43  1   
 43  18  20  1   
 44  18  44  1   
 45  18  45  1   
 46  19  21  1   
 47  19  46  1   
 48  19  47  1   
 49  20  21  1   
 50  20  48  1   
 51  20  49  1   
 52  21  50  1   
 53  21  51  1   
@<TRIPOS>SUBSTRUCTURE
  1 ****  10 GROUP 4 **** **** 0

# MOE 2024.06 (io_trps.svl 2023.06)
