@<TRIPOS>MOLECULE
NONAME
42 42 1 0 0 
SMALL
USER_CHARGES


@<TRIPOS>ATOM
  1 N        1.5490     0.6280    -0.5590 N.4   1 <1>  -0.9590 
  2 C        1.8780    -0.7850    -0.1840 C.3   1 <1>   0.5030 
  3 C        2.7110     1.4170    -1.1130 C.3   1 <1>   0.3430 
  4 C        0.7530     1.3620     0.4780 C.3   1 <1>   0.3430 
  5 C        2.3680    -1.5230    -1.4330 C.3   1 <1>  -0.2400 
  6 C        0.6090    -1.4930     0.3070 C.3   1 <1>  -0.2400 
  7 C        2.9490    -0.8360     0.9080 C.3   1 <1>  -0.2400 
  8 C        3.2270     2.5000    -0.1460 C.3   1 <1>  -0.0800 
  9 C        0.7100     2.8510     0.1450 C.3   1 <1>  -0.1600 
 10 C        2.1050     3.4830     0.3070 C.3   1 <1>   0.4230 
 11 C        4.5090     3.1310    -0.7330 C.3   1 <1>  -0.2400 
 12 N        2.2070     4.8460    -0.3410 N.4   1 <1>  -0.9590 
 13 C        3.0350     5.7690     0.5100 C.3   1 <1>   0.2630 
 14 C        0.9180     5.5640    -0.6360 C.3   1 <1>   0.2630 
 15 H        0.9100     0.4880    -1.3540 H     1 <1>   0.4500 
 16 H        2.4050     1.8950    -2.0300 H     1 <1>   0.0800 
 17 H        3.5260     0.7560    -1.3560 H     1 <1>   0.0800 
 18 H        1.1960     1.2230     1.4520 H     1 <1>   0.0800 
 19 H       -0.2520     0.9680     0.5120 H     1 <1>   0.0800 
 20 H        1.6490    -1.4590    -2.2310 H     1 <1>   0.0800 
 21 H        2.5050    -2.5670    -1.2070 H     1 <1>   0.0800 
 22 H        3.3180    -1.1620    -1.7800 H     1 <1>   0.0800 
 23 H        0.8100    -2.5410     0.4520 H     1 <1>   0.0800 
 24 H       -0.1850    -1.4150    -0.4140 H     1 <1>   0.0800 
 25 H        0.2750    -1.1150     1.2560 H     1 <1>   0.0800 
 26 H        3.1310    -1.8610     1.1830 H     1 <1>   0.0800 
 27 H        2.6360    -0.3200     1.7960 H     1 <1>   0.0800 
 28 H        3.8850    -0.4330     0.5680 H     1 <1>   0.0800 
 29 H        3.5420     1.9780     0.7410 H     1 <1>   0.0800 
 30 H        0.0250     3.3280     0.8250 H     1 <1>   0.0800 
 31 H        0.3330     2.9580    -0.8560 H     1 <1>   0.0800 
 32 H        2.2470     3.6280     1.3670 H     1 <1>   0.0800 
 33 H        4.3150     3.6800    -1.6380 H     1 <1>   0.0800 
 34 H        5.2210     2.3580    -0.9720 H     1 <1>   0.0800 
 35 H        4.9880     3.7770    -0.0190 H     1 <1>   0.0800 
 36 H        2.7080     4.7340    -1.2350 H     1 <1>   0.4500 
 37 H        2.5320     5.9720     1.4420 H     1 <1>   0.0800 
 38 H        3.1950     6.7060     0.0000 H     1 <1>   0.0800 
 39 H        3.9960     5.3370     0.7320 H     1 <1>   0.0800 
 40 H        0.3430     5.6960     0.2670 H     1 <1>   0.0800 
 41 H        0.3260     5.0130    -1.3480 H     1 <1>   0.0800 
 42 H        1.1200     6.5380    -1.0540 H     1 <1>   0.0800 
@<TRIPOS>BOND
  1   1   2  1   
  2   1   3  1   
  3   1   4  1   
  4   1  15  1   
  5   2   5  1   
  6   2   6  1   
  7   2   7  1   
  8   3   8  1   
  9   3  16  1   
 10   3  17  1   
 11   4   9  1   
 12   4  18  1   
 13   4  19  1   
 14   5  20  1   
 15   5  21  1   
 16   5  22  1   
 17   6  23  1   
 18   6  24  1   
 19   6  25  1   
 20   7  26  1   
 21   7  27  1   
 22   7  28  1   
 23   8  10  1   
 24   8  11  1   
 25   8  29  1   
 26   9  10  1   
 27   9  30  1   
 28   9  31  1   
 29  10  12  1   
 30  10  32  1   
 31  11  33  1   
 32  11  34  1   
 33  11  35  1   
 34  12  13  1   
 35  12  14  1   
 36  12  36  1   
 37  13  37  1   
 38  13  38  1   
 39  13  39  1   
 40  14  40  1   
 41  14  41  1   
 42  14  42  1   
@<TRIPOS>SUBSTRUCTURE
  1 ****   3 GROUP 4 **** **** 0

# MOE 2024.06 (io_trps.svl 2023.06)
