@<TRIPOS>MOLECULE
NONAME
48 49 1 0 0 
SMALL
USER_CHARGES


@<TRIPOS>ATOM
  1 O       -0.2590     0.7940     1.9150 O.2   1 <1>  -0.5700 
  2 C       -0.0100     1.5400     0.9890 C.2   1 <1>   0.5440 
  3 N        1.2650     1.5800     0.5090 N.am  1 <1>  -0.7300 
  4 C       -1.0450     2.3660     0.3950 C.ar  1 <1>   0.0860 
  5 C        2.4330     0.9680     1.1450 C.3   1 <1>   0.3640 
  6 C       -0.7520     3.6080    -0.1690 C.ar  1 <1>  -0.1500 
  7 C       -2.3710     1.9380     0.3750 C.ar  1 <1>  -0.1500 
  8 C        3.6000     1.9370     0.9980 C.ar  1 <1>  -0.1430 
  9 C        2.7130    -0.3750     0.4780 C.3   1 <1>  -0.2400 
 10 C       -1.7370     4.3910    -0.7560 C.ar  1 <1>   0.0830 
 11 C       -3.3770     2.7020    -0.2040 C.ar  1 <1>   0.0830 
 12 C        4.0680     2.3170    -0.2530 C.ar  1 <1>  -0.1500 
 13 C        4.2040     2.4670     2.1290 C.ar  1 <1>  -0.1500 
 14 O       -1.4730     5.6100    -1.3120 O.3   1 <1>  -0.3630 
 15 C       -3.0540     3.9320    -0.7780 C.ar  1 <1>   0.0830 
 16 O       -4.6800     2.2970    -0.2350 O.3   1 <1>  -0.3630 
 17 C        5.1180     3.2120    -0.3810 C.ar  1 <1>   0.0830 
 18 C        5.2570     3.3590     2.0110 C.ar  1 <1>  -0.1500 
 19 C       -0.1580     6.1040    -1.4370 C.3   1 <1>   0.0400 
 20 O       -4.0150     4.6800    -1.3770 O.3   1 <1>  -0.3630 
 21 C       -5.0760     1.0350     0.2560 C.3   1 <1>   0.0400 
 22 O        5.4990     3.5260    -1.6440 O.3   1 <1>  -0.3630 
 23 C        5.7160     3.7340     0.7620 C.ar  1 <1>  -0.1500 
 24 C       -4.7780     5.4960    -0.5230 C.3   1 <1>   0.0400 
 25 C        6.6160     4.3530    -1.8870 C.3   1 <1>   0.0400 
 26 H        1.4980     2.1790    -0.2800 H     1 <1>   0.3700 
 27 H        2.2250     0.8030     2.1900 H     1 <1>   0.0800 
 28 H        0.2620     3.9540    -0.1290 H     1 <1>   0.1500 
 29 H       -2.5870     0.9880     0.8260 H     1 <1>   0.1500 
 30 H        2.8640    -0.2590    -0.5790 H     1 <1>   0.0800 
 31 H        1.8860    -1.0410     0.6470 H     1 <1>   0.0800 
 32 H        3.5950    -0.8130     0.9070 H     1 <1>   0.0800 
 33 H        3.6270     1.9240    -1.1500 H     1 <1>   0.1500 
 34 H        3.8570     2.1890     3.1090 H     1 <1>   0.1500 
 35 H        5.7170     3.7620     2.8970 H     1 <1>   0.1500 
 36 H       -0.2060     7.0490    -1.9470 H     1 <1>   0.0800 
 37 H        0.4250     5.4080    -2.0150 H     1 <1>   0.0800 
 38 H        0.2600     6.2410    -0.4560 H     1 <1>   0.0800 
 39 H       -6.1340     0.9330     0.0970 H     1 <1>   0.0800 
 40 H       -4.8580     0.9850     1.3090 H     1 <1>   0.0800 
 41 H       -4.5500     0.2690    -0.2850 H     1 <1>   0.0800 
 42 H        6.5320     4.4280     0.6990 H     1 <1>   0.1500 
 43 H       -5.4860     6.0390    -1.1210 H     1 <1>   0.0800 
 44 H       -4.1180     6.1790    -0.0180 H     1 <1>   0.0800 
 45 H       -5.2930     4.8720     0.1860 H     1 <1>   0.0800 
 46 H        6.7480     4.4330    -2.9510 H     1 <1>   0.0800 
 47 H        7.4860     3.9030    -1.4440 H     1 <1>   0.0800 
 48 H        6.4280     5.3260    -1.4690 H     1 <1>   0.0800 
@<TRIPOS>BOND
  1   1   2  2   
  2   2   3  am  
  3   2   4  1   
  4   3   5  1   
  5   3  26  1   
  6   4   6  ar  
  7   4   7  ar  
  8   5   8  1   
  9   5   9  1   
 10   5  27  1   
 11   6  10  ar  
 12   6  28  1   
 13   7  11  ar  
 14   7  29  1   
 15   8  12  ar  
 16   8  13  ar  
 17   9  30  1   
 18   9  31  1   
 19   9  32  1   
 20  10  14  1   
 21  10  15  ar  
 22  11  15  ar  
 23  11  16  1   
 24  12  17  ar  
 25  12  33  1   
 26  13  18  ar  
 27  13  34  1   
 28  14  19  1   
 29  15  20  1   
 30  16  21  1   
 31  17  22  1   
 32  17  23  ar  
 33  18  23  ar  
 34  18  35  1   
 35  19  36  1   
 36  19  37  1   
 37  19  38  1   
 38  20  24  1   
 39  21  39  1   
 40  21  40  1   
 41  21  41  1   
 42  22  25  1   
 43  23  42  1   
 44  24  43  1   
 45  24  44  1   
 46  24  45  1   
 47  25  46  1   
 48  25  47  1   
 49  25  48  1   
@<TRIPOS>SUBSTRUCTURE
  1 ****   6 GROUP 4 **** **** 0

# MOE 2024.06 (io_trps.svl 2023.06)
