@<TRIPOS>MOLECULE
NONAME
48 49 1 0 0 
SMALL
USER_CHARGES


@<TRIPOS>ATOM
  1 S       -1.4930     0.1570    -0.9800 S.o2  1 <1>   1.5760 
  2 O       -0.6310    -0.2480    -2.0620 O.2   1 <1>  -0.6500 
  3 O       -2.8500     0.5850    -1.2340 O.2   1 <1>  -0.6500 
  4 N       -1.6510    -1.1290     0.1610 N.am  1 <1>  -0.6930 
  5 N       -0.6900     1.3000    -0.0290 N.am  1 <1>  -0.8490 
  6 C       -1.4090    -2.4770    -0.1470 C.ar  1 <1>   0.1990 
  7 C       -2.1880    -0.7130     1.5050 C.3   1 <1>   0.2570 
  8 C        0.7220     0.9570     0.1820 C.3   1 <1>   0.1160 
  9 C       -0.7900     2.6470    -0.5970 C.3   1 <1>   0.1160 
 10 C       -1.6480    -2.9930    -1.4210 C.ar  1 <1>  -0.1500 
 11 C       -0.9460    -3.3600     0.8260 C.ar  1 <1>  -0.1500 
 12 C       -3.2390    -1.6700     2.0820 C.2   1 <1>   0.5690 
 13 C       -1.4550    -4.3330    -1.7050 C.ar  1 <1>  -0.1500 
 14 C       -0.7600    -4.7020     0.5520 C.ar  1 <1>  -0.1500 
 15 O       -2.9370    -2.3120     3.0600 O.2   1 <1>  -0.5700 
 16 N       -4.4560    -1.8600     1.4700 N.am  1 <1>  -0.6600 
 17 C       -1.0170    -5.1930    -0.7150 C.ar  1 <1>  -0.1500 
 18 C       -5.0280    -0.9760     0.4140 C.3   1 <1>   0.1400 
 19 C       -5.0970    -3.2040     1.5190 C.3   1 <1>   0.1400 
 20 C       -4.9000    -1.6460    -0.9680 C.3   1 <1>   0.3430 
 21 C       -4.9260    -3.8900     0.1500 C.3   1 <1>   0.3430 
 22 N       -5.4680    -3.0470    -0.9840 N.4   1 <1>  -0.9590 
 23 C       -5.1960    -3.7020    -2.2980 C.3   1 <1>   0.2630 
 24 H       -2.6210     0.2690     1.4470 H     1 <1>   0.0800 
 25 H       -1.3660    -0.6520     2.1960 H     1 <1>   0.0800 
 26 H        0.8050    -0.0250     0.6170 H     1 <1>   0.0800 
 27 H        1.1790     1.6640     0.8540 H     1 <1>   0.0800 
 28 H        1.2590     0.9640    -0.7530 H     1 <1>   0.0800 
 29 H       -1.8250     2.9320    -0.6910 H     1 <1>   0.0800 
 30 H       -0.3320     2.6800    -1.5720 H     1 <1>   0.0800 
 31 H       -0.3020     3.3590     0.0460 H     1 <1>   0.0800 
 32 H       -1.9760    -2.3490    -2.2150 H     1 <1>   0.1500 
 33 H       -0.7220    -3.0020     1.8150 H     1 <1>   0.1500 
 34 H       -1.6280    -4.7090    -2.6990 H     1 <1>   0.1500 
 35 H       -0.4050    -5.3640     1.3250 H     1 <1>   0.1500 
 36 H       -0.8610    -6.2370    -0.9300 H     1 <1>   0.1500 
 37 H       -4.5400    -0.0200     0.4110 H     1 <1>   0.0800 
 38 H       -6.0670    -0.7960     0.6300 H     1 <1>   0.0800 
 39 H       -6.1400    -3.1020     1.7640 H     1 <1>   0.0800 
 40 H       -4.6410    -3.8150     2.2800 H     1 <1>   0.0800 
 41 H       -3.8550    -1.6770    -1.2250 H     1 <1>   0.0800 
 42 H       -5.3960    -1.0350    -1.7040 H     1 <1>   0.0800 
 43 H       -5.4240    -4.8450     0.1690 H     1 <1>   0.0800 
 44 H       -3.8730    -4.0700    -0.0040 H     1 <1>   0.0800 
 45 H       -6.4860    -2.9690    -0.8540 H     1 <1>   0.4500 
 46 H       -4.1340    -3.8020    -2.4520 H     1 <1>   0.0800 
 47 H       -5.6070    -3.1130    -3.1030 H     1 <1>   0.0800 
 48 H       -5.6430    -4.6830    -2.3280 H     1 <1>   0.0800 
@<TRIPOS>BOND
  1   1   2  2   
  2   1   3  2   
  3   1   4  am  
  4   1   5  am  
  5   4   6  1   
  6   4   7  1   
  7   5   8  1   
  8   5   9  1   
  9   6  10  ar  
 10   6  11  ar  
 11   7  12  1   
 12   7  24  1   
 13   7  25  1   
 14   8  26  1   
 15   8  27  1   
 16   8  28  1   
 17   9  29  1   
 18   9  30  1   
 19   9  31  1   
 20  10  13  ar  
 21  10  32  1   
 22  11  14  ar  
 23  11  33  1   
 24  12  15  2   
 25  12  16  am  
 26  13  17  ar  
 27  13  34  1   
 28  14  17  ar  
 29  14  35  1   
 30  16  18  1   
 31  16  19  1   
 32  17  36  1   
 33  18  20  1   
 34  18  37  1   
 35  18  38  1   
 36  19  21  1   
 37  19  39  1   
 38  19  40  1   
 39  20  22  1   
 40  20  41  1   
 41  20  42  1   
 42  21  22  1   
 43  21  43  1   
 44  21  44  1   
 45  22  23  1   
 46  22  45  1   
 47  23  46  1   
 48  23  47  1   
 49  23  48  1   
@<TRIPOS>SUBSTRUCTURE
  1 ****   4 GROUP 4 **** **** 0

# MOE 2024.06 (io_trps.svl 2023.06)
