@<TRIPOS>MOLECULE
NONAME
51 53 1 0 0 
SMALL
USER_CHARGES


@<TRIPOS>ATOM
  1 F        0.5160    -0.1540    -1.0510 F     1 <1>  -0.1900 
  2 C        1.6390    -0.6770    -0.6440 C.ar  1 <1>   0.1900 
  3 C        2.1840    -0.2460     0.5500 C.ar  1 <1>  -0.1500 
  4 C        2.2450    -1.6470    -1.4190 C.ar  1 <1>  -0.1500 
  5 C        3.3770    -0.8050     0.9730 C.ar  1 <1>  -0.1500 
  6 C        3.4380    -2.1950    -0.9800 C.ar  1 <1>  -0.1500 
  7 C        4.0310    -1.7810     0.2170 C.ar  1 <1>   0.0860 
  8 C        5.2850    -2.3490     0.6720 C.2   1 <1>   0.5440 
  9 O        5.3130    -2.9140     1.7490 O.2   1 <1>  -0.5700 
 10 N        6.4450    -2.2640    -0.0760 N.am  1 <1>  -0.6600 
 11 C        6.6120    -1.3460    -1.2370 C.3   1 <1>   0.1400 
 12 C        7.6890    -2.9720     0.3360 C.3   1 <1>   0.1400 
 13 C        7.6970    -0.3130    -0.9200 C.3   1 <1>  -0.1600 
 14 C        8.7790    -1.9490     0.6670 C.3   1 <1>  -0.1600 
 15 C        9.0240    -0.9820    -0.5060 C.3   1 <1>  -0.0190 
 16 C       10.1170     0.0310    -0.1580 C.2   1 <1>   0.5690 
 17 O        9.8070     1.1030     0.3030 O.2   1 <1>  -0.5700 
 18 N       11.4090    -0.3500    -0.3900 N.am  1 <1>  -0.5470 
 19 C       12.6570     0.2740    -0.2000 C.ar  1 <1>   0.1170 
 20 C       13.8030    -0.4410    -0.5690 C.ar  1 <1>   0.0830 
 21 C       12.8010     1.5500     0.3320 C.ar  1 <1>  -0.1500 
 22 O       13.6140    -1.6960    -1.0880 O.3   1 <1>  -0.3620 
 23 C       15.0620     0.1250    -0.4030 C.ar  1 <1>  -0.1500 
 24 C       14.0610     2.1150     0.4970 C.ar  1 <1>   0.0830 
 25 C       14.7120    -2.4830    -1.4980 C.3   1 <1>   0.0400 
 26 C       15.1850     1.3970     0.1270 C.ar  1 <1>  -0.1500 
 27 O       14.2730     3.3560     1.0100 O.3   1 <1>  -0.3620 
 28 C       13.1900     4.1650     1.4140 C.3   1 <1>   0.0400 
 29 H        1.6820     0.5070     1.1320 H     1 <1>   0.1500 
 30 H        1.7870    -1.9630    -2.3390 H     1 <1>   0.1500 
 31 H        3.8190    -0.4910     1.9040 H     1 <1>   0.1500 
 32 H        3.9240    -2.9580    -1.5640 H     1 <1>   0.1500 
 33 H        5.6960    -0.8300    -1.4610 H     1 <1>   0.0800 
 34 H        6.8930    -1.9220    -2.1020 H     1 <1>   0.0800 
 35 H        8.0120    -3.6070    -0.4710 H     1 <1>   0.0800 
 36 H        7.5100    -3.5970     1.1940 H     1 <1>   0.0800 
 37 H        7.3450     0.3210    -0.1240 H     1 <1>   0.0800 
 38 H        7.8600     0.3100    -1.7820 H     1 <1>   0.0800 
 39 H        9.6870    -2.4690     0.9120 H     1 <1>   0.0800 
 40 H        8.4760    -1.3930     1.5380 H     1 <1>   0.0800 
 41 H        9.3710    -1.5570    -1.3470 H     1 <1>   0.0800 
 42 H       11.5300    -1.2860    -0.7780 H     1 <1>   0.3700 
 43 H       11.9270     2.0970     0.6150 H     1 <1>   0.1500 
 44 H       15.9590    -0.3970    -0.6770 H     1 <1>   0.1500 
 45 H       14.3340    -3.4170    -1.8740 H     1 <1>   0.0800 
 46 H       15.3500    -2.6630    -0.6510 H     1 <1>   0.0800 
 47 H       15.2430    -1.9650    -2.2780 H     1 <1>   0.0800 
 48 H       16.1540     1.8430     0.2590 H     1 <1>   0.1500 
 49 H       13.5860     5.0940     1.7840 H     1 <1>   0.0800 
 50 H       12.6490     3.6610     2.1960 H     1 <1>   0.0800 
 51 H       12.5560     4.3500     0.5660 H     1 <1>   0.0800 
@<TRIPOS>BOND
  1   1   2  1   
  2   2   3  ar  
  3   2   4  ar  
  4   3   5  ar  
  5   3  29  1   
  6   4   6  ar  
  7   4  30  1   
  8   5   7  ar  
  9   5  31  1   
 10   6   7  ar  
 11   6  32  1   
 12   7   8  1   
 13   8   9  2   
 14   8  10  am  
 15  10  11  1   
 16  10  12  1   
 17  11  13  1   
 18  11  33  1   
 19  11  34  1   
 20  12  14  1   
 21  12  35  1   
 22  12  36  1   
 23  13  15  1   
 24  13  37  1   
 25  13  38  1   
 26  14  15  1   
 27  14  39  1   
 28  14  40  1   
 29  15  16  1   
 30  15  41  1   
 31  16  17  2   
 32  16  18  am  
 33  18  19  1   
 34  18  42  1   
 35  19  20  ar  
 36  19  21  ar  
 37  20  22  1   
 38  20  23  ar  
 39  21  24  ar  
 40  21  43  1   
 41  22  25  1   
 42  23  26  ar  
 43  23  44  1   
 44  24  26  ar  
 45  24  27  1   
 46  25  45  1   
 47  25  46  1   
 48  25  47  1   
 49  26  48  1   
 50  27  28  1   
 51  28  49  1   
 52  28  50  1   
 53  28  51  1   
@<TRIPOS>SUBSTRUCTURE
  1 ****  15 GROUP 4 **** **** 0

# MOE 2024.06 (io_trps.svl 2023.06)
