@<TRIPOS>MOLECULE
NONAME
30 33 1 0 0 
SMALL
USER_CHARGES


@<TRIPOS>ATOM
  1 S       -0.0760    -0.2940     1.5480 S.3   1 <1>  -0.0800 
  2 C       -0.9690    -1.3650     0.4760 C.2   1 <1>   0.4420 
  3 C        1.4130    -0.9890     0.9730 C.2   1 <1>  -0.1100 
  4 N       -0.2200    -2.1410    -0.2180 N.2   1 <1>  -0.5650 
  5 N       -2.3490    -1.2870     0.4770 N.am  1 <1>  -0.1840 
  6 C        1.1180    -1.9290     0.0620 C.2   1 <1>   0.0770 
  7 C       -3.2050    -2.3680     0.5300 C.2   1 <1>   0.5690 
  8 C       -3.0850    -0.1350     0.2800 C.2   1 <1>   0.5690 
  9 O       -2.9910    -3.4700     0.9630 O.2   1 <1>  -0.5700 
 10 C       -4.5290    -1.9130    -0.0200 C.3   1 <1>  -0.0190 
 11 O       -2.6820     0.9640     0.0020 O.2   1 <1>  -0.5700 
 12 C       -4.5300    -0.4800     0.5180 C.3   1 <1>  -0.0190 
 13 C       -5.9760    -2.4640     0.0310 C.3   1 <1>   0.0580 
 14 C       -5.8770     0.2000     0.1480 C.3   1 <1>   0.0580 
 15 C       -6.5860    -1.7280    -1.1660 C.2   1 <1>  -0.2880 
 16 C       -6.7560    -1.9240     1.2650 C.3   1 <1>  -0.1600 
 17 C       -6.4780    -0.3910    -1.1330 C.2   1 <1>  -0.2880 
 18 C       -6.8550    -0.3570     1.2220 C.3   1 <1>  -0.1600 
 19 H        2.3370    -0.6200     1.3770 H     1 <1>   0.1500 
 20 H        1.8390    -2.5300    -0.4670 H     1 <1>   0.1500 
 21 H       -4.2920    -1.8810    -1.0740 H     1 <1>   0.0800 
 22 H       -4.5330    -0.5220     1.5960 H     1 <1>   0.0800 
 23 H       -6.0130    -3.5350    -0.0760 H     1 <1>   0.0800 
 24 H       -5.8320     1.2760     0.1510 H     1 <1>   0.0800 
 25 H       -7.0230    -2.3290    -1.9460 H     1 <1>   0.1500 
 26 H       -6.2620    -2.2440     2.1660 H     1 <1>   0.0800 
 27 H       -7.7480    -2.3420     1.2710 H     1 <1>   0.0800 
 28 H       -6.8030     0.3050    -1.8880 H     1 <1>   0.1500 
 29 H       -7.8610    -0.0680     0.9660 H     1 <1>   0.0800 
 30 H       -6.6440     0.0580     2.1920 H     1 <1>   0.0800 
@<TRIPOS>BOND
  1   1   2  1   
  2   1   3  1   
  3   2   4  2   
  4   2   5  1   
  5   3   6  2   
  6   3  19  1   
  7   4   6  1   
  8   5   7  am  
  9   5   8  am  
 10   6  20  1   
 11   7   9  2   
 12   7  10  1   
 13   8  11  2   
 14   8  12  1   
 15  10  12  1   
 16  10  13  1   
 17  10  21  1   
 18  12  14  1   
 19  12  22  1   
 20  13  15  1   
 21  13  16  1   
 22  13  23  1   
 23  14  17  1   
 24  14  18  1   
 25  14  24  1   
 26  15  17  2   
 27  15  25  1   
 28  16  18  1   
 29  16  26  1   
 30  16  27  1   
 31  17  28  1   
 32  18  29  1   
 33  18  30  1   
@<TRIPOS>SUBSTRUCTURE
  1 ****   5 GROUP 4 **** **** 0

# MOE 2024.06 (io_trps.svl 2023.06)
