@<TRIPOS>MOLECULE
NONAME
50 53 1 0 0 
SMALL
USER_CHARGES


@<TRIPOS>ATOM
  1 S        0.1080     0.7300     0.7950 S.o2  1 <1>   1.4470 
  2 O       -0.0910    -0.6860     0.5760 O.2   1 <1>  -0.6500 
  3 O        0.5910     1.1900     2.0800 O.2   1 <1>  -0.6500 
  4 N        1.2360     1.2490    -0.3550 N.am  1 <1>  -0.8490 
  5 C       -1.3930     1.6310     0.3200 C.ar  1 <1>  -0.0090 
  6 C        1.6340     2.6570    -0.1530 C.3   1 <1>   0.1960 
  7 C        2.4370     0.3920    -0.3430 C.3   1 <1>   0.1960 
  8 C       -1.9850     2.5550     1.1720 C.ar  1 <1>  -0.1500 
  9 C       -1.9810     1.4280    -0.9220 C.ar  1 <1>  -0.1500 
 10 C        2.6240     3.1510    -1.2260 C.3   1 <1>   0.2090 
 11 C        3.4820     0.8050    -1.4000 C.3   1 <1>   0.2090 
 12 C       -3.1190     3.2530     0.7970 C.ar  1 <1>  -0.1500 
 13 C       -3.1170     2.1210    -1.3030 C.ar  1 <1>  -0.1500 
 14 N        3.8150     2.2610    -1.3460 N.pl3 1 <1>  -0.8380 
 15 C       -3.6970     3.0420    -0.4460 C.ar  1 <1>  -0.1430 
 16 C        4.9840     2.6480    -0.6990 C.ar  1 <1>   0.1000 
 17 C       -4.9550     3.7990    -0.8720 C.3   1 <1>   0.0630 
 18 C        6.0320     3.1710    -1.4430 C.ar  1 <1>  -0.1500 
 19 C        5.1360     2.5320     0.6790 C.ar  1 <1>  -0.1500 
 20 C       -4.7160     5.3240    -0.8630 C.3   1 <1>   0.1400 
 21 C       -6.1180     3.5430     0.1090 C.3   1 <1>  -0.0990 
 22 C        7.2070     3.5700    -0.8310 C.ar  1 <1>  -0.1500 
 23 C        6.3090     2.9290     1.2960 C.ar  1 <1>  -0.1500 
 24 N       -5.4810     5.7890     0.3000 N.am  1 <1>  -0.7300 
 25 C       -6.2440     4.8400     0.8560 C.2   1 <1>   0.5690 
 26 C        7.3470     3.4490     0.5410 C.ar  1 <1>  -0.1500 
 27 O       -6.9400     4.9990     1.8240 O.2   1 <1>  -0.5700 
 28 H        2.0930     2.7770     0.8140 H     1 <1>   0.0800 
 29 H        0.7620     3.2870    -0.1820 H     1 <1>   0.0800 
 30 H        2.1520    -0.6280    -0.5360 H     1 <1>   0.0800 
 31 H        2.8950     0.4210     0.6320 H     1 <1>   0.0800 
 32 H       -1.5540     2.7320     2.1440 H     1 <1>   0.1500 
 33 H       -1.5390     0.7150    -1.5980 H     1 <1>   0.1500 
 34 H        2.9470     4.1480    -0.9820 H     1 <1>   0.0800 
 35 H        2.1220     3.1910    -2.1770 H     1 <1>   0.0800 
 36 H        3.0970     0.5760    -2.3780 H     1 <1>   0.0800 
 37 H        4.3790     0.2280    -1.2580 H     1 <1>   0.0800 
 38 H       -3.5510     3.9600     1.4860 H     1 <1>   0.1500 
 39 H       -3.5440     1.9310    -2.2730 H     1 <1>   0.1500 
 40 H       -5.2400     3.4910    -1.8630 H     1 <1>   0.0800 
 41 H        5.9130     3.2600    -2.5070 H     1 <1>   0.1500 
 42 H        4.3340     2.1320     1.2680 H     1 <1>   0.1500 
 43 H       -5.1060     5.7780    -1.7580 H     1 <1>   0.0800 
 44 H       -3.6710     5.5640    -0.7550 H     1 <1>   0.0800 
 45 H       -5.9190     2.7330     0.7870 H     1 <1>   0.0800 
 46 H       -7.0340     3.3570    -0.4190 H     1 <1>   0.0800 
 47 H        8.0110     3.9740    -1.4220 H     1 <1>   0.1500 
 48 H        6.4150     2.8340     2.3620 H     1 <1>   0.1500 
 49 H       -5.4560     6.7480     0.6550 H     1 <1>   0.3700 
 50 H        8.2600     3.7590     1.0190 H     1 <1>   0.1500 
@<TRIPOS>BOND
  1   1   2  2   
  2   1   3  2   
  3   1   4  am  
  4   1   5  1   
  5   4   6  1   
  6   4   7  1   
  7   5   8  ar  
  8   5   9  ar  
  9   6  10  1   
 10   6  28  1   
 11   6  29  1   
 12   7  11  1   
 13   7  30  1   
 14   7  31  1   
 15   8  12  ar  
 16   8  32  1   
 17   9  13  ar  
 18   9  33  1   
 19  10  14  1   
 20  10  34  1   
 21  10  35  1   
 22  11  14  1   
 23  11  36  1   
 24  11  37  1   
 25  12  15  ar  
 26  12  38  1   
 27  13  15  ar  
 28  13  39  1   
 29  14  16  1   
 30  15  17  1   
 31  16  18  ar  
 32  16  19  ar  
 33  17  20  1   
 34  17  21  1   
 35  17  40  1   
 36  18  22  ar  
 37  18  41  1   
 38  19  23  ar  
 39  19  42  1   
 40  20  24  1   
 41  20  43  1   
 42  20  44  1   
 43  21  25  1   
 44  21  45  1   
 45  21  46  1   
 46  22  26  ar  
 47  22  47  1   
 48  23  26  ar  
 49  23  48  1   
 50  24  25  am  
 51  24  49  1   
 52  25  27  2   
 53  26  50  1   
@<TRIPOS>SUBSTRUCTURE
  1 ****   6 GROUP 4 **** **** 0

# MOE 2024.06 (io_trps.svl 2023.06)
