@<TRIPOS>MOLECULE
NONAME
56 58 1 0 0 
SMALL
USER_CHARGES


@<TRIPOS>ATOM
  1 O       -1.0120     0.2930    -0.6710 O.2   1 <1>  -0.5700 
  2 C       -0.8930     1.0130     0.3010 C.2   1 <1>   0.6900 
  3 N       -1.8820     1.0220     1.2450 N.am  1 <1>  -0.6600 
  4 N        0.1470     1.8770     0.4580 N.am  1 <1>  -0.5470 
  5 C       -2.6080     2.2960     1.5160 C.3   1 <1>   0.1400 
  6 C       -2.7610    -0.1760     1.3520 C.3   1 <1>   0.1400 
  7 C        1.1760     2.3110    -0.3900 C.ar  1 <1>   0.1170 
  8 C       -3.7820     2.4430     0.5270 C.3   1 <1>   0.3430 
  9 C       -3.9160    -0.0570     0.3390 C.3   1 <1>   0.3430 
 10 C        1.7570     3.5850    -0.2080 C.ar  1 <1>   0.0860 
 11 C        1.6460     1.4830    -1.4080 C.ar  1 <1>  -0.1500 
 12 N       -4.6840     1.2300     0.5080 N.4   1 <1>  -0.9590 
 13 C        1.3300     4.5000     0.8380 C.2   1 <1>   0.6340 
 14 C        2.7820     3.9610    -1.0860 C.ar  1 <1>  -0.1500 
 15 C        2.6560     1.8840    -2.2550 C.ar  1 <1>  -0.1500 
 16 C       -5.7260     1.3690    -0.5420 C.3   1 <1>   0.5240 
 17 O        0.3330     4.3460     1.5230 O.2   1 <1>  -0.5700 
 18 O        2.0800     5.5840     1.0670 O.3   1 <1>  -0.4300 
 19 C        3.2280     3.1310    -2.0940 C.ar  1 <1>  -0.1500 
 20 C       -6.5840     2.5620    -0.1940 C.2   1 <1>  -0.1810 
 21 C        1.7630     6.5300     2.0700 C.3   1 <1>   0.0400 
 22 C       -6.6010     3.8110    -0.7150 C.2   1 <1>  -0.3320 
 23 C       -7.5640     2.5720     0.7900 C.2   1 <1>   0.1390 
 24 N       -7.5570     4.4990    -0.0410 N.pl3 1 <1>   0.3140 
 25 C       -5.7650     4.4080    -1.8400 C.3   1 <1>  -0.0600 
 26 N       -8.1350     3.7260     0.8940 N.2   1 <1>  -0.7070 
 27 C       -7.9880     5.9020    -0.2370 C.3   1 <1>   0.0960 
 28 C       -9.0960     6.0000    -1.2930 C.3   1 <1>  -0.2400 
 29 H        0.0480     2.4470     1.3030 H     1 <1>   0.3700 
 30 H       -1.9480     3.1390     1.4060 H     1 <1>   0.0800 
 31 H       -2.9720     2.2980     2.5290 H     1 <1>   0.0800 
 32 H       -3.1440    -0.2600     2.3540 H     1 <1>   0.0800 
 33 H       -2.1890    -1.0650     1.1420 H     1 <1>   0.0800 
 34 H       -3.3710     2.5990    -0.4570 H     1 <1>   0.0800 
 35 H       -4.3540     3.3210     0.7850 H     1 <1>   0.0800 
 36 H       -4.5750    -0.9010     0.4530 H     1 <1>   0.0800 
 37 H       -3.4900    -0.0990    -0.6510 H     1 <1>   0.0800 
 38 H        1.2240     0.5040    -1.5430 H     1 <1>   0.1500 
 39 H       -5.1730     1.2100     1.4100 H     1 <1>   0.4500 
 40 H        3.2470     4.9260    -0.9820 H     1 <1>   0.1500 
 41 H        3.0000     1.2280    -3.0370 H     1 <1>   0.1500 
 42 H       -6.3410     0.4850    -0.5840 H     1 <1>   0.0800 
 43 H       -5.2660     1.5160    -1.5060 H     1 <1>   0.0800 
 44 H        4.0180     3.4490    -2.7530 H     1 <1>   0.1500 
 45 H        1.7450     6.0340     3.0240 H     1 <1>   0.0800 
 46 H        0.7990     6.9580     1.8540 H     1 <1>   0.0800 
 47 H        2.5170     7.2970     2.0650 H     1 <1>   0.0800 
 48 H       -7.8410     1.7350     1.4100 H     1 <1>   0.1500 
 49 H       -5.0850     3.6820    -2.2470 H     1 <1>   0.0800 
 50 H       -5.1950     5.2460    -1.4800 H     1 <1>   0.0800 
 51 H       -6.4060     4.7460    -2.6360 H     1 <1>   0.0800 
 52 H       -7.1400     6.4930    -0.5270 H     1 <1>   0.0800 
 53 H       -8.3530     6.2730     0.7050 H     1 <1>   0.0800 
 54 H       -8.7480     5.6400    -2.2450 H     1 <1>   0.0800 
 55 H       -9.4040     7.0240    -1.4060 H     1 <1>   0.0800 
 56 H       -9.9490     5.4210    -0.9850 H     1 <1>   0.0800 
@<TRIPOS>BOND
  1   1   2  2   
  2   2   3  am  
  3   2   4  am  
  4   3   5  1   
  5   3   6  1   
  6   4   7  1   
  7   4  29  1   
  8   5   8  1   
  9   5  30  1   
 10   5  31  1   
 11   6   9  1   
 12   6  32  1   
 13   6  33  1   
 14   7  10  ar  
 15   7  11  ar  
 16   8  12  1   
 17   8  34  1   
 18   8  35  1   
 19   9  12  1   
 20   9  36  1   
 21   9  37  1   
 22  10  13  1   
 23  10  14  ar  
 24  11  15  ar  
 25  11  38  1   
 26  12  16  1   
 27  12  39  1   
 28  13  17  2   
 29  13  18  1   
 30  14  19  ar  
 31  14  40  1   
 32  15  19  ar  
 33  15  41  1   
 34  16  20  1   
 35  16  42  1   
 36  16  43  1   
 37  18  21  1   
 38  19  44  1   
 39  20  22  2   
 40  20  23  1   
 41  21  45  1   
 42  21  46  1   
 43  21  47  1   
 44  22  24  1   
 45  22  25  1   
 46  23  26  2   
 47  23  48  1   
 48  24  26  1   
 49  24  27  1   
 50  25  49  1   
 51  25  50  1   
 52  25  51  1   
 53  27  28  1   
 54  27  52  1   
 55  27  53  1   
 56  28  54  1   
 57  28  55  1   
 58  28  56  1   
@<TRIPOS>SUBSTRUCTURE
  1 ****   8 GROUP 4 **** **** 0

# MOE 2024.06 (io_trps.svl 2023.06)
