@<TRIPOS>MOLECULE
NONAME
40 42 1 0 0 
SMALL
USER_CHARGES


@<TRIPOS>ATOM
  1 S       -0.4980     0.1350    -0.2310 S.3   1 <1>  -0.4600 
  2 C        1.3320     0.5170     0.0300 C.3   1 <1>   0.5100 
  3 C       -0.2210    -1.6390    -1.0850 C.3   1 <1>   0.2110 
  4 O        2.5190     0.1670     0.9170 O.3   1 <1>  -0.3630 
  5 C        1.7660     1.6400    -1.0020 C.3   1 <1>   1.0200 
  6 C        1.2060    -0.8550    -0.2680 C.3   1 <1>  -0.1600 
  7 C       -1.4350    -2.5550    -0.9710 C.2   1 <1>   0.6590 
  8 C        1.1720    -2.2280    -0.5150 C.3   1 <1>   0.4240 
  9 C        3.3230    -1.0010     0.6850 C.ar  1 <1>   0.3920 
 10 F        3.0530     1.5850    -1.3350 F     1 <1>  -0.3400 
 11 F        1.5630     2.8670    -0.5320 F     1 <1>  -0.3400 
 12 F        1.1080     1.5800    -2.1600 F     1 <1>  -0.3400 
 13 O       -1.6860    -3.3480    -1.8440 O.2   1 <1>  -0.5700 
 14 O       -2.2080    -2.4220     0.1020 O.3   1 <1>  -0.4300 
 15 O        0.7420    -3.1260     0.4660 O.3   1 <1>  -0.6800 
 16 C        2.7460    -2.1340    -0.0450 C.ar  1 <1>  -0.1430 
 17 N        4.5610    -0.9310     1.1260 N.ar  1 <1>  -0.6200 
 18 C       -3.3480    -3.2230     0.2940 C.3   1 <1>   0.1200 
 19 C        3.5990    -3.1880    -0.3260 C.ar  1 <1>  -0.1430 
 20 C        5.3190    -1.9710     0.8450 C.ar  1 <1>   0.1670 
 21 C       -3.9960    -2.8110     1.6120 C.3   1 <1>  -0.2400 
 22 C        4.8970    -3.0850     0.1370 C.ar  1 <1>  -0.1500 
 23 C        3.1650    -4.4230    -1.1060 C.3   1 <1>  -0.0970 
 24 C        6.7450    -1.8900     1.3490 C.3   1 <1>  -0.0970 
 25 H       -0.1110    -1.4290    -2.1380 H     1 <1>   0.0800 
 26 H        1.7750    -0.6650    -1.2020 H     1 <1>   0.0800 
 27 H        0.9880    -1.0880     0.8230 H     1 <1>   0.0800 
 28 H        1.5170    -3.3880     1.0040 H     1 <1>   0.4000 
 29 H       -3.0380    -4.2550     0.3210 H     1 <1>   0.0800 
 30 H       -4.0190    -3.0670    -0.5340 H     1 <1>   0.0800 
 31 H       -3.3090    -2.9630     2.4250 H     1 <1>   0.0800 
 32 H       -4.8730    -3.4070     1.7880 H     1 <1>   0.0800 
 33 H       -4.2860    -1.7760     1.5730 H     1 <1>   0.0800 
 34 H        5.5930    -3.8820    -0.0510 H     1 <1>   0.1500 
 35 H        2.6260    -4.1410    -1.9920 H     1 <1>   0.0800 
 36 H        2.5340    -5.0460    -0.4980 H     1 <1>   0.0800 
 37 H        4.0190    -5.0020    -1.4090 H     1 <1>   0.0800 
 38 H        7.2270    -1.0290     0.9230 H     1 <1>   0.0800 
 39 H        7.3050    -2.7680     1.0860 H     1 <1>   0.0800 
 40 H        6.7420    -1.7880     2.4190 H     1 <1>   0.0800 
@<TRIPOS>BOND
  1   1   2  1   
  2   1   3  1   
  3   2   4  1   
  4   2   5  1   
  5   2   6  1   
  6   3   7  1   
  7   3   8  1   
  8   3  25  1   
  9   4   9  1   
 10   5  10  1   
 11   5  11  1   
 12   5  12  1   
 13   6   8  1   
 14   6  26  1   
 15   6  27  1   
 16   7  13  2   
 17   7  14  1   
 18   8  15  1   
 19   8  16  1   
 20   9  16  ar  
 21   9  17  ar  
 22  14  18  1   
 23  15  28  1   
 24  16  19  ar  
 25  17  20  ar  
 26  18  21  1   
 27  18  29  1   
 28  18  30  1   
 29  19  22  ar  
 30  19  23  1   
 31  20  22  ar  
 32  20  24  1   
 33  21  31  1   
 34  21  32  1   
 35  21  33  1   
 36  22  34  1   
 37  23  35  1   
 38  23  36  1   
 39  23  37  1   
 40  24  38  1   
 41  24  39  1   
 42  24  40  1   
@<TRIPOS>SUBSTRUCTURE
  1 ****   6 GROUP 4 **** **** 0

# MOE 2024.06 (io_trps.svl 2023.06)
