@<TRIPOS>MOLECULE
NONAME
51 53 1 0 0 
SMALL
USER_CHARGES


@<TRIPOS>ATOM
  1 CL       0.6980     0.0080    -2.2240 Cl    1 <1>  -0.1770 
  2 C        2.3810     0.1830    -1.7940 C.ar  1 <1>   0.1770 
  3 C        2.7880     1.3050    -1.0960 C.ar  1 <1>  -0.1500 
  4 C        3.2790    -0.8020    -2.1580 C.ar  1 <1>  -0.1500 
  5 C        4.1230     1.4460    -0.7530 C.ar  1 <1>  -0.1500 
  6 C        4.6130    -0.6580    -1.8140 C.ar  1 <1>  -0.1500 
  7 C        5.0420     0.4610    -1.1140 C.ar  1 <1>   0.0820 
  8 O        6.3650     0.5210    -0.8190 O.3   1 <1>  -0.3630 
  9 C        6.9190     1.6350    -0.1430 C.3   1 <1>   0.1200 
 10 C        8.4260     1.4170     0.0400 C.3   1 <1>   0.2000 
 11 O        8.6110     0.1680     0.6250 O.3   1 <1>  -0.6800 
 12 C        9.0630     2.5210     0.9130 C.3   1 <1>   0.1100 
 13 N       10.5430     2.6160     0.8110 N.3   1 <1>  -0.8100 
 14 C       11.0410     3.8190     1.5220 C.3   1 <1>   0.1100 
 15 C       11.2240     1.3930     1.3200 C.3   1 <1>   0.1100 
 16 C       12.5700     4.0060     1.3630 C.3   1 <1>   0.3430 
 17 C       12.7580     1.5480     1.4390 C.3   1 <1>   0.3430 
 18 N       13.2100     2.7950     0.7490 N.4   1 <1>  -0.9590 
 19 C       14.6790     2.9070     0.5760 C.3   1 <1>   0.4860 
 20 C       14.9800     4.1420    -0.2500 C.ar  1 <1>  -0.1430 
 21 C       14.6850     4.1690    -1.6060 C.ar  1 <1>  -0.1500 
 22 C       15.5450     5.2600     0.3480 C.ar  1 <1>  -0.1500 
 23 C       14.9420     5.3050    -2.3530 C.ar  1 <1>  -0.1500 
 24 C       15.8020     6.3950    -0.4010 C.ar  1 <1>  -0.1500 
 25 C       15.4990     6.4190    -1.7500 C.ar  1 <1>  -0.1500 
 26 H        2.0660     2.0540    -0.8260 H     1 <1>   0.1500 
 27 H        2.9370    -1.6650    -2.7010 H     1 <1>   0.1500 
 28 H        4.4210     2.3230    -0.2100 H     1 <1>   0.1500 
 29 H        5.3270    -1.4140    -2.0890 H     1 <1>   0.1500 
 30 H        6.4360     1.7280     0.8150 H     1 <1>   0.0800 
 31 H        6.7370     2.5160    -0.7330 H     1 <1>   0.0800 
 32 H        8.8960     1.4110    -0.9280 H     1 <1>   0.0800 
 33 H        7.9950    -0.4620     0.1900 H     1 <1>   0.4000 
 34 H        8.7670     2.3760     1.9390 H     1 <1>   0.0800 
 35 H        8.6530     3.4620     0.5880 H     1 <1>   0.0800 
 36 H       10.8020     3.7430     2.5700 H     1 <1>   0.0800 
 37 H       10.5470     4.6970     1.1410 H     1 <1>   0.0800 
 38 H       11.0330     0.5790     0.6420 H     1 <1>   0.0800 
 39 H       10.8190     1.1120     2.2770 H     1 <1>   0.0800 
 40 H       13.0040     4.2120     2.3270 H     1 <1>   0.0800 
 41 H       12.7480     4.8640     0.7350 H     1 <1>   0.0800 
 42 H       13.2310     0.6830     1.0040 H     1 <1>   0.0800 
 43 H       13.0300     1.5870     2.4800 H     1 <1>   0.0800 
 44 H       12.7700     2.7490    -0.1820 H     1 <1>   0.4500 
 45 H       15.0610     2.0370     0.0680 H     1 <1>   0.0800 
 46 H       15.1620     2.9830     1.5370 H     1 <1>   0.0800 
 47 H       14.2560     3.3130    -2.0990 H     1 <1>   0.1500 
 48 H       15.7940     5.2640     1.3950 H     1 <1>   0.1500 
 49 H       14.7130     5.3260    -3.4050 H     1 <1>   0.1500 
 50 H       16.2410     7.2630     0.0620 H     1 <1>   0.1500 
 51 H       15.7000     7.3020    -2.3320 H     1 <1>   0.1500 
@<TRIPOS>BOND
  1   1   2  1   
  2   2   3  ar  
  3   2   4  ar  
  4   3   5  ar  
  5   3  26  1   
  6   4   6  ar  
  7   4  27  1   
  8   5   7  ar  
  9   5  28  1   
 10   6   7  ar  
 11   6  29  1   
 12   7   8  1   
 13   8   9  1   
 14   9  10  1   
 15   9  30  1   
 16   9  31  1   
 17  10  11  1   
 18  10  12  1   
 19  10  32  1   
 20  11  33  1   
 21  12  13  1   
 22  12  34  1   
 23  12  35  1   
 24  13  14  1   
 25  13  15  1   
 26  14  16  1   
 27  14  36  1   
 28  14  37  1   
 29  15  17  1   
 30  15  38  1   
 31  15  39  1   
 32  16  18  1   
 33  16  40  1   
 34  16  41  1   
 35  17  18  1   
 36  17  42  1   
 37  17  43  1   
 38  18  19  1   
 39  18  44  1   
 40  19  20  1   
 41  19  45  1   
 42  19  46  1   
 43  20  21  ar  
 44  20  22  ar  
 45  21  23  ar  
 46  21  47  1   
 47  22  24  ar  
 48  22  48  1   
 49  23  25  ar  
 50  23  49  1   
 51  24  25  ar  
 52  24  50  1   
 53  25  51  1   
@<TRIPOS>SUBSTRUCTURE
  1 ****  12 GROUP 4 **** **** 0

# MOE 2024.06 (io_trps.svl 2023.06)
