@<TRIPOS>MOLECULE
Structure2543
29 30 1 0 0 
SMALL
USER_CHARGES


@<TRIPOS>ATOM
  1 BR       0.1170    -0.3880    -0.8340 Br    1 <1>  -0.1110 
  2 C       -1.5780    -1.0370    -0.1920 C.ar  1 <1>   0.1110 
  3 C       -1.9830    -0.6900     1.0830 C.ar  1 <1>  -0.1500 
  4 C       -2.3420    -1.8360    -1.0220 C.ar  1 <1>  -0.1500 
  5 C       -3.2060    -1.1560     1.5360 C.ar  1 <1>  -0.1500 
  6 C       -3.5630    -2.2990    -0.5610 C.ar  1 <1>  -0.1500 
  7 C       -4.0010    -1.9460     0.7150 C.ar  1 <1>   0.0830 
  8 O       -5.1970    -2.3430     1.2130 O.3   1 <1>  -0.3630 
  9 C       -6.3440    -2.3630     0.3930 C.3   1 <1>   0.2000 
 10 C       -6.6430    -0.9230    -0.0720 C.3   1 <1>   0.3430 
 11 C       -7.4960    -2.9310     1.2320 C.3   1 <1>  -0.1600 
 12 N       -7.9860    -0.8080    -0.7380 N.4   1 <1>  -0.9060 
 13 C       -8.8450    -2.7550     0.5160 C.3   1 <1>  -0.1600 
 14 C       -9.1000    -1.2970     0.1220 C.3   1 <1>   0.3430 
 15 H       -1.3550    -0.0750     1.7030 H     1 <1>   0.1500 
 16 H       -1.9790    -2.0930    -2.0020 H     1 <1>   0.1500 
 17 H       -3.5440    -0.9100     2.5270 H     1 <1>   0.1500 
 18 H       -4.1430    -2.9420    -1.1950 H     1 <1>   0.1500 
 19 H       -6.1560    -3.0070    -0.4470 H     1 <1>   0.0800 
 20 H       -5.8680    -0.6040    -0.7500 H     1 <1>   0.0800 
 21 H       -6.6220    -0.2800     0.7930 H     1 <1>   0.0800 
 22 H       -7.5300    -2.4210     2.1810 H     1 <1>   0.0800 
 23 H       -7.3180    -3.9760     1.4210 H     1 <1>   0.0800 
 24 H       -7.9810    -1.3450    -1.6150 H     1 <1>   0.4500 
 25 H       -8.1560     0.1740    -0.9940 H     1 <1>   0.4500 
 26 H       -9.6350    -3.0810     1.1720 H     1 <1>   0.0800 
 27 H       -8.8840    -3.3790    -0.3610 H     1 <1>   0.0800 
 28 H      -10.0390    -1.2220    -0.4060 H     1 <1>   0.0800 
 29 H       -9.1650    -0.6930     1.0140 H     1 <1>   0.0800 
@<TRIPOS>BOND
  1   1   2  1   
  2   2   3  ar  
  3   2   4  ar  
  4   3   5  ar  
  5   3  15  1   
  6   4   6  ar  
  7   4  16  1   
  8   5   7  ar  
  9   5  17  1   
 10   6   7  ar  
 11   6  18  1   
 12   7   8  1   
 13   8   9  1   
 14   9  10  1   
 15   9  11  1   
 16   9  19  1   
 17  10  12  1   
 18  10  20  1   
 19  10  21  1   
 20  11  13  1   
 21  11  22  1   
 22  11  23  1   
 23  12  14  1   
 24  12  24  1   
 25  12  25  1   
 26  13  14  1   
 27  13  26  1   
 28  13  27  1   
 29  14  28  1   
 30  14  29  1   
@<TRIPOS>SUBSTRUCTURE
  1 ****   7 GROUP 4 **** **** 0

# MOE 2024.06 (io_trps.svl 2023.06)
