@<TRIPOS>MOLECULE
NONAME
36 35 1 0 0 
SMALL
USER_CHARGES


@<TRIPOS>ATOM
  1 O        0.6290     1.4950     2.2930 O.2   1 <1>  -0.5700 
  2 C        0.5670     2.2980     1.3870 C.2   1 <1>   0.5690 
  3 N       -0.6240     2.6320     0.8420 N.am  1 <1>  -0.4210 
  4 C        1.8590     2.9010     0.8720 C.3   1 <1>  -0.0990 
  5 N       -0.8600     3.5650    -0.2700 N.3   1 <1>  -0.5490 
  6 C        2.4570     2.0470    -0.2560 C.3   1 <1>  -0.0990 
  7 C       -1.5200     2.7880    -1.3490 C.3   1 <1>   0.0300 
  8 C       -1.7890     4.6060     0.2350 C.3   1 <1>   0.0300 
  9 C        3.8160     2.5560    -0.6790 C.2   1 <1>   0.5690 
 10 O        3.9090     3.2350    -1.6710 O.2   1 <1>  -0.5700 
 11 N        4.8890     2.2300     0.0860 N.am  1 <1>  -0.7300 
 12 C        6.2820     2.6350    -0.1890 C.3   1 <1>   0.1400 
 13 C        7.1770     1.3960    -0.1600 C.3   1 <1>  -0.1600 
 14 C        8.6400     1.7620    -0.4390 C.3   1 <1>  -0.1600 
 15 C        9.5340     0.5190    -0.4090 C.3   1 <1>  -0.2400 
 16 H       -1.4430     2.1720     1.2490 H     1 <1>   0.3700 
 17 H        2.5520     2.9650     1.6910 H     1 <1>   0.0800 
 18 H        1.6790     3.8990     0.5150 H     1 <1>   0.0800 
 19 H        1.7980     2.0670    -1.1060 H     1 <1>   0.0800 
 20 H        2.5510     1.0260     0.0680 H     1 <1>   0.0800 
 21 H       -0.8660     1.9980    -1.6740 H     1 <1>   0.0800 
 22 H       -1.7180     3.4330    -2.1880 H     1 <1>   0.0800 
 23 H       -2.4450     2.3610    -1.0030 H     1 <1>   0.0800 
 24 H       -1.3300     5.1290     1.0560 H     1 <1>   0.0800 
 25 H       -2.7120     4.1650     0.5680 H     1 <1>   0.0800 
 26 H       -1.9970     5.3150    -0.5480 H     1 <1>   0.0800 
 27 H        4.7510     1.6620     0.9220 H     1 <1>   0.3700 
 28 H        6.5990     3.3420     0.5580 H     1 <1>   0.0800 
 29 H        6.3420     3.1100    -1.1550 H     1 <1>   0.0800 
 30 H        6.8360     0.7020    -0.9080 H     1 <1>   0.0800 
 31 H        7.1060     0.9270     0.8060 H     1 <1>   0.0800 
 32 H        8.9870     2.4650     0.3000 H     1 <1>   0.0800 
 33 H        8.7180     2.2300    -1.4060 H     1 <1>   0.0800 
 34 H        9.4910     0.0460     0.5570 H     1 <1>   0.0800 
 35 H       10.5540     0.7950    -0.6080 H     1 <1>   0.0800 
 36 H        9.2200    -0.1880    -1.1560 H     1 <1>   0.0800 
@<TRIPOS>BOND
  1   1   2  2   
  2   2   3  am  
  3   2   4  1   
  4   3   5  1   
  5   3  16  1   
  6   4   6  1   
  7   4  17  1   
  8   4  18  1   
  9   5   7  1   
 10   5   8  1   
 11   6   9  1   
 12   6  19  1   
 13   6  20  1   
 14   7  21  1   
 15   7  22  1   
 16   7  23  1   
 17   8  24  1   
 18   8  25  1   
 19   8  26  1   
 20   9  10  2   
 21   9  11  am  
 22  11  12  1   
 23  11  27  1   
 24  12  13  1   
 25  12  28  1   
 26  12  29  1   
 27  13  14  1   
 28  13  30  1   
 29  13  31  1   
 30  14  15  1   
 31  14  32  1   
 32  14  33  1   
 33  15  34  1   
 34  15  35  1   
 35  15  36  1   
@<TRIPOS>SUBSTRUCTURE
  1 ****   6 GROUP 4 **** **** 0

# MOE 2024.06 (io_trps.svl 2023.06)
