@<TRIPOS>MOLECULE
NONAME
32 34 1 0 0 
SMALL
USER_CHARGES


@<TRIPOS>ATOM
  1 S       -0.5760     0.5800     0.5430 S.3   1 <1>   0.4410 
  2 N       -1.5500    -0.7540     0.8810 N.2   1 <1>  -0.5100 
  3 N       -1.3080     1.0200    -0.9080 N.2   1 <1>  -0.5100 
  4 C       -2.3920    -0.8410    -0.0880 C.2   1 <1>   0.2030 
  5 C       -2.2350     0.1750    -1.0770 C.2   1 <1>   0.1390 
  6 C       -3.4560    -1.8280    -0.2470 C.2   1 <1>   0.7160 
  7 O       -4.4050    -1.5470    -0.9590 O.2   1 <1>  -0.5700 
  8 N       -3.4550    -3.0750     0.3560 N.am  1 <1>  -0.6600 
  9 C       -4.6910    -3.9230     0.4300 C.3   1 <1>   0.1400 
 10 C       -2.2350    -3.7660     0.8930 C.3   1 <1>   0.1400 
 11 C       -4.4730    -5.3010    -0.2140 C.3   1 <1>   0.2090 
 12 C       -2.0500    -5.1640     0.2740 C.3   1 <1>   0.2090 
 13 N       -3.2930    -5.9860     0.3840 N.pl3 1 <1>  -0.8380 
 14 C       -3.1850    -7.3390     0.1340 C.ar  1 <1>   0.4100 
 15 N       -2.3160    -7.7210    -0.7950 N.ar  1 <1>  -0.6200 
 16 C       -3.9860    -8.2310     0.8430 C.ar  1 <1>  -0.1500 
 17 C       -2.2480    -9.0230    -1.0200 C.ar  1 <1>   0.1600 
 18 C       -3.9060    -9.5810     0.5980 C.ar  1 <1>  -0.1500 
 19 C       -3.0040    -9.9800    -0.3680 C.ar  1 <1>  -0.1500 
 20 H       -2.8920     0.2040    -1.9300 H     1 <1>   0.1500 
 21 H       -5.5200    -3.4380    -0.0550 H     1 <1>   0.0800 
 22 H       -4.9550    -4.0630     1.4630 H     1 <1>   0.0800 
 23 H       -2.3280    -3.8650     1.9600 H     1 <1>   0.0800 
 24 H       -1.3470    -3.2010     0.6870 H     1 <1>   0.0800 
 25 H       -4.3170    -5.1810    -1.2730 H     1 <1>   0.0800 
 26 H       -5.3520    -5.9050    -0.0730 H     1 <1>   0.0800 
 27 H       -1.2430    -5.6720     0.7730 H     1 <1>   0.0800 
 28 H       -1.7830    -5.0610    -0.7640 H     1 <1>   0.0800 
 29 H       -4.6580    -7.8420     1.5830 H     1 <1>   0.1500 
 30 H       -1.5470    -9.3450    -1.7710 H     1 <1>   0.1500 
 31 H       -4.5120   -10.2920     1.1320 H     1 <1>   0.1500 
 32 H       -2.8880   -11.0210    -0.6110 H     1 <1>   0.1500 
@<TRIPOS>BOND
  1   1   2  1   
  2   1   3  1   
  3   2   4  2   
  4   3   5  2   
  5   4   5  1   
  6   4   6  1   
  7   5  20  1   
  8   6   7  2   
  9   6   8  am  
 10   8   9  1   
 11   8  10  1   
 12   9  11  1   
 13   9  21  1   
 14   9  22  1   
 15  10  12  1   
 16  10  23  1   
 17  10  24  1   
 18  11  13  1   
 19  11  25  1   
 20  11  26  1   
 21  12  13  1   
 22  12  27  1   
 23  12  28  1   
 24  13  14  1   
 25  14  15  ar  
 26  14  16  ar  
 27  15  17  ar  
 28  16  18  ar  
 29  16  29  1   
 30  17  19  ar  
 31  17  30  1   
 32  18  19  ar  
 33  18  31  1   
 34  19  32  1   
@<TRIPOS>SUBSTRUCTURE
  1 ****  12 GROUP 4 **** **** 0

# MOE 2024.06 (io_trps.svl 2023.06)
