@<TRIPOS>MOLECULE
NONAME
40 41 1 0 0 
SMALL
USER_CHARGES


@<TRIPOS>ATOM
  1 BR      -0.2850    -0.1640     1.5920 Br    1 <1>  -0.1110 
  2 C       -1.8740    -0.9700     0.8690 C.ar  1 <1>   0.1110 
  3 C       -2.2230    -0.6990    -0.4390 C.ar  1 <1>  -0.1500 
  4 C       -2.6260    -1.8020     1.6760 C.ar  1 <1>  -0.1500 
  5 C       -3.3700    -1.2800    -0.9540 C.ar  1 <1>  -0.1500 
  6 C       -3.7710    -2.3780     1.1520 C.ar  1 <1>  -0.1500 
  7 C       -4.1500    -2.1150    -0.1610 C.ar  1 <1>  -0.1430 
  8 C       -5.4130    -2.7360    -0.7290 C.3   1 <1>   0.4870 
  9 N       -6.5950    -2.0250    -0.1660 N.4   1 <1>  -0.9590 
 10 C       -7.8630    -2.7420    -0.5170 C.3   1 <1>   0.3430 
 11 C       -6.6220    -0.5910    -0.5860 C.3   1 <1>   0.3430 
 12 C       -9.0880    -2.0670     0.1120 C.3   1 <1>  -0.0190 
 13 C       -7.8060     0.1190     0.0740 C.3   1 <1>  -0.1600 
 14 C      -10.3350    -2.7990    -0.3520 C.2   1 <1>   0.6590 
 15 C       -9.1400    -0.5690    -0.2490 C.3   1 <1>  -0.1600 
 16 O      -10.2870    -3.6100    -1.2400 O.2   1 <1>  -0.5700 
 17 O      -11.4560    -2.4920     0.2790 O.3   1 <1>  -0.4300 
 18 C      -12.6840    -3.0950    -0.0600 C.3   1 <1>   0.1200 
 19 C      -13.7630    -2.5130     0.8480 C.3   1 <1>  -0.2400 
 20 H       -1.6050    -0.0500    -1.0360 H     1 <1>   0.1500 
 21 H       -2.3130    -1.9920     2.6880 H     1 <1>   0.1500 
 22 H       -3.6380    -1.0740    -1.9780 H     1 <1>   0.1500 
 23 H       -4.3510    -3.0340     1.7790 H     1 <1>   0.1500 
 24 H       -5.4450    -3.7790    -0.4600 H     1 <1>   0.0800 
 25 H       -5.4100    -2.6620    -1.8040 H     1 <1>   0.0800 
 26 H       -6.4780    -2.0310     0.8550 H     1 <1>   0.4500 
 27 H       -7.8170    -3.7670    -0.1830 H     1 <1>   0.0800 
 28 H       -7.9880    -2.7520    -1.5890 H     1 <1>   0.0800 
 29 H       -6.7160    -0.5250    -1.6580 H     1 <1>   0.0800 
 30 H       -5.7050    -0.1010    -0.2950 H     1 <1>   0.0800 
 31 H       -9.0320    -2.1760     1.1800 H     1 <1>   0.0800 
 32 H       -7.8400     1.1380    -0.2750 H     1 <1>   0.0800 
 33 H       -7.6540     0.1530     1.1390 H     1 <1>   0.0800 
 34 H       -9.9380    -0.0900     0.2950 H     1 <1>   0.0800 
 35 H       -9.3530    -0.4600    -1.3000 H     1 <1>   0.0800 
 36 H      -12.5950    -4.1590     0.0800 H     1 <1>   0.0800 
 37 H      -12.8970    -2.8840    -1.0950 H     1 <1>   0.0800 
 38 H      -13.5370    -2.7230     1.8780 H     1 <1>   0.0800 
 39 H      -14.7130    -2.9560     0.6110 H     1 <1>   0.0800 
 40 H      -13.8370    -1.4500     0.7040 H     1 <1>   0.0800 
@<TRIPOS>BOND
  1   1   2  1   
  2   2   3  ar  
  3   2   4  ar  
  4   3   5  ar  
  5   3  20  1   
  6   4   6  ar  
  7   4  21  1   
  8   5   7  ar  
  9   5  22  1   
 10   6   7  ar  
 11   6  23  1   
 12   7   8  1   
 13   8   9  1   
 14   8  24  1   
 15   8  25  1   
 16   9  10  1   
 17   9  11  1   
 18   9  26  1   
 19  10  12  1   
 20  10  27  1   
 21  10  28  1   
 22  11  13  1   
 23  11  29  1   
 24  11  30  1   
 25  12  14  1   
 26  12  15  1   
 27  12  31  1   
 28  13  15  1   
 29  13  32  1   
 30  13  33  1   
 31  14  16  2   
 32  14  17  1   
 33  15  34  1   
 34  15  35  1   
 35  17  18  1   
 36  18  19  1   
 37  18  36  1   
 38  18  37  1   
 39  19  38  1   
 40  19  39  1   
 41  19  40  1   
@<TRIPOS>SUBSTRUCTURE
  1 ****   9 GROUP 4 **** **** 0

# MOE 2024.06 (io_trps.svl 2023.06)
