@<TRIPOS>MOLECULE
NONAME
40 43 1 0 0 
SMALL
USER_CHARGES


@<TRIPOS>ATOM
  1 O       10.5220    -1.6520    -1.8910 O.2   1 <1>  -0.5700 
  2 C        9.6140    -2.2620    -1.3440 C.2   1 <1>   0.7160 
  3 N        9.7410    -3.6140    -1.2440 N.am  1 <1>  -0.4900 
  4 C        8.4160    -1.7060    -0.7980 C.2   1 <1>   0.1410 
  5 C        8.7850    -4.3910    -0.6630 C.2   1 <1>   0.5600 
  6 N        7.9340    -0.4300    -0.7100 N.2   1 <1>  -0.5650 
  7 C        7.5220    -2.5780    -0.2370 C.2   1 <1>  -0.0260 
  8 N        7.6850    -3.9340    -0.1600 N.2   1 <1>  -0.5760 
  9 N        9.0100    -5.7120    -0.6150 N.pl3 1 <1>  -0.8500 
 10 C        6.7980    -0.5660    -0.1120 C.2   1 <1>   0.0360 
 11 N        6.4780    -1.8510     0.2010 N.pl3 1 <1>   0.0480 
 12 C        5.2480    -2.3740     0.8400 C.3   1 <1>   0.4560 
 13 O        4.3840    -1.2870     1.0760 O.3   1 <1>  -0.5600 
 14 C        4.5140    -3.3480    -0.0910 C.3   1 <1>   0.2000 
 15 C        3.1450    -1.5000     0.4700 C.3   1 <1>   0.2000 
 16 O        3.8620    -4.3590     0.6000 O.3   1 <1>  -0.5600 
 17 C        3.3740    -2.5460    -0.6220 C.3   1 <1>   0.2000 
 18 C        2.5840    -0.1830    -0.0720 C.3   1 <1>   0.1200 
 19 C        2.6540    -4.6070    -0.0340 C.3   1 <1>   0.5600 
 20 O        2.3030    -3.4240    -0.6730 O.3   1 <1>  -0.5600 
 21 O        1.3290    -0.4050    -0.6280 O.3   1 <1>  -0.6800 
 22 C        2.8270    -5.7100    -1.0690 C.3   1 <1>  -0.2400 
 23 C        1.6090    -4.9270     1.0200 C.3   1 <1>  -0.2400 
 24 H       10.5720    -4.0140    -1.6570 H     1 <1>   0.3700 
 25 H        8.3360    -6.2810    -0.1000 H     1 <1>   0.4000 
 26 H        9.9240    -6.1340    -0.7660 H     1 <1>   0.4000 
 27 H        6.1410     0.2520     0.1320 H     1 <1>   0.1500 
 28 H        5.4980    -2.8440     1.7740 H     1 <1>   0.0800 
 29 H        5.1330    -3.7830    -0.8550 H     1 <1>   0.0800 
 30 H        2.4950    -1.8900     1.2350 H     1 <1>   0.0800 
 31 H        3.5640    -2.1160    -1.5900 H     1 <1>   0.0800 
 32 H        3.2230     0.2160    -0.8400 H     1 <1>   0.0800 
 33 H        2.4700     0.5380     0.7190 H     1 <1>   0.0800 
 34 H        1.2740    -1.3000    -1.0310 H     1 <1>   0.4000 
 35 H        3.5550    -5.4310    -1.8070 H     1 <1>   0.0800 
 36 H        1.8880    -5.8970    -1.5570 H     1 <1>   0.0800 
 37 H        3.1430    -6.6150    -0.5840 H     1 <1>   0.0800 
 38 H        0.6540    -5.0800     0.5510 H     1 <1>   0.0800 
 39 H        1.5320    -4.1200     1.7240 H     1 <1>   0.0800 
 40 H        1.8820    -5.8260     1.5410 H     1 <1>   0.0800 
@<TRIPOS>BOND
  1   1   2  2   
  2   2   3  am  
  3   2   4  1   
  4   3   5  1   
  5   3  24  1   
  6   4   6  1   
  7   4   7  2   
  8   5   8  2   
  9   5   9  1   
 10   6  10  2   
 11   7   8  1   
 12   7  11  1   
 13   9  25  1   
 14   9  26  1   
 15  10  11  1   
 16  10  27  1   
 17  11  12  1   
 18  12  13  1   
 19  12  14  1   
 20  12  28  1   
 21  13  15  1   
 22  14  16  1   
 23  14  17  1   
 24  14  29  1   
 25  15  17  1   
 26  15  18  1   
 27  15  30  1   
 28  16  19  1   
 29  17  20  1   
 30  17  31  1   
 31  18  21  1   
 32  18  32  1   
 33  18  33  1   
 34  19  20  1   
 35  19  22  1   
 36  19  23  1   
 37  21  34  1   
 38  22  35  1   
 39  22  36  1   
 40  22  37  1   
 41  23  38  1   
 42  23  39  1   
 43  23  40  1   
@<TRIPOS>SUBSTRUCTURE
  1 ****  12 GROUP 4 **** **** 0

# MOE 2024.06 (io_trps.svl 2023.06)
