@<TRIPOS>MOLECULE
NONAME
50 51 1 0 0 
SMALL
USER_CHARGES


@<TRIPOS>ATOM
  1 O      -14.6380     5.1470    -1.3850 O.2   1 <1>  -0.5700 
  2 C      -14.6990     4.4180    -0.4300 C.2   1 <1>   0.6590 
  3 O      -15.8020     4.2610     0.2850 O.3   1 <1>  -0.4300 
  4 C      -13.4870     3.6090     0.0220 C.3   1 <1>  -0.0190 
  5 C      -16.9880     4.9510    -0.0350 C.3   1 <1>   0.1200 
  6 C      -12.2860     4.5280     0.3190 C.3   1 <1>  -0.1600 
  7 C      -13.1060     2.5560    -1.0360 C.3   1 <1>  -0.1600 
  8 C      -18.0580     4.5470     0.9740 C.3   1 <1>  -0.2400 
  9 C      -11.0230     3.7350     0.6480 C.3   1 <1>   0.3430 
 10 C      -11.8220     1.8130    -0.6710 C.3   1 <1>   0.3430 
 11 N      -10.7170     2.7950    -0.4720 N.4   1 <1>  -0.9590 
 12 C       -9.4180     2.0700    -0.2670 C.3   1 <1>   0.3430 
 13 C       -8.1990     2.9920    -0.3590 C.3   1 <1>   0.1200 
 14 O       -7.0630     2.1920    -0.1560 O.3   1 <1>  -0.3630 
 15 C       -5.8050     2.7100    -0.1510 C.ar  1 <1>   0.0820 
 16 C       -4.7390     1.8500     0.1240 C.ar  1 <1>  -0.1430 
 17 C       -5.5600     4.0570    -0.4130 C.ar  1 <1>  -0.1500 
 18 C       -3.4380     2.3480     0.1220 C.ar  1 <1>  -0.1430 
 19 C       -4.9840     0.3690     0.4190 C.3   1 <1>  -0.0970 
 20 C       -4.2680     4.5420    -0.4040 C.ar  1 <1>  -0.1500 
 21 C       -3.2140     3.6900    -0.1390 C.ar  1 <1>  -0.1500 
 22 C       -2.2320     1.4580     0.3970 C.3   1 <1>  -0.0970 
 23 H      -13.7560     3.0980     0.9310 H     1 <1>   0.0800 
 24 H      -17.2810     4.6840    -1.0370 H     1 <1>   0.0800 
 25 H      -16.7930     6.0100     0.0120 H     1 <1>   0.0800 
 26 H      -12.5260     5.1680     1.1500 H     1 <1>   0.0800 
 27 H      -12.0910     5.1650    -0.5270 H     1 <1>   0.0800 
 28 H      -12.9820     3.0280    -1.9960 H     1 <1>   0.0800 
 29 H      -13.9080     1.8440    -1.1330 H     1 <1>   0.0800 
 30 H      -18.2380     3.4880     0.9220 H     1 <1>   0.0800 
 31 H      -18.9760     5.0610     0.7530 H     1 <1>   0.0800 
 32 H      -17.7500     4.8120     1.9700 H     1 <1>   0.0800 
 33 H      -11.1700     3.1810     1.5620 H     1 <1>   0.0800 
 34 H      -10.2040     4.4210     0.7970 H     1 <1>   0.0800 
 35 H      -11.5700     1.1270    -1.4650 H     1 <1>   0.0800 
 36 H      -11.9760     1.2450     0.2320 H     1 <1>   0.0800 
 37 H      -10.6500     3.3490    -1.3380 H     1 <1>   0.4500 
 38 H       -9.3130     1.3080    -1.0210 H     1 <1>   0.0800 
 39 H       -9.4200     1.5910     0.6990 H     1 <1>   0.0800 
 40 H       -8.2130     3.7430     0.4100 H     1 <1>   0.0800 
 41 H       -8.1240     3.4350    -1.3360 H     1 <1>   0.0800 
 42 H       -6.3490     4.7480    -0.6280 H     1 <1>   0.1500 
 43 H       -6.0110     0.1640     0.6550 H     1 <1>   0.0800 
 44 H       -4.3980     0.0520     1.2620 H     1 <1>   0.0800 
 45 H       -4.7090    -0.2200    -0.4370 H     1 <1>   0.0800 
 46 H       -4.0770     5.5820    -0.6050 H     1 <1>   0.1500 
 47 H       -2.2130     4.0830    -0.1380 H     1 <1>   0.1500 
 48 H       -2.2580     0.5900    -0.2370 H     1 <1>   0.0800 
 49 H       -2.2350     1.1450     1.4250 H     1 <1>   0.0800 
 50 H       -1.3130     1.9820     0.2060 H     1 <1>   0.0800 
@<TRIPOS>BOND
  1   1   2  2   
  2   2   3  1   
  3   2   4  1   
  4   3   5  1   
  5   4   6  1   
  6   4   7  1   
  7   4  23  1   
  8   5   8  1   
  9   5  24  1   
 10   5  25  1   
 11   6   9  1   
 12   6  26  1   
 13   6  27  1   
 14   7  10  1   
 15   7  28  1   
 16   7  29  1   
 17   8  30  1   
 18   8  31  1   
 19   8  32  1   
 20   9  11  1   
 21   9  33  1   
 22   9  34  1   
 23  10  11  1   
 24  10  35  1   
 25  10  36  1   
 26  11  12  1   
 27  11  37  1   
 28  12  13  1   
 29  12  38  1   
 30  12  39  1   
 31  13  14  1   
 32  13  40  1   
 33  13  41  1   
 34  14  15  1   
 35  15  16  ar  
 36  15  17  ar  
 37  16  18  ar  
 38  16  19  1   
 39  17  20  ar  
 40  17  42  1   
 41  18  21  ar  
 42  18  22  1   
 43  19  43  1   
 44  19  44  1   
 45  19  45  1   
 46  20  21  ar  
 47  20  46  1   
 48  21  47  1   
 49  22  48  1   
 50  22  49  1   
 51  22  50  1   
@<TRIPOS>SUBSTRUCTURE
  1 ****  12 GROUP 4 **** **** 0

# MOE 2024.06 (io_trps.svl 2023.06)
