@<TRIPOS>MOLECULE
NONAME
47 49 1 0 0 
SMALL
USER_CHARGES


@<TRIPOS>ATOM
  1 O        0.7220     0.0560    -0.7730 O.3   1 <1>  -0.5600 
  2 C        0.8630    -1.2550    -1.2300 C.3   1 <1>   0.1200 
  3 C        0.7260     0.1860     0.6210 C.3   1 <1>   0.1200 
  4 C        2.2350    -1.8250    -0.8070 C.3   1 <1>   0.1100 
  5 C        1.9130    -0.5690     1.2620 C.3   1 <1>   0.1100 
  6 N        2.8850    -0.9920     0.2340 N.3   1 <1>  -0.3020 
  7 N        4.1210    -1.5890     0.7920 N.4   1 <1>  -0.6410 
  8 C        5.3070    -1.2330    -0.0380 C.3   1 <1>   0.4230 
  9 C        6.5470    -1.9590     0.4890 C.3   1 <1>  -0.1600 
 10 C        5.5390     0.2850    -0.0330 C.3   1 <1>  -0.1600 
 11 C        7.7890    -1.5740    -0.3180 C.3   1 <1>   0.3430 
 12 C        6.7850     0.6560    -0.8370 C.3   1 <1>   0.3430 
 13 N        7.9630    -0.0900    -0.3140 N.4   1 <1>  -0.9590 
 14 C        9.2070     0.3020    -1.0480 C.3   1 <1>   0.4860 
 15 C       10.3910    -0.2840    -0.3080 C.ar  1 <1>  -0.1440 
 16 C       10.8070     0.2670     0.8970 C.ar  1 <1>  -0.1500 
 17 C       11.0640    -1.3840    -0.8250 C.ar  1 <1>  -0.1500 
 18 C       11.8700    -0.2900     1.5860 C.ar  1 <1>  -0.1500 
 19 C       12.1270    -1.9370    -0.1330 C.ar  1 <1>  -0.1500 
 20 C       12.5270    -1.3930     1.0730 C.ar  1 <1>  -0.1500 
 21 H        0.7710    -1.2440    -2.3030 H     1 <1>   0.0800 
 22 H        0.0570    -1.8450    -0.8280 H     1 <1>   0.0800 
 23 H       -0.2120    -0.1810     1.0020 H     1 <1>   0.0800 
 24 H        0.7880     1.2370     0.8430 H     1 <1>   0.0800 
 25 H        2.8680    -1.8670    -1.6750 H     1 <1>   0.0800 
 26 H        2.0920    -2.8290    -0.4490 H     1 <1>   0.0800 
 27 H        1.5370    -1.4300     1.7870 H     1 <1>   0.0800 
 28 H        2.3860     0.0790     1.9780 H     1 <1>   0.0800 
 29 H        4.0220    -2.6130     0.8630 H     1 <1>   0.4500 
 30 H        4.2660    -1.2460     1.7520 H     1 <1>   0.4500 
 31 H        5.1250    -1.5540    -1.0510 H     1 <1>   0.0800 
 32 H        6.4110    -3.0230     0.4040 H     1 <1>   0.0800 
 33 H        6.7200    -1.7230     1.5240 H     1 <1>   0.0800 
 34 H        5.6460     0.6530     0.9720 H     1 <1>   0.0800 
 35 H        4.6990     0.7860    -0.4840 H     1 <1>   0.0800 
 36 H        7.6920    -1.9270    -1.3330 H     1 <1>   0.0800 
 37 H        8.6570    -2.0480     0.1170 H     1 <1>   0.0800 
 38 H        6.9570     1.7190    -0.7640 H     1 <1>   0.0800 
 39 H        6.6310     0.4140    -1.8780 H     1 <1>   0.0800 
 40 H        8.1510     0.1990     0.6570 H     1 <1>   0.4500 
 41 H        9.3060     1.3750    -1.0760 H     1 <1>   0.0800 
 42 H        9.1840    -0.0670    -2.0610 H     1 <1>   0.0800 
 43 H       10.3230     1.1330     1.3150 H     1 <1>   0.1500 
 44 H       10.7790    -1.8220    -1.7670 H     1 <1>   0.1500 
 45 H       12.1950     0.1360     2.5210 H     1 <1>   0.1500 
 46 H       12.6500    -2.7900    -0.5330 H     1 <1>   0.1500 
 47 H       13.3560    -1.8240     1.6100 H     1 <1>   0.1500 
@<TRIPOS>BOND
  1   1   2  1   
  2   1   3  1   
  3   2   4  1   
  4   2  21  1   
  5   2  22  1   
  6   3   5  1   
  7   3  23  1   
  8   3  24  1   
  9   4   6  1   
 10   4  25  1   
 11   4  26  1   
 12   5   6  1   
 13   5  27  1   
 14   5  28  1   
 15   6   7  1   
 16   7   8  1   
 17   7  29  1   
 18   7  30  1   
 19   8   9  1   
 20   8  10  1   
 21   8  31  1   
 22   9  11  1   
 23   9  32  1   
 24   9  33  1   
 25  10  12  1   
 26  10  34  1   
 27  10  35  1   
 28  11  13  1   
 29  11  36  1   
 30  11  37  1   
 31  12  13  1   
 32  12  38  1   
 33  12  39  1   
 34  13  14  1   
 35  13  40  1   
 36  14  15  1   
 37  14  41  1   
 38  14  42  1   
 39  15  16  ar  
 40  15  17  ar  
 41  16  18  ar  
 42  16  43  1   
 43  17  19  ar  
 44  17  44  1   
 45  18  20  ar  
 46  18  45  1   
 47  19  20  ar  
 48  19  46  1   
 49  20  47  1   
@<TRIPOS>SUBSTRUCTURE
  1 ****   9 GROUP 4 **** **** 0

# MOE 2024.06 (io_trps.svl 2023.06)
