@<TRIPOS>MOLECULE
NONAME
44 45 1 0 0 
SMALL
USER_CHARGES


@<TRIPOS>ATOM
  1 O       -1.2730    -1.0910    -1.2970 O.2   1 <1>  -0.5700 
  2 C       -0.8510    -1.6440    -0.2980 C.2   1 <1>   0.6160 
  3 N        0.5050    -1.8940    -0.2010 N.am  1 <1>  -0.6600 
  4 C       -1.7840    -2.0340     0.7520 C.2   1 <1>   0.1230 
  5 C        1.4510    -1.6190    -1.3260 C.3   1 <1>   0.1400 
  6 C        1.1800    -2.4990     0.9860 C.3   1 <1>   0.1400 
  7 N       -1.9740    -3.4080     1.0180 N.am  1 <1>  -0.5390 
  8 C       -2.4880    -1.1470     1.5050 C.2   1 <1>  -0.1780 
  9 C        2.3160    -2.8560    -1.6200 C.3   1 <1>   0.1200 
 10 C        2.0380    -3.7010     0.5570 C.3   1 <1>   0.1200 
 11 C       -1.8030    -4.5190     0.2520 C.2   1 <1>   0.5690 
 12 C       -2.4620     0.2890     1.4960 C.ar  1 <1>   0.0280 
 13 O        2.9320    -3.3250    -0.4530 O.3   1 <1>  -0.5600 
 14 O       -1.8100    -5.5990     0.7800 O.2   1 <1>  -0.5700 
 15 C       -1.6290    -4.4470    -1.2470 C.3   1 <1>  -0.1790 
 16 C       -3.6370     0.9970     1.7530 C.ar  1 <1>  -0.1500 
 17 C       -1.3020     1.0300     1.2570 C.ar  1 <1>  -0.1500 
 18 C       -3.6650     2.3780     1.7450 C.ar  1 <1>  -0.1500 
 19 C       -1.3190     2.4110     1.2450 C.ar  1 <1>  -0.1500 
 20 C       -2.5040     3.0880     1.4750 C.ar  1 <1>   0.0820 
 21 O       -2.5070     4.4390     1.4390 O.3   1 <1>  -0.2320 
 22 C       -3.2930     5.1600     0.6450 C.2   1 <1>   0.6590 
 23 O       -3.6000     6.2820     0.9410 O.2   1 <1>  -0.5700 
 24 C       -3.7570     4.5590    -0.6670 C.3   1 <1>  -0.1790 
 25 H        0.9160    -1.3440    -2.2180 H     1 <1>   0.0800 
 26 H        2.0900    -0.7960    -1.0570 H     1 <1>   0.0800 
 27 H        1.8190    -1.7620     1.4420 H     1 <1>   0.0800 
 28 H        0.4690    -2.8170     1.7250 H     1 <1>   0.0800 
 29 H       -2.2790    -3.6510     1.9600 H     1 <1>   0.3700 
 30 H       -3.1930    -1.5440     2.2130 H     1 <1>   0.1500 
 31 H        3.0920    -2.6070    -2.3220 H     1 <1>   0.0800 
 32 H        1.7180    -3.6480    -2.0360 H     1 <1>   0.0800 
 33 H        1.4190    -4.5030     0.1930 H     1 <1>   0.0800 
 34 H        2.6160    -4.0620     1.3890 H     1 <1>   0.0800 
 35 H       -0.6090    -4.2190    -1.4880 H     1 <1>   0.0800 
 36 H       -2.2740    -3.6960    -1.6630 H     1 <1>   0.0800 
 37 H       -1.8820    -5.3950    -1.6840 H     1 <1>   0.0800 
 38 H       -4.5440     0.4550     1.9550 H     1 <1>   0.1500 
 39 H       -0.3700     0.5260     1.0800 H     1 <1>   0.1500 
 40 H       -4.5810     2.9030     1.9510 H     1 <1>   0.1500 
 41 H       -0.4170     2.9660     1.0570 H     1 <1>   0.1500 
 42 H       -2.9360     4.0750    -1.1610 H     1 <1>   0.0800 
 43 H       -4.1340     5.3380    -1.3030 H     1 <1>   0.0800 
 44 H       -4.5410     3.8470    -0.4920 H     1 <1>   0.0800 
@<TRIPOS>BOND
  1   1   2  2   
  2   2   3  am  
  3   2   4  1   
  4   3   5  1   
  5   3   6  1   
  6   4   7  1   
  7   4   8  2   
  8   5   9  1   
  9   5  25  1   
 10   5  26  1   
 11   6  10  1   
 12   6  27  1   
 13   6  28  1   
 14   7  11  am  
 15   7  29  1   
 16   8  12  1   
 17   8  30  1   
 18   9  13  1   
 19   9  31  1   
 20   9  32  1   
 21  10  13  1   
 22  10  33  1   
 23  10  34  1   
 24  11  14  2   
 25  11  15  1   
 26  12  16  ar  
 27  12  17  ar  
 28  15  35  1   
 29  15  36  1   
 30  15  37  1   
 31  16  18  ar  
 32  16  38  1   
 33  17  19  ar  
 34  17  39  1   
 35  18  20  ar  
 36  18  40  1   
 37  19  20  ar  
 38  19  41  1   
 39  20  21  1   
 40  21  22  1   
 41  22  23  2   
 42  22  24  1   
 43  24  42  1   
 44  24  43  1   
 45  24  44  1   
@<TRIPOS>SUBSTRUCTURE
  1 ****   2 GROUP 4 **** **** 0

# MOE 2024.06 (io_trps.svl 2023.06)
