@<TRIPOS>MOLECULE
NONAME
26 27 1 0 0 
SMALL
USER_CHARGES


@<TRIPOS>ATOM
  1 O       -0.2310    -0.2550    -0.4590 O.2   1 <1>  -0.5700 
  2 C       -0.2860    -1.4530    -0.3370 C.2   1 <1>   0.4240 
  3 C       -1.5010    -2.2300    -0.2190 C.ar  1 <1>   0.0860 
  4 C       -1.5080    -3.6310    -0.0660 C.ar  1 <1>  -0.1440 
  5 C       -2.7290    -1.5640    -0.2560 C.ar  1 <1>  -0.1500 
  6 C       -2.7210    -4.3050     0.0350 C.ar  1 <1>  -0.1500 
  7 C       -0.1770    -4.3960    -0.0130 C.3   1 <1>  -0.0160 
  8 C       -3.9250    -2.2400    -0.1480 C.ar  1 <1>   0.0830 
  9 C       -3.9240    -3.6250    -0.0120 C.ar  1 <1>   0.0830 
 10 C       -0.2730    -5.9150     0.1710 C.3   1 <1>  -0.2400 
 11 O       -5.0870    -1.5390    -0.1710 O.3   1 <1>  -0.3630 
 12 O       -5.0800    -4.3230     0.0710 O.3   1 <1>  -0.3630 
 13 C       -6.2490    -2.2120     0.2750 C.3   1 <1>   0.1200 
 14 C       -6.2750    -3.6470    -0.2700 C.3   1 <1>   0.1200 
 15 H        0.6490    -1.9780    -0.3170 H     1 <1>   0.0600 
 16 H       -2.7520    -0.4940    -0.3670 H     1 <1>   0.1500 
 17 H       -2.7760    -5.3710     0.1480 H     1 <1>   0.1500 
 18 H        0.4110    -4.0060     0.8000 H     1 <1>   0.0800 
 19 H        0.3620    -4.2110    -0.9270 H     1 <1>   0.0800 
 20 H       -0.7690    -6.1530     1.0960 H     1 <1>   0.0800 
 21 H        0.7130    -6.3430     0.1990 H     1 <1>   0.0800 
 22 H       -0.8100    -6.3620    -0.6470 H     1 <1>   0.0800 
 23 H       -7.1050    -1.6570    -0.0650 H     1 <1>   0.0800 
 24 H       -6.2380    -2.2200     1.3510 H     1 <1>   0.0800 
 25 H       -7.0990    -4.1990     0.1440 H     1 <1>   0.0800 
 26 H       -6.3590    -3.6370    -1.3420 H     1 <1>   0.0800 
@<TRIPOS>BOND
  1   1   2  2   
  2   2   3  1   
  3   2  15  1   
  4   3   4  ar  
  5   3   5  ar  
  6   4   6  ar  
  7   4   7  1   
  8   5   8  ar  
  9   5  16  1   
 10   6   9  ar  
 11   6  17  1   
 12   7  10  1   
 13   7  18  1   
 14   7  19  1   
 15   8   9  ar  
 16   8  11  1   
 17   9  12  1   
 18  10  20  1   
 19  10  21  1   
 20  10  22  1   
 21  11  13  1   
 22  12  14  1   
 23  13  14  1   
 24  13  23  1   
 25  13  24  1   
 26  14  25  1   
 27  14  26  1   
@<TRIPOS>SUBSTRUCTURE
  1 ****   9 GROUP 4 **** **** 0

# MOE 2024.06 (io_trps.svl 2023.06)
