@<TRIPOS>MOLECULE
NONAME
45 48 1 0 0 
SMALL
USER_CHARGES


@<TRIPOS>ATOM
  1 O        0.1470     0.2100    -0.9760 O.3   1 <1>  -0.5600 
  2 C        0.6860     1.1200    -0.0570 C.3   1 <1>   0.2800 
  3 C       -1.0980    -0.1770    -0.4350 C.3   1 <1>   0.5600 
  4 C       -0.4920     1.1960     0.9470 C.3   1 <1>   0.5600 
  5 C        1.0610     2.4560    -0.7370 C.3   1 <1>  -0.1600 
  6 C        1.9660     0.4660     0.5170 C.3   1 <1>  -0.1600 
  7 O       -0.8810    -0.1150     0.9140 O.3   1 <1>  -0.5600 
  8 C       -2.1300     0.9710    -0.5620 C.3   1 <1>   0.2800 
  9 C       -1.4550    -1.5900    -0.8780 C.3   1 <1>  -0.2400 
 10 O       -1.5930     1.8670     0.3720 O.3   1 <1>  -0.5600 
 11 C       -0.2630     1.6750     2.3730 C.3   1 <1>  -0.2400 
 12 C        2.1420     2.2810    -1.8140 C.3   1 <1>  -0.1600 
 13 C        3.0620     0.2890    -0.5470 C.3   1 <1>  -0.1600 
 14 C       -2.2350     1.6110    -1.9650 C.3   1 <1>  -0.1600 
 15 C       -3.5490     0.6070    -0.0630 C.3   1 <1>  -0.1600 
 16 C        3.3980     1.6220    -1.2290 C.3   1 <1>  -0.1600 
 17 C       -3.1750     2.8270    -1.9840 C.3   1 <1>  -0.1600 
 18 C       -4.5050     1.8120    -0.0820 C.3   1 <1>  -0.1600 
 19 C       -4.5720     2.4490    -1.4760 C.3   1 <1>  -0.1600 
 20 H        1.4350     3.1240     0.0190 H     1 <1>   0.0800 
 21 H        0.1980     2.9320    -1.1580 H     1 <1>   0.0800 
 22 H        1.7250    -0.4900     0.9470 H     1 <1>   0.0800 
 23 H        2.3530     1.0870     1.3040 H     1 <1>   0.0800 
 24 H       -0.6270    -2.2460    -0.6850 H     1 <1>   0.0800 
 25 H       -1.6730    -1.5920    -1.9290 H     1 <1>   0.0800 
 26 H       -2.3160    -1.9420    -0.3430 H     1 <1>   0.0800 
 27 H        0.4650     1.0560     2.8620 H     1 <1>   0.0800 
 28 H       -1.1870     1.6300     2.9190 H     1 <1>   0.0800 
 29 H        0.0930     2.6870     2.3600 H     1 <1>   0.0800 
 30 H        2.3970     3.2390    -2.2310 H     1 <1>   0.0800 
 31 H        1.7540     1.6660    -2.6090 H     1 <1>   0.0800 
 32 H        2.7220    -0.4130    -1.2900 H     1 <1>   0.0800 
 33 H        3.9470    -0.1190    -0.0910 H     1 <1>   0.0800 
 34 H       -2.6200     0.8710    -2.6440 H     1 <1>   0.0800 
 35 H       -1.2690     1.8880    -2.3380 H     1 <1>   0.0800 
 36 H       -3.4930     0.2090     0.9350 H     1 <1>   0.0800 
 37 H       -3.9570    -0.1600    -0.6960 H     1 <1>   0.0800 
 38 H        3.8490     2.2860    -0.5120 H     1 <1>   0.0800 
 39 H        4.1130     1.4520    -2.0150 H     1 <1>   0.0800 
 40 H       -3.2460     3.2150    -2.9860 H     1 <1>   0.0800 
 41 H       -2.7640     3.6010    -1.3580 H     1 <1>   0.0800 
 42 H       -4.1610     2.5470     0.6270 H     1 <1>   0.0800 
 43 H       -5.4890     1.4990     0.2220 H     1 <1>   0.0800 
 44 H       -5.0270     1.7560    -2.1630 H     1 <1>   0.0800 
 45 H       -5.1900     3.3300    -1.4390 H     1 <1>   0.0800 
@<TRIPOS>BOND
  1   1   2  1   
  2   1   3  1   
  3   2   4  1   
  4   2   5  1   
  5   2   6  1   
  6   3   7  1   
  7   3   8  1   
  8   3   9  1   
  9   4   7  1   
 10   4  10  1   
 11   4  11  1   
 12   5  12  1   
 13   5  20  1   
 14   5  21  1   
 15   6  13  1   
 16   6  22  1   
 17   6  23  1   
 18   8  10  1   
 19   8  14  1   
 20   8  15  1   
 21   9  24  1   
 22   9  25  1   
 23   9  26  1   
 24  11  27  1   
 25  11  28  1   
 26  11  29  1   
 27  12  16  1   
 28  12  30  1   
 29  12  31  1   
 30  13  16  1   
 31  13  32  1   
 32  13  33  1   
 33  14  17  1   
 34  14  34  1   
 35  14  35  1   
 36  15  18  1   
 37  15  36  1   
 38  15  37  1   
 39  16  38  1   
 40  16  39  1   
 41  17  19  1   
 42  17  40  1   
 43  17  41  1   
 44  18  19  1   
 45  18  42  1   
 46  18  43  1   
 47  19  44  1   
 48  19  45  1   
@<TRIPOS>SUBSTRUCTURE
  1 ****   3 GROUP 4 **** **** 0

# MOE 2024.06 (io_trps.svl 2023.06)
