@<TRIPOS>MOLECULE
NONAME
32 34 1 0 0 
SMALL
USER_CHARGES


@<TRIPOS>ATOM
  1 O        0.0650     0.2360     0.6360 O.2   1 <1>  -0.5700 
  2 C       -0.0670     1.4190     0.3840 C.2   1 <1>   0.6900 
  3 N        1.0300     2.2350     0.3170 N.am  1 <1>  -0.6600 
  4 N       -1.3010     1.9710     0.1870 N.am  1 <1>  -0.5470 
  5 C        2.4040     1.7130     0.4910 C.3   1 <1>   0.1400 
  6 C        1.0510     3.6260    -0.1860 C.3   1 <1>   0.1400 
  7 C       -2.5730     1.3990     0.0760 C.ar  1 <1>   0.1170 
  8 C        3.2990     2.7390    -0.1940 C.3   1 <1>  -0.1600 
  9 C        2.5160     4.0460    -0.1170 C.3   1 <1>  -0.1600 
 10 C       -3.6840     2.1690     0.3300 C.ar  1 <1>  -0.1500 
 11 C       -2.7650     0.0600    -0.3070 C.ar  1 <1>  -0.1500 
 12 C       -4.9840     1.6620     0.2250 C.ar  1 <1>   0.3100 
 13 C       -4.0250    -0.4670    -0.4170 C.ar  1 <1>  -0.1500 
 14 N       -6.0360     2.4830     0.4900 N.ar  1 <1>  -0.6200 
 15 C       -5.1650     0.3070    -0.1580 C.ar  1 <1>   0.3100 
 16 C       -7.1920     1.9090     0.3620 C.ar  1 <1>   0.1600 
 17 N       -6.3960    -0.2520    -0.2810 N.ar  1 <1>  -0.6200 
 18 C       -7.3690     0.5630    -0.0180 C.ar  1 <1>   0.1600 
 19 H       -1.2740     2.9830     0.2160 H     1 <1>   0.3700 
 20 H        2.5080     0.7360     0.0480 H     1 <1>   0.0800 
 21 H        2.6240     1.6560     1.5430 H     1 <1>   0.0800 
 22 H        0.4360     4.2670     0.4210 H     1 <1>   0.0800 
 23 H        0.7060     3.6380    -1.2070 H     1 <1>   0.0800 
 24 H        3.4340     2.4510    -1.2220 H     1 <1>   0.0800 
 25 H        4.2620     2.8070     0.2800 H     1 <1>   0.0800 
 26 H        2.6980     4.5240     0.8290 H     1 <1>   0.0800 
 27 H        2.7760     4.7260    -0.9090 H     1 <1>   0.0800 
 28 H       -3.5820     3.1960     0.6250 H     1 <1>   0.1500 
 29 H       -1.9090    -0.5550    -0.5180 H     1 <1>   0.1500 
 30 H       -4.1720    -1.4910    -0.7070 H     1 <1>   0.1500 
 31 H       -8.0760     2.4920     0.5550 H     1 <1>   0.1500 
 32 H       -8.3780     0.1950    -0.0920 H     1 <1>   0.1500 
@<TRIPOS>BOND
  1   1   2  2   
  2   2   3  am  
  3   2   4  am  
  4   3   5  1   
  5   3   6  1   
  6   4   7  1   
  7   4  19  1   
  8   5   8  1   
  9   5  20  1   
 10   5  21  1   
 11   6   9  1   
 12   6  22  1   
 13   6  23  1   
 14   7  10  ar  
 15   7  11  ar  
 16   8   9  1   
 17   8  24  1   
 18   8  25  1   
 19   9  26  1   
 20   9  27  1   
 21  10  12  ar  
 22  10  28  1   
 23  11  13  ar  
 24  11  29  1   
 25  12  14  ar  
 26  12  15  ar  
 27  13  15  ar  
 28  13  30  1   
 29  14  16  ar  
 30  15  17  ar  
 31  16  18  ar  
 32  16  31  1   
 33  17  18  ar  
 34  18  32  1   
@<TRIPOS>SUBSTRUCTURE
  1 ****   7 GROUP 4 **** **** 0

# MOE 2024.06 (io_trps.svl 2023.06)
