@<TRIPOS>MOLECULE
NONAME
34 35 1 0 0 
SMALL
USER_CHARGES


@<TRIPOS>ATOM
  1 S        0.7650     0.8710    -0.4070 S.3   1 <1>  -0.3710 
  2 C       -0.5000     1.6620     0.5360 C.2   1 <1>   0.6510 
  3 C        0.9460    -0.5060     0.7700 C.3   1 <1>   0.0700 
  4 N       -0.7970     1.0700     1.6090 N.2   1 <1>  -0.6960 
  5 N       -1.0600     2.8350     0.1070 N.am  1 <1>  -0.4900 
  6 C       -0.0600    -0.1770     1.8860 C.3   1 <1>   0.0860 
  7 C       -1.0290     3.5100    -1.0780 C.2   1 <1>   0.5690 
  8 O       -0.4700     3.0980    -2.0660 O.2   1 <1>  -0.5700 
  9 C       -1.7720     4.8660    -1.1300 C.3   1 <1>   0.2810 
 10 N       -3.2250     4.7320    -0.8290 N.am  1 <1>  -0.7300 
 11 C       -1.6570     5.5980    -2.4720 C.3   1 <1>  -0.2400 
 12 C       -3.7530     4.5950     0.4210 C.2   1 <1>   0.5440 
 13 O       -2.9730     4.5090     1.3500 O.2   1 <1>  -0.5700 
 14 C       -5.1900     4.5470     0.6340 C.ar  1 <1>   0.0860 
 15 C       -5.7450     4.9660     1.8440 C.ar  1 <1>  -0.1500 
 16 C       -6.0700     4.0860    -0.3480 C.ar  1 <1>  -0.1500 
 17 C       -7.1100     4.9400     2.0620 C.ar  1 <1>  -0.1500 
 18 C       -7.4370     4.0580    -0.1360 C.ar  1 <1>  -0.1500 
 19 C       -7.9600     4.4870     1.0700 C.ar  1 <1>  -0.1500 
 20 H        1.9620    -0.5160     1.1220 H     1 <1>   0.0800 
 21 H        0.7040    -1.4190     0.2570 H     1 <1>   0.0800 
 22 H       -1.6790     3.2440     0.8150 H     1 <1>   0.3700 
 23 H        0.4610    -0.0710     2.8220 H     1 <1>   0.0800 
 24 H       -0.7650    -0.9840     1.9850 H     1 <1>   0.0800 
 25 H       -1.3290     5.4930    -0.3750 H     1 <1>   0.0800 
 26 H       -3.8420     4.8100    -1.6380 H     1 <1>   0.3700 
 27 H       -2.0780     5.0030    -3.2630 H     1 <1>   0.0800 
 28 H       -0.6200     5.7680    -2.7000 H     1 <1>   0.0800 
 29 H       -2.1540     6.5500    -2.4270 H     1 <1>   0.0800 
 30 H       -5.0910     5.3160     2.6240 H     1 <1>   0.1500 
 31 H       -5.6860     3.7340    -1.2880 H     1 <1>   0.1500 
 32 H       -7.5120     5.2710     3.0050 H     1 <1>   0.1500 
 33 H       -8.0970     3.6990    -0.9080 H     1 <1>   0.1500 
 34 H       -9.0240     4.4670     1.2370 H     1 <1>   0.1500 
@<TRIPOS>BOND
  1   1   2  1   
  2   1   3  1   
  3   2   4  2   
  4   2   5  1   
  5   3   6  1   
  6   3  20  1   
  7   3  21  1   
  8   4   6  1   
  9   5   7  am  
 10   5  22  1   
 11   6  23  1   
 12   6  24  1   
 13   7   8  2   
 14   7   9  1   
 15   9  10  1   
 16   9  11  1   
 17   9  25  1   
 18  10  12  am  
 19  10  26  1   
 20  11  27  1   
 21  11  28  1   
 22  11  29  1   
 23  12  13  2   
 24  12  14  1   
 25  14  15  ar  
 26  14  16  ar  
 27  15  17  ar  
 28  15  30  1   
 29  16  18  ar  
 30  16  31  1   
 31  17  19  ar  
 32  17  32  1   
 33  18  19  ar  
 34  18  33  1   
 35  19  34  1   
@<TRIPOS>SUBSTRUCTURE
  1 ****  12 GROUP 4 **** **** 0

# MOE 2024.06 (io_trps.svl 2023.06)
