@<TRIPOS>MOLECULE
NONAME
38 39 1 0 0 
SMALL
USER_CHARGES


@<TRIPOS>ATOM
  1 CL       0.8460    -2.2220     0.8500 Cl    1 <1>  -0.1770 
  2 C        2.2550    -1.3220     0.3560 C.ar  1 <1>   0.1770 
  3 C        3.2920    -1.1390     1.2490 C.ar  1 <1>  -0.1500 
  4 C        2.3160    -0.8020    -0.9220 C.ar  1 <1>  -0.1500 
  5 C        4.4080    -0.4200     0.8510 C.ar  1 <1>  -0.1500 
  6 C        3.4370    -0.0850    -1.3070 C.ar  1 <1>  -0.1500 
  7 C        4.5000     0.1200    -0.4300 C.ar  1 <1>  -0.0090 
  8 S        5.9640     1.0730    -0.9300 S.o2  1 <1>   1.4470 
  9 O        5.7480     1.6640    -2.2320 O.2   1 <1>  -0.6500 
 10 O        7.1390     0.2690    -0.6820 O.2   1 <1>  -0.6500 
 11 N        6.0050     2.3520     0.1810 N.am  1 <1>  -0.8490 
 12 C        7.0260     3.3750    -0.1570 C.3   1 <1>   0.3370 
 13 C        4.7490     3.0930     0.2230 C.3   1 <1>   0.1960 
 14 C        8.5180     3.0650     0.1270 C.2   1 <1>   0.5690 
 15 C        6.5760     4.6120     0.6280 C.3   1 <1>  -0.1600 
 16 C        5.0880     4.4130     0.8960 C.3   1 <1>  -0.1600 
 17 O        9.3460     3.8860    -0.1960 O.2   1 <1>  -0.5700 
 18 N        8.8900     1.9020     0.7240 N.am  1 <1>  -0.7300 
 19 C       10.2870     1.4760     0.9680 C.3   1 <1>   0.1400 
 20 C       10.7730     0.6090    -0.1960 C.3   1 <1>   0.1200 
 21 O       12.1070     0.2800     0.0020 O.3   1 <1>  -0.6800 
 22 H        3.2250    -1.5550     2.2390 H     1 <1>   0.1500 
 23 H        1.4980    -0.9590    -1.6020 H     1 <1>   0.1500 
 24 H        5.2210    -0.2760     1.5430 H     1 <1>   0.1500 
 25 H        3.4870     0.3200    -2.3060 H     1 <1>   0.1500 
 26 H        6.9480     3.6110    -1.2060 H     1 <1>   0.0800 
 27 H        3.9940     2.5570     0.7740 H     1 <1>   0.0800 
 28 H        4.3940     3.2870    -0.7770 H     1 <1>   0.0800 
 29 H        6.7730     5.5050     0.0610 H     1 <1>   0.0800 
 30 H        7.1130     4.6730     1.5590 H     1 <1>   0.0800 
 31 H        4.9080     4.3370     1.9550 H     1 <1>   0.0800 
 32 H        4.4920     5.2150     0.4960 H     1 <1>   0.0800 
 33 H        8.1910     1.1470     0.7340 H     1 <1>   0.3700 
 34 H       10.3310     0.9160     1.8850 H     1 <1>   0.0800 
 35 H       10.9130     2.3480     1.0580 H     1 <1>   0.0800 
 36 H       10.6900     1.1390    -1.1290 H     1 <1>   0.0800 
 37 H       10.2080    -0.3060    -0.2450 H     1 <1>   0.0800 
 38 H       12.6700     1.0720    -0.0990 H     1 <1>   0.4000 
@<TRIPOS>BOND
  1   1   2  1   
  2   2   3  ar  
  3   2   4  ar  
  4   3   5  ar  
  5   3  22  1   
  6   4   6  ar  
  7   4  23  1   
  8   5   7  ar  
  9   5  24  1   
 10   6   7  ar  
 11   6  25  1   
 12   7   8  1   
 13   8   9  2   
 14   8  10  2   
 15   8  11  am  
 16  11  12  1   
 17  11  13  1   
 18  12  14  1   
 19  12  15  1   
 20  12  26  1   
 21  13  16  1   
 22  13  27  1   
 23  13  28  1   
 24  14  17  2   
 25  14  18  am  
 26  15  16  1   
 27  15  29  1   
 28  15  30  1   
 29  16  31  1   
 30  16  32  1   
 31  18  19  1   
 32  18  33  1   
 33  19  20  1   
 34  19  34  1   
 35  19  35  1   
 36  20  21  1   
 37  20  36  1   
 38  20  37  1   
 39  21  38  1   
@<TRIPOS>SUBSTRUCTURE
  1 ****   8 GROUP 4 **** **** 0

# MOE 2024.06 (io_trps.svl 2023.06)
