@<TRIPOS>MOLECULE
NONAME
32 33 1 0 0 
SMALL
USER_CHARGES


@<TRIPOS>ATOM
  1 O        0.5030    -0.1860    -0.2990 O.3   1 <1>  -0.3630 
  2 C       -0.7170    -0.7770    -0.2440 C.ar  1 <1>   0.0820 
  3 C        1.6780    -0.9120    -0.0230 C.3   1 <1>   0.1200 
  4 C       -0.9200    -2.1150     0.0790 C.ar  1 <1>  -0.1500 
  5 C       -1.8090     0.0230    -0.5310 C.ar  1 <1>  -0.1500 
  6 C        2.8630     0.0370    -0.1700 C.3   1 <1>   0.0960 
  7 C       -2.2010    -2.6480     0.1150 C.ar  1 <1>  -0.1440 
  8 C       -3.0870    -0.5020    -0.4970 C.ar  1 <1>  -0.1500 
  9 N        4.1130    -0.6820     0.1290 N.pl3 1 <1>   0.0480 
 10 C       -3.2930    -1.8360    -0.1750 C.ar  1 <1>  -0.1430 
 11 C       -2.3820    -4.1170     0.4720 C.3   1 <1>  -0.0960 
 12 C        4.7640    -0.7570     1.3120 C.2   1 <1>   0.0360 
 13 C        4.8470    -1.4320    -0.7120 C.2   1 <1>  -0.3020 
 14 C       -4.7160    -2.3750    -0.1490 C.3   1 <1>  -0.0970 
 15 N        5.8320    -1.4860     1.2790 N.2   1 <1>  -0.5650 
 16 C        5.8880    -1.9110     0.0030 C.2   1 <1>   0.0770 
 17 H        1.7490    -1.7210    -0.7300 H     1 <1>   0.0800 
 18 H        1.6140    -1.2880     0.9830 H     1 <1>   0.0800 
 19 H       -0.0900    -2.7550     0.3060 H     1 <1>   0.1500 
 20 H       -1.6530     1.0560    -0.7800 H     1 <1>   0.1500 
 21 H        2.7620     0.8590     0.5150 H     1 <1>   0.0800 
 22 H        2.9120     0.4120    -1.1760 H     1 <1>   0.0800 
 23 H       -3.9210     0.1370    -0.7230 H     1 <1>   0.1500 
 24 H       -1.4370    -4.5890     0.6680 H     1 <1>   0.0800 
 25 H       -2.8560    -4.6370    -0.3400 H     1 <1>   0.0800 
 26 H       -2.9930    -4.2090     1.3520 H     1 <1>   0.0800 
 27 H        4.4090    -0.2510     2.1920 H     1 <1>   0.1500 
 28 H        4.6010    -1.5820    -1.7480 H     1 <1>   0.1500 
 29 H       -4.8200    -3.1750    -0.8600 H     1 <1>   0.0800 
 30 H       -5.4250    -1.6070    -0.4000 H     1 <1>   0.0800 
 31 H       -4.9520    -2.7430     0.8330 H     1 <1>   0.0800 
 32 H        6.6870    -2.5490    -0.3360 H     1 <1>   0.1500 
@<TRIPOS>BOND
  1   1   2  1   
  2   1   3  1   
  3   2   4  ar  
  4   2   5  ar  
  5   3   6  1   
  6   3  17  1   
  7   3  18  1   
  8   4   7  ar  
  9   4  19  1   
 10   5   8  ar  
 11   5  20  1   
 12   6   9  1   
 13   6  21  1   
 14   6  22  1   
 15   7  10  ar  
 16   7  11  1   
 17   8  10  ar  
 18   8  23  1   
 19   9  12  1   
 20   9  13  1   
 21  10  14  1   
 22  11  24  1   
 23  11  25  1   
 24  11  26  1   
 25  12  15  2   
 26  12  27  1   
 27  13  16  2   
 28  13  28  1   
 29  14  29  1   
 30  14  30  1   
 31  14  31  1   
 32  15  16  1   
 33  16  32  1   
@<TRIPOS>SUBSTRUCTURE
  1 ****   3 GROUP 4 **** **** 0

# MOE 2024.06 (io_trps.svl 2023.06)
