@<TRIPOS>MOLECULE
NONAME
40 40 1 0 0 
SMALL
USER_CHARGES


@<TRIPOS>ATOM
  1 S       -0.3570     0.2150     1.4990 S.o2  1 <1>   1.4470 
  2 O       -0.5550     0.3250     2.9280 O.2   1 <1>  -0.6500 
  3 O       -0.5330    -1.0710     0.8590 O.2   1 <1>  -0.6500 
  4 N       -1.4870     1.2570     0.7840 N.am  1 <1>  -0.8490 
  5 C        1.2520     0.9030     1.0190 C.ar  1 <1>  -0.0090 
  6 C       -2.8550     0.6930     0.9460 C.3   1 <1>   0.2570 
  7 C       -1.4290     2.6280     1.3110 C.3   1 <1>   0.1960 
  8 C        2.0310     1.6190     1.9220 C.ar  1 <1>  -0.1500 
  9 C        1.7330     0.7540    -0.2770 C.ar  1 <1>  -0.1500 
 10 C       -3.9310     1.3820     0.0980 C.2   1 <1>   0.5690 
 11 C       -0.8350     3.5420     0.2440 C.3   1 <1>  -0.2400 
 12 C        3.2430     2.1690     1.5420 C.ar  1 <1>  -0.1500 
 13 C        2.9450     1.2990    -0.6670 C.ar  1 <1>  -0.1500 
 14 O       -5.0110     1.6100     0.5890 O.2   1 <1>  -0.5700 
 15 N       -3.6320     1.7250    -1.1850 N.am  1 <1>  -0.7300 
 16 C        3.7090     2.0160     0.2480 C.ar  1 <1>   0.0820 
 17 C       -4.5460     2.3880    -2.1460 C.3   1 <1>   0.0600 
 18 O        4.9020     2.5870    -0.0430 O.3   1 <1>  -0.3620 
 19 C        5.4840     2.4680    -1.3200 C.3   1 <1>   0.1200 
 20 C        6.8160     3.2110    -1.3040 C.3   1 <1>  -0.2400 
 21 H       -3.1470     0.7380     1.9820 H     1 <1>   0.0800 
 22 H       -2.8580    -0.3420     0.6550 H     1 <1>   0.0800 
 23 H       -0.8340     2.6810     2.2080 H     1 <1>   0.0800 
 24 H       -2.4140     2.9910     1.5600 H     1 <1>   0.0800 
 25 H        1.6880     1.7480     2.9350 H     1 <1>   0.1500 
 26 H        1.1460     0.2000    -0.9920 H     1 <1>   0.1500 
 27 H        0.1660     3.2440    -0.0070 H     1 <1>   0.0800 
 28 H       -0.8020     4.5500     0.6140 H     1 <1>   0.0800 
 29 H       -1.4440     3.5270    -0.6410 H     1 <1>   0.0800 
 30 H        3.8370     2.7210     2.2490 H     1 <1>   0.1500 
 31 H        3.2740     1.1560    -1.6790 H     1 <1>   0.1500 
 32 H       -2.6690     1.5620    -1.4950 H     1 <1>   0.3700 
 33 H       -5.5200     2.5190    -1.7050 H     1 <1>   0.0800 
 34 H       -4.6450     1.7830    -3.0300 H     1 <1>   0.0800 
 35 H       -4.1540     3.3520    -2.4160 H     1 <1>   0.0800 
 36 H        4.8150     2.9030    -2.0420 H     1 <1>   0.0800 
 37 H        5.6340     1.4220    -1.5310 H     1 <1>   0.0800 
 38 H        6.6570     4.2500    -1.0770 H     1 <1>   0.0800 
 39 H        7.2870     3.1380    -2.2680 H     1 <1>   0.0800 
 40 H        7.4710     2.7790    -0.5690 H     1 <1>   0.0800 
@<TRIPOS>BOND
  1   1   2  2   
  2   1   3  2   
  3   1   4  am  
  4   1   5  1   
  5   4   6  1   
  6   4   7  1   
  7   5   8  ar  
  8   5   9  ar  
  9   6  10  1   
 10   6  21  1   
 11   6  22  1   
 12   7  11  1   
 13   7  23  1   
 14   7  24  1   
 15   8  12  ar  
 16   8  25  1   
 17   9  13  ar  
 18   9  26  1   
 19  10  14  2   
 20  10  15  am  
 21  11  27  1   
 22  11  28  1   
 23  11  29  1   
 24  12  16  ar  
 25  12  30  1   
 26  13  16  ar  
 27  13  31  1   
 28  15  17  1   
 29  15  32  1   
 30  16  18  1   
 31  17  33  1   
 32  17  34  1   
 33  17  35  1   
 34  18  19  1   
 35  19  20  1   
 36  19  36  1   
 37  19  37  1   
 38  20  38  1   
 39  20  39  1   
 40  20  40  1   
@<TRIPOS>SUBSTRUCTURE
  1 ****   5 GROUP 4 **** **** 0

# MOE 2024.06 (io_trps.svl 2023.06)
