@<TRIPOS>MOLECULE
NONAME
37 38 1 0 0 
SMALL
USER_CHARGES


@<TRIPOS>ATOM
  1 O       -1.8140     2.7630     2.9260 O.2   1 <1>  -0.5700 
  2 C       -1.9150     2.4070     1.7750 C.2   1 <1>   0.5690 
  3 N       -1.0350     2.6800     0.7890 N.am  1 <1>  -0.6600 
  4 C       -3.0620     1.5890     1.2520 C.3   1 <1>  -0.0990 
  5 C       -1.4380     2.1030    -0.5080 C.3   1 <1>   0.1400 
  6 C        0.1890     3.4920     0.9240 C.3   1 <1>   0.2840 
  7 C       -2.5750     1.1400    -0.1430 C.3   1 <1>  -0.1860 
  8 C        1.4180     2.6360     0.6590 C.ar  1 <1>  -0.1440 
  9 C       -3.6560     1.0910    -1.2040 C.2   1 <1>   0.9060 
 10 C        1.8000     1.6730     1.5790 C.ar  1 <1>  -0.1500 
 11 C        2.1670     2.8020    -0.4940 C.ar  1 <1>  -0.1500 
 12 O       -4.7890     0.7270    -0.8780 O.co2 1 <1>  -0.9000 
 13 O       -3.3680     1.4000    -2.3650 O.co2 1 <1>  -0.9000 
 14 C        2.9190     0.8910     1.3530 C.ar  1 <1>  -0.1500 
 15 C        3.2870     2.0190    -0.7200 C.ar  1 <1>  -0.1500 
 16 C        3.6760     1.0570     0.2020 C.ar  1 <1>  -0.1430 
 17 C        4.9070     0.1840    -0.0330 C.3   1 <1>   0.0630 
 18 C        6.1750     1.0380    -0.1220 C.3   1 <1>  -0.2400 
 19 C        4.7370    -0.6730    -1.2910 C.3   1 <1>  -0.2400 
 20 H       -3.9320     2.2160     1.1750 H     1 <1>   0.0800 
 21 H       -3.2710     0.7500     1.8880 H     1 <1>   0.0800 
 22 H       -0.6240     1.5780    -0.9780 H     1 <1>   0.0800 
 23 H       -1.7870     2.8900    -1.1570 H     1 <1>   0.0800 
 24 H        0.2430     3.8970     1.9200 H     1 <1>   0.0800 
 25 H        0.1440     4.3120     0.2310 H     1 <1>   0.0800 
 26 H       -2.1640     0.1530    -0.0680 H     1 <1>   0.0800 
 27 H        1.2150     1.5310     2.4730 H     1 <1>   0.1500 
 28 H        1.8800     3.5380    -1.2240 H     1 <1>   0.1500 
 29 H        3.1930     0.1510     2.0820 H     1 <1>   0.1500 
 30 H        3.8530     2.1630    -1.6220 H     1 <1>   0.1500 
 31 H        5.0200    -0.4840     0.8050 H     1 <1>   0.0800 
 32 H        6.1380     1.6910    -0.9750 H     1 <1>   0.0800 
 33 H        7.0430     0.4090    -0.2080 H     1 <1>   0.0800 
 34 H        6.2730     1.6380     0.7650 H     1 <1>   0.0800 
 35 H        4.6700    -0.0560    -2.1690 H     1 <1>   0.0800 
 36 H        3.8360    -1.2560    -1.2150 H     1 <1>   0.0800 
 37 H        5.5710    -1.3420    -1.4030 H     1 <1>   0.0800 
@<TRIPOS>BOND
  1   1   2  2   
  2   2   3  am  
  3   2   4  1   
  4   3   5  1   
  5   3   6  1   
  6   4   7  1   
  7   4  20  1   
  8   4  21  1   
  9   5   7  1   
 10   5  22  1   
 11   5  23  1   
 12   6   8  1   
 13   6  24  1   
 14   6  25  1   
 15   7   9  1   
 16   7  26  1   
 17   8  10  ar  
 18   8  11  ar  
 19   9  12  ar  
 20   9  13  ar  
 21  10  14  ar  
 22  10  27  1   
 23  11  15  ar  
 24  11  28  1   
 25  14  16  ar  
 26  14  29  1   
 27  15  16  ar  
 28  15  30  1   
 29  16  17  1   
 30  17  18  1   
 31  17  19  1   
 32  17  31  1   
 33  18  32  1   
 34  18  33  1   
 35  18  34  1   
 36  19  35  1   
 37  19  36  1   
 38  19  37  1   
@<TRIPOS>SUBSTRUCTURE
  1 ****   8 GROUP 4 **** **** 0

# MOE 2024.06 (io_trps.svl 2023.06)
