@<TRIPOS>MOLECULE
NONAME
35 36 1 0 0 
SMALL
USER_CHARGES


@<TRIPOS>ATOM
  1 S        0.2750     3.6860    -1.6960 S.3   1 <1>  -0.0800 
  2 C        1.3110     2.6200    -0.8250 C.2   1 <1>   0.4340 
  3 C       -0.9640     2.5030    -1.4360 C.2   1 <1>   0.1980 
  4 S        3.0010     3.1340    -0.5940 S.3   1 <1>  -0.2860 
  5 N        0.7580     1.5490    -0.4210 N.2   1 <1>  -0.3380 
  6 N       -0.5640     1.4870    -0.7790 N.2   1 <1>  -0.3380 
  7 C       -2.3410     2.7850    -1.9930 C.3   1 <1>  -0.0600 
  8 C        3.7330     1.7110     0.3520 C.3   1 <1>   0.1310 
  9 C        5.1930     1.9630     0.6970 C.2   1 <1>   0.5690 
 10 O        5.9130     1.0140     0.8910 O.2   1 <1>  -0.5700 
 11 N        5.6600     3.2320     0.7900 N.am  1 <1>  -0.7300 
 12 C        7.0630     3.5950     1.0400 C.3   1 <1>   0.2840 
 13 C        7.2970     4.9780     0.4590 C.ar  1 <1>  -0.1440 
 14 C        7.3470     6.0910     1.2850 C.ar  1 <1>  -0.1500 
 15 C        7.4540     5.1390    -0.9100 C.ar  1 <1>  -0.1500 
 16 C        7.5550     7.3480     0.7460 C.ar  1 <1>  -0.1500 
 17 C        7.6620     6.3960    -1.4510 C.ar  1 <1>  -0.1500 
 18 C        7.7130     7.5120    -0.6200 C.ar  1 <1>   0.0820 
 19 O        7.9100     8.7780    -1.0650 O.3   1 <1>  -0.3630 
 20 C        8.0770     9.0540    -2.4380 C.3   1 <1>   0.0400 
 21 H       -2.2880     2.8940    -3.0610 H     1 <1>   0.0800 
 22 H       -2.7320     3.6890    -1.5630 H     1 <1>   0.0800 
 23 H       -3.0040     1.9720    -1.7580 H     1 <1>   0.0800 
 24 H        3.6400     0.8370    -0.2650 H     1 <1>   0.0800 
 25 H        3.1540     1.5880     1.2480 H     1 <1>   0.0800 
 26 H        5.0560     4.0200     0.5430 H     1 <1>   0.3700 
 27 H        7.7170     2.8770     0.5730 H     1 <1>   0.0800 
 28 H        7.2510     3.5910     2.0990 H     1 <1>   0.0800 
 29 H        7.2240     5.9860     2.3490 H     1 <1>   0.1500 
 30 H        7.4130     4.2810    -1.5590 H     1 <1>   0.1500 
 31 H        7.5950     8.2140     1.3830 H     1 <1>   0.1500 
 32 H        7.7800     6.4860    -2.5130 H     1 <1>   0.1500 
 33 H        8.2160    10.1140    -2.5510 H     1 <1>   0.0800 
 34 H        7.1940     8.7420    -2.9670 H     1 <1>   0.0800 
 35 H        8.9460     8.5310    -2.7950 H     1 <1>   0.0800 
@<TRIPOS>BOND
  1   1   2  1   
  2   1   3  1   
  3   2   4  1   
  4   2   5  2   
  5   3   6  2   
  6   3   7  1   
  7   4   8  1   
  8   5   6  1   
  9   7  21  1   
 10   7  22  1   
 11   7  23  1   
 12   8   9  1   
 13   8  24  1   
 14   8  25  1   
 15   9  10  2   
 16   9  11  am  
 17  11  12  1   
 18  11  26  1   
 19  12  13  1   
 20  12  27  1   
 21  12  28  1   
 22  13  14  ar  
 23  13  15  ar  
 24  14  16  ar  
 25  14  29  1   
 26  15  17  ar  
 27  15  30  1   
 28  16  18  ar  
 29  16  31  1   
 30  17  18  ar  
 31  17  32  1   
 32  18  19  1   
 33  19  20  1   
 34  20  33  1   
 35  20  34  1   
 36  20  35  1   
@<TRIPOS>SUBSTRUCTURE
  1 ****   4 GROUP 4 **** **** 0

# MOE 2024.06 (io_trps.svl 2023.06)
