@<TRIPOS>MOLECULE
NONAME
50 51 1 0 0 
SMALL
USER_CHARGES


@<TRIPOS>ATOM
  1 O        0.5300    -0.4680     0.2680 O.3   1 <1>  -0.5600 
  2 C       -0.2150    -0.4350     1.4450 C.3   1 <1>   0.1200 
  3 C        1.8050    -1.0040     0.4180 C.3   1 <1>   0.1200 
  4 C       -1.5580     0.2310     1.1490 C.3   1 <1>   0.1200 
  5 C        2.5170    -0.9090    -0.9340 C.3   1 <1>   0.1100 
  6 O       -2.3540     0.1890     2.2870 O.3   1 <1>  -0.6800 
  7 N        3.8960    -1.4420    -0.8710 N.3   1 <1>  -0.8100 
  8 C        3.9240    -2.9270    -0.8340 C.3   1 <1>   0.1100 
  9 C        4.6970    -0.9470    -2.0170 C.3   1 <1>   0.1100 
 10 C        5.3650    -3.4970    -0.8540 C.3   1 <1>   0.3430 
 11 C        6.1580    -1.4580    -1.9840 C.3   1 <1>   0.3430 
 12 N        6.3780    -2.3950    -0.8310 N.4   1 <1>  -0.9590 
 13 C        7.7780    -2.8780    -0.6740 C.3   1 <1>   0.3430 
 14 C        8.7500    -1.7360    -0.3300 C.3   1 <1>  -0.0800 
 15 C       10.1640    -2.3150    -0.1420 C.3   1 <1>  -0.1600 
 16 C        8.3200    -0.9550     0.9320 C.3   1 <1>  -0.1600 
 17 C       11.1790    -1.2210     0.2120 C.3   1 <1>  -0.1600 
 18 C        9.3380     0.1350     1.2910 C.3   1 <1>  -0.1600 
 19 C       10.7450    -0.4490     1.4630 C.3   1 <1>  -0.1600 
 20 H        0.3230     0.1370     2.1820 H     1 <1>   0.0800 
 21 H       -0.3620    -1.4460     1.7840 H     1 <1>   0.0800 
 22 H        1.7050    -2.0270     0.7340 H     1 <1>   0.0800 
 23 H        2.3370    -0.4300     1.1570 H     1 <1>   0.0800 
 24 H       -2.0750    -0.2790     0.3550 H     1 <1>   0.0800 
 25 H       -1.4110     1.2640     0.8870 H     1 <1>   0.0800 
 26 H        2.5490     0.1330    -1.2040 H     1 <1>   0.0800 
 27 H        1.9470    -1.4360    -1.6810 H     1 <1>   0.0800 
 28 H       -2.6610    -0.7210     2.4620 H     1 <1>   0.4000 
 29 H        3.3790    -3.3260    -1.6740 H     1 <1>   0.0800 
 30 H        3.4340    -3.2750     0.0590 H     1 <1>   0.0800 
 31 H        4.7100     0.1300    -2.0060 H     1 <1>   0.0800 
 32 H        4.2370    -1.2530    -2.9430 H     1 <1>   0.0800 
 33 H        5.4960    -4.0980    -1.7390 H     1 <1>   0.0800 
 34 H        5.4990    -4.1390     0.0010 H     1 <1>   0.0800 
 35 H        6.8160    -0.6090    -1.8960 H     1 <1>   0.0800 
 36 H        6.3840    -1.9540    -2.9130 H     1 <1>   0.0800 
 37 H        6.1140    -1.8330    -0.0060 H     1 <1>   0.4500 
 38 H        8.1010    -3.3630    -1.5810 H     1 <1>   0.0800 
 39 H        7.8160    -3.6040     0.1220 H     1 <1>   0.0800 
 40 H        8.7940    -1.0540    -1.1610 H     1 <1>   0.0800 
 41 H       10.4860    -2.8060    -1.0450 H     1 <1>   0.0800 
 42 H       10.1580    -3.0480     0.6470 H     1 <1>   0.0800 
 43 H        8.2300    -1.6320     1.7650 H     1 <1>   0.0800 
 44 H        7.3660    -0.4820     0.7830 H     1 <1>   0.0800 
 45 H       11.2770    -0.5360    -0.6130 H     1 <1>   0.0800 
 46 H       12.1450    -1.6650     0.3840 H     1 <1>   0.0800 
 47 H        9.0410     0.6220     2.2050 H     1 <1>   0.0800 
 48 H        9.3570     0.8820     0.5150 H     1 <1>   0.0800 
 49 H       11.4440     0.3470     1.6560 H     1 <1>   0.0800 
 50 H       10.7580    -1.1090     2.3140 H     1 <1>   0.0800 
@<TRIPOS>BOND
  1   1   2  1   
  2   1   3  1   
  3   2   4  1   
  4   2  20  1   
  5   2  21  1   
  6   3   5  1   
  7   3  22  1   
  8   3  23  1   
  9   4   6  1   
 10   4  24  1   
 11   4  25  1   
 12   5   7  1   
 13   5  26  1   
 14   5  27  1   
 15   6  28  1   
 16   7   8  1   
 17   7   9  1   
 18   8  10  1   
 19   8  29  1   
 20   8  30  1   
 21   9  11  1   
 22   9  31  1   
 23   9  32  1   
 24  10  12  1   
 25  10  33  1   
 26  10  34  1   
 27  11  12  1   
 28  11  35  1   
 29  11  36  1   
 30  12  13  1   
 31  12  37  1   
 32  13  14  1   
 33  13  38  1   
 34  13  39  1   
 35  14  15  1   
 36  14  16  1   
 37  14  40  1   
 38  15  17  1   
 39  15  41  1   
 40  15  42  1   
 41  16  18  1   
 42  16  43  1   
 43  16  44  1   
 44  17  19  1   
 45  17  45  1   
 46  17  46  1   
 47  18  19  1   
 48  18  47  1   
 49  18  48  1   
 50  19  49  1   
 51  19  50  1   
@<TRIPOS>SUBSTRUCTURE
  1 ****   7 GROUP 4 **** **** 0

# MOE 2024.06 (io_trps.svl 2023.06)
