@<TRIPOS>MOLECULE
NONAME
31 31 1 0 0 
SMALL
USER_CHARGES


@<TRIPOS>ATOM
  1 S        0.4560     0.9810    -1.7570 S.3   1 <1>  -0.0800 
  2 C        1.5730     1.1810    -0.4560 C.2   1 <1>   0.4340 
  3 C       -0.7680     1.4590    -0.6210 C.2   1 <1>   0.4620 
  4 S        3.2940     0.8520    -0.8070 S.3   1 <1>  -0.2860 
  5 N        1.0550     1.5530     0.6430 N.2   1 <1>  -0.3380 
  6 N       -0.3020     1.7160     0.5500 N.2   1 <1>  -0.3380 
  7 N       -2.0630     1.5210    -1.0410 N.pl3 1 <1>  -0.8840 
  8 C        4.1030     1.1020     0.8460 C.3   1 <1>   0.1310 
  9 C        5.6190     1.0100     0.7260 C.2   1 <1>   0.5690 
 10 O        6.1360    -0.0120     1.1160 O.2   1 <1>  -0.5700 
 11 N        6.3680     2.0490     0.2310 N.am  1 <1>  -0.6600 
 12 C        7.8500     1.9640     0.1800 C.3   1 <1>   0.2780 
 13 C        5.8080     3.3230    -0.2840 C.3   1 <1>   0.2780 
 14 C        8.2850     1.8110    -1.2650 C.2   1 <1>  -0.2880 
 15 C        5.9700     4.3910     0.7800 C.2   1 <1>  -0.2880 
 16 C        9.0580     2.6680    -1.9400 C.2   1 <1>  -0.3000 
 17 C        6.6610     5.5260     0.6350 C.2   1 <1>  -0.3000 
 18 H       -2.8040     1.7800    -0.3850 H     1 <1>   0.4000 
 19 H       -2.3490     1.2730    -1.9890 H     1 <1>   0.4000 
 20 H        3.7330     0.3290     1.4940 H     1 <1>   0.0800 
 21 H        3.8000     2.0610     1.2200 H     1 <1>   0.0800 
 22 H        8.2060     1.1240     0.7520 H     1 <1>   0.0800 
 23 H        8.2750     2.8560     0.6070 H     1 <1>   0.0800 
 24 H        4.7690     3.2180    -0.5360 H     1 <1>   0.0800 
 25 H        6.3280     3.6110    -1.1820 H     1 <1>   0.0800 
 26 H        7.8940     0.9080    -1.7040 H     1 <1>   0.1500 
 27 H        5.4590     4.1390     1.6930 H     1 <1>   0.1500 
 28 H        9.3510     2.5290    -2.9670 H     1 <1>   0.1500 
 29 H        9.4640     3.5760    -1.5280 H     1 <1>   0.1500 
 30 H        6.7610     6.2690     1.4080 H     1 <1>   0.1500 
 31 H        7.1850     5.8100    -0.2620 H     1 <1>   0.1500 
@<TRIPOS>BOND
  1   1   2  1   
  2   1   3  1   
  3   2   4  1   
  4   2   5  2   
  5   3   6  2   
  6   3   7  1   
  7   4   8  1   
  8   5   6  1   
  9   7  18  1   
 10   7  19  1   
 11   8   9  1   
 12   8  20  1   
 13   8  21  1   
 14   9  10  2   
 15   9  11  am  
 16  11  12  1   
 17  11  13  1   
 18  12  14  1   
 19  12  22  1   
 20  12  23  1   
 21  13  15  1   
 22  13  24  1   
 23  13  25  1   
 24  14  16  2   
 25  14  26  1   
 26  15  17  2   
 27  15  27  1   
 28  16  28  1   
 29  16  29  1   
 30  17  30  1   
 31  17  31  1   
@<TRIPOS>SUBSTRUCTURE
  1 ****   8 GROUP 4 **** **** 0

# MOE 2024.06 (io_trps.svl 2023.06)
