@<TRIPOS>MOLECULE
NONAME
42 43 1 0 0 
SMALL
USER_CHARGES


@<TRIPOS>ATOM
  1 CL       2.4760     1.1170     3.3680 Cl    1 <1>  -0.1770 
  2 C        3.2700     1.5300     1.8670 C.ar  1 <1>   0.1770 
  3 C        2.6910     2.4460     1.0010 C.ar  1 <1>  -0.1440 
  4 C        4.4740     0.9220     1.5780 C.ar  1 <1>  -0.1500 
  5 C        3.3580     2.7430    -0.1760 C.ar  1 <1>  -0.1500 
  6 C        1.3620     3.1110     1.3270 C.3   1 <1>  -0.0960 
  7 C        5.1560     1.2100     0.3960 C.ar  1 <1>   0.0860 
  8 C        4.5680     2.1370    -0.4700 C.ar  1 <1>  -0.1500 
  9 C        6.4270     0.5680     0.1020 C.2   1 <1>   0.5440 
 10 O        7.1270     0.1260     0.9930 O.2   1 <1>  -0.5700 
 11 N        6.9080     0.4750    -1.1750 N.am  1 <1>  -0.7300 
 12 C        7.9370    -0.4920    -1.6400 C.3   1 <1>   0.1400 
 13 C        9.2600     0.2140    -1.9690 C.3   1 <1>  -0.1600 
 14 C       10.2230     0.3440    -0.7810 C.3   1 <1>   0.3430 
 15 N        9.6250     1.1200     0.3280 N.4   1 <1>  -0.9590 
 16 C        9.4450     2.5790     0.0250 C.3   1 <1>   0.3430 
 17 C       10.3450     0.9250     1.6280 C.3   1 <1>   0.3430 
 18 C        8.8420     3.3270     1.2300 C.3   1 <1>   0.1200 
 19 C        9.6930     1.7520     2.7520 C.3   1 <1>   0.1200 
 20 O        9.6090     3.0980     2.3770 O.3   1 <1>  -0.5600 
 21 H        4.8830     0.2180     2.2800 H     1 <1>   0.1500 
 22 H        2.9350     3.4510    -0.8690 H     1 <1>   0.1500 
 23 H        1.4430     3.6630     2.2470 H     1 <1>   0.0800 
 24 H        0.5950     2.3650     1.4380 H     1 <1>   0.0800 
 25 H        1.0660     3.7900     0.5480 H     1 <1>   0.0800 
 26 H        5.0560     2.4010    -1.3900 H     1 <1>   0.1500 
 27 H        6.2790     0.7820    -1.9240 H     1 <1>   0.3700 
 28 H        7.5630    -0.9720    -2.5300 H     1 <1>   0.0800 
 29 H        8.0900    -1.2620    -0.9010 H     1 <1>   0.0800 
 30 H        9.0790     1.1670    -2.4320 H     1 <1>   0.0800 
 31 H        9.7670    -0.3890    -2.7020 H     1 <1>   0.0800 
 32 H       11.1390     0.8140    -1.1030 H     1 <1>   0.0800 
 33 H       10.4650    -0.6460    -0.4290 H     1 <1>   0.0800 
 34 H        8.6700     0.7320     0.4810 H     1 <1>   0.4500 
 35 H        8.7940     2.6980    -0.8250 H     1 <1>   0.0800 
 36 H       10.3960     3.0230    -0.2140 H     1 <1>   0.0800 
 37 H       11.3730     1.2320     1.5290 H     1 <1>   0.0800 
 38 H       10.3290    -0.1160     1.9030 H     1 <1>   0.0800 
 39 H        7.8320     3.0070     1.4190 H     1 <1>   0.0800 
 40 H        8.8380     4.3880     1.0450 H     1 <1>   0.0800 
 41 H       10.2870     1.6980     3.6470 H     1 <1>   0.0800 
 42 H        8.7030     1.3890     2.9730 H     1 <1>   0.0800 
@<TRIPOS>BOND
  1   1   2  1   
  2   2   3  ar  
  3   2   4  ar  
  4   3   5  ar  
  5   3   6  1   
  6   4   7  ar  
  7   4  21  1   
  8   5   8  ar  
  9   5  22  1   
 10   6  23  1   
 11   6  24  1   
 12   6  25  1   
 13   7   8  ar  
 14   7   9  1   
 15   8  26  1   
 16   9  10  2   
 17   9  11  am  
 18  11  12  1   
 19  11  27  1   
 20  12  13  1   
 21  12  28  1   
 22  12  29  1   
 23  13  14  1   
 24  13  30  1   
 25  13  31  1   
 26  14  15  1   
 27  14  32  1   
 28  14  33  1   
 29  15  16  1   
 30  15  17  1   
 31  15  34  1   
 32  16  18  1   
 33  16  35  1   
 34  16  36  1   
 35  17  19  1   
 36  17  37  1   
 37  17  38  1   
 38  18  20  1   
 39  18  39  1   
 40  18  40  1   
 41  19  20  1   
 42  19  41  1   
 43  19  42  1   
@<TRIPOS>SUBSTRUCTURE
  1 ****   9 GROUP 4 **** **** 0

# MOE 2024.06 (io_trps.svl 2023.06)
