@<TRIPOS>MOLECULE
NONAME
39 41 1 0 0 
SMALL
USER_CHARGES


@<TRIPOS>ATOM
  1 S        0.3080     0.2190    -0.2080 S.3   1 <1>  -0.3320 
  2 C        1.1540     1.7930    -0.1050 C.ar  1 <1>   0.7220 
  3 C       -1.3360     0.4670     0.6040 C.3   1 <1>   0.0700 
  4 N        0.5160     2.7800     0.5330 N.ar  1 <1>  -0.3100 
  5 N        2.3370     1.8200    -0.6690 N.ar  1 <1>  -0.6200 
  6 C       -2.2920     1.0970    -0.4130 C.3   1 <1>  -0.1600 
  7 N        1.0900     3.9500     0.6390 N.ar  1 <1>  -0.3100 
  8 C        2.8980     3.0070    -0.5470 C.ar  1 <1>   0.3930 
  9 C       -3.6830     1.3070     0.1950 C.3   1 <1>  -0.1600 
 10 C        2.3040     4.0920     0.0970 C.ar  1 <1>   0.3100 
 11 O        4.0990     3.1340    -1.1090 O.3   1 <1>  -0.3620 
 12 C       -4.6400     1.9320    -0.8230 C.3   1 <1>  -0.2400 
 13 C        2.9720     5.3700     0.1700 C.ar  1 <1>   0.0000 
 14 C        5.1830     3.1290    -0.2340 C.3   1 <1>   0.5690 
 15 C        4.3570     5.4560     0.3970 C.ar  1 <1>   0.1000 
 16 C        2.2510     6.5550     0.0120 C.ar  1 <1>  -0.1500 
 17 N        5.1670     4.3420     0.6070 N.pl3 1 <1>  -0.8690 
 18 C        6.4560     3.1200    -1.0610 C.3   1 <1>  -0.2400 
 19 C        4.9600     6.7080     0.4570 C.ar  1 <1>  -0.1500 
 20 C        2.8650     7.7900     0.0710 C.ar  1 <1>  -0.1500 
 21 C        4.2280     7.8670     0.2940 C.ar  1 <1>  -0.1500 
 22 H       -1.1940     1.0880     1.4700 H     1 <1>   0.0800 
 23 H       -1.6800    -0.5060     0.9080 H     1 <1>   0.0800 
 24 H       -2.3670     0.4520    -1.2720 H     1 <1>   0.0800 
 25 H       -1.8980     2.0450    -0.7360 H     1 <1>   0.0800 
 26 H       -3.6080     1.9540     1.0530 H     1 <1>   0.0800 
 27 H       -4.0830     0.3620     0.5220 H     1 <1>   0.0800 
 28 H       -4.2710     2.8900    -1.1470 H     1 <1>   0.0800 
 29 H       -5.6100     2.0730    -0.3790 H     1 <1>   0.0800 
 30 H       -4.7470     1.2930    -1.6820 H     1 <1>   0.0800 
 31 H        5.1170     2.2440     0.3790 H     1 <1>   0.0800 
 32 H        1.1890     6.5070    -0.1590 H     1 <1>   0.1500 
 33 H        6.1170     4.5660     0.9100 H     1 <1>   0.4000 
 34 H        6.5050     4.0020    -1.6740 H     1 <1>   0.0800 
 35 H        6.4670     2.2500    -1.6920 H     1 <1>   0.0800 
 36 H        7.3140     3.0810    -0.4170 H     1 <1>   0.0800 
 37 H        6.0160     6.7760     0.6350 H     1 <1>   0.1500 
 38 H        2.2880     8.6900    -0.0550 H     1 <1>   0.1500 
 39 H        4.7120     8.8270     0.3410 H     1 <1>   0.1500 
@<TRIPOS>BOND
  1   1   2  1   
  2   1   3  1   
  3   2   4  ar  
  4   2   5  ar  
  5   3   6  1   
  6   3  22  1   
  7   3  23  1   
  8   4   7  ar  
  9   5   8  ar  
 10   6   9  1   
 11   6  24  1   
 12   6  25  1   
 13   7  10  ar  
 14   8  10  ar  
 15   8  11  1   
 16   9  12  1   
 17   9  26  1   
 18   9  27  1   
 19  10  13  1   
 20  11  14  1   
 21  12  28  1   
 22  12  29  1   
 23  12  30  1   
 24  13  15  ar  
 25  13  16  ar  
 26  14  17  1   
 27  14  18  1   
 28  14  31  1   
 29  15  17  1   
 30  15  19  ar  
 31  16  20  ar  
 32  16  32  1   
 33  17  33  1   
 34  18  34  1   
 35  18  35  1   
 36  18  36  1   
 37  19  21  ar  
 38  19  37  1   
 39  20  21  ar  
 40  20  38  1   
 41  21  39  1   
@<TRIPOS>SUBSTRUCTURE
  1 ****  10 GROUP 4 **** **** 0

# MOE 2024.06 (io_trps.svl 2023.06)
