@<TRIPOS>MOLECULE
NONAME
43 44 1 0 0 
SMALL
USER_CHARGES


@<TRIPOS>ATOM
  1 S        0.5750    -0.1780     0.2670 S.3   1 <1>  -0.0800 
  2 C        0.4240     1.5840     0.3230 C.2   1 <1>  -0.0450 
  3 C       -1.1560    -0.4040     0.4010 C.2   1 <1>  -0.1100 
  4 C        1.6050     2.4050     0.2480 C.2   1 <1>   0.7150 
  5 C       -0.8920     1.9000     0.4360 C.2   1 <1>  -0.1500 
  6 C       -1.7790     0.7850     0.4800 C.2   1 <1>  -0.1500 
  7 O        1.5070     3.6170     0.2740 O.2   1 <1>  -0.5700 
  8 N        2.8360     1.8080     0.1310 N.am  1 <1>  -0.5470 
  9 C        4.1310     2.3500     0.0740 C.ar  1 <1>   0.1170 
 10 C        5.1220     1.6430    -0.5950 C.ar  1 <1>  -0.1500 
 11 C        4.4690     3.5550     0.6760 C.ar  1 <1>  -0.1500 
 12 C        6.4240     2.1270    -0.6650 C.ar  1 <1>   0.0830 
 13 C        5.7610     4.0440     0.6130 C.ar  1 <1>  -0.1500 
 14 O        7.4280     1.4650    -1.3200 O.3   1 <1>  -0.3630 
 15 C        6.7570     3.3400    -0.0530 C.ar  1 <1>   0.1170 
 16 C        7.1860     0.2550    -2.0050 C.3   1 <1>   0.0400 
 17 N        8.0900     3.7880    -0.1490 N.am  1 <1>  -0.5470 
 18 C        8.7750     4.8170     0.4270 C.2   1 <1>   0.5690 
 19 O        8.2930     5.6070     1.2000 O.2   1 <1>  -0.5700 
 20 C       10.2410     4.9630     0.0660 C.3   1 <1>  -0.0990 
 21 C       11.1110     3.8690     0.7060 C.3   1 <1>  -0.1600 
 22 C       12.5890     4.0450     0.3380 C.3   1 <1>  -0.1600 
 23 C       13.4490     2.9520     0.9790 C.3   1 <1>  -0.2400 
 24 H       -1.5310    -1.4120     0.4060 H     1 <1>   0.1500 
 25 H       -1.2650     2.9090     0.4900 H     1 <1>   0.1500 
 26 H       -2.8430     0.9270     0.5690 H     1 <1>   0.1500 
 27 H        2.7820     0.7960     0.0380 H     1 <1>   0.3700 
 28 H        4.8540     0.7160    -1.0580 H     1 <1>   0.1500 
 29 H        3.7240     4.1230     1.2040 H     1 <1>   0.1500 
 30 H        5.9830     4.9810     1.0870 H     1 <1>   0.1500 
 31 H        8.1100    -0.0660    -2.4520 H     1 <1>   0.0800 
 32 H        6.4510     0.4270    -2.7720 H     1 <1>   0.0800 
 33 H        6.8470    -0.4840    -1.3020 H     1 <1>   0.0800 
 34 H        8.6470     3.1680    -0.7380 H     1 <1>   0.3700 
 35 H       10.5780     5.9290     0.4000 H     1 <1>   0.0800 
 36 H       10.3380     4.9350    -1.0040 H     1 <1>   0.0800 
 37 H       10.7750     2.8990     0.3790 H     1 <1>   0.0800 
 38 H       10.9990     3.9140     1.7770 H     1 <1>   0.0800 
 39 H       12.9340     5.0080     0.6760 H     1 <1>   0.0800 
 40 H       12.7070     4.0050    -0.7320 H     1 <1>   0.0800 
 41 H       13.3640     2.9870     2.0510 H     1 <1>   0.0800 
 42 H       14.4820     3.0930     0.7140 H     1 <1>   0.0800 
 43 H       13.1390     1.9800     0.6390 H     1 <1>   0.0800 
@<TRIPOS>BOND
  1   1   2  1   
  2   1   3  1   
  3   2   4  1   
  4   2   5  2   
  5   3   6  2   
  6   3  24  1   
  7   4   7  2   
  8   4   8  am  
  9   5   6  1   
 10   5  25  1   
 11   6  26  1   
 12   8   9  1   
 13   8  27  1   
 14   9  10  ar  
 15   9  11  ar  
 16  10  12  ar  
 17  10  28  1   
 18  11  13  ar  
 19  11  29  1   
 20  12  14  1   
 21  12  15  ar  
 22  13  15  ar  
 23  13  30  1   
 24  14  16  1   
 25  15  17  1   
 26  16  31  1   
 27  16  32  1   
 28  16  33  1   
 29  17  18  am  
 30  17  34  1   
 31  18  19  2   
 32  18  20  1   
 33  20  21  1   
 34  20  35  1   
 35  20  36  1   
 36  21  22  1   
 37  21  37  1   
 38  21  38  1   
 39  22  23  1   
 40  22  39  1   
 41  22  40  1   
 42  23  41  1   
 43  23  42  1   
 44  23  43  1   
@<TRIPOS>SUBSTRUCTURE
  1 ****  10 GROUP 4 **** **** 0

# MOE 2024.06 (io_trps.svl 2023.06)
