@<TRIPOS>MOLECULE
NONAME
49 53 1 0 0 
SMALL
USER_CHARGES


@<TRIPOS>ATOM
  1 F        1.0850    -0.0710     2.0290 F     1 <1>  -0.3400 
  2 C        2.1020    -0.8920     1.8170 C.3   1 <1>   1.1580 
  3 F        2.5980    -1.1520     3.0200 F     1 <1>  -0.3400 
  4 F        2.9970    -0.1450     1.1810 F     1 <1>  -0.3400 
  5 C        1.7140    -2.1590     1.0570 C.2   1 <1>  -0.1690 
  6 N        2.8170    -2.9030     0.6870 N.pl3 1 <1>   0.6010 
  7 C        0.4770    -2.6410     0.6970 C.2   1 <1>  -0.1240 
  8 N        4.1200    -2.7160     0.9810 N.2   1 <1>  -0.7070 
  9 C        2.6460    -4.0350    -0.0660 C.2   1 <1>  -0.0260 
 10 C        0.3720    -3.8280    -0.1230 C.2   1 <1>   0.3490 
 11 C       -0.8540    -1.9860     1.1010 C.3   1 <1>  -0.0220 
 12 C        4.7690    -3.7150     0.3950 C.2   1 <1>   0.2030 
 13 N        1.4320    -4.4910    -0.4870 N.2   1 <1>  -0.5760 
 14 C        3.8800    -4.5550    -0.2650 C.2   1 <1>  -0.1500 
 15 C       -0.9330    -4.2950    -0.5660 C.ar  1 <1>   0.0860 
 16 C       -1.9620    -3.0180     1.3250 C.3   1 <1>  -0.0160 
 17 C        6.2120    -3.8990     0.4360 C.2   1 <1>   0.7160 
 18 C       -2.0930    -3.9130     0.1100 C.ar  1 <1>  -0.1440 
 19 C       -1.0840    -5.1320    -1.6750 C.ar  1 <1>  -0.1500 
 20 O        6.7690    -4.7830    -0.1900 O.2   1 <1>  -0.5700 
 21 N        6.9670    -3.0390     1.1790 N.am  1 <1>  -0.7300 
 22 C       -3.3420    -4.3450    -0.3060 C.ar  1 <1>  -0.1500 
 23 C       -2.3290    -5.5640    -2.0940 C.ar  1 <1>  -0.1500 
 24 C        8.4520    -2.9820     1.2210 C.3   1 <1>   0.1400 
 25 C       -3.4620    -5.1700    -1.4090 C.ar  1 <1>  -0.1500 
 26 C        9.0060    -2.1140     0.0840 C.3   1 <1>   0.2000 
 27 O       10.3660    -1.9130     0.2790 O.3   1 <1>  -0.5600 
 28 C        8.4350    -0.7020     0.0100 C.3   1 <1>  -0.1600 
 29 C       10.7940    -0.8010    -0.4400 C.3   1 <1>   0.1200 
 30 C        9.5670     0.0910    -0.6210 C.3   1 <1>  -0.1600 
 31 H       -1.1590    -1.3050     0.3250 H     1 <1>   0.0800 
 32 H       -0.7710    -1.4390     2.0190 H     1 <1>   0.0800 
 33 H        4.1360    -5.4410    -0.8180 H     1 <1>   0.1500 
 34 H       -2.8900    -2.5100     1.5200 H     1 <1>   0.0800 
 35 H       -1.7250    -3.6240     2.1820 H     1 <1>   0.0800 
 36 H       -0.2110    -5.4480    -2.2180 H     1 <1>   0.1500 
 37 H        6.4540    -2.2800     1.6360 H     1 <1>   0.3700 
 38 H       -4.2290    -4.0450     0.2250 H     1 <1>   0.1500 
 39 H       -2.4150    -6.2090    -2.9520 H     1 <1>   0.1500 
 40 H        8.8510    -3.9780     1.1280 H     1 <1>   0.0800 
 41 H        8.7600    -2.5740     2.1680 H     1 <1>   0.0800 
 42 H       -4.4330    -5.5050    -1.7320 H     1 <1>   0.1500 
 43 H        8.8870    -2.6210    -0.8590 H     1 <1>   0.0800 
 44 H        8.2370    -0.3380     1.0030 H     1 <1>   0.0800 
 45 H        7.5300    -0.6690    -0.5700 H     1 <1>   0.0800 
 46 H       11.1750    -1.1400    -1.3880 H     1 <1>   0.0800 
 47 H       11.5730    -0.3120     0.1190 H     1 <1>   0.0800 
 48 H        9.7030     1.0430    -0.1380 H     1 <1>   0.0800 
 49 H        9.3900     0.2520    -1.6700 H     1 <1>   0.0800 
@<TRIPOS>BOND
  1   1   2  1   
  2   2   3  1   
  3   2   4  1   
  4   2   5  1   
  5   5   6  1   
  6   5   7  2   
  7   6   8  1   
  8   6   9  1   
  9   7  10  1   
 10   7  11  1   
 11   8  12  2   
 12   9  13  1   
 13   9  14  2   
 14  10  13  2   
 15  10  15  1   
 16  11  16  1   
 17  11  31  1   
 18  11  32  1   
 19  12  14  1   
 20  12  17  1   
 21  14  33  1   
 22  15  18  ar  
 23  15  19  ar  
 24  16  18  1   
 25  16  34  1   
 26  16  35  1   
 27  17  20  2   
 28  17  21  am  
 29  18  22  ar  
 30  19  23  ar  
 31  19  36  1   
 32  21  24  1   
 33  21  37  1   
 34  22  25  ar  
 35  22  38  1   
 36  23  25  ar  
 37  23  39  1   
 38  24  26  1   
 39  24  40  1   
 40  24  41  1   
 41  25  42  1   
 42  26  27  1   
 43  26  28  1   
 44  26  43  1   
 45  27  29  1   
 46  28  30  1   
 47  28  44  1   
 48  28  45  1   
 49  29  30  1   
 50  29  46  1   
 51  29  47  1   
 52  30  48  1   
 53  30  49  1   
@<TRIPOS>SUBSTRUCTURE
  1 ****   6 GROUP 4 **** **** 0

# MOE 2024.06 (io_trps.svl 2023.06)
