@<TRIPOS>MOLECULE
NONAME
24 25 1 0 0 
SMALL
USER_CHARGES


@<TRIPOS>ATOM
  1 O       -5.7550     1.4600     1.5690 O.co2 1 <1>  -0.9000 
  2 C       -6.5410     1.3740     0.6060 C.2   1 <1>   0.9060 
  3 O       -7.1450     0.3420     0.3060 O.co2 1 <1>  -0.9000 
  4 C       -6.5850     2.6160    -0.3100 C.3   1 <1>   0.4600 
  5 N       -5.3230     3.4130    -0.0540 N.4   1 <1>  -0.9060 
  6 C       -7.8580     3.4510    -0.1090 C.ar  1 <1>  -0.1430 
  7 C       -5.4100     4.8830    -0.1820 C.3   1 <1>   0.3430 
  8 C       -7.8370     4.7610     0.3610 C.ar  1 <1>  -0.1430 
  9 C       -9.0790     2.8670    -0.4170 C.ar  1 <1>  -0.1500 
 10 C       -6.5200     5.4210     0.7150 C.3   1 <1>  -0.0170 
 11 C       -9.0220     5.4650     0.5120 C.ar  1 <1>  -0.1500 
 12 C      -10.2590     3.5720    -0.2680 C.ar  1 <1>  -0.1500 
 13 C      -10.2310     4.8740     0.1950 C.ar  1 <1>  -0.1500 
 14 H       -6.5810     2.2570    -1.3220 H     1 <1>   0.0800 
 15 H       -4.5590     2.9870    -0.5800 H     1 <1>   0.4500 
 16 H       -5.1450     3.1090     0.9320 H     1 <1>   0.4500 
 17 H       -5.6270     5.1430    -1.2050 H     1 <1>   0.0800 
 18 H       -4.4700     5.3320     0.0970 H     1 <1>   0.0800 
 19 H       -9.1200     1.8460    -0.7660 H     1 <1>   0.1500 
 20 H       -6.5930     6.4860     0.5790 H     1 <1>   0.0800 
 21 H       -6.2850     5.2310     1.7480 H     1 <1>   0.0800 
 22 H       -9.0150     6.4770     0.8800 H     1 <1>   0.1500 
 23 H      -11.1980     3.1040    -0.5090 H     1 <1>   0.1500 
 24 H      -11.1490     5.4220     0.3140 H     1 <1>   0.1500 
@<TRIPOS>BOND
  1   1   2  ar  
  2   2   3  ar  
  3   2   4  1   
  4   4   5  1   
  5   4   6  1   
  6   4  14  1   
  7   5   7  1   
  8   5  15  1   
  9   5  16  1   
 10   6   8  ar  
 11   6   9  ar  
 12   7  10  1   
 13   7  17  1   
 14   7  18  1   
 15   8  10  1   
 16   8  11  ar  
 17   9  12  ar  
 18   9  19  1   
 19  10  20  1   
 20  10  21  1   
 21  11  13  ar  
 22  11  22  1   
 23  12  13  ar  
 24  12  23  1   
 25  13  24  1   
@<TRIPOS>SUBSTRUCTURE
  1 ****   6 GROUP 4 **** **** 0

# MOE 2024.06 (io_trps.svl 2023.06)
