@<TRIPOS>MOLECULE
NONAME
50 52 1 0 0 
SMALL
USER_CHARGES


@<TRIPOS>ATOM
  1 O       -0.2360     0.3610    -0.2120 O.2   1 <1>  -0.5700 
  2 C       -0.1000     1.5390    -0.4860 C.2   1 <1>   0.5440 
  3 N        1.1410     2.0040    -0.8780 N.am  1 <1>  -0.6600 
  4 C       -1.2450     2.4240    -0.3960 C.ar  1 <1>   0.0860 
  5 C        1.3940     3.4070    -1.3100 C.3   1 <1>   0.1400 
  6 C        2.3470     1.1320    -0.8560 C.3   1 <1>   0.1400 
  7 C       -1.5740     3.0980     0.7850 C.ar  1 <1>  -0.1440 
  8 C       -2.0440     2.6350    -1.5190 C.ar  1 <1>  -0.1500 
  9 C        2.4530     4.0430    -0.4060 C.3   1 <1>  -0.1600 
 10 C        3.4040     1.7500     0.0630 C.3   1 <1>  -0.1600 
 11 C       -2.6570     3.9620     0.8180 C.ar  1 <1>  -0.1500 
 12 C       -0.7490     2.8810     2.0480 C.3   1 <1>  -0.0970 
 13 C       -3.1240     3.4960    -1.4820 C.ar  1 <1>  -0.1500 
 14 C        3.7390     3.1950    -0.3460 C.3   1 <1>  -0.0190 
 15 C       -3.4300     4.1640    -0.3110 C.ar  1 <1>  -0.1500 
 16 C        4.7820     3.7990     0.5940 C.2   1 <1>   0.5690 
 17 O        4.4370     4.1780     1.6870 O.2   1 <1>  -0.5700 
 18 N        6.0670     3.8660     0.1370 N.am  1 <1>  -0.5470 
 19 C        7.2730     4.3330     0.6930 C.ar  1 <1>   0.1170 
 20 C        8.4340     4.2170    -0.0800 C.ar  1 <1>   0.0820 
 21 C        7.3650     4.9000     1.9600 C.ar  1 <1>  -0.1500 
 22 O        8.3030     3.6540    -1.3200 O.3   1 <1>  -0.3620 
 23 C        9.6540     4.6630     0.4220 C.ar  1 <1>  -0.1500 
 24 C        8.5800     5.3420     2.4530 C.ar  1 <1>  -0.1500 
 25 C        9.4180     3.4970    -2.1720 C.3   1 <1>   0.0400 
 26 C        9.7240     5.2240     1.6850 C.ar  1 <1>  -0.1500 
 27 H        0.4940     3.9960    -1.2720 H     1 <1>   0.0800 
 28 H        1.7410     3.3990    -2.3290 H     1 <1>   0.0800 
 29 H        2.7310     1.0400    -1.8570 H     1 <1>   0.0800 
 30 H        2.1010     0.1450    -0.5030 H     1 <1>   0.0800 
 31 H       -1.8070     2.1110    -2.4280 H     1 <1>   0.1500 
 32 H        2.0420     4.1530     0.5830 H     1 <1>   0.0800 
 33 H        2.6860     5.0280    -0.7690 H     1 <1>   0.0800 
 34 H        4.2940     1.1460     0.0340 H     1 <1>   0.0800 
 35 H        3.0340     1.7350     1.0740 H     1 <1>   0.0800 
 36 H       -2.9090     4.4820     1.7260 H     1 <1>   0.1500 
 37 H        0.2720     3.1720     1.8810 H     1 <1>   0.0800 
 38 H       -0.7690     1.8410     2.3210 H     1 <1>   0.0800 
 39 H       -1.1360     3.4550     2.8700 H     1 <1>   0.0800 
 40 H       -3.7280     3.6450    -2.3610 H     1 <1>   0.1500 
 41 H        4.1560     3.1710    -1.3370 H     1 <1>   0.0800 
 42 H       -4.2700     4.8360    -0.2760 H     1 <1>   0.1500 
 43 H        6.2260     3.4940    -0.8000 H     1 <1>   0.3700 
 44 H        6.4900     5.0030     2.5740 H     1 <1>   0.1500 
 45 H       10.5590     4.5860    -0.1490 H     1 <1>   0.1500 
 46 H        8.6310     5.7780     3.4360 H     1 <1>   0.1500 
 47 H        9.0810     3.0390    -3.0840 H     1 <1>   0.0800 
 48 H       10.1400     2.8610    -1.6900 H     1 <1>   0.0800 
 49 H        9.8370     4.4650    -2.3830 H     1 <1>   0.0800 
 50 H       10.6670     5.5690     2.0720 H     1 <1>   0.1500 
@<TRIPOS>BOND
  1   1   2  2   
  2   2   3  am  
  3   2   4  1   
  4   3   5  1   
  5   3   6  1   
  6   4   7  ar  
  7   4   8  ar  
  8   5   9  1   
  9   5  27  1   
 10   5  28  1   
 11   6  10  1   
 12   6  29  1   
 13   6  30  1   
 14   7  11  ar  
 15   7  12  1   
 16   8  13  ar  
 17   8  31  1   
 18   9  14  1   
 19   9  32  1   
 20   9  33  1   
 21  10  14  1   
 22  10  34  1   
 23  10  35  1   
 24  11  15  ar  
 25  11  36  1   
 26  12  37  1   
 27  12  38  1   
 28  12  39  1   
 29  13  15  ar  
 30  13  40  1   
 31  14  16  1   
 32  14  41  1   
 33  15  42  1   
 34  16  17  2   
 35  16  18  am  
 36  18  19  1   
 37  18  43  1   
 38  19  20  ar  
 39  19  21  ar  
 40  20  22  1   
 41  20  23  ar  
 42  21  24  ar  
 43  21  44  1   
 44  22  25  1   
 45  23  26  ar  
 46  23  45  1   
 47  24  26  ar  
 48  24  46  1   
 49  25  47  1   
 50  25  48  1   
 51  25  49  1   
 52  26  50  1   
@<TRIPOS>SUBSTRUCTURE
  1 ****  14 GROUP 4 **** **** 0

# MOE 2024.06 (io_trps.svl 2023.06)
