@<TRIPOS>MOLECULE
NONAME
49 50 1 0 0 
SMALL
USER_CHARGES


@<TRIPOS>ATOM
  1 S       -0.0830     0.4180    -2.0170 S.o2  1 <1>   1.4470 
  2 O        1.2760     0.8940    -2.1400 O.2   1 <1>  -0.6500 
  3 O       -1.0940     0.8380    -2.9630 O.2   1 <1>  -0.6500 
  4 N       -0.0310    -1.3190    -2.1040 N.am  1 <1>  -0.6930 
  5 C       -0.6840     0.6720    -0.3250 C.ar  1 <1>  -0.0090 
  6 C        0.9260    -2.0460    -1.4140 C.ar  1 <1>   0.1990 
  7 C       -1.2430    -2.0020    -2.6180 C.3   1 <1>   0.1160 
  8 C        0.1590     0.4930     0.7660 C.ar  1 <1>  -0.1500 
  9 C       -2.0050     1.0230    -0.0700 C.ar  1 <1>  -0.1500 
 10 C        0.5750    -2.8720    -0.3510 C.ar  1 <1>  -0.1500 
 11 C        2.2690    -1.9690    -1.7610 C.ar  1 <1>  -0.1500 
 12 C       -0.2970     0.6540     2.0620 C.ar  1 <1>  -0.1500 
 13 C       -2.4680     1.1860     1.2250 C.ar  1 <1>  -0.1500 
 14 C        1.5350    -3.5880     0.3380 C.ar  1 <1>  -0.1500 
 15 C        3.2270    -2.6860    -1.0720 C.ar  1 <1>  -0.1500 
 16 C       -1.6160     1.0000     2.2990 C.ar  1 <1>  -0.1430 
 17 C        2.8890    -3.5130     0.0040 C.ar  1 <1>   0.0860 
 18 C       -2.1170     1.1790     3.7200 C.3   1 <1>  -0.0970 
 19 C        3.8840    -4.2650     0.7460 C.2   1 <1>   0.5440 
 20 O        3.5740    -5.2750     1.3490 O.2   1 <1>  -0.5700 
 21 N        5.1850    -3.8440     0.7990 N.am  1 <1>  -0.7300 
 22 C        6.2790    -4.5260     1.5060 C.3   1 <1>   0.2200 
 23 C        6.6220    -3.7070     2.7580 C.3   1 <1>  -0.1600 
 24 C        7.4490    -4.6480     0.5320 C.3   1 <1>  -0.2400 
 25 C        7.6780    -4.3730     3.6520 C.3   1 <1>  -0.2400 
 26 H       -2.0860    -1.7770    -1.9880 H     1 <1>   0.0800 
 27 H       -1.0900    -3.0670    -2.6410 H     1 <1>   0.0800 
 28 H       -1.4520    -1.6630    -3.6190 H     1 <1>   0.0800 
 29 H        1.1880     0.2230     0.5970 H     1 <1>   0.1500 
 30 H       -2.6830     1.1730    -0.8940 H     1 <1>   0.1500 
 31 H       -0.4560    -2.9460    -0.0590 H     1 <1>   0.1500 
 32 H        2.5560    -1.3390    -2.5850 H     1 <1>   0.1500 
 33 H        0.3800     0.5090     2.8860 H     1 <1>   0.1500 
 34 H       -3.4950     1.4620     1.3910 H     1 <1>   0.1500 
 35 H        1.2400    -4.2230     1.1570 H     1 <1>   0.1500 
 36 H        4.2540    -2.6080    -1.3800 H     1 <1>   0.1500 
 37 H       -1.6080     0.5060     4.3860 H     1 <1>   0.0800 
 38 H       -3.1720     0.9790     3.7780 H     1 <1>   0.0800 
 39 H       -1.9380     2.1890     4.0440 H     1 <1>   0.0800 
 40 H        5.4320    -2.9400     0.4020 H     1 <1>   0.3700 
 41 H        5.9580    -5.5120     1.8020 H     1 <1>   0.0800 
 42 H        5.7220    -3.5880     3.3380 H     1 <1>   0.0800 
 43 H        6.9680    -2.7290     2.4710 H     1 <1>   0.0800 
 44 H        7.8280    -3.6790     0.2660 H     1 <1>   0.0800 
 45 H        7.1300    -5.1650    -0.3560 H     1 <1>   0.0800 
 46 H        8.2440    -5.2190     0.9770 H     1 <1>   0.0800 
 47 H        7.3650    -5.3670     3.9230 H     1 <1>   0.0800 
 48 H        7.8070    -3.8000     4.5530 H     1 <1>   0.0800 
 49 H        8.6280    -4.4310     3.1510 H     1 <1>   0.0800 
@<TRIPOS>BOND
  1   1   2  2   
  2   1   3  2   
  3   1   4  am  
  4   1   5  1   
  5   4   6  1   
  6   4   7  1   
  7   5   8  ar  
  8   5   9  ar  
  9   6  10  ar  
 10   6  11  ar  
 11   7  26  1   
 12   7  27  1   
 13   7  28  1   
 14   8  12  ar  
 15   8  29  1   
 16   9  13  ar  
 17   9  30  1   
 18  10  14  ar  
 19  10  31  1   
 20  11  15  ar  
 21  11  32  1   
 22  12  16  ar  
 23  12  33  1   
 24  13  16  ar  
 25  13  34  1   
 26  14  17  ar  
 27  14  35  1   
 28  15  17  ar  
 29  15  36  1   
 30  16  18  1   
 31  17  19  1   
 32  18  37  1   
 33  18  38  1   
 34  18  39  1   
 35  19  20  2   
 36  19  21  am  
 37  21  22  1   
 38  21  40  1   
 39  22  23  1   
 40  22  24  1   
 41  22  41  1   
 42  23  25  1   
 43  23  42  1   
 44  23  43  1   
 45  24  44  1   
 46  24  45  1   
 47  24  46  1   
 48  25  47  1   
 49  25  48  1   
 50  25  49  1   
@<TRIPOS>SUBSTRUCTURE
  1 ****  10 GROUP 4 **** **** 0

# MOE 2024.06 (io_trps.svl 2023.06)
