@<TRIPOS>MOLECULE
NONAME
48 49 1 0 0 
SMALL
USER_CHARGES


@<TRIPOS>ATOM
  1 O        0.7150    -0.6050    -0.0750 O.3   1 <1>  -0.3630 
  2 C       -0.5230    -1.1320     0.0990 C.ar  1 <1>   0.0830 
  3 C        1.8760    -1.3600     0.1710 C.3   1 <1>   0.1200 
  4 C       -1.5980    -0.3030    -0.1740 C.ar  1 <1>  -0.1500 
  5 C       -0.7570    -2.4360     0.5300 C.ar  1 <1>  -0.1500 
  6 C        3.0790    -0.4630    -0.1270 C.3   1 <1>  -0.1600 
  7 C       -2.8980    -0.7520    -0.0250 C.ar  1 <1>   0.0830 
  8 C       -2.0560    -2.8910     0.6810 C.ar  1 <1>  -0.1500 
  9 C        4.4100    -1.1930     0.1040 C.3   1 <1>  -0.1600 
 10 O       -3.8890     0.1290    -0.3160 O.3   1 <1>  -0.3630 
 11 C       -3.1260    -2.0570     0.4060 C.ar  1 <1>  -0.1500 
 12 C        5.5880    -0.2620    -0.1970 C.3   1 <1>   0.3430 
 13 C       -5.2470    -0.2290    -0.1970 C.3   1 <1>   0.0400 
 14 N        6.8810    -0.9270     0.1230 N.4   1 <1>  -0.9590 
 15 C        7.9760     0.0830     0.2130 C.3   1 <1>   0.3430 
 16 C        7.2230    -2.0070    -0.8520 C.3   1 <1>   0.3430 
 17 C        9.2630    -0.5910     0.6870 C.3   1 <1>  -0.1600 
 18 C        8.4950    -2.7250    -0.4010 C.3   1 <1>  -0.1600 
 19 C        9.6680    -1.7490    -0.2350 C.3   1 <1>  -0.0800 
 20 C       10.9010    -2.4740     0.3160 C.3   1 <1>  -0.2400 
 21 H        1.8620    -2.2190    -0.4780 H     1 <1>   0.0800 
 22 H        1.8660    -1.6670     1.2020 H     1 <1>   0.0800 
 23 H       -1.4210     0.7030    -0.5060 H     1 <1>   0.1500 
 24 H        0.0490    -3.1070     0.7510 H     1 <1>   0.1500 
 25 H        3.0230     0.4030     0.5120 H     1 <1>   0.0800 
 26 H        3.0150    -0.1370    -1.1510 H     1 <1>   0.0800 
 27 H       -2.2360    -3.8990     1.0140 H     1 <1>   0.1500 
 28 H        4.4430    -2.0560    -0.5370 H     1 <1>   0.0800 
 29 H        4.4570    -1.5150     1.1300 H     1 <1>   0.0800 
 30 H       -4.1210    -2.4370     0.5320 H     1 <1>   0.1500 
 31 H        5.4830     0.6280     0.4040 H     1 <1>   0.0800 
 32 H        5.5680     0.0330    -1.2350 H     1 <1>   0.0800 
 33 H       -5.8420     0.6220    -0.4770 H     1 <1>   0.0800 
 34 H       -5.4490    -0.4950     0.8250 H     1 <1>   0.0800 
 35 H       -5.4500    -1.0520    -0.8590 H     1 <1>   0.0800 
 36 H        6.7990    -1.3630     1.0500 H     1 <1>   0.4500 
 37 H        7.7050     0.8630     0.9070 H     1 <1>   0.0800 
 38 H        8.1400     0.5320    -0.7540 H     1 <1>   0.0800 
 39 H        7.3780    -1.5810    -1.8300 H     1 <1>   0.0800 
 40 H        6.4190    -2.7210    -0.9170 H     1 <1>   0.0800 
 41 H        9.1290    -0.9450     1.6950 H     1 <1>   0.0800 
 42 H       10.0520     0.1420     0.7070 H     1 <1>   0.0800 
 43 H        8.7520    -3.4690    -1.1360 H     1 <1>   0.0800 
 44 H        8.3040    -3.2400     0.5240 H     1 <1>   0.0800 
 45 H        9.9220    -1.3460    -1.2040 H     1 <1>   0.0800 
 46 H       10.7010    -2.8960     1.2850 H     1 <1>   0.0800 
 47 H       11.7290    -1.7910     0.4060 H     1 <1>   0.0800 
 48 H       11.1970    -3.2690    -0.3470 H     1 <1>   0.0800 
@<TRIPOS>BOND
  1   1   2  1   
  2   1   3  1   
  3   2   4  ar  
  4   2   5  ar  
  5   3   6  1   
  6   3  21  1   
  7   3  22  1   
  8   4   7  ar  
  9   4  23  1   
 10   5   8  ar  
 11   5  24  1   
 12   6   9  1   
 13   6  25  1   
 14   6  26  1   
 15   7  10  1   
 16   7  11  ar  
 17   8  11  ar  
 18   8  27  1   
 19   9  12  1   
 20   9  28  1   
 21   9  29  1   
 22  10  13  1   
 23  11  30  1   
 24  12  14  1   
 25  12  31  1   
 26  12  32  1   
 27  13  33  1   
 28  13  34  1   
 29  13  35  1   
 30  14  15  1   
 31  14  16  1   
 32  14  36  1   
 33  15  17  1   
 34  15  37  1   
 35  15  38  1   
 36  16  18  1   
 37  16  39  1   
 38  16  40  1   
 39  17  19  1   
 40  17  41  1   
 41  17  42  1   
 42  18  19  1   
 43  18  43  1   
 44  18  44  1   
 45  19  20  1   
 46  19  45  1   
 47  20  46  1   
 48  20  47  1   
 49  20  48  1   
@<TRIPOS>SUBSTRUCTURE
  1 ****   6 GROUP 4 **** **** 0

# MOE 2024.06 (io_trps.svl 2023.06)
