@<TRIPOS>MOLECULE
NONAME
35 36 1 0 0 
SMALL
USER_CHARGES


@<TRIPOS>ATOM
  1 F       -0.2070     0.6680    -1.0000 F     1 <1>  -0.1900 
  2 C       -0.9380     1.6580    -0.5590 C.ar  1 <1>   0.1900 
  3 C       -2.2920     1.4610    -0.3860 C.ar  1 <1>  -0.1500 
  4 C       -0.3200     2.8640    -0.2880 C.ar  1 <1>  -0.1500 
  5 C       -3.0770     2.5110     0.0810 C.ar  1 <1>   0.1170 
  6 C       -1.0980     3.9110     0.1740 C.ar  1 <1>  -0.1500 
  7 N       -4.4620     2.3970     0.2690 N.am  1 <1>  -0.5470 
  8 C       -2.4610     3.7310     0.3540 C.ar  1 <1>  -0.1500 
  9 C       -5.2490     1.3080     0.5200 C.2   1 <1>   0.6900 
 10 O       -4.7560     0.2170     0.7320 O.2   1 <1>  -0.5700 
 11 N       -6.6110     1.4710     0.5550 N.am  1 <1>  -0.6600 
 12 C       -7.5230     0.3090     0.8010 C.3   1 <1>   0.1400 
 13 C       -7.3090     2.7300     0.1450 C.3   1 <1>   0.1400 
 14 C       -8.6240     0.1970    -0.2830 C.3   1 <1>   0.2000 
 15 C       -8.8390     2.5520     0.0570 C.3   1 <1>   0.2000 
 16 O       -9.1390     1.4310    -0.7150 O.3   1 <1>  -0.5600 
 17 C       -9.8090    -0.6410     0.1930 C.3   1 <1>  -0.2400 
 18 C       -9.5210     3.7460    -0.6070 C.3   1 <1>  -0.2400 
 19 H       -2.7230     0.5050    -0.6150 H     1 <1>   0.1500 
 20 H        0.7390     2.9740    -0.4370 H     1 <1>   0.1500 
 21 H       -0.6430     4.8620     0.3940 H     1 <1>   0.1500 
 22 H       -4.9730     3.2690     0.2990 H     1 <1>   0.3700 
 23 H       -3.0530     4.5520     0.7160 H     1 <1>   0.1500 
 24 H       -7.9810     0.4340     1.7660 H     1 <1>   0.0800 
 25 H       -6.9720    -0.6150     0.8300 H     1 <1>   0.0800 
 26 H       -6.9430     3.0350    -0.8200 H     1 <1>   0.0800 
 27 H       -7.0890     3.5060     0.8560 H     1 <1>   0.0800 
 28 H       -8.1930    -0.2720    -1.1510 H     1 <1>   0.0800 
 29 H       -9.2550     2.4060     1.0390 H     1 <1>   0.0800 
 30 H      -10.2800    -0.1780     1.0410 H     1 <1>   0.0800 
 31 H       -9.4770    -1.6230     0.4750 H     1 <1>   0.0800 
 32 H      -10.5260    -0.7390    -0.6020 H     1 <1>   0.0800 
 33 H       -9.1490     3.8800    -1.6070 H     1 <1>   0.0800 
 34 H       -9.3370     4.6410    -0.0430 H     1 <1>   0.0800 
 35 H      -10.5830     3.5800    -0.6460 H     1 <1>   0.0800 
@<TRIPOS>BOND
  1   1   2  1   
  2   2   3  ar  
  3   2   4  ar  
  4   3   5  ar  
  5   3  19  1   
  6   4   6  ar  
  7   4  20  1   
  8   5   7  1   
  9   5   8  ar  
 10   6   8  ar  
 11   6  21  1   
 12   7   9  am  
 13   7  22  1   
 14   8  23  1   
 15   9  10  2   
 16   9  11  am  
 17  11  12  1   
 18  11  13  1   
 19  12  14  1   
 20  12  24  1   
 21  12  25  1   
 22  13  15  1   
 23  13  26  1   
 24  13  27  1   
 25  14  16  1   
 26  14  17  1   
 27  14  28  1   
 28  15  16  1   
 29  15  18  1   
 30  15  29  1   
 31  17  30  1   
 32  17  31  1   
 33  17  32  1   
 34  18  33  1   
 35  18  34  1   
 36  18  35  1   
@<TRIPOS>SUBSTRUCTURE
  1 ****   9 GROUP 4 **** **** 0

# MOE 2024.06 (io_trps.svl 2023.06)
