@<TRIPOS>MOLECULE
NONAME
44 47 1 0 0 
SMALL
USER_CHARGES


@<TRIPOS>ATOM
  1 O        0.4080    -1.0010    -0.8530 O.2   1 <1>  -0.5700 
  2 C        0.1550    -0.9080     0.3170 C.2   1 <1>   0.6590 
  3 O       -0.8900    -1.4830     0.9020 O.3   1 <1>  -0.4300 
  4 C        1.0370    -0.1050     1.2360 C.3   1 <1>  -0.1790 
  5 C       -1.8250    -2.4060     0.3380 C.3   1 <1>   0.2800 
  6 C       -3.0920    -2.3300     1.2450 C.3   1 <1>   0.0630 
  7 C       -2.2850    -2.0200    -1.1200 C.3   1 <1>   0.2090 
  8 C       -1.2370    -3.8430     0.4150 C.3   1 <1>  -0.0170 
  9 C       -4.1190    -3.2810     0.6380 C.ar  1 <1>  -0.1440 
 10 C       -3.7290    -0.9230     1.1160 C.3   1 <1>  -0.1600 
 11 N       -3.7820    -1.8380    -1.1970 N.pl3 1 <1>  -0.8380 
 12 C        0.1960    -4.0180    -0.0750 C.ar  1 <1>  -0.1440 
 13 C       -4.4260    -2.9610    -0.6780 C.ar  1 <1>   0.1000 
 14 C       -4.7090    -4.3660     1.2600 C.ar  1 <1>  -0.1500 
 15 C       -4.1220    -0.6450    -0.3590 C.3   1 <1>   0.2090 
 16 C        1.2490    -3.9520     0.8250 C.ar  1 <1>  -0.1500 
 17 C        0.4640    -4.2580    -1.4140 C.ar  1 <1>  -0.1500 
 18 C       -5.3290    -3.7410    -1.3820 C.ar  1 <1>  -0.1500 
 19 C       -5.6140    -5.1420     0.5510 C.ar  1 <1>  -0.1500 
 20 C        2.5540    -4.1120     0.3920 C.ar  1 <1>  -0.1500 
 21 C        1.7690    -4.4170    -1.8490 C.ar  1 <1>  -0.1500 
 22 C       -5.9220    -4.8300    -0.7670 C.ar  1 <1>  -0.1500 
 23 C        2.8150    -4.3430    -0.9460 C.ar  1 <1>  -0.1500 
 24 H        1.8430     0.3320     0.6750 H     1 <1>   0.0800 
 25 H        0.4620     0.6740     1.6980 H     1 <1>   0.0800 
 26 H        1.4430    -0.7500     1.9920 H     1 <1>   0.0800 
 27 H       -2.8730    -2.5800     2.2670 H     1 <1>   0.0800 
 28 H       -2.0050    -2.7930    -1.8120 H     1 <1>   0.0800 
 29 H       -1.8300    -1.1070    -1.4530 H     1 <1>   0.0800 
 30 H       -1.8680    -4.5110    -0.1440 H     1 <1>   0.0800 
 31 H       -1.2830    -4.1790     1.4350 H     1 <1>   0.0800 
 32 H       -3.0550    -0.1610     1.4630 H     1 <1>   0.0800 
 33 H       -4.6140    -0.8740     1.7250 H     1 <1>   0.0800 
 34 H       -4.4720    -4.6100     2.2800 H     1 <1>   0.1500 
 35 H       -3.6030     0.2210    -0.7330 H     1 <1>   0.0800 
 36 H       -5.1810    -0.4580    -0.4300 H     1 <1>   0.0800 
 37 H        1.0590    -3.7730     1.8680 H     1 <1>   0.1500 
 38 H       -0.3370    -4.3210    -2.1280 H     1 <1>   0.1500 
 39 H       -5.5550    -3.4810    -2.3990 H     1 <1>   0.1500 
 40 H       -6.0800    -5.9890     1.0230 H     1 <1>   0.1500 
 41 H        3.3660    -4.0570     1.0950 H     1 <1>   0.1500 
 42 H        1.9680    -4.5950    -2.8900 H     1 <1>   0.1500 
 43 H       -6.6240    -5.4360    -1.3120 H     1 <1>   0.1500 
 44 H        3.8280    -4.4650    -1.2860 H     1 <1>   0.1500 
@<TRIPOS>BOND
  1   1   2  2   
  2   2   3  1   
  3   2   4  1   
  4   3   5  1   
  5   4  24  1   
  6   4  25  1   
  7   4  26  1   
  8   5   6  1   
  9   5   7  1   
 10   5   8  1   
 11   6   9  1   
 12   6  10  1   
 13   6  27  1   
 14   7  11  1   
 15   7  28  1   
 16   7  29  1   
 17   8  12  1   
 18   8  30  1   
 19   8  31  1   
 20   9  13  ar  
 21   9  14  ar  
 22  10  15  1   
 23  10  32  1   
 24  10  33  1   
 25  11  13  1   
 26  11  15  1   
 27  12  16  ar  
 28  12  17  ar  
 29  13  18  ar  
 30  14  19  ar  
 31  14  34  1   
 32  15  35  1   
 33  15  36  1   
 34  16  20  ar  
 35  16  37  1   
 36  17  21  ar  
 37  17  38  1   
 38  18  22  ar  
 39  18  39  1   
 40  19  22  ar  
 41  19  40  1   
 42  20  23  ar  
 43  20  41  1   
 44  21  23  ar  
 45  21  42  1   
 46  22  43  1   
 47  23  44  1   
@<TRIPOS>SUBSTRUCTURE
  1 ****   5 GROUP 4 **** **** 0

# MOE 2024.06 (io_trps.svl 2023.06)
