@<TRIPOS>MOLECULE
NONAME
37 36 1 0 0 
SMALL
USER_CHARGES


@<TRIPOS>ATOM
  1 O        0.1260     0.5270    -0.1630 O.3   1 <1>  -0.2170 
  2 N        1.3970     0.3720     0.1170 N.2   1 <1>  -0.2700 
  3 C       -0.4500     1.7740     0.1380 C.3   1 <1>   0.4000 
  4 N        1.8550    -0.8250    -0.1470 N.pl3 1 <1>   0.7410 
  5 O       -1.8140     1.6870    -0.1930 O.3   1 <1>  -0.2170 
  6 O        3.0690    -1.1140     0.0770 O.2   1 <1>  -0.6330 
  7 C        1.0700    -1.9480    -0.7310 C.3   1 <1>  -0.0610 
  8 N       -2.5570     2.7380     0.0580 N.2   1 <1>  -0.2700 
  9 C        0.6040    -2.9660     0.3280 C.3   1 <1>  -0.0800 
 10 N       -3.8230     2.5720    -0.2320 N.pl3 1 <1>   0.7410 
 11 C       -0.0630    -4.1600    -0.3640 C.3   1 <1>  -0.2400 
 12 C       -0.3740    -2.3490     1.3370 C.3   1 <1>  -0.2400 
 13 O       -4.6560     3.5080    -0.0390 O.2   1 <1>  -0.6330 
 14 C       -4.4290     1.3410    -0.8130 C.3   1 <1>  -0.0610 
 15 C       -5.1290     0.4640     0.2430 C.3   1 <1>  -0.0800 
 16 C       -4.1450    -0.0920     1.2820 C.3   1 <1>  -0.2400 
 17 C       -5.8500    -0.6980    -0.4500 C.3   1 <1>  -0.2400 
 18 H        0.0170     2.5400    -0.4560 H     1 <1>   0.0800 
 19 H       -0.3470     1.9730     1.1900 H     1 <1>   0.0800 
 20 H        0.2280    -1.5650    -1.2750 H     1 <1>   0.0800 
 21 H        1.7110    -2.4440    -1.4370 H     1 <1>   0.0800 
 22 H        1.4710    -3.3310     0.8580 H     1 <1>   0.0800 
 23 H       -0.9380    -3.8470    -0.9080 H     1 <1>   0.0800 
 24 H       -0.3580    -4.8970     0.3630 H     1 <1>   0.0800 
 25 H        0.6220    -4.6250    -1.0510 H     1 <1>   0.0800 
 26 H       -1.2320    -1.9410     0.8340 H     1 <1>   0.0800 
 27 H        0.1020    -1.5660     1.9010 H     1 <1>   0.0800 
 28 H       -0.7100    -3.0960     2.0340 H     1 <1>   0.0800 
 29 H       -5.1530     1.6620    -1.5390 H     1 <1>   0.0800 
 30 H       -3.6810     0.7730    -1.3330 H     1 <1>   0.0800 
 31 H       -5.8710     1.0620     0.7490 H     1 <1>   0.0800 
 32 H       -3.3690    -0.6620     0.8020 H     1 <1>   0.0800 
 33 H       -4.6600    -0.7320     1.9760 H     1 <1>   0.0800 
 34 H       -3.6920     0.7050     1.8440 H     1 <1>   0.0800 
 35 H       -5.1490    -1.3280    -0.9700 H     1 <1>   0.0800 
 36 H       -6.5680    -0.3240    -1.1580 H     1 <1>   0.0800 
 37 H       -6.3760    -1.2960     0.2740 H     1 <1>   0.0800 
@<TRIPOS>BOND
  1   1   2  1   
  2   1   3  1   
  3   2   4  2   
  4   3   5  1   
  5   3  18  1   
  6   3  19  1   
  7   4   6  2   
  8   4   7  1   
  9   5   8  1   
 10   7   9  1   
 11   7  20  1   
 12   7  21  1   
 13   8  10  2   
 14   9  11  1   
 15   9  12  1   
 16   9  22  1   
 17  10  13  2   
 18  10  14  1   
 19  11  23  1   
 20  11  24  1   
 21  11  25  1   
 22  12  26  1   
 23  12  27  1   
 24  12  28  1   
 25  14  15  1   
 26  14  29  1   
 27  14  30  1   
 28  15  16  1   
 29  15  17  1   
 30  15  31  1   
 31  16  32  1   
 32  16  33  1   
 33  16  34  1   
 34  17  35  1   
 35  17  36  1   
 36  17  37  1   
@<TRIPOS>SUBSTRUCTURE
  1 ****   5 GROUP 4 **** **** 0

# MOE 2024.06 (io_trps.svl 2023.06)
