@<TRIPOS>MOLECULE
NONAME
37 39 1 0 0 
SMALL
USER_CHARGES


@<TRIPOS>ATOM
  1 F       -0.2030    -0.6770    -1.7210 F     1 <1>  -0.3400 
  2 C       -0.9720    -1.4990    -1.0110 C.3   1 <1>   1.0200 
  3 F       -1.0910    -0.9200     0.1790 F     1 <1>  -0.3400 
  4 F       -2.1620    -1.4410    -1.5920 F     1 <1>  -0.3400 
  5 C       -0.3490    -2.9000    -0.9580 C.3   1 <1>   0.1760 
  6 N       -1.1020    -3.7600    -0.0280 N.pl3 1 <1>   0.3140 
  7 C        1.1660    -2.8650    -0.5930 C.3   1 <1>  -0.1600 
  8 N       -2.4170    -4.0170    -0.1380 N.2   1 <1>  -0.7070 
  9 C       -0.5040    -4.5730     0.8720 C.2   1 <1>  -0.0680 
 10 C        1.6880    -4.2110    -0.0790 C.3   1 <1>   0.4330 
 11 C       -2.6740    -4.9700     0.7550 C.2   1 <1>   0.0560 
 12 N        0.8800    -4.5860     1.0950 N.pl3 1 <1>  -0.8530 
 13 C       -1.4830    -5.3310     1.4050 C.2   1 <1>  -0.1500 
 14 C        3.1600    -4.1230     0.3010 C.ar  1 <1>  -0.1430 
 15 C       -3.9490    -5.6370     1.0840 C.2   1 <1>   1.0330 
 16 C        4.1220    -4.6550    -0.5450 C.ar  1 <1>  -0.1500 
 17 C        3.5670    -3.5110     1.4790 C.ar  1 <1>  -0.1500 
 18 O       -3.9720    -6.5310     1.9580 O.co2 1 <1>  -0.9000 
 19 O       -5.0280    -5.3640     0.5180 O.co2 1 <1>  -0.9000 
 20 C        5.4700    -4.5790    -0.2310 C.ar  1 <1>   0.0830 
 21 C        4.9110    -3.4310     1.8020 C.ar  1 <1>  -0.1500 
 22 O        6.3330    -5.1260    -1.1230 O.3   1 <1>  -0.3630 
 23 C        5.8640    -3.9620     0.9520 C.ar  1 <1>  -0.1500 
 24 C        7.7250    -5.1110    -0.8990 C.3   1 <1>   0.0400 
 25 H       -0.4580    -3.3390    -1.9300 H     1 <1>   0.0800 
 26 H        1.3360    -2.1290     0.1730 H     1 <1>   0.0800 
 27 H        1.7380    -2.5680    -1.4540 H     1 <1>   0.0800 
 28 H        1.5570    -4.9650    -0.8390 H     1 <1>   0.0800 
 29 H        1.2230    -5.4540     1.5220 H     1 <1>   0.4000 
 30 H       -1.4170    -6.0880     2.1640 H     1 <1>   0.1500 
 31 H        3.8440    -5.1380    -1.4640 H     1 <1>   0.1500 
 32 H        2.8330    -3.0960     2.1490 H     1 <1>   0.1500 
 33 H        5.2120    -2.9540     2.7190 H     1 <1>   0.1500 
 34 H        6.8990    -3.8870     1.2260 H     1 <1>   0.1500 
 35 H        8.2020    -5.5980    -1.7290 H     1 <1>   0.0800 
 36 H        7.9370    -5.6450     0.0100 H     1 <1>   0.0800 
 37 H        8.0570    -4.0900    -0.8340 H     1 <1>   0.0800 
@<TRIPOS>BOND
  1   1   2  1   
  2   2   3  1   
  3   2   4  1   
  4   2   5  1   
  5   5   6  1   
  6   5   7  1   
  7   5  25  1   
  8   6   8  1   
  9   6   9  1   
 10   7  10  1   
 11   7  26  1   
 12   7  27  1   
 13   8  11  2   
 14   9  12  1   
 15   9  13  2   
 16  10  12  1   
 17  10  14  1   
 18  10  28  1   
 19  11  13  1   
 20  11  15  1   
 21  12  29  1   
 22  13  30  1   
 23  14  16  ar  
 24  14  17  ar  
 25  15  18  ar  
 26  15  19  ar  
 27  16  20  ar  
 28  16  31  1   
 29  17  21  ar  
 30  17  32  1   
 31  20  22  1   
 32  20  23  ar  
 33  21  23  ar  
 34  21  33  1   
 35  22  24  1   
 36  23  34  1   
 37  24  35  1   
 38  24  36  1   
 39  24  37  1   
@<TRIPOS>SUBSTRUCTURE
  1 ****  10 GROUP 4 **** **** 0

# MOE 2024.06 (io_trps.svl 2023.06)
