@<TRIPOS>MOLECULE
NONAME
54 56 1 0 0 
SMALL
USER_CHARGES


@<TRIPOS>ATOM
  1 O        0.3110     0.8270     1.1980 O.2   1 <1>  -0.5700 
  2 C        0.6860     1.2500     0.1300 C.2   1 <1>   0.5690 
  3 N        1.8120     0.7970    -0.5030 N.am  1 <1>  -0.5470 
  4 C       -0.1790     2.3410    -0.5230 C.3   1 <1>   0.4040 
  5 C        2.7060    -0.1780    -0.0340 C.ar  1 <1>   0.1170 
  6 N       -1.5950     2.3630     0.0060 N.4   1 <1>  -0.9590 
  7 C        2.3310    -1.5220     0.0590 C.ar  1 <1>  -0.1440 
  8 C        4.0030     0.2010     0.3220 C.ar  1 <1>  -0.1440 
  9 C       -2.3650     1.1640    -0.4360 C.3   1 <1>   0.3430 
 10 C       -2.3050     3.6410    -0.2730 C.3   1 <1>   0.3430 
 11 C        3.2450    -2.4590     0.5120 C.ar  1 <1>  -0.1500 
 12 C        0.9400    -2.0080    -0.3290 C.3   1 <1>  -0.0970 
 13 C        4.9010    -0.7530     0.7680 C.ar  1 <1>  -0.1500 
 14 C        4.4620     1.6520     0.2440 C.3   1 <1>  -0.0970 
 15 C       -3.7170     1.1330     0.2720 C.3   1 <1>  -0.1600 
 16 C       -3.6590     3.6440     0.4380 C.3   1 <1>  -0.1600 
 17 C        4.5250    -2.0790     0.8650 C.ar  1 <1>  -0.1500 
 18 C       -4.5160     2.4290     0.0430 C.3   1 <1>  -0.0800 
 19 C       -5.8500     2.4250     0.8130 C.3   1 <1>  -0.0170 
 20 C       -6.7280     1.2540     0.3990 C.ar  1 <1>  -0.1440 
 21 C       -6.8490     0.1400     1.2170 C.ar  1 <1>  -0.1500 
 22 C       -7.4120     1.2880    -0.8070 C.ar  1 <1>  -0.1500 
 23 C       -7.6360    -0.9300     0.8290 C.ar  1 <1>  -0.1500 
 24 C       -8.1990     0.2180    -1.1960 C.ar  1 <1>  -0.1500 
 25 C       -8.3100    -0.8930    -0.3780 C.ar  1 <1>  -0.1500 
 26 H        2.1450     1.2720    -1.3410 H     1 <1>   0.3700 
 27 H       -0.1910     2.1910    -1.5890 H     1 <1>   0.0800 
 28 H        0.2910     3.2880    -0.3200 H     1 <1>   0.0800 
 29 H       -1.4960     2.2540     1.0310 H     1 <1>   0.4500 
 30 H       -1.8200     0.2640    -0.1930 H     1 <1>   0.0800 
 31 H       -2.5180     1.1950    -1.5020 H     1 <1>   0.0800 
 32 H       -2.4580     3.7500    -1.3350 H     1 <1>   0.0800 
 33 H       -1.7180     4.4760     0.0740 H     1 <1>   0.0800 
 34 H        2.9680    -3.4960     0.5950 H     1 <1>   0.1500 
 35 H        0.6300    -1.5650    -1.2570 H     1 <1>   0.0800 
 36 H        0.2380    -1.7500     0.4430 H     1 <1>   0.0800 
 37 H        0.9280    -3.0760    -0.4510 H     1 <1>   0.0800 
 38 H        5.9020    -0.4750     1.0480 H     1 <1>   0.1500 
 39 H        3.8160     2.2740     0.8370 H     1 <1>   0.0800 
 40 H        4.4490     1.9910    -0.7750 H     1 <1>   0.0800 
 41 H        5.4630     1.7590     0.6200 H     1 <1>   0.0800 
 42 H       -3.5640     0.9670     1.3240 H     1 <1>   0.0800 
 43 H       -4.2720     0.2920    -0.1080 H     1 <1>   0.0800 
 44 H       -4.1820     4.5490     0.1820 H     1 <1>   0.0800 
 45 H       -3.4990     3.6550     1.5030 H     1 <1>   0.0800 
 46 H        5.2280    -2.8150     1.2160 H     1 <1>   0.1500 
 47 H       -4.7440     2.5030    -1.0080 H     1 <1>   0.0800 
 48 H       -6.3850     3.3390     0.6210 H     1 <1>   0.0800 
 49 H       -5.6650     2.3800     1.8730 H     1 <1>   0.0800 
 50 H       -6.3340     0.0980     2.1600 H     1 <1>   0.1500 
 51 H       -7.3390     2.1470    -1.4500 H     1 <1>   0.1500 
 52 H       -7.7260    -1.7920     1.4680 H     1 <1>   0.1500 
 53 H       -8.7280     0.2490    -2.1330 H     1 <1>   0.1500 
 54 H       -8.9230    -1.7250    -0.6800 H     1 <1>   0.1500 
@<TRIPOS>BOND
  1   1   2  2   
  2   2   3  am  
  3   2   4  1   
  4   3   5  1   
  5   3  26  1   
  6   4   6  1   
  7   4  27  1   
  8   4  28  1   
  9   5   7  ar  
 10   5   8  ar  
 11   6   9  1   
 12   6  10  1   
 13   6  29  1   
 14   7  11  ar  
 15   7  12  1   
 16   8  13  ar  
 17   8  14  1   
 18   9  15  1   
 19   9  30  1   
 20   9  31  1   
 21  10  16  1   
 22  10  32  1   
 23  10  33  1   
 24  11  17  ar  
 25  11  34  1   
 26  12  35  1   
 27  12  36  1   
 28  12  37  1   
 29  13  17  ar  
 30  13  38  1   
 31  14  39  1   
 32  14  40  1   
 33  14  41  1   
 34  15  18  1   
 35  15  42  1   
 36  15  43  1   
 37  16  18  1   
 38  16  44  1   
 39  16  45  1   
 40  17  46  1   
 41  18  19  1   
 42  18  47  1   
 43  19  20  1   
 44  19  48  1   
 45  19  49  1   
 46  20  21  ar  
 47  20  22  ar  
 48  21  23  ar  
 49  21  50  1   
 50  22  24  ar  
 51  22  51  1   
 52  23  25  ar  
 53  23  52  1   
 54  24  25  ar  
 55  24  53  1   
 56  25  54  1   
@<TRIPOS>SUBSTRUCTURE
  1 ****   9 GROUP 4 **** **** 0

# MOE 2024.06 (io_trps.svl 2023.06)
