@<TRIPOS>MOLECULE
NONAME
33 33 1 0 0 
SMALL
USER_CHARGES


@<TRIPOS>ATOM
  1 P       -0.0890     0.3870     0.1400 P.3   1 <1>   0.9000 
  2 O        0.2460    -0.8840    -0.5630 O.co2 1 <1>  -0.9500 
  3 O        0.2810     0.5720     1.5740 O.co2 1 <1>  -0.9500 
  4 C        0.7690     1.7090    -0.7830 C.3   1 <1>   0.3430 
  5 C       -1.8380     0.7230    -0.0630 C.3   1 <1>  -0.1600 
  6 N        2.2960     1.6710    -0.7900 N.4   1 <1>  -0.9590 
  7 C       -2.3190     1.9880     0.6590 C.3   1 <1>  -0.0170 
  8 C        2.7350     0.3700    -1.3890 C.3   1 <1>   0.2630 
  9 C        2.7790     1.7330     0.6260 C.3   1 <1>   0.2630 
 10 C       -3.7980     2.2270     0.4030 C.ar  1 <1>  -0.1430 
 11 C       -4.7480     1.5850     1.1800 C.ar  1 <1>  -0.1500 
 12 C       -4.2120     3.0840    -0.6060 C.ar  1 <1>  -0.1500 
 13 C       -6.0980     1.7960     0.9550 C.ar  1 <1>  -0.1500 
 14 C       -5.5610     3.2960    -0.8330 C.ar  1 <1>  -0.1500 
 15 C       -6.5050     2.6520    -0.0530 C.ar  1 <1>  -0.1500 
 16 H        0.4760     2.6640    -0.3870 H     1 <1>   0.0800 
 17 H        0.4440     1.6900    -1.8080 H     1 <1>   0.0800 
 18 H       -2.3990    -0.1010     0.3340 H     1 <1>   0.0800 
 19 H       -2.0990     0.7940    -1.1010 H     1 <1>   0.0800 
 20 H        2.6600     2.4600    -1.3320 H     1 <1>   0.4500 
 21 H       -1.7550     2.8420     0.3330 H     1 <1>   0.0800 
 22 H       -2.1480     1.8750     1.7170 H     1 <1>   0.0800 
 23 H        2.4340    -0.4510    -0.7560 H     1 <1>   0.0800 
 24 H        3.8070     0.3440    -1.4940 H     1 <1>   0.0800 
 25 H        2.2810     0.2270    -2.3560 H     1 <1>   0.0800 
 26 H        2.4720     0.8470     1.1620 H     1 <1>   0.0800 
 27 H        2.3590     2.5870     1.1310 H     1 <1>   0.0800 
 28 H        3.8530     1.7950     0.6580 H     1 <1>   0.0800 
 29 H       -4.4370     0.9150     1.9640 H     1 <1>   0.1500 
 30 H       -3.4880     3.5890    -1.2190 H     1 <1>   0.1500 
 31 H       -6.8280     1.2920     1.5630 H     1 <1>   0.1500 
 32 H       -5.8760     3.9620    -1.6180 H     1 <1>   0.1500 
 33 H       -7.5530     2.8160    -0.2290 H     1 <1>   0.1500 
@<TRIPOS>BOND
  1   1   2  ar  
  2   1   3  ar  
  3   1   4  1   
  4   1   5  1   
  5   4   6  1   
  6   4  16  1   
  7   4  17  1   
  8   5   7  1   
  9   5  18  1   
 10   5  19  1   
 11   6   8  1   
 12   6   9  1   
 13   6  20  1   
 14   7  10  1   
 15   7  21  1   
 16   7  22  1   
 17   8  23  1   
 18   8  24  1   
 19   8  25  1   
 20   9  26  1   
 21   9  27  1   
 22   9  28  1   
 23  10  11  ar  
 24  10  12  ar  
 25  11  13  ar  
 26  11  29  1   
 27  12  14  ar  
 28  12  30  1   
 29  13  15  ar  
 30  13  31  1   
 31  14  15  ar  
 32  14  32  1   
 33  15  33  1   
@<TRIPOS>SUBSTRUCTURE
  1 ****   5 GROUP 4 **** **** 0

# MOE 2024.06 (io_trps.svl 2023.06)
