@<TRIPOS>MOLECULE
NONAME
51 53 1 0 0 
SMALL
USER_CHARGES


@<TRIPOS>ATOM
  1 F        1.3340    -1.5570    -2.7820 F     1 <1>  -0.1900 
  2 C        2.3700    -1.8930    -2.0640 C.ar  1 <1>   0.1900 
  3 C        2.1680    -2.4120    -0.8000 C.ar  1 <1>  -0.1500 
  4 C        3.6340    -1.7170    -2.5900 C.ar  1 <1>  -0.1500 
  5 C        3.2720    -2.7670    -0.0440 C.ar  1 <1>  -0.1500 
  6 C        4.7270    -2.0780    -1.8210 C.ar  1 <1>  -0.1500 
  7 C        4.5680    -2.6120    -0.5420 C.ar  1 <1>   0.0280 
  8 C        5.7300    -2.9810     0.2350 C.2   1 <1>  -0.1670 
  9 C        6.7320    -2.1350     0.5290 C.2   1 <1>  -0.2880 
 10 C        5.7890    -4.4300     0.7070 C.3   1 <1>  -0.0220 
 11 C        7.9870    -2.4780     1.3020 C.3   1 <1>   0.4810 
 12 C        6.8970    -4.6480     1.7450 C.3   1 <1>   0.3430 
 13 N        8.1500    -3.9590     1.3200 N.4   1 <1>  -0.9590 
 14 C        9.3320    -4.3760     2.1180 C.3   1 <1>   0.4860 
 15 C       10.5720    -3.7840     1.4800 C.ar  1 <1>  -0.1430 
 16 C       11.2070    -2.6960     2.0570 C.ar  1 <1>  -0.1500 
 17 C       11.0770    -4.3140     0.3040 C.ar  1 <1>  -0.1500 
 18 C       12.3290    -2.1300     1.4740 C.ar  1 <1>   0.0830 
 19 C       12.1970    -3.7670    -0.2990 C.ar  1 <1>   0.0830 
 20 O       12.8300    -1.0510     2.1350 O.3   1 <1>  -0.3620 
 21 C       12.8560    -2.6850     0.3000 C.ar  1 <1>   0.0830 
 22 O       12.5770    -4.3630    -1.4620 O.3   1 <1>  -0.3630 
 23 C       13.4360     0.0140     1.4320 C.3   1 <1>   0.0400 
 24 O       14.0140    -2.2110    -0.2300 O.3   1 <1>  -0.3630 
 25 C       13.0050    -3.5710    -2.5520 C.3   1 <1>   0.0400 
 26 C       15.1760    -2.8910     0.1900 C.3   1 <1>   0.0400 
 27 H        1.1680    -2.5300    -0.4220 H     1 <1>   0.1500 
 28 H        3.7530    -1.3070    -3.5770 H     1 <1>   0.1500 
 29 H        3.1210    -3.1580     0.9450 H     1 <1>   0.1500 
 30 H        5.7180    -1.9470    -2.2200 H     1 <1>   0.1500 
 31 H        6.7100    -1.1020     0.2240 H     1 <1>   0.1500 
 32 H        5.9560    -5.0700    -0.1410 H     1 <1>   0.0800 
 33 H        4.8540    -4.7210     1.1490 H     1 <1>   0.0800 
 34 H        7.9140    -2.0900     2.3060 H     1 <1>   0.0800 
 35 H        8.8400    -2.0250     0.8210 H     1 <1>   0.0800 
 36 H        7.0690    -5.7060     1.8610 H     1 <1>   0.0800 
 37 H        6.5740    -4.2500     2.6940 H     1 <1>   0.0800 
 38 H        8.3340    -4.2160     0.3430 H     1 <1>   0.4500 
 39 H        9.4160    -5.4510     2.1250 H     1 <1>   0.0800 
 40 H        9.2400    -4.0320     3.1350 H     1 <1>   0.0800 
 41 H       10.8470    -2.2610     2.9730 H     1 <1>   0.1500 
 42 H       10.6160    -5.1620    -0.1730 H     1 <1>   0.1500 
 43 H       13.4030     0.8900     2.0550 H     1 <1>   0.0800 
 44 H       12.8950     0.1900     0.5190 H     1 <1>   0.0800 
 45 H       14.4590    -0.2410     1.2240 H     1 <1>   0.0800 
 46 H       12.8480    -4.1320    -3.4550 H     1 <1>   0.0800 
 47 H       12.4320    -2.6610    -2.5780 H     1 <1>   0.0800 
 48 H       14.0520    -3.3550    -2.4390 H     1 <1>   0.0800 
 49 H       16.0250    -2.4340    -0.2850 H     1 <1>   0.0800 
 50 H       15.2610    -2.8070     1.2590 H     1 <1>   0.0800 
 51 H       15.1010    -3.9240    -0.1010 H     1 <1>   0.0800 
@<TRIPOS>BOND
  1   1   2  1   
  2   2   3  ar  
  3   2   4  ar  
  4   3   5  ar  
  5   3  27  1   
  6   4   6  ar  
  7   4  28  1   
  8   5   7  ar  
  9   5  29  1   
 10   6   7  ar  
 11   6  30  1   
 12   7   8  1   
 13   8   9  2   
 14   8  10  1   
 15   9  11  1   
 16   9  31  1   
 17  10  12  1   
 18  10  32  1   
 19  10  33  1   
 20  11  13  1   
 21  11  34  1   
 22  11  35  1   
 23  12  13  1   
 24  12  36  1   
 25  12  37  1   
 26  13  14  1   
 27  13  38  1   
 28  14  15  1   
 29  14  39  1   
 30  14  40  1   
 31  15  16  ar  
 32  15  17  ar  
 33  16  18  ar  
 34  16  41  1   
 35  17  19  ar  
 36  17  42  1   
 37  18  20  1   
 38  18  21  ar  
 39  19  21  ar  
 40  19  22  1   
 41  20  23  1   
 42  21  24  1   
 43  22  25  1   
 44  23  43  1   
 45  23  44  1   
 46  23  45  1   
 47  24  26  1   
 48  25  46  1   
 49  25  47  1   
 50  25  48  1   
 51  26  49  1   
 52  26  50  1   
 53  26  51  1   
@<TRIPOS>SUBSTRUCTURE
  1 ****  11 GROUP 4 **** **** 0

# MOE 2024.06 (io_trps.svl 2023.06)
