@<TRIPOS>MOLECULE
NONAME
35 37 1 0 0 
SMALL
USER_CHARGES


@<TRIPOS>ATOM
  1 S       -0.1350    -0.2300    -0.4400 S.3   1 <1>  -0.0800 
  2 C        1.3950     0.6110    -0.1730 C.ar  1 <1>   0.2970 
  3 C       -1.0110     1.2960    -0.4410 C.2   1 <1>  -0.1400 
  4 N        2.5390    -0.0250    -0.0730 N.ar  1 <1>  -0.5670 
  5 C        1.2020     1.9760    -0.0950 C.ar  1 <1>   0.0000 
  6 C       -0.1940     2.3340    -0.2370 C.2   1 <1>  -0.1810 
  7 C       -2.5100     1.3420    -0.6500 C.3   1 <1>   0.3000 
  8 C        3.5510     0.7950     0.1110 C.ar  1 <1>   0.7220 
  9 C        2.3850     2.6820     0.0920 C.ar  1 <1>   0.4120 
 10 C       -0.8030     3.7260    -0.1910 C.3   1 <1>   0.0210 
 11 O       -2.9080     2.6780    -0.8420 O.3   1 <1>  -0.5600 
 12 S        5.1430    -0.0020     0.2590 S.3   1 <1>  -0.3320 
 13 N        3.5660     2.1210     0.2020 N.ar  1 <1>  -0.6200 
 14 S        2.3630     4.4710     0.1900 S.3   1 <1>  -0.3310 
 15 C       -2.3470     3.6710    -0.0200 C.3   1 <1>   0.2800 
 16 C        6.3580     1.3710     0.5050 C.3   1 <1>  -0.0100 
 17 C        4.1300     4.9640     0.4220 C.3   1 <1>  -0.0100 
 18 C       -2.7590     3.4030     1.4370 C.3   1 <1>  -0.2400 
 19 C       -2.9780     4.9860    -0.4810 C.3   1 <1>  -0.2400 
 20 H       -3.0320     0.9410     0.2010 H     1 <1>   0.0800 
 21 H       -2.7870     0.7890    -1.5300 H     1 <1>   0.0800 
 22 H       -0.5530     4.2410    -1.1020 H     1 <1>   0.0800 
 23 H       -0.3900     4.2860     0.6270 H     1 <1>   0.0800 
 24 H        7.3340     0.9310     0.5990 H     1 <1>   0.0800 
 25 H        6.0830     1.8980     1.4010 H     1 <1>   0.0800 
 26 H        6.3050     2.0150    -0.3550 H     1 <1>   0.0800 
 27 H        4.1670     6.0360     0.4850 H     1 <1>   0.0800 
 28 H        4.6860     4.6070    -0.4270 H     1 <1>   0.0800 
 29 H        4.4820     4.5110     1.3310 H     1 <1>   0.0800 
 30 H       -2.2730     2.5270     1.8260 H     1 <1>   0.0800 
 31 H       -3.8250     3.2810     1.5060 H     1 <1>   0.0800 
 32 H       -2.4730     4.2340     2.0560 H     1 <1>   0.0800 
 33 H       -2.7530     5.1630    -1.5170 H     1 <1>   0.0800 
 34 H       -2.5970     5.8080     0.0980 H     1 <1>   0.0800 
 35 H       -4.0460     4.9480    -0.3590 H     1 <1>   0.0800 
@<TRIPOS>BOND
  1   1   2  1   
  2   1   3  1   
  3   2   4  ar  
  4   2   5  ar  
  5   3   6  2   
  6   3   7  1   
  7   4   8  ar  
  8   5   6  1   
  9   5   9  ar  
 10   6  10  1   
 11   7  11  1   
 12   7  20  1   
 13   7  21  1   
 14   8  12  1   
 15   8  13  ar  
 16   9  13  ar  
 17   9  14  1   
 18  10  15  1   
 19  10  22  1   
 20  10  23  1   
 21  11  15  1   
 22  12  16  1   
 23  14  17  1   
 24  15  18  1   
 25  15  19  1   
 26  16  24  1   
 27  16  25  1   
 28  16  26  1   
 29  17  27  1   
 30  17  28  1   
 31  17  29  1   
 32  18  30  1   
 33  18  31  1   
 34  18  32  1   
 35  19  33  1   
 36  19  34  1   
 37  19  35  1   
@<TRIPOS>SUBSTRUCTURE
  1 ****   5 GROUP 4 **** **** 0

# MOE 2024.06 (io_trps.svl 2023.06)
