@<TRIPOS>MOLECULE
NONAME
32 33 1 0 0 
SMALL
USER_CHARGES


@<TRIPOS>ATOM
  1 S       -1.4000     1.3170     0.9820 S.3   1 <1>  -0.0800 
  2 C       -1.8390     0.6850    -0.5710 C.2   1 <1>   0.4420 
  3 C        0.2290     1.4080     0.4070 C.2   1 <1>   0.1980 
  4 N       -0.8300     0.5890    -1.3570 N.2   1 <1>  -0.3380 
  5 N       -3.1700     0.3770    -0.7560 N.am  1 <1>  -0.4940 
  6 N        0.3460     1.0030    -0.7930 N.2   1 <1>  -0.3380 
  7 C        1.2790     1.9410     1.3690 C.3   1 <1>   0.0200 
  8 C       -3.8120    -0.1290    -1.8520 C.2   1 <1>   0.5690 
  9 C        2.6870     1.9810     0.7580 C.3   1 <1>  -0.2400 
 10 O       -3.2560    -0.3960    -2.8850 O.2   1 <1>  -0.5700 
 11 C       -5.3110    -0.3730    -1.7720 C.3   1 <1>   0.1310 
 12 S       -5.9960     0.0950    -0.1040 S.3   1 <1>  -0.3310 
 13 C       -7.7370    -0.2650    -0.2310 C.ar  1 <1>   0.7220 
 14 N       -8.4330    -0.0040     0.8600 N.ar  1 <1>  -0.6200 
 15 N       -8.1400    -0.7510    -1.3940 N.ar  1 <1>  -0.6200 
 16 C       -9.7150    -0.2680     0.7700 C.ar  1 <1>   0.1670 
 17 C       -9.4290    -1.0050    -1.4500 C.ar  1 <1>   0.1600 
 18 C      -10.2680    -0.7780    -0.3840 C.ar  1 <1>  -0.1500 
 19 C      -10.5620     0.0130     1.9930 C.3   1 <1>  -0.0970 
 20 H       -3.7740     0.5530     0.0460 H     1 <1>   0.3700 
 21 H        1.2920     1.3170     2.2440 H     1 <1>   0.0800 
 22 H        0.9970     2.9340     1.6700 H     1 <1>   0.0800 
 23 H        2.9910     0.9920     0.4630 H     1 <1>   0.0800 
 24 H        3.3930     2.3640     1.4720 H     1 <1>   0.0800 
 25 H        2.6950     2.6150    -0.1130 H     1 <1>   0.0800 
 26 H       -5.5270    -1.4140    -1.9280 H     1 <1>   0.0800 
 27 H       -5.8230     0.2190    -2.5080 H     1 <1>   0.0800 
 28 H       -9.8270    -1.4030    -2.3690 H     1 <1>   0.1500 
 29 H      -11.3170    -0.9930    -0.4550 H     1 <1>   0.1500 
 30 H      -10.4930     1.0560     2.2460 H     1 <1>   0.0800 
 31 H      -10.1990    -0.5670     2.8230 H     1 <1>   0.0800 
 32 H      -11.5920    -0.2360     1.8180 H     1 <1>   0.0800 
@<TRIPOS>BOND
  1   1   2  1   
  2   1   3  1   
  3   2   4  2   
  4   2   5  1   
  5   3   6  2   
  6   3   7  1   
  7   4   6  1   
  8   5   8  am  
  9   5  20  1   
 10   7   9  1   
 11   7  21  1   
 12   7  22  1   
 13   8  10  2   
 14   8  11  1   
 15   9  23  1   
 16   9  24  1   
 17   9  25  1   
 18  11  12  1   
 19  11  26  1   
 20  11  27  1   
 21  12  13  1   
 22  13  14  ar  
 23  13  15  ar  
 24  14  16  ar  
 25  15  17  ar  
 26  16  18  ar  
 27  16  19  1   
 28  17  18  ar  
 29  17  28  1   
 30  18  29  1   
 31  19  30  1   
 32  19  31  1   
 33  19  32  1   
@<TRIPOS>SUBSTRUCTURE
  1 ****   5 GROUP 4 **** **** 0

# MOE 2024.06 (io_trps.svl 2023.06)
