@<TRIPOS>MOLECULE
NONAME
40 41 1 0 0 
SMALL
USER_CHARGES


@<TRIPOS>ATOM
  1 O       -1.2680    -0.4300     1.2330 O.2   1 <1>  -0.5700 
  2 C       -1.1210    -1.4180     0.5800 C.2   1 <1>   0.4480 
  3 C       -2.2880    -2.2780     0.1400 C.3   1 <1>   0.1030 
  4 C        0.2790    -1.8530     0.1640 C.3   1 <1>  -0.0990 
  5 C       -1.8750    -3.0470    -1.0920 C.2   1 <1>   0.4480 
  6 C       -3.5100    -1.4290    -0.1130 C.2   1 <1>   0.3290 
  7 C        0.4230    -3.3830     0.0170 C.3   1 <1>   0.0000 
  8 O       -2.4330    -2.9440    -2.1420 O.2   1 <1>  -0.5700 
  9 C       -0.6450    -3.9340    -0.9630 C.3   1 <1>  -0.0990 
 10 N       -4.6110    -1.6100     0.4910 N.2   1 <1>  -0.5030 
 11 C        0.2950    -4.0620     1.3950 C.3   1 <1>  -0.2400 
 12 C        1.8260    -3.7040    -0.5240 C.3   1 <1>  -0.2400 
 13 N       -5.6620    -0.7770     0.2300 N.pl3 1 <1>  -0.4870 
 14 C       -6.9900    -1.3160     0.6060 C.3   1 <1>   0.1100 
 15 C       -5.4950     0.6700     0.5430 C.3   1 <1>   0.1100 
 16 C       -8.0960    -0.5280    -0.1060 C.3   1 <1>  -0.1600 
 17 C       -6.5790     1.4860    -0.1700 C.3   1 <1>  -0.1600 
 18 C       -7.9860     0.9780     0.1760 C.3   1 <1>  -0.1600 
 19 H       -2.5240    -2.9750     0.9200 H     1 <1>   0.0800 
 20 H        0.9840    -1.4830     0.8880 H     1 <1>   0.0800 
 21 H        0.5040    -1.3760    -0.7740 H     1 <1>   0.0800 
 22 H       -3.3660    -0.6580    -0.8500 H     1 <1>   0.0600 
 23 H       -0.2240    -4.0190    -1.9500 H     1 <1>   0.0800 
 24 H       -0.9550    -4.9210    -0.6740 H     1 <1>   0.0800 
 25 H       -0.6680    -3.9040     1.8430 H     1 <1>   0.0800 
 26 H        1.0390    -3.6790     2.0720 H     1 <1>   0.0800 
 27 H        0.4480    -5.1240     1.3070 H     1 <1>   0.0800 
 28 H        1.9860    -3.2350    -1.4790 H     1 <1>   0.0800 
 29 H        1.9530    -4.7660    -0.6440 H     1 <1>   0.0800 
 30 H        2.5850    -3.3490     0.1530 H     1 <1>   0.0800 
 31 H       -7.1070    -1.2410     1.6730 H     1 <1>   0.0800 
 32 H       -7.0410    -2.3540     0.3290 H     1 <1>   0.0800 
 33 H       -4.5230     1.0070     0.2320 H     1 <1>   0.0800 
 34 H       -5.5730     0.8040     1.6080 H     1 <1>   0.0800 
 35 H       -9.0550    -0.8900     0.2170 H     1 <1>   0.0800 
 36 H       -8.0160    -0.7060    -1.1650 H     1 <1>   0.0800 
 37 H       -6.4190     1.4160    -1.2320 H     1 <1>   0.0800 
 38 H       -6.4880     2.5200     0.1090 H     1 <1>   0.0800 
 39 H       -8.1830     1.1590     1.2190 H     1 <1>   0.0800 
 40 H       -8.7200     1.5120    -0.4010 H     1 <1>   0.0800 
@<TRIPOS>BOND
  1   1   2  2   
  2   2   3  1   
  3   2   4  1   
  4   3   5  1   
  5   3   6  1   
  6   3  19  1   
  7   4   7  1   
  8   4  20  1   
  9   4  21  1   
 10   5   8  2   
 11   5   9  1   
 12   6  10  2   
 13   6  22  1   
 14   7   9  1   
 15   7  11  1   
 16   7  12  1   
 17   9  23  1   
 18   9  24  1   
 19  10  13  1   
 20  11  25  1   
 21  11  26  1   
 22  11  27  1   
 23  12  28  1   
 24  12  29  1   
 25  12  30  1   
 26  13  14  1   
 27  13  15  1   
 28  14  16  1   
 29  14  31  1   
 30  14  32  1   
 31  15  17  1   
 32  15  33  1   
 33  15  34  1   
 34  16  18  1   
 35  16  35  1   
 36  16  36  1   
 37  17  18  1   
 38  17  37  1   
 39  17  38  1   
 40  18  39  1   
 41  18  40  1   
@<TRIPOS>SUBSTRUCTURE
  1 ****   6 GROUP 4 **** **** 0

# MOE 2024.06 (io_trps.svl 2023.06)
