@<TRIPOS>MOLECULE
NONAME
50 51 1 0 0 
SMALL
USER_CHARGES


@<TRIPOS>ATOM
  1 S       -0.3310     0.2940     0.5520 S.o2  1 <1>   1.3330 
  2 O        0.3040    -0.5100    -0.4680 O.2   1 <1>  -0.6500 
  3 O       -0.0610     0.0280     1.9470 O.2   1 <1>  -0.6500 
  4 N       -2.0070     0.1820     0.3110 N.am  1 <1>  -0.8490 
  5 C        0.0040     2.0320     0.2440 C.3   1 <1>  -0.0550 
  6 C       -2.5810    -0.9330     1.0730 C.3   1 <1>   0.1960 
  7 C       -2.3530     0.0680    -1.1100 C.3   1 <1>   0.1960 
  8 C        1.4830     2.4170     0.4120 C.3   1 <1>  -0.1600 
  9 C       -4.1090    -0.8930     0.9880 C.3   1 <1>  -0.1600 
 10 C       -3.8680     0.1720    -1.2850 C.3   1 <1>  -0.1600 
 11 C        1.7060     3.9070     0.1360 C.3   1 <1>  -0.2400 
 12 C       -4.5930    -0.9160    -0.4730 C.3   1 <1>  -0.0190 
 13 C       -6.1100    -0.7940    -0.5850 C.2   1 <1>   0.5690 
 14 O       -6.7090    -1.6740    -1.1500 O.2   1 <1>  -0.5700 
 15 N       -6.7050     0.3170    -0.0510 N.am  1 <1>  -0.5470 
 16 C       -8.0490     0.7230     0.0120 C.ar  1 <1>   0.1170 
 17 C       -9.1210    -0.1390    -0.1980 C.ar  1 <1>  -0.1500 
 18 C       -8.3230     2.0520     0.3140 C.ar  1 <1>  -0.1500 
 19 C      -10.4240     0.3170    -0.1120 C.ar  1 <1>  -0.1500 
 20 C       -9.6240     2.5150     0.4020 C.ar  1 <1>  -0.1500 
 21 C      -10.6870     1.6430     0.1870 C.ar  1 <1>   0.0820 
 22 O      -11.9950     2.0080     0.2520 O.3   1 <1>  -0.3630 
 23 C      -12.3660     3.3380     0.5300 C.3   1 <1>   0.1200 
 24 C      -13.8890     3.4140     0.5200 C.3   1 <1>  -0.2400 
 25 H       -0.5840     2.6200     0.9230 H     1 <1>   0.0800 
 26 H       -0.3030     2.2790    -0.7530 H     1 <1>   0.0800 
 27 H       -2.3000    -0.8550     2.1110 H     1 <1>   0.0800 
 28 H       -2.2040    -1.8690     0.6940 H     1 <1>   0.0800 
 29 H       -2.0010    -0.8740    -1.5020 H     1 <1>   0.0800 
 30 H       -1.8800     0.8580    -1.6690 H     1 <1>   0.0800 
 31 H        2.0840     1.8320    -0.2650 H     1 <1>   0.0800 
 32 H        1.7990     2.1870     1.4160 H     1 <1>   0.0800 
 33 H       -4.4490    -0.0040     1.4880 H     1 <1>   0.0800 
 34 H       -4.5140    -1.7400     1.5140 H     1 <1>   0.0800 
 35 H       -4.1140     0.0630    -2.3270 H     1 <1>   0.0800 
 36 H       -4.1830     1.1520    -0.9730 H     1 <1>   0.0800 
 37 H        1.4200     4.1540    -0.8720 H     1 <1>   0.0800 
 38 H        2.7470     4.1510     0.2620 H     1 <1>   0.0800 
 39 H        1.1320     4.5090     0.8190 H     1 <1>   0.0800 
 40 H       -4.3200    -1.8700    -0.8910 H     1 <1>   0.0800 
 41 H       -6.0500     0.9820     0.3540 H     1 <1>   0.3700 
 42 H       -8.9490    -1.1740    -0.4270 H     1 <1>   0.1500 
 43 H       -7.5120     2.7370     0.4810 H     1 <1>   0.1500 
 44 H      -11.2460    -0.3550    -0.2780 H     1 <1>   0.1500 
 45 H       -9.7890     3.5490     0.6360 H     1 <1>   0.1500 
 46 H      -11.9480     3.9740    -0.2310 H     1 <1>   0.0800 
 47 H      -11.9780     3.6050     1.4980 H     1 <1>   0.0800 
 48 H      -14.2660     3.1290    -0.4460 H     1 <1>   0.0800 
 49 H      -14.2050     4.4200     0.7290 H     1 <1>   0.0800 
 50 H      -14.2960     2.7620     1.2710 H     1 <1>   0.0800 
@<TRIPOS>BOND
  1   1   2  2   
  2   1   3  2   
  3   1   4  am  
  4   1   5  1   
  5   4   6  1   
  6   4   7  1   
  7   5   8  1   
  8   5  25  1   
  9   5  26  1   
 10   6   9  1   
 11   6  27  1   
 12   6  28  1   
 13   7  10  1   
 14   7  29  1   
 15   7  30  1   
 16   8  11  1   
 17   8  31  1   
 18   8  32  1   
 19   9  12  1   
 20   9  33  1   
 21   9  34  1   
 22  10  12  1   
 23  10  35  1   
 24  10  36  1   
 25  11  37  1   
 26  11  38  1   
 27  11  39  1   
 28  12  13  1   
 29  12  40  1   
 30  13  14  2   
 31  13  15  am  
 32  15  16  1   
 33  15  41  1   
 34  16  17  ar  
 35  16  18  ar  
 36  17  19  ar  
 37  17  42  1   
 38  18  20  ar  
 39  18  43  1   
 40  19  21  ar  
 41  19  44  1   
 42  20  21  ar  
 43  20  45  1   
 44  21  22  1   
 45  22  23  1   
 46  23  24  1   
 47  23  46  1   
 48  23  47  1   
 49  24  48  1   
 50  24  49  1   
 51  24  50  1   
@<TRIPOS>SUBSTRUCTURE
  1 ****  15 GROUP 4 **** **** 0

# MOE 2024.06 (io_trps.svl 2023.06)
