@<TRIPOS>MOLECULE
NONAME
54 56 1 0 0 
SMALL
USER_CHARGES


@<TRIPOS>ATOM
  1 O       -2.0530     1.0590    -0.7830 O.3   1 <1>  -0.3630 
  2 C       -0.9050     1.7670    -0.6510 C.ar  1 <1>   0.0830 
  3 C       -2.3810     0.0220     0.1170 C.3   1 <1>   0.2580 
  4 C       -0.9080     3.0730    -1.1260 C.ar  1 <1>  -0.1440 
  5 C        0.2380     1.2430    -0.0580 C.ar  1 <1>  -0.1500 
  6 C       -3.8940     0.0080     0.2210 C.2   1 <1>  -0.2880 
  7 C        0.2290     3.8560    -0.9940 C.ar  1 <1>  -0.1500 
  8 C       -2.1600     3.6190    -1.7880 C.3   1 <1>   0.4870 
  9 C        1.3670     2.0320     0.0730 C.ar  1 <1>  -0.1500 
 10 C       -4.6010     0.2740     1.3240 C.2   1 <1>  -0.3000 
 11 C        1.3620     3.3360    -0.3920 C.ar  1 <1>  -0.1500 
 12 N       -2.9840     4.3730    -0.7990 N.4   1 <1>  -0.9590 
 13 C       -3.3670     3.4930     0.3700 C.3   1 <1>   0.3430 
 14 C       -4.2130     4.9490    -1.4540 C.3   1 <1>   0.3430 
 15 C       -4.2920     4.1870     1.3880 C.3   1 <1>   0.2090 
 16 C       -5.1400     5.6870    -0.4650 C.3   1 <1>   0.2090 
 17 N       -5.4540     4.8460     0.7250 N.pl3 1 <1>  -0.8380 
 18 C       -6.6680     4.1560     0.7100 C.ar  1 <1>   0.1000 
 19 C       -7.7880     4.6740     1.3610 C.ar  1 <1>  -0.1430 
 20 C       -6.7810     2.9390     0.0430 C.ar  1 <1>  -0.1500 
 21 C       -8.9830     3.9760     1.3310 C.ar  1 <1>  -0.1500 
 22 C       -7.7120     5.9970     2.1100 C.3   1 <1>  -0.0970 
 23 C       -7.9740     2.2410     0.0160 C.ar  1 <1>  -0.1430 
 24 C       -9.0780     2.7680     0.6640 C.ar  1 <1>  -0.1500 
 25 C       -8.0920     0.9130    -0.7100 C.3   1 <1>  -0.0970 
 26 H       -1.9430     0.2310     1.0780 H     1 <1>   0.0800 
 27 H       -2.0000    -0.9070    -0.2720 H     1 <1>   0.0800 
 28 H        0.2700     0.2290     0.2960 H     1 <1>   0.1500 
 29 H       -4.3590    -0.2480    -0.7170 H     1 <1>   0.1500 
 30 H        0.2540     4.8690    -1.3590 H     1 <1>   0.1500 
 31 H       -2.7330     2.8010    -2.1950 H     1 <1>   0.0800 
 32 H       -1.8760     4.2660    -2.6010 H     1 <1>   0.0800 
 33 H        2.2550     1.6310     0.5320 H     1 <1>   0.1500 
 34 H       -5.6790     0.2570     1.3670 H     1 <1>   0.1500 
 35 H       -4.1750     0.5230     2.2820 H     1 <1>   0.1500 
 36 H        2.2470     3.9420    -0.2890 H     1 <1>   0.1500 
 37 H       -2.4090     5.1370    -0.4250 H     1 <1>   0.4500 
 38 H       -2.4800     3.1590     0.8830 H     1 <1>   0.0800 
 39 H       -3.8720     2.6150     0.0040 H     1 <1>   0.0800 
 40 H       -4.7850     4.1530    -1.9030 H     1 <1>   0.0800 
 41 H       -3.9280     5.6310    -2.2380 H     1 <1>   0.0800 
 42 H       -3.7380     4.9250     1.9400 H     1 <1>   0.0800 
 43 H       -4.6520     3.4580     2.0940 H     1 <1>   0.0800 
 44 H       -6.0570     5.9500    -0.9650 H     1 <1>   0.0800 
 45 H       -4.6750     6.6000    -0.1370 H     1 <1>   0.0800 
 46 H       -5.9290     2.5330    -0.4620 H     1 <1>   0.1500 
 47 H       -9.8520     4.3680     1.8290 H     1 <1>   0.1500 
 48 H       -6.9280     5.9540     2.8440 H     1 <1>   0.0800 
 49 H       -8.6380     6.2140     2.6110 H     1 <1>   0.0800 
 50 H       -7.4980     6.7940     1.4220 H     1 <1>   0.0800 
 51 H      -10.0160     2.2400     0.6520 H     1 <1>   0.1500 
 52 H       -7.1310     0.5690    -1.0470 H     1 <1>   0.0800 
 53 H       -8.7390     1.0210    -1.5630 H     1 <1>   0.0800 
 54 H       -8.5090     0.1720    -0.0520 H     1 <1>   0.0800 
@<TRIPOS>BOND
  1   1   2  1   
  2   1   3  1   
  3   2   4  ar  
  4   2   5  ar  
  5   3   6  1   
  6   3  26  1   
  7   3  27  1   
  8   4   7  ar  
  9   4   8  1   
 10   5   9  ar  
 11   5  28  1   
 12   6  10  2   
 13   6  29  1   
 14   7  11  ar  
 15   7  30  1   
 16   8  12  1   
 17   8  31  1   
 18   8  32  1   
 19   9  11  ar  
 20   9  33  1   
 21  10  34  1   
 22  10  35  1   
 23  11  36  1   
 24  12  13  1   
 25  12  14  1   
 26  12  37  1   
 27  13  15  1   
 28  13  38  1   
 29  13  39  1   
 30  14  16  1   
 31  14  40  1   
 32  14  41  1   
 33  15  17  1   
 34  15  42  1   
 35  15  43  1   
 36  16  17  1   
 37  16  44  1   
 38  16  45  1   
 39  17  18  1   
 40  18  19  ar  
 41  18  20  ar  
 42  19  21  ar  
 43  19  22  1   
 44  20  23  ar  
 45  20  46  1   
 46  21  24  ar  
 47  21  47  1   
 48  22  48  1   
 49  22  49  1   
 50  22  50  1   
 51  23  24  ar  
 52  23  25  1   
 53  24  51  1   
 54  25  52  1   
 55  25  53  1   
 56  25  54  1   
@<TRIPOS>SUBSTRUCTURE
  1 ****  13 GROUP 4 **** **** 0

# MOE 2024.06 (io_trps.svl 2023.06)
