@<TRIPOS>MOLECULE
NONAME
41 44 1 0 0 
SMALL
USER_CHARGES


@<TRIPOS>ATOM
  1 O        1.0250     0.1990    -0.0540 O.3   1 <1>   0.2420 
  2 N        1.7380    -0.8350     0.3120 N.2   1 <1>  -0.4100 
  3 N        1.7900     1.1980    -0.4110 N.2   1 <1>  -0.4100 
  4 C        2.9670    -0.4970     0.1850 C.ar  1 <1>   0.5450 
  5 C        3.0010     0.8010    -0.2710 C.ar  1 <1>   0.5450 
  6 N        4.0800    -1.2470     0.4230 N.ar  1 <1>  -0.5660 
  7 N        4.1510     1.4970    -0.4980 N.ar  1 <1>  -0.5660 
  8 C        5.1890    -0.6160     0.1710 C.ar  1 <1>   0.4100 
  9 C        5.2250     0.8140    -0.2340 C.ar  1 <1>   0.4100 
 10 N        6.3530    -1.3870     0.2710 N.pl3 1 <1>  -0.8380 
 11 N        6.4260     1.5290    -0.3220 N.pl3 1 <1>  -0.8380 
 12 C        7.3040    -1.4270    -0.8740 C.3   1 <1>   0.2090 
 13 C        6.4470    -2.5470     1.2040 C.3   1 <1>   0.2090 
 14 C        7.3660     1.5240     0.8330 C.3   1 <1>   0.2090 
 15 C        6.5850     2.6820    -1.2530 C.3   1 <1>   0.2090 
 16 C        7.1370    -2.7390    -1.6480 C.3   1 <1>  -0.1600 
 17 C        6.2780    -3.8600     0.4330 C.3   1 <1>  -0.1600 
 18 C        7.2530     2.8420     1.6050 C.3   1 <1>  -0.1600 
 19 C        6.4710     4.0030    -0.4840 C.3   1 <1>  -0.1600 
 20 C        7.2680    -3.9660    -0.7350 C.3   1 <1>  -0.1600 
 21 C        7.4520     4.0610     0.6940 C.3   1 <1>  -0.1600 
 22 H        8.3090    -1.3460    -0.4970 H     1 <1>   0.0800 
 23 H        7.1290    -0.6020    -1.5410 H     1 <1>   0.0800 
 24 H        5.6940    -2.4720     1.9710 H     1 <1>   0.0800 
 25 H        7.4100    -2.5290     1.6830 H     1 <1>   0.0800 
 26 H        8.3700     1.3950     0.4670 H     1 <1>   0.0800 
 27 H        7.1440     0.7080     1.4990 H     1 <1>   0.0800 
 28 H        5.8380     2.6430    -2.0280 H     1 <1>   0.0800 
 29 H        7.5510     2.6180    -1.7220 H     1 <1>   0.0800 
 30 H        7.8750    -2.7870    -2.4270 H     1 <1>   0.0800 
 31 H        6.1670    -2.7380    -2.1130 H     1 <1>   0.0800 
 32 H        5.2690    -3.9100     0.0600 H     1 <1>   0.0800 
 33 H        6.4190    -4.6870     1.1060 H     1 <1>   0.0800 
 34 H        7.9850     2.8550     2.3930 H     1 <1>   0.0800 
 35 H        6.2800     2.8880     2.0610 H     1 <1>   0.0800 
 36 H        5.4620     4.1000    -0.1220 H     1 <1>   0.0800 
 37 H        6.6580     4.8210    -1.1550 H     1 <1>   0.0800 
 38 H        8.2720    -4.0220    -0.3500 H     1 <1>   0.0800 
 39 H        7.0720    -4.8620    -1.2980 H     1 <1>   0.0800 
 40 H        8.4620     4.0690     0.3200 H     1 <1>   0.0800 
 41 H        7.2940     4.9660     1.2550 H     1 <1>   0.0800 
@<TRIPOS>BOND
  1   1   2  1   
  2   1   3  1   
  3   2   4  2   
  4   3   5  2   
  5   4   5  ar  
  6   4   6  ar  
  7   5   7  ar  
  8   6   8  ar  
  9   7   9  ar  
 10   8   9  ar  
 11   8  10  1   
 12   9  11  1   
 13  10  12  1   
 14  10  13  1   
 15  11  14  1   
 16  11  15  1   
 17  12  16  1   
 18  12  22  1   
 19  12  23  1   
 20  13  17  1   
 21  13  24  1   
 22  13  25  1   
 23  14  18  1   
 24  14  26  1   
 25  14  27  1   
 26  15  19  1   
 27  15  28  1   
 28  15  29  1   
 29  16  20  1   
 30  16  30  1   
 31  16  31  1   
 32  17  20  1   
 33  17  32  1   
 34  17  33  1   
 35  18  21  1   
 36  18  34  1   
 37  18  35  1   
 38  19  21  1   
 39  19  36  1   
 40  19  37  1   
 41  20  38  1   
 42  20  39  1   
 43  21  40  1   
 44  21  41  1   
@<TRIPOS>SUBSTRUCTURE
  1 ****   9 GROUP 4 **** **** 0

# MOE 2024.06 (io_trps.svl 2023.06)
