@<TRIPOS>MOLECULE
NONAME
39 40 1 0 0 
SMALL
USER_CHARGES


@<TRIPOS>ATOM
  1 CL       0.9670     1.4880    -2.5960 Cl    1 <1>  -0.1770 
  2 C        1.4130     2.4780    -1.2230 C.ar  1 <1>   0.1770 
  3 C        0.5560     3.4650    -0.7510 C.ar  1 <1>   0.0820 
  4 C        2.6410     2.2380    -0.6320 C.ar  1 <1>  -0.1500 
  5 O       -0.6470     3.6430    -1.3540 O.3   1 <1>  -0.3630 
  6 C        0.9690     4.2450     0.3380 C.ar  1 <1>   0.0830 
  7 C        3.0390     2.9970     0.4580 C.ar  1 <1>  -0.1440 
  8 C       -1.6970     2.8290    -0.8800 C.3   1 <1>   0.0400 
  9 O        0.2620     5.2660     0.8920 O.3   1 <1>  -0.3630 
 10 C        2.1950     3.9900     0.9340 C.ar  1 <1>  -0.1500 
 11 C        4.3810     2.7610     1.1160 C.3   1 <1>   0.4860 
 12 C       -0.5720     6.0880     0.1000 C.3   1 <1>   0.0400 
 13 N        5.3330     3.6950     0.4840 N.4   1 <1>  -0.9060 
 14 C        6.7050     3.6410     1.0170 C.3   1 <1>   0.4230 
 15 C        7.4990     4.7710     0.3740 C.3   1 <1>  -0.1600 
 16 C        7.4100     2.3940     0.4900 C.3   1 <1>  -0.1600 
 17 C        7.9020     4.2630    -1.0170 C.3   1 <1>  -0.1600 
 18 C        7.8440     2.7310    -0.9420 C.3   1 <1>  -0.1600 
 19 H        3.2590     1.4550    -1.0370 H     1 <1>   0.1500 
 20 H       -2.5910     3.0870    -1.4190 H     1 <1>   0.0800 
 21 H       -1.8340     3.0120     0.1710 H     1 <1>   0.0800 
 22 H       -1.4500     1.7970    -1.0540 H     1 <1>   0.0800 
 23 H        2.4680     4.5940     1.7830 H     1 <1>   0.1500 
 24 H        4.6910     1.7390     0.9660 H     1 <1>   0.0800 
 25 H        4.3090     2.9520     2.1750 H     1 <1>   0.0800 
 26 H       -0.7280     7.0130     0.6250 H     1 <1>   0.0800 
 27 H       -1.5150     5.5930    -0.0460 H     1 <1>   0.0800 
 28 H       -0.0910     6.2770    -0.8440 H     1 <1>   0.0800 
 29 H        4.9610     4.6460     0.5760 H     1 <1>   0.4500 
 30 H        5.3750     3.5050    -0.5230 H     1 <1>   0.4500 
 31 H        6.7120     3.7030     2.0940 H     1 <1>   0.0800 
 32 H        8.3950     4.9240     0.9530 H     1 <1>   0.0800 
 33 H        6.9640     5.7040     0.3370 H     1 <1>   0.0800 
 34 H        6.8170     1.4980     0.5420 H     1 <1>   0.0800 
 35 H        8.2960     2.2370     1.0830 H     1 <1>   0.0800 
 36 H        8.8930     4.6020    -1.2740 H     1 <1>   0.0800 
 37 H        7.2170     4.6220    -1.7660 H     1 <1>   0.0800 
 38 H        7.1300     2.3540    -1.6560 H     1 <1>   0.0800 
 39 H        8.8050     2.2950    -1.1620 H     1 <1>   0.0800 
@<TRIPOS>BOND
  1   1   2  1   
  2   2   3  ar  
  3   2   4  ar  
  4   3   5  1   
  5   3   6  ar  
  6   4   7  ar  
  7   4  19  1   
  8   5   8  1   
  9   6   9  1   
 10   6  10  ar  
 11   7  10  ar  
 12   7  11  1   
 13   8  20  1   
 14   8  21  1   
 15   8  22  1   
 16   9  12  1   
 17  10  23  1   
 18  11  13  1   
 19  11  24  1   
 20  11  25  1   
 21  12  26  1   
 22  12  27  1   
 23  12  28  1   
 24  13  14  1   
 25  13  29  1   
 26  13  30  1   
 27  14  15  1   
 28  14  16  1   
 29  14  31  1   
 30  15  17  1   
 31  15  32  1   
 32  15  33  1   
 33  16  18  1   
 34  16  34  1   
 35  16  35  1   
 36  17  18  1   
 37  17  36  1   
 38  17  37  1   
 39  18  38  1   
 40  18  39  1   
@<TRIPOS>SUBSTRUCTURE
  1 ****   7 GROUP 4 **** **** 0

# MOE 2024.06 (io_trps.svl 2023.06)
