@<TRIPOS>MOLECULE
NONAME
34 35 1 0 0 
SMALL
USER_CHARGES


@<TRIPOS>ATOM
  1 BR       2.9650    -5.1110    -1.5420 Br    1 <1>  -0.1110 
  2 C        3.3400    -3.4280    -0.6960 C.ar  1 <1>   0.1110 
  3 C        4.6440    -2.9740    -0.6580 C.ar  1 <1>  -0.1500 
  4 C        2.2980    -2.7110    -0.1420 C.ar  1 <1>  -0.1500 
  5 C        4.9050    -1.7600    -0.0470 C.ar  1 <1>  -0.1500 
  6 C        2.5780    -1.4980     0.4610 C.ar  1 <1>  -0.1500 
  7 C        3.8800    -0.9900     0.5130 C.ar  1 <1>   0.0860 
  8 C        4.1340     0.2970     1.1350 C.2   1 <1>   0.5440 
  9 O        3.6670     0.5690     2.2170 O.2   1 <1>  -0.5700 
 10 N        4.8660     1.2820     0.5490 N.am  1 <1>  -0.7300 
 11 C        5.1560     1.4230    -0.9080 C.3   1 <1>   0.2810 
 12 C        6.5900     1.0010    -1.2790 C.2   1 <1>   0.5690 
 13 C        4.8810     2.8800    -1.2850 C.3   1 <1>  -0.2400 
 14 O        6.8190     0.7010    -2.4230 O.2   1 <1>  -0.5700 
 15 N        7.5160     0.9640    -0.2790 N.am  1 <1>  -0.4900 
 16 C        8.8550     0.6880    -0.2420 C.2   1 <1>   0.6510 
 17 S        9.7790     0.4830    -1.7290 S.3   1 <1>  -0.3710 
 18 N        9.5290     0.5740     0.8160 N.2   1 <1>  -0.6960 
 19 C       11.3450     0.1770    -0.8520 C.3   1 <1>   0.0700 
 20 C       10.9650     0.2830     0.6360 C.3   1 <1>   0.0860 
 21 H        5.4340    -3.5600    -1.0940 H     1 <1>   0.1500 
 22 H        1.2940    -3.0960    -0.1810 H     1 <1>   0.1500 
 23 H        5.9210    -1.4110     0.0010 H     1 <1>   0.1500 
 24 H        1.7810    -0.9260     0.9060 H     1 <1>   0.1500 
 25 H        4.8560     2.1600     1.0740 H     1 <1>   0.3700 
 26 H        4.4800     0.7950    -1.4640 H     1 <1>   0.0800 
 27 H        5.5480     3.5420    -0.7620 H     1 <1>   0.0800 
 28 H        3.8620     3.1400    -1.0590 H     1 <1>   0.0800 
 29 H        5.0360     3.0110    -2.3410 H     1 <1>   0.0800 
 30 H        7.1440     1.1260     0.6540 H     1 <1>   0.3700 
 31 H       12.0510     0.9320    -1.1500 H     1 <1>   0.0800 
 32 H       11.6930    -0.8050    -1.1170 H     1 <1>   0.0800 
 33 H       11.1990    -0.6410     1.1340 H     1 <1>   0.0800 
 34 H       11.5400     1.0670     1.0990 H     1 <1>   0.0800 
@<TRIPOS>BOND
  1   1   2  1   
  2   2   3  ar  
  3   2   4  ar  
  4   3   5  ar  
  5   3  21  1   
  6   4   6  ar  
  7   4  22  1   
  8   5   7  ar  
  9   5  23  1   
 10   6   7  ar  
 11   6  24  1   
 12   7   8  1   
 13   8   9  2   
 14   8  10  am  
 15  10  11  1   
 16  10  25  1   
 17  11  12  1   
 18  11  13  1   
 19  11  26  1   
 20  12  14  2   
 21  12  15  am  
 22  13  27  1   
 23  13  28  1   
 24  13  29  1   
 25  15  16  1   
 26  15  30  1   
 27  16  17  1   
 28  16  18  2   
 29  17  19  1   
 30  18  20  1   
 31  19  20  1   
 32  19  31  1   
 33  19  32  1   
 34  20  33  1   
 35  20  34  1   
@<TRIPOS>SUBSTRUCTURE
  1 ****   5 GROUP 4 **** **** 0

# MOE 2024.06 (io_trps.svl 2023.06)
