@<TRIPOS>MOLECULE
NONAME
35 36 1 0 0 
SMALL
USER_CHARGES


@<TRIPOS>ATOM
  1 O        0.2910     2.8390    -1.5640 O.2   1 <1>  -0.5700 
  2 C        0.7790     2.2530    -0.6140 C.2   1 <1>   0.5440 
  3 N       -0.0360     1.9030     0.4330 N.am  1 <1>  -0.4940 
  4 C        2.1940     1.9400    -0.5750 C.ar  1 <1>   0.0860 
  5 C       -1.4120     2.0680     0.5600 C.2   1 <1>   0.2500 
  6 C        2.6910     0.8240     0.1080 C.ar  1 <1>  -0.1500 
  7 C        3.1230     2.7530    -1.2270 C.ar  1 <1>  -0.1500 
  8 N       -2.0920     1.6950     1.5940 N.2   1 <1>  -0.3380 
  9 N       -2.1990     2.6260    -0.3590 N.pl3 1 <1>   0.0330 
 10 C        4.0440     0.5440     0.1520 C.ar  1 <1>  -0.1500 
 11 C        4.4770     2.4780    -1.1880 C.ar  1 <1>  -0.1500 
 12 N       -3.3720     2.0150     1.3540 N.2   1 <1>  -0.3380 
 13 C       -3.4120     2.5650     0.1920 C.2   1 <1>   0.0370 
 14 C        4.9510     1.3760    -0.4970 C.ar  1 <1>   0.0830 
 15 O        6.2870     1.1790    -0.5020 O.3   1 <1>  -0.3630 
 16 C        6.8860     0.0900     0.1670 C.3   1 <1>   0.1200 
 17 C        8.4120     0.1640    -0.0030 C.3   1 <1>  -0.0800 
 18 C        9.0760    -1.0590     0.6440 C.3   1 <1>  -0.2400 
 19 C        8.9900     1.4490     0.6060 C.3   1 <1>  -0.2400 
 20 H        0.4030     1.4990     1.2580 H     1 <1>   0.3700 
 21 H        2.0110     0.1560     0.6060 H     1 <1>   0.1500 
 22 H        2.7740     3.6130    -1.7720 H     1 <1>   0.1500 
 23 H       -1.8710     2.9970    -1.2560 H     1 <1>   0.2700 
 24 H        4.3780    -0.3240     0.6890 H     1 <1>   0.1500 
 25 H        5.1790     3.1170    -1.6940 H     1 <1>   0.1500 
 26 H       -4.2990     2.9350    -0.2910 H     1 <1>   0.1500 
 27 H        6.5040    -0.8180    -0.2660 H     1 <1>   0.0800 
 28 H        6.6210     0.1440     1.2080 H     1 <1>   0.0800 
 29 H        8.6320     0.1470    -1.0570 H     1 <1>   0.0800 
 30 H        8.8810    -1.0830     1.7020 H     1 <1>   0.0800 
 31 H       10.1400    -1.0260     0.4930 H     1 <1>   0.0800 
 32 H        8.7020    -1.9660     0.2020 H     1 <1>   0.0800 
 33 H        8.7750     1.5020     1.6590 H     1 <1>   0.0800 
 34 H        8.5660     2.3140     0.1270 H     1 <1>   0.0800 
 35 H       10.0570     1.4810     0.4700 H     1 <1>   0.0800 
@<TRIPOS>BOND
  1   1   2  2   
  2   2   3  am  
  3   2   4  1   
  4   3   5  1   
  5   3  20  1   
  6   4   6  ar  
  7   4   7  ar  
  8   5   8  2   
  9   5   9  1   
 10   6  10  ar  
 11   6  21  1   
 12   7  11  ar  
 13   7  22  1   
 14   8  12  1   
 15   9  13  1   
 16   9  23  1   
 17  10  14  ar  
 18  10  24  1   
 19  11  14  ar  
 20  11  25  1   
 21  12  13  2   
 22  13  26  1   
 23  14  15  1   
 24  15  16  1   
 25  16  17  1   
 26  16  27  1   
 27  16  28  1   
 28  17  18  1   
 29  17  19  1   
 30  17  29  1   
 31  18  30  1   
 32  18  31  1   
 33  18  32  1   
 34  19  33  1   
 35  19  34  1   
 36  19  35  1   
@<TRIPOS>SUBSTRUCTURE
  1 ****   6 GROUP 4 **** **** 0

# MOE 2024.06 (io_trps.svl 2023.06)
