@<TRIPOS>MOLECULE
NONAME
48 50 1 0 0 
SMALL
USER_CHARGES


@<TRIPOS>ATOM
  1 S       -0.3850     0.2010    -0.1390 S.o2  1 <1>   1.4470 
  2 O       -0.9300     0.0770    -1.4750 O.2   1 <1>  -0.6500 
  3 O       -0.3080    -0.9840     0.6880 O.2   1 <1>  -0.6500 
  4 N       -1.3990     1.2940     0.6680 N.am  1 <1>  -0.8490 
  5 C        1.2260     1.0530    -0.1940 C.ar  1 <1>  -0.0090 
  6 C       -2.6940     0.6670     0.9910 C.3   1 <1>   0.1960 
  7 C       -1.6270     2.5260    -0.1130 C.3   1 <1>   0.1960 
  8 C        1.9600     1.3890     0.9480 C.ar  1 <1>  -0.1440 
  9 C        1.7580     1.4070    -1.4300 C.ar  1 <1>  -0.1500 
 10 C       -3.6410     1.6100     1.7620 C.3   1 <1>   0.2090 
 11 C       -2.5130     3.5430     0.6330 C.3   1 <1>   0.2090 
 12 C        3.1700     2.0580     0.8300 C.ar  1 <1>  -0.1500 
 13 C        1.4700     1.0370     2.3480 C.3   1 <1>  -0.0960 
 14 C        2.9640     2.0730    -1.5430 C.ar  1 <1>  -0.1500 
 15 N       -3.7950     2.9400     1.1010 N.pl3 1 <1>  -0.8380 
 16 C        3.6780     2.4050    -0.4080 C.ar  1 <1>  -0.1430 
 17 C       -4.9440     3.1780     0.3470 C.ar  1 <1>   0.1000 
 18 C        5.0050     3.1340    -0.5150 C.3   1 <1>  -0.0970 
 19 C       -5.9150     4.0770     0.7900 C.ar  1 <1>  -0.1430 
 20 C       -5.1400     2.5240    -0.8650 C.ar  1 <1>  -0.1500 
 21 C       -7.0480     4.3040     0.0260 C.ar  1 <1>  -0.1500 
 22 C       -5.7390     4.8120     2.1120 C.3   1 <1>  -0.0970 
 23 C       -6.2720     2.7530    -1.6240 C.ar  1 <1>  -0.1500 
 24 C       -7.2290     3.6460    -1.1780 C.ar  1 <1>  -0.1500 
 25 H       -2.5280    -0.2080     1.5950 H     1 <1>   0.0800 
 26 H       -3.1810     0.3480     0.0850 H     1 <1>   0.0800 
 27 H       -2.0970     2.2870    -1.0520 H     1 <1>   0.0800 
 28 H       -0.6840     2.9960    -0.3290 H     1 <1>   0.0800 
 29 H        1.2200     1.1560    -2.3290 H     1 <1>   0.1500 
 30 H       -3.2510     1.7610     2.7530 H     1 <1>   0.0800 
 31 H       -4.6070     1.1450     1.8570 H     1 <1>   0.0800 
 32 H       -2.7260     4.3740    -0.0160 H     1 <1>   0.0800 
 33 H       -1.9750     3.9190     1.4850 H     1 <1>   0.0800 
 34 H        3.7310     2.3120     1.7130 H     1 <1>   0.1500 
 35 H        0.5200     1.5000     2.5440 H     1 <1>   0.0800 
 36 H        2.1630     1.3740     3.0980 H     1 <1>   0.0800 
 37 H        1.3680    -0.0290     2.4500 H     1 <1>   0.0800 
 38 H        3.3440     2.3270    -2.5170 H     1 <1>   0.1500 
 39 H        5.8130     2.4260    -0.4670 H     1 <1>   0.0800 
 40 H        5.1110     3.8380     0.2910 H     1 <1>   0.0800 
 41 H        5.0710     3.6700    -1.4440 H     1 <1>   0.0800 
 42 H       -4.4000     1.8320    -1.2170 H     1 <1>   0.1500 
 43 H       -7.7990     4.9960     0.3640 H     1 <1>   0.1500 
 44 H       -5.6460     4.0990     2.9110 H     1 <1>   0.0800 
 45 H       -6.5750     5.4550     2.3170 H     1 <1>   0.0800 
 46 H       -4.8440     5.4070     2.0770 H     1 <1>   0.0800 
 47 H       -6.4090     2.2400    -2.5590 H     1 <1>   0.1500 
 48 H       -8.1130     3.8290    -1.7640 H     1 <1>   0.1500 
@<TRIPOS>BOND
  1   1   2  2   
  2   1   3  2   
  3   1   4  am  
  4   1   5  1   
  5   4   6  1   
  6   4   7  1   
  7   5   8  ar  
  8   5   9  ar  
  9   6  10  1   
 10   6  25  1   
 11   6  26  1   
 12   7  11  1   
 13   7  27  1   
 14   7  28  1   
 15   8  12  ar  
 16   8  13  1   
 17   9  14  ar  
 18   9  29  1   
 19  10  15  1   
 20  10  30  1   
 21  10  31  1   
 22  11  15  1   
 23  11  32  1   
 24  11  33  1   
 25  12  16  ar  
 26  12  34  1   
 27  13  35  1   
 28  13  36  1   
 29  13  37  1   
 30  14  16  ar  
 31  14  38  1   
 32  15  17  1   
 33  16  18  1   
 34  17  19  ar  
 35  17  20  ar  
 36  18  39  1   
 37  18  40  1   
 38  18  41  1   
 39  19  21  ar  
 40  19  22  1   
 41  20  23  ar  
 42  20  42  1   
 43  21  24  ar  
 44  21  43  1   
 45  22  44  1   
 46  22  45  1   
 47  22  46  1   
 48  23  24  ar  
 49  23  47  1   
 50  24  48  1   
@<TRIPOS>SUBSTRUCTURE
  1 ****   7 GROUP 4 **** **** 0

# MOE 2024.06 (io_trps.svl 2023.06)
