@<TRIPOS>MOLECULE
NONAME
46 48 1 0 0 
SMALL
USER_CHARGES


@<TRIPOS>ATOM
  1 F       -1.2080     1.3300    -0.5180 F     1 <1>  -0.1900 
  2 C       -2.2970     0.8000    -0.0300 C.ar  1 <1>   0.1900 
  3 C       -2.6520    -0.4740    -0.4270 C.ar  1 <1>  -0.1500 
  4 C       -3.0510     1.5330     0.8660 C.ar  1 <1>  -0.1500 
  5 C       -3.8040    -1.0480     0.0920 C.ar  1 <1>  -0.1440 
  6 C       -4.2040     0.9630     1.3780 C.ar  1 <1>  -0.1500 
  7 C       -4.5750    -0.3170     0.9910 C.ar  1 <1>  -0.1500 
  8 C       -4.2030    -2.4650    -0.3190 C.3   1 <1>   0.2450 
  9 C       -5.6610    -2.5460    -0.7450 C.2   1 <1>  -0.1810 
 10 C       -3.9530    -3.4550     0.8410 C.3   1 <1>  -0.0190 
 11 C       -6.4130    -1.7410    -1.5870 C.2   1 <1>   0.3510 
 12 C       -6.5260    -3.5040    -0.3590 C.2   1 <1>  -0.3320 
 13 C       -2.4700    -3.5430     1.1470 C.2   1 <1>   0.6590 
 14 C       -4.6370    -4.8320     0.6200 C.3   1 <1>   0.2800 
 15 O       -5.9900    -0.6680    -2.2510 O.3   1 <1>  -0.5120 
 16 N       -7.6390    -2.1170    -1.7180 N.2   1 <1>  -0.7070 
 17 N       -7.7150    -3.2250    -0.9420 N.pl3 1 <1>   0.3000 
 18 C       -6.1760    -4.6610     0.5600 C.3   1 <1>   0.0200 
 19 O       -2.0440    -3.3400     2.2560 O.2   1 <1>  -0.5700 
 20 O       -1.6630    -3.8160     0.1260 O.3   1 <1>  -0.4300 
 21 O       -4.3590    -5.6350     1.7040 O.3   1 <1>  -0.6800 
 22 C       -4.1290    -5.6040    -0.6080 C.3   1 <1>  -0.2400 
 23 C       -0.2670    -3.9140     0.2700 C.3   1 <1>   0.2000 
 24 C        0.3380    -2.5180     0.1280 C.3   1 <1>  -0.2400 
 25 C        0.2340    -4.8550    -0.8210 C.3   1 <1>  -0.2400 
 26 H       -2.0310    -0.9990    -1.1300 H     1 <1>   0.1500 
 27 H       -2.7420     2.5210     1.1510 H     1 <1>   0.1500 
 28 H       -4.8140     1.5110     2.0740 H     1 <1>   0.1500 
 29 H       -5.4770    -0.7440     1.3940 H     1 <1>   0.1500 
 30 H       -3.6170    -2.7550    -1.1740 H     1 <1>   0.0800 
 31 H       -4.4130    -3.0320     1.7150 H     1 <1>   0.0800 
 32 H       -6.7670    -0.3310    -2.7250 H     1 <1>   0.4500 
 33 H       -8.5860    -3.7620    -0.8430 H     1 <1>   0.2700 
 34 H       -6.6390    -5.5650     0.2070 H     1 <1>   0.0800 
 35 H       -6.5540    -4.4400     1.5430 H     1 <1>   0.0800 
 36 H       -4.6100    -6.5580     1.5170 H     1 <1>   0.4000 
 37 H       -4.2900    -5.0360    -1.5060 H     1 <1>   0.0800 
 38 H       -4.6550    -6.5350    -0.7170 H     1 <1>   0.0800 
 39 H       -3.0780    -5.8160    -0.5270 H     1 <1>   0.0800 
 40 H       -0.0440    -4.3290     1.2400 H     1 <1>   0.0800 
 41 H        0.1230    -2.1070    -0.8420 H     1 <1>   0.0800 
 42 H        1.4050    -2.5700     0.2480 H     1 <1>   0.0800 
 43 H       -0.0520    -1.8650     0.8890 H     1 <1>   0.0800 
 44 H       -0.0090    -4.4680    -1.7940 H     1 <1>   0.0800 
 45 H       -0.2110    -5.8260    -0.7000 H     1 <1>   0.0800 
 46 H        1.3020    -4.9610    -0.7510 H     1 <1>   0.0800 
@<TRIPOS>BOND
  1   1   2  1   
  2   2   3  ar  
  3   2   4  ar  
  4   3   5  ar  
  5   3  26  1   
  6   4   6  ar  
  7   4  27  1   
  8   5   7  ar  
  9   5   8  1   
 10   6   7  ar  
 11   6  28  1   
 12   7  29  1   
 13   8   9  1   
 14   8  10  1   
 15   8  30  1   
 16   9  11  1   
 17   9  12  2   
 18  10  13  1   
 19  10  14  1   
 20  10  31  1   
 21  11  15  1   
 22  11  16  2   
 23  12  17  1   
 24  12  18  1   
 25  13  19  2   
 26  13  20  1   
 27  14  18  1   
 28  14  21  1   
 29  14  22  1   
 30  15  32  1   
 31  16  17  1   
 32  17  33  1   
 33  18  34  1   
 34  18  35  1   
 35  20  23  1   
 36  21  36  1   
 37  22  37  1   
 38  22  38  1   
 39  22  39  1   
 40  23  24  1   
 41  23  25  1   
 42  23  40  1   
 43  24  41  1   
 44  24  42  1   
 45  24  43  1   
 46  25  44  1   
 47  25  45  1   
 48  25  46  1   
@<TRIPOS>SUBSTRUCTURE
  1 ****   8 GROUP 4 **** **** 0

# MOE 2024.06 (io_trps.svl 2023.06)
