@<TRIPOS>MOLECULE
NONAME
39 39 1 0 0 
SMALL
USER_CHARGES


@<TRIPOS>ATOM
  1 CL      -1.1630    -0.3250    -0.5380 Cl    1 <1>  -0.1770 
  2 C       -0.7930     1.2860     0.0270 C.ar  1 <1>   0.1770 
  3 C       -1.7770     2.2760     0.0660 C.ar  1 <1>   0.0860 
  4 C        0.5140     1.5330     0.4060 C.ar  1 <1>  -0.1500 
  5 C       -3.1480     2.0210    -0.3090 C.2   1 <1>   0.6340 
  6 C       -1.3760     3.5470     0.4880 C.ar  1 <1>  -0.1500 
  7 C        0.8780     2.7980     0.8290 C.ar  1 <1>  -0.1500 
  8 O       -3.7770     1.0330     0.0080 O.2   1 <1>  -0.5700 
  9 O       -3.7790     2.9530    -1.0340 O.3   1 <1>  -0.4300 
 10 C       -0.0700     3.8050     0.8660 C.ar  1 <1>  -0.1500 
 11 C       -5.0720     2.7470    -1.5790 C.3   1 <1>   0.1200 
 12 C       -6.1310     2.7320    -0.4580 C.3   1 <1>   0.3430 
 13 N       -7.2010     1.6870    -0.6630 N.4   1 <1>  -0.9590 
 14 C       -8.4300     1.9160     0.1530 C.3   1 <1>   0.5030 
 15 C       -6.5910     0.3230    -0.4570 C.3   1 <1>   0.2630 
 16 C       -9.4520     0.8170    -0.1590 C.3   1 <1>  -0.2400 
 17 C       -8.1130     1.9180     1.6520 C.3   1 <1>  -0.2400 
 18 C       -9.0500     3.2580    -0.2500 C.3   1 <1>  -0.2400 
 19 H        1.2400     0.7410     0.3650 H     1 <1>   0.1500 
 20 H       -2.0970     4.3460     0.5230 H     1 <1>   0.1500 
 21 H        1.8950     2.9990     1.1260 H     1 <1>   0.1500 
 22 H        0.2130     4.7930     1.1910 H     1 <1>   0.1500 
 23 H       -5.0480     1.8230    -2.1290 H     1 <1>   0.0800 
 24 H       -5.2660     3.5550    -2.2610 H     1 <1>   0.0800 
 25 H       -6.5700     3.7120    -0.4090 H     1 <1>   0.0800 
 26 H       -5.6390     2.5420     0.4820 H     1 <1>   0.0800 
 27 H       -7.5160     1.7430    -1.6380 H     1 <1>   0.4500 
 28 H       -6.2450     0.2160     0.5580 H     1 <1>   0.0800 
 29 H       -5.7440     0.1830    -1.1090 H     1 <1>   0.0800 
 30 H       -7.3050    -0.4550    -0.6660 H     1 <1>   0.0800 
 31 H       -9.1410    -0.1390     0.2200 H     1 <1>   0.0800 
 32 H       -9.6320     0.7440    -1.2160 H     1 <1>   0.0800 
 33 H      -10.3900     1.0440     0.3170 H     1 <1>   0.0800 
 34 H       -7.4350     2.7080     1.9150 H     1 <1>   0.0800 
 35 H       -7.7010     0.9780     1.9700 H     1 <1>   0.0800 
 36 H       -9.0190     2.0750     2.2110 H     1 <1>   0.0800 
 37 H       -8.4500     4.0920     0.0640 H     1 <1>   0.0800 
 38 H      -10.0070     3.3750     0.2280 H     1 <1>   0.0800 
 39 H       -9.2090     3.3080    -1.3120 H     1 <1>   0.0800 
@<TRIPOS>BOND
  1   1   2  1   
  2   2   3  ar  
  3   2   4  ar  
  4   3   5  1   
  5   3   6  ar  
  6   4   7  ar  
  7   4  19  1   
  8   5   8  2   
  9   5   9  1   
 10   6  10  ar  
 11   6  20  1   
 12   7  10  ar  
 13   7  21  1   
 14   9  11  1   
 15  10  22  1   
 16  11  12  1   
 17  11  23  1   
 18  11  24  1   
 19  12  13  1   
 20  12  25  1   
 21  12  26  1   
 22  13  14  1   
 23  13  15  1   
 24  13  27  1   
 25  14  16  1   
 26  14  17  1   
 27  14  18  1   
 28  15  28  1   
 29  15  29  1   
 30  15  30  1   
 31  16  31  1   
 32  16  32  1   
 33  16  33  1   
 34  17  34  1   
 35  17  35  1   
 36  17  36  1   
 37  18  37  1   
 38  18  38  1   
 39  18  39  1   
@<TRIPOS>SUBSTRUCTURE
  1 ****   5 GROUP 4 **** **** 0

# MOE 2024.06 (io_trps.svl 2023.06)
