@<TRIPOS>MOLECULE
NONAME
61 65 1 0 0 
SMALL
USER_CHARGES


@<TRIPOS>ATOM
  1 O       -5.4570     2.9010     3.2260 O.2   1 <1>  -0.5700 
  2 C       -5.6220     2.1320     2.3090 C.2   1 <1>   0.5690 
  3 N       -6.8110     2.1700     1.6550 N.am  1 <1>  -0.7300 
  4 C       -4.4720     1.1660     1.9790 C.3   1 <1>   0.1710 
  5 C       -7.4060     1.3860     0.5580 C.3   1 <1>   0.3000 
  6 N       -3.5090     1.6210     0.9310 N.3   1 <1>  -0.8100 
  7 C       -8.7110     2.1030     0.1600 C.3   1 <1>  -0.1600 
  8 C       -7.7530    -0.0360     1.0380 C.3   1 <1>  -0.1600 
  9 C       -6.4910     1.3180    -0.6780 C.3   1 <1>  -0.1600 
 10 C       -2.9560     2.9540     1.2500 C.3   1 <1>   0.2530 
 11 C       -2.4380     0.6250     0.7280 C.3   1 <1>   0.2530 
 12 C       -9.4270     1.3390    -0.9700 C.3   1 <1>  -0.0800 
 13 C       -8.4540    -0.8170    -0.0920 C.3   1 <1>  -0.0800 
 14 C       -7.1880     0.5410    -1.8120 C.3   1 <1>  -0.0800 
 15 C       -2.0930     3.4840     0.1120 C.ar  1 <1>  -0.1440 
 16 C       -3.0000    -0.6760     0.1730 C.ar  1 <1>  -0.1440 
 17 C       -9.7510    -0.0870    -0.4870 C.3   1 <1>  -0.1600 
 18 C       -8.4940     1.2610    -2.1930 C.3   1 <1>  -0.1600 
 19 C       -7.5190    -0.8810    -1.3160 C.3   1 <1>  -0.1600 
 20 C       -0.7950     3.9120     0.3490 C.ar  1 <1>  -0.1500 
 21 C       -2.6020     3.5460    -1.1760 C.ar  1 <1>  -0.1500 
 22 C       -3.3900    -0.7430    -1.1560 C.ar  1 <1>  -0.1500 
 23 C       -3.1240    -1.8020     0.9740 C.ar  1 <1>  -0.1500 
 24 C       -0.0160     4.3930    -0.6900 C.ar  1 <1>  -0.1500 
 25 C       -1.8260     4.0270    -2.2160 C.ar  1 <1>  -0.1500 
 26 C       -3.8980    -1.9190    -1.6800 C.ar  1 <1>  -0.1500 
 27 C       -3.6350    -2.9790     0.4520 C.ar  1 <1>  -0.1500 
 28 C       -0.5310     4.4510    -1.9730 C.ar  1 <1>  -0.1500 
 29 C       -4.0220    -3.0380    -0.8760 C.ar  1 <1>  -0.1500 
 30 H       -7.4430     2.8860     2.0110 H     1 <1>   0.3700 
 31 H       -4.9010     0.2300     1.6820 H     1 <1>   0.0800 
 32 H       -3.9330     0.9890     2.8930 H     1 <1>   0.0800 
 33 H       -8.4890     3.1010    -0.1730 H     1 <1>   0.0800 
 34 H       -9.3670     2.1680     1.0100 H     1 <1>   0.0800 
 35 H       -8.4000     0.0150     1.8950 H     1 <1>   0.0800 
 36 H       -6.8630    -0.5650     1.3190 H     1 <1>   0.0800 
 37 H       -5.5810     0.8050    -0.4420 H     1 <1>   0.0800 
 38 H       -6.2420     2.3100    -1.0090 H     1 <1>   0.0800 
 39 H       -2.3880     2.9050     2.1630 H     1 <1>   0.0800 
 40 H       -3.7590     3.6560     1.3960 H     1 <1>   0.0800 
 41 H       -1.9220     0.4450     1.6550 H     1 <1>   0.0800 
 42 H       -1.7180     0.9970     0.0190 H     1 <1>   0.0800 
 43 H      -10.3370     1.8490    -1.2380 H     1 <1>   0.0800 
 44 H       -8.6830    -1.8140     0.2430 H     1 <1>   0.0800 
 45 H       -6.5360     0.4850    -2.6670 H     1 <1>   0.0800 
 46 H      -10.2520    -0.6320    -1.2680 H     1 <1>   0.0800 
 47 H      -10.4170    -0.0440     0.3580 H     1 <1>   0.0800 
 48 H       -8.2730     2.2520    -2.5480 H     1 <1>   0.0800 
 49 H       -8.9830     0.7300    -2.9910 H     1 <1>   0.0800 
 50 H       -7.9900    -1.4410    -2.1050 H     1 <1>   0.0800 
 51 H       -6.6110    -1.3940    -1.0500 H     1 <1>   0.0800 
 52 H       -0.3840     3.8730     1.3430 H     1 <1>   0.1500 
 53 H       -3.6080     3.2110    -1.3640 H     1 <1>   0.1500 
 54 H       -3.3010     0.1300    -1.7790 H     1 <1>   0.1500 
 55 H       -2.8230    -1.7680     2.0060 H     1 <1>   0.1500 
 56 H        0.9900     4.7230    -0.5000 H     1 <1>   0.1500 
 57 H       -2.2300     4.0690    -3.2120 H     1 <1>   0.1500 
 58 H       -4.1980    -1.9600    -2.7130 H     1 <1>   0.1500 
 59 H       -3.7290    -3.8490     1.0780 H     1 <1>   0.1500 
 60 H        0.0730     4.8250    -2.7800 H     1 <1>   0.1500 
 61 H       -4.4170    -3.9520    -1.2820 H     1 <1>   0.1500 
@<TRIPOS>BOND
  1   1   2  2   
  2   2   3  am  
  3   2   4  1   
  4   3   5  1   
  5   3  30  1   
  6   4   6  1   
  7   4  31  1   
  8   4  32  1   
  9   5   7  1   
 10   5   8  1   
 11   5   9  1   
 12   6  10  1   
 13   6  11  1   
 14   7  12  1   
 15   7  33  1   
 16   7  34  1   
 17   8  13  1   
 18   8  35  1   
 19   8  36  1   
 20   9  14  1   
 21   9  37  1   
 22   9  38  1   
 23  10  15  1   
 24  10  39  1   
 25  10  40  1   
 26  11  16  1   
 27  11  41  1   
 28  11  42  1   
 29  12  17  1   
 30  12  18  1   
 31  12  43  1   
 32  13  17  1   
 33  13  19  1   
 34  13  44  1   
 35  14  18  1   
 36  14  19  1   
 37  14  45  1   
 38  15  20  ar  
 39  15  21  ar  
 40  16  22  ar  
 41  16  23  ar  
 42  17  46  1   
 43  17  47  1   
 44  18  48  1   
 45  18  49  1   
 46  19  50  1   
 47  19  51  1   
 48  20  24  ar  
 49  20  52  1   
 50  21  25  ar  
 51  21  53  1   
 52  22  26  ar  
 53  22  54  1   
 54  23  27  ar  
 55  23  55  1   
 56  24  28  ar  
 57  24  56  1   
 58  25  28  ar  
 59  25  57  1   
 60  26  29  ar  
 61  26  58  1   
 62  27  29  ar  
 63  27  59  1   
 64  28  60  1   
 65  29  61  1   
@<TRIPOS>SUBSTRUCTURE
  1 ****   9 GROUP 4 **** **** 0

# MOE 2024.06 (io_trps.svl 2023.06)
