@<TRIPOS>MOLECULE
NONAME
47 49 1 0 0 
SMALL
USER_CHARGES


@<TRIPOS>ATOM
  1 O       -0.1720    -0.5270     0.4320 O.2   1 <1>  -0.5700 
  2 C        0.0090    -1.7050     0.6350 C.2   1 <1>   0.5690 
  3 N       -0.9890    -2.6610     0.4960 N.am  1 <1>  -0.2980 
  4 C        1.4040    -2.1050     1.0750 C.3   1 <1>  -0.1790 
  5 N       -2.3000    -2.4040     0.1640 N.2   1 <1>  -0.5120 
  6 C       -0.7860    -4.1080     0.7330 C.3   1 <1>   0.3640 
  7 C       -2.9950    -3.4690     0.1580 C.2   1 <1>   0.3030 
  8 C        0.2250    -4.7420    -0.2310 C.ar  1 <1>  -0.1440 
  9 C       -2.1800    -4.6900     0.5220 C.3   1 <1>  -0.0990 
 10 C       -4.4050    -3.5660    -0.1490 C.ar  1 <1>   0.0860 
 11 C        1.1310    -5.7140     0.1930 C.ar  1 <1>  -0.1440 
 12 C        0.2350    -4.3430    -1.5630 C.ar  1 <1>  -0.1500 
 13 C       -5.1390    -2.4180    -0.4550 C.ar  1 <1>  -0.1500 
 14 C       -5.0980    -4.7810    -0.1570 C.ar  1 <1>  -0.1500 
 15 C        2.0280    -6.2550    -0.7160 C.ar  1 <1>  -0.1500 
 16 C        1.1760    -6.2140     1.6310 C.3   1 <1>  -0.0970 
 17 C        1.1320    -4.8890    -2.4610 C.ar  1 <1>  -0.1500 
 18 C       -6.4950    -2.4630    -0.7540 C.ar  1 <1>   0.0820 
 19 C       -6.4470    -4.8460    -0.4520 C.ar  1 <1>  -0.1500 
 20 C        2.0310    -5.8470    -2.0370 C.ar  1 <1>  -0.1500 
 21 O       -7.2170    -1.3440    -1.0530 O.3   1 <1>  -0.3620 
 22 C       -7.1600    -3.6910    -0.7530 C.ar  1 <1>   0.0820 
 23 C       -6.6250    -0.0640    -1.0750 C.3   1 <1>   0.0400 
 24 O       -8.4900    -3.7060    -1.0490 O.3   1 <1>  -0.3630 
 25 C       -9.2420    -4.8980    -1.0660 C.3   1 <1>   0.0400 
 26 H        1.3620    -2.7190     1.9530 H     1 <1>   0.0800 
 27 H        1.9740    -1.2240     1.3030 H     1 <1>   0.0800 
 28 H        1.8990    -2.6330     0.2820 H     1 <1>   0.0800 
 29 H       -0.4920    -4.2370     1.7580 H     1 <1>   0.0800 
 30 H       -2.5410    -5.1390     1.4270 H     1 <1>   0.0800 
 31 H       -2.1870    -5.4090    -0.2770 H     1 <1>   0.0800 
 32 H       -0.4590    -3.5960    -1.9120 H     1 <1>   0.1500 
 33 H       -4.6130    -1.4820    -0.4520 H     1 <1>   0.1500 
 34 H       -4.5850    -5.6970     0.0680 H     1 <1>   0.1500 
 35 H        2.7350    -7.0040    -0.4040 H     1 <1>   0.1500 
 36 H        1.4960    -5.4250     2.2880 H     1 <1>   0.0800 
 37 H        1.8650    -7.0330     1.7330 H     1 <1>   0.0800 
 38 H        0.2050    -6.5600     1.9370 H     1 <1>   0.0800 
 39 H        1.1300    -4.5670    -3.4880 H     1 <1>   0.1500 
 40 H       -6.9270    -5.8060    -0.4440 H     1 <1>   0.1500 
 41 H        2.7320    -6.2740    -2.7330 H     1 <1>   0.1500 
 42 H       -7.3870     0.6500    -1.3330 H     1 <1>   0.0800 
 43 H       -5.8460    -0.0510    -1.8170 H     1 <1>   0.0800 
 44 H       -6.2330     0.1580    -0.0980 H     1 <1>   0.0800 
 45 H      -10.2550    -4.6480    -1.3230 H     1 <1>   0.0800 
 46 H       -9.2130    -5.3440    -0.0880 H     1 <1>   0.0800 
 47 H       -8.8310    -5.5600    -1.8080 H     1 <1>   0.0800 
@<TRIPOS>BOND
  1   1   2  2   
  2   2   3  am  
  3   2   4  1   
  4   3   5  1   
  5   3   6  1   
  6   4  26  1   
  7   4  27  1   
  8   4  28  1   
  9   5   7  2   
 10   6   8  1   
 11   6   9  1   
 12   6  29  1   
 13   7   9  1   
 14   7  10  1   
 15   8  11  ar  
 16   8  12  ar  
 17   9  30  1   
 18   9  31  1   
 19  10  13  ar  
 20  10  14  ar  
 21  11  15  ar  
 22  11  16  1   
 23  12  17  ar  
 24  12  32  1   
 25  13  18  ar  
 26  13  33  1   
 27  14  19  ar  
 28  14  34  1   
 29  15  20  ar  
 30  15  35  1   
 31  16  36  1   
 32  16  37  1   
 33  16  38  1   
 34  17  20  ar  
 35  17  39  1   
 36  18  21  1   
 37  18  22  ar  
 38  19  22  ar  
 39  19  40  1   
 40  20  41  1   
 41  21  23  1   
 42  22  24  1   
 43  23  42  1   
 44  23  43  1   
 45  23  44  1   
 46  24  25  1   
 47  25  45  1   
 48  25  46  1   
 49  25  47  1   
@<TRIPOS>SUBSTRUCTURE
  1 ****   7 GROUP 4 **** **** 0

# MOE 2024.06 (io_trps.svl 2023.06)
