@<TRIPOS>MOLECULE
NONAME
51 51 1 0 0 
SMALL
USER_CHARGES


@<TRIPOS>ATOM
  1 O       -1.0340    -0.8660     1.3040 O.3   1 <1>  -0.2800 
  2 C       -1.7470    -0.7340     0.2000 C.2   1 <1>  -0.0400 
  3 C        0.0550    -1.5440     1.0120 C.2   1 <1>  -0.0400 
  4 C       -1.1090    -1.3370    -0.8310 C.2   1 <1>  -0.1500 
  5 C       -3.0740     0.0270     0.2810 C.3   1 <1>   0.1800 
  6 C        0.0710    -1.8680    -0.2960 C.2   1 <1>  -0.1500 
  7 C        1.0480    -1.8320     2.1160 C.3   1 <1>  -0.0600 
  8 C       -3.7460     0.0170    -1.1140 C.3   1 <1>  -0.1600 
  9 C       -2.7740     1.4730     0.7130 C.3   1 <1>  -0.2400 
 10 C       -3.9490    -0.6420     1.3570 C.3   1 <1>  -0.2400 
 11 C       -5.1070     0.7180    -1.2250 C.3   1 <1>   0.4230 
 12 N       -6.1670    -0.1970    -0.7510 N.4   1 <1>  -0.9060 
 13 C       -5.4130     1.0770    -2.6780 C.3   1 <1>  -0.2400 
 14 C       -7.4400     0.4880    -0.3990 C.3   1 <1>   0.3430 
 15 C       -8.4640    -0.5370     0.1050 C.3   1 <1>  -0.1600 
 16 C       -9.7870     0.1480     0.4840 C.3   1 <1>   0.3430 
 17 N      -10.7590    -0.8300     1.0610 N.4   1 <1>  -0.9590 
 18 C      -11.3210    -1.7810     0.0430 C.3   1 <1>   0.2630 
 19 C      -11.8920    -0.1060     1.7270 C.3   1 <1>   0.2630 
 20 H       -1.3910    -1.4230    -1.8640 H     1 <1>   0.1500 
 21 H        0.8170    -2.4150    -0.8450 H     1 <1>   0.1500 
 22 H        0.5720    -2.4030     2.8920 H     1 <1>   0.0800 
 23 H        1.4040    -0.9070     2.5320 H     1 <1>   0.0800 
 24 H        1.8820    -2.3880     1.7310 H     1 <1>   0.0800 
 25 H       -3.8300    -0.9950    -1.4710 H     1 <1>   0.0800 
 26 H       -3.0640     0.5170    -1.7810 H     1 <1>   0.0800 
 27 H       -3.6680     2.0550     0.8340 H     1 <1>   0.0800 
 28 H       -2.2510     1.4730     1.6540 H     1 <1>   0.0800 
 29 H       -2.1380     1.9540    -0.0090 H     1 <1>   0.0800 
 30 H       -3.3960    -0.7100     2.2790 H     1 <1>   0.0800 
 31 H       -4.8320    -0.0710     1.5700 H     1 <1>   0.0800 
 32 H       -4.2050    -1.6450     1.0660 H     1 <1>   0.0800 
 33 H       -5.0920     1.6190    -0.6320 H     1 <1>   0.0800 
 34 H       -5.7860    -0.6970     0.0630 H     1 <1>   0.4500 
 35 H       -6.3130    -0.9030    -1.4840 H     1 <1>   0.4500 
 36 H       -5.4170     0.2030    -3.3050 H     1 <1>   0.0800 
 37 H       -4.6530     1.7430    -3.0500 H     1 <1>   0.0800 
 38 H       -6.3530     1.5900    -2.7680 H     1 <1>   0.0800 
 39 H       -7.8310     0.9970    -1.2670 H     1 <1>   0.0800 
 40 H       -7.2520     1.2250     0.3670 H     1 <1>   0.0800 
 41 H       -8.0660    -1.0330     0.9730 H     1 <1>   0.0800 
 42 H       -8.6450    -1.2580    -0.6720 H     1 <1>   0.0800 
 43 H      -10.2220     0.6220    -0.3820 H     1 <1>   0.0800 
 44 H       -9.5860     0.9150     1.2160 H     1 <1>   0.0800 
 45 H      -10.2900    -1.3870     1.7940 H     1 <1>   0.4500 
 46 H      -11.8310    -1.2400    -0.7370 H     1 <1>   0.0800 
 47 H      -12.0260    -2.4520     0.5090 H     1 <1>   0.0800 
 48 H      -10.5360    -2.3720    -0.4000 H     1 <1>   0.0800 
 49 H      -12.4360     0.4880     1.0100 H     1 <1>   0.0800 
 50 H      -11.5210     0.5450     2.5030 H     1 <1>   0.0800 
 51 H      -12.5750    -0.8100     2.1750 H     1 <1>   0.0800 
@<TRIPOS>BOND
  1   1   2  1   
  2   1   3  1   
  3   2   4  2   
  4   2   5  1   
  5   3   6  2   
  6   3   7  1   
  7   4   6  1   
  8   4  20  1   
  9   5   8  1   
 10   5   9  1   
 11   5  10  1   
 12   6  21  1   
 13   7  22  1   
 14   7  23  1   
 15   7  24  1   
 16   8  11  1   
 17   8  25  1   
 18   8  26  1   
 19   9  27  1   
 20   9  28  1   
 21   9  29  1   
 22  10  30  1   
 23  10  31  1   
 24  10  32  1   
 25  11  12  1   
 26  11  13  1   
 27  11  33  1   
 28  12  14  1   
 29  12  34  1   
 30  12  35  1   
 31  13  36  1   
 32  13  37  1   
 33  13  38  1   
 34  14  15  1   
 35  14  39  1   
 36  14  40  1   
 37  15  16  1   
 38  15  41  1   
 39  15  42  1   
 40  16  17  1   
 41  16  43  1   
 42  16  44  1   
 43  17  18  1   
 44  17  19  1   
 45  17  45  1   
 46  18  46  1   
 47  18  47  1   
 48  18  48  1   
 49  19  49  1   
 50  19  50  1   
 51  19  51  1   
@<TRIPOS>SUBSTRUCTURE
  1 ****  10 GROUP 4 **** **** 0

# MOE 2024.06 (io_trps.svl 2023.06)
