@<TRIPOS>MOLECULE
NONAME
39 40 1 0 0 
SMALL
USER_CHARGES


@<TRIPOS>ATOM
  1 BR      -0.0370    -0.0920    -0.2810 Br    1 <1>  -0.1110 
  2 C       -1.7680    -0.9020    -0.0530 C.ar  1 <1>   0.1110 
  3 C       -2.2380    -1.1180     1.2280 C.ar  1 <1>  -0.1500 
  4 C       -2.4960    -1.2450    -1.1760 C.ar  1 <1>  -0.1500 
  5 C       -3.4850    -1.7010     1.3870 C.ar  1 <1>  -0.1500 
  6 C       -3.7400    -1.8260    -1.0020 C.ar  1 <1>  -0.1500 
  7 C       -4.2390    -2.0560     0.2740 C.ar  1 <1>  -0.1430 
  8 C       -5.6100    -2.7000     0.4380 C.3   1 <1>   0.2540 
  9 N       -6.6620    -1.9110    -0.2370 N.3   1 <1>  -0.8100 
 10 C       -7.9820    -2.6190    -0.2550 C.3   1 <1>   0.2510 
 11 C       -6.7710    -0.5550     0.3340 C.3   1 <1>   0.1100 
 12 C       -7.9700    -4.0890    -0.7690 C.2   1 <1>   0.6590 
 13 C       -8.9740    -1.8000    -1.1010 C.3   1 <1>  -0.1600 
 14 C       -7.7400     0.2920    -0.4930 C.3   1 <1>  -0.1600 
 15 O       -7.3170    -4.4260    -1.7230 O.2   1 <1>  -0.5700 
 16 O       -8.7020    -5.0100    -0.1410 O.3   1 <1>  -0.4300 
 17 C       -9.1210    -0.3630    -0.5870 C.3   1 <1>  -0.1600 
 18 C       -9.6300    -4.7860     0.8930 C.3   1 <1>   0.1200 
 19 C      -10.3440    -6.1040     1.1720 C.3   1 <1>  -0.2400 
 20 H       -1.6420    -0.8380     2.0770 H     1 <1>   0.1500 
 21 H       -2.1030    -1.0620    -2.1590 H     1 <1>   0.1500 
 22 H       -3.8640    -1.8760     2.3780 H     1 <1>   0.1500 
 23 H       -4.3350    -2.1000    -1.8580 H     1 <1>   0.1500 
 24 H       -5.8490    -2.8080     1.4820 H     1 <1>   0.0800 
 25 H       -5.5520    -3.6830     0.0040 H     1 <1>   0.0800 
 26 H       -8.3390    -2.6230     0.7570 H     1 <1>   0.0800 
 27 H       -5.8090    -0.0710     0.3210 H     1 <1>   0.0800 
 28 H       -7.1070    -0.6120     1.3550 H     1 <1>   0.0800 
 29 H       -9.9370    -2.2770    -1.0980 H     1 <1>   0.0800 
 30 H       -8.6220    -1.7860    -2.1190 H     1 <1>   0.0800 
 31 H       -7.3280     0.4170    -1.4800 H     1 <1>   0.0800 
 32 H       -7.8290     1.2670    -0.0490 H     1 <1>   0.0800 
 33 H       -9.5820    -0.3700     0.3850 H     1 <1>   0.0800 
 34 H       -9.7480     0.2030    -1.2540 H     1 <1>   0.0800 
 35 H      -10.3340    -4.0360     0.5740 H     1 <1>   0.0800 
 36 H       -9.0980    -4.4540     1.7690 H     1 <1>   0.0800 
 37 H      -10.8600    -6.4390     0.2900 H     1 <1>   0.0800 
 38 H      -11.0630    -5.9710     1.9610 H     1 <1>   0.0800 
 39 H       -9.6350    -6.8520     1.4770 H     1 <1>   0.0800 
@<TRIPOS>BOND
  1   1   2  1   
  2   2   3  ar  
  3   2   4  ar  
  4   3   5  ar  
  5   3  20  1   
  6   4   6  ar  
  7   4  21  1   
  8   5   7  ar  
  9   5  22  1   
 10   6   7  ar  
 11   6  23  1   
 12   7   8  1   
 13   8   9  1   
 14   8  24  1   
 15   8  25  1   
 16   9  10  1   
 17   9  11  1   
 18  10  12  1   
 19  10  13  1   
 20  10  26  1   
 21  11  14  1   
 22  11  27  1   
 23  11  28  1   
 24  12  15  2   
 25  12  16  1   
 26  13  17  1   
 27  13  29  1   
 28  13  30  1   
 29  14  17  1   
 30  14  31  1   
 31  14  32  1   
 32  16  18  1   
 33  17  33  1   
 34  17  34  1   
 35  18  19  1   
 36  18  35  1   
 37  18  36  1   
 38  19  37  1   
 39  19  38  1   
 40  19  39  1   
@<TRIPOS>SUBSTRUCTURE
  1 ****   9 GROUP 4 **** **** 0

# MOE 2024.06 (io_trps.svl 2023.06)
