@<TRIPOS>MOLECULE
NONAME
50 51 1 0 0 
SMALL
USER_CHARGES


@<TRIPOS>ATOM
  1 S       -0.1620     0.0460     0.7010 S.o2  1 <1>   1.4470 
  2 O       -0.5290    -0.2580     2.0650 O.2   1 <1>  -0.6500 
  3 O       -0.2510    -0.9680    -0.3220 O.2   1 <1>  -0.6500 
  4 N       -1.2760     1.1850     0.1690 N.am  1 <1>  -0.9140 
  5 C        1.4190     0.9290     0.6270 C.ar  1 <1>  -0.0090 
  6 C       -2.6370     0.7960     0.4720 C.3   1 <1>   0.1960 
  7 C        2.3020     0.7390    -0.4300 C.ar  1 <1>  -0.1500 
  8 C        1.7780     1.8370     1.6160 C.ar  1 <1>  -0.1500 
  9 C       -3.5820     1.8770    -0.0470 C.3   1 <1>  -0.1600 
 10 C        3.5040     1.4240    -0.5080 C.ar  1 <1>  -0.1430 
 11 C        2.9740     2.5300     1.5560 C.ar  1 <1>  -0.1500 
 12 C       -5.0160     1.5680     0.3830 C.3   1 <1>   0.3430 
 13 C        3.8470     2.3290     0.4910 C.ar  1 <1>   0.0830 
 14 C        4.4400     1.1810    -1.6840 C.3   1 <1>  -0.0970 
 15 N       -5.9280     2.6880     0.0170 N.4   1 <1>  -0.9590 
 16 O        5.0340     2.9780     0.3750 O.3   1 <1>  -0.3620 
 17 C       -7.2550     2.5420     0.7150 C.3   1 <1>   0.3430 
 18 C       -6.1400     2.8080    -1.4720 C.3   1 <1>   0.3430 
 19 C        5.4760     3.9040     1.3400 C.3   1 <1>   0.1200 
 20 C       -8.2540     3.6290     0.2740 C.3   1 <1>   0.1200 
 21 C       -7.1910     3.8820    -1.8130 C.3   1 <1>   0.1200 
 22 C        6.8380     4.4320     0.8980 C.3   1 <1>  -0.2400 
 23 O       -8.3770     3.6340    -1.1170 O.3   1 <1>  -0.5600 
 24 H       -1.1560     1.1520    -0.8420 H     1 <1>   0.4200 
 25 H       -2.7490     0.7020     1.5420 H     1 <1>   0.0800 
 26 H       -2.8570    -0.1590     0.0190 H     1 <1>   0.0800 
 27 H        2.0420     0.0370    -1.2040 H     1 <1>   0.1500 
 28 H        1.1110     2.0010     2.4460 H     1 <1>   0.1500 
 29 H       -3.5100     1.9140    -1.1190 H     1 <1>   0.0800 
 30 H       -3.2780     2.8210     0.3710 H     1 <1>   0.0800 
 31 H        3.2070     3.2190     2.3460 H     1 <1>   0.1500 
 32 H       -5.0320     1.4300     1.4530 H     1 <1>   0.0800 
 33 H       -5.3500     0.6520    -0.0780 H     1 <1>   0.0800 
 34 H        4.0360     0.4520    -2.3630 H     1 <1>   0.0800 
 35 H        5.3890     0.8260    -1.3240 H     1 <1>   0.0800 
 36 H        4.5970     2.1000    -2.2190 H     1 <1>   0.0800 
 37 H       -5.5080     3.5690     0.3430 H     1 <1>   0.4500 
 38 H       -7.1200     2.5980     1.7830 H     1 <1>   0.0800 
 39 H       -7.6840     1.5800     0.4860 H     1 <1>   0.0800 
 40 H       -6.4800     1.8660    -1.8690 H     1 <1>   0.0800 
 41 H       -5.2120     3.0570    -1.9600 H     1 <1>   0.0800 
 42 H        5.5530     3.3980     2.2870 H     1 <1>   0.0800 
 43 H        4.7590     4.7040     1.3980 H     1 <1>   0.0800 
 44 H       -7.9400     4.6060     0.6000 H     1 <1>   0.0800 
 45 H       -9.2280     3.4280     0.6870 H     1 <1>   0.0800 
 46 H       -7.4190     3.8570    -2.8650 H     1 <1>   0.0800 
 47 H       -6.8410     4.8680    -1.5640 H     1 <1>   0.0800 
 48 H        7.5420     3.6220     0.8270 H     1 <1>   0.0800 
 49 H        7.2040     5.1430     1.6170 H     1 <1>   0.0800 
 50 H        6.7530     4.9200    -0.0560 H     1 <1>   0.0800 
@<TRIPOS>BOND
  1   1   2  2   
  2   1   3  2   
  3   1   4  am  
  4   1   5  1   
  5   4   6  1   
  6   4  24  1   
  7   5   7  ar  
  8   5   8  ar  
  9   6   9  1   
 10   6  25  1   
 11   6  26  1   
 12   7  10  ar  
 13   7  27  1   
 14   8  11  ar  
 15   8  28  1   
 16   9  12  1   
 17   9  29  1   
 18   9  30  1   
 19  10  13  ar  
 20  10  14  1   
 21  11  13  ar  
 22  11  31  1   
 23  12  15  1   
 24  12  32  1   
 25  12  33  1   
 26  13  16  1   
 27  14  34  1   
 28  14  35  1   
 29  14  36  1   
 30  15  17  1   
 31  15  18  1   
 32  15  37  1   
 33  16  19  1   
 34  17  20  1   
 35  17  38  1   
 36  17  39  1   
 37  18  21  1   
 38  18  40  1   
 39  18  41  1   
 40  19  22  1   
 41  19  42  1   
 42  19  43  1   
 43  20  23  1   
 44  20  44  1   
 45  20  45  1   
 46  21  23  1   
 47  21  46  1   
 48  21  47  1   
 49  22  48  1   
 50  22  49  1   
 51  22  50  1   
@<TRIPOS>SUBSTRUCTURE
  1 ****   4 GROUP 4 **** **** 0

# MOE 2024.06 (io_trps.svl 2023.06)
