@<TRIPOS>MOLECULE
NONAME
33 33 1 0 0 
SMALL
USER_CHARGES


@<TRIPOS>ATOM
  1 O       -8.8340     4.4950    -0.1880 O.3   1 <1>  -0.6800 
  2 C       -7.5820     3.9370    -0.0240 C.3   1 <1>   0.2000 
  3 C       -6.7620     4.8470     0.9030 C.3   1 <1>   0.0400 
  4 C       -6.9840     3.7950    -1.4240 C.3   1 <1>  -0.2400 
  5 C       -5.4080     4.2840     1.1960 C.1   1 <1>  -0.2000 
  6 C       -4.3290     3.8410     1.4300 C.1   1 <1>  -0.2000 
  7 C       -2.9680     3.3100     1.7020 C.3   1 <1>   0.5430 
  8 N       -2.0810     3.7600     0.6010 N.4   1 <1>  -0.9590 
  9 C       -0.8060     2.9900     0.5730 C.3   1 <1>   0.3430 
 10 C       -1.8500     5.2350     0.6490 C.3   1 <1>   0.3430 
 11 C        0.0070     3.3850    -0.6610 C.3   1 <1>  -0.1600 
 12 C       -1.0560     5.6710    -0.5840 C.3   1 <1>  -0.1600 
 13 C        0.2630     4.8970    -0.7150 C.3   1 <1>  -0.1600 
 14 H       -9.3530     4.4410     0.6380 H     1 <1>   0.4000 
 15 H       -7.7110     2.9640     0.4210 H     1 <1>   0.0800 
 16 H       -7.2850     4.9700     1.8340 H     1 <1>   0.0800 
 17 H       -6.6480     5.8140     0.4450 H     1 <1>   0.0800 
 18 H       -6.8690     4.7610    -1.8830 H     1 <1>   0.0800 
 19 H       -7.6290     3.1890    -2.0360 H     1 <1>   0.0800 
 20 H       -6.0230     3.3180    -1.3760 H     1 <1>   0.0800 
 21 H       -3.0090     2.2330     1.7320 H     1 <1>   0.0800 
 22 H       -2.6080     3.6720     2.6510 H     1 <1>   0.0800 
 23 H       -2.5920     3.5680    -0.2690 H     1 <1>   0.4500 
 24 H       -1.0100     1.9310     0.5420 H     1 <1>   0.0800 
 25 H       -0.2320     3.2010     1.4610 H     1 <1>   0.0800 
 26 H       -1.3000     5.4920     1.5400 H     1 <1>   0.0800 
 27 H       -2.7930     5.7600     0.6690 H     1 <1>   0.0800 
 28 H       -0.5150     3.0700    -1.5490 H     1 <1>   0.0800 
 29 H        0.9490     2.8660    -0.6440 H     1 <1>   0.0800 
 30 H       -0.8450     6.7240    -0.5120 H     1 <1>   0.0800 
 31 H       -1.6570     5.5250    -1.4650 H     1 <1>   0.0800 
 32 H        0.7470     5.1540    -1.6430 H     1 <1>   0.0800 
 33 H        0.9260     5.1780     0.0870 H     1 <1>   0.0800 
@<TRIPOS>BOND
  1   1   2  1   
  2   1  14  1   
  3   2   3  1   
  4   2   4  1   
  5   2  15  1   
  6   3   5  1   
  7   3  16  1   
  8   3  17  1   
  9   4  18  1   
 10   4  19  1   
 11   4  20  1   
 12   5   6  3   
 13   6   7  1   
 14   7   8  1   
 15   7  21  1   
 16   7  22  1   
 17   8   9  1   
 18   8  10  1   
 19   8  23  1   
 20   9  11  1   
 21   9  24  1   
 22   9  25  1   
 23  10  12  1   
 24  10  26  1   
 25  10  27  1   
 26  11  13  1   
 27  11  28  1   
 28  11  29  1   
 29  12  13  1   
 30  12  30  1   
 31  12  31  1   
 32  13  32  1   
 33  13  33  1   
@<TRIPOS>SUBSTRUCTURE
  1 ****   6 GROUP 4 **** **** 0

# MOE 2024.06 (io_trps.svl 2023.06)
