@<TRIPOS>MOLECULE
NONAME
40 41 1 0 0 
SMALL
USER_CHARGES


@<TRIPOS>ATOM
  1 CL      -0.9300    -1.5040    -1.6800 Cl    1 <1>  -0.1770 
  2 C        0.3970    -2.4630    -1.0760 C.ar  1 <1>   0.1770 
  3 C        0.3050    -3.1600     0.1200 C.ar  1 <1>  -0.0090 
  4 C        1.5430    -2.5010    -1.8500 C.ar  1 <1>  -0.1500 
  5 S       -1.1980    -3.1230     1.1220 S.o2  1 <1>   1.4470 
  6 C        1.4110    -3.9060     0.5130 C.ar  1 <1>  -0.1500 
  7 C        2.6260    -3.2500    -1.4330 C.ar  1 <1>  -0.1500 
  8 O       -1.5910    -1.7510     1.3580 O.2   1 <1>  -0.6500 
  9 O       -1.0340    -3.9930     2.2670 O.2   1 <1>  -0.6500 
 10 N       -2.3550    -3.8550     0.1230 N.am  1 <1>  -0.8490 
 11 C        2.5840    -3.9670    -0.2380 C.ar  1 <1>   0.0860 
 12 C       -2.1910    -5.3120     0.0550 C.3   1 <1>   0.1960 
 13 C       -3.7190    -3.4910     0.5140 C.3   1 <1>   0.1960 
 14 C        3.7080    -4.7670     0.2100 C.2   1 <1>   0.5440 
 15 C       -3.1350    -5.9000    -0.9980 C.3   1 <1>  -0.1600 
 16 C       -4.7260    -4.0270    -0.5100 C.3   1 <1>  -0.1600 
 17 O        3.5160    -5.9330     0.4950 O.2   1 <1>  -0.5700 
 18 N        4.9820    -4.2440     0.3250 N.am  1 <1>  -0.6600 
 19 C       -4.5940    -5.5430    -0.6960 C.3   1 <1>  -0.1600 
 20 C        6.1580    -5.1200     0.5870 C.3   1 <1>   0.0600 
 21 C        5.2780    -2.7860     0.3720 C.3   1 <1>   0.0600 
 22 H        1.5780    -1.9500    -2.7740 H     1 <1>   0.1500 
 23 H        1.3710    -4.4680     1.4330 H     1 <1>   0.1500 
 24 H        3.5170    -3.2920    -2.0370 H     1 <1>   0.1500 
 25 H       -2.4000    -5.7510     1.0170 H     1 <1>   0.0800 
 26 H       -1.1760    -5.5530    -0.2120 H     1 <1>   0.0800 
 27 H       -3.8140    -2.4180     0.5550 H     1 <1>   0.0800 
 28 H       -3.9360    -3.8860     1.4940 H     1 <1>   0.0800 
 29 H       -3.0210    -6.9690    -1.0220 H     1 <1>   0.0800 
 30 H       -2.8570    -5.5170    -1.9650 H     1 <1>   0.0800 
 31 H       -4.5560    -3.5290    -1.4490 H     1 <1>   0.0800 
 32 H       -5.7240    -3.7860    -0.1880 H     1 <1>   0.0800 
 33 H       -4.9060    -6.0420     0.2060 H     1 <1>   0.0800 
 34 H       -5.2300    -5.8720    -1.5000 H     1 <1>   0.0800 
 35 H        5.9290    -6.1450     0.3510 H     1 <1>   0.0800 
 36 H        6.4310    -5.0580     1.6260 H     1 <1>   0.0800 
 37 H        6.9910    -4.8090    -0.0200 H     1 <1>   0.0800 
 38 H        4.3770    -2.2110     0.4870 H     1 <1>   0.0800 
 39 H        5.7740    -2.4880    -0.5350 H     1 <1>   0.0800 
 40 H        5.9210    -2.5730     1.2090 H     1 <1>   0.0800 
@<TRIPOS>BOND
  1   1   2  1   
  2   2   3  ar  
  3   2   4  ar  
  4   3   5  1   
  5   3   6  ar  
  6   4   7  ar  
  7   4  22  1   
  8   5   8  2   
  9   5   9  2   
 10   5  10  am  
 11   6  11  ar  
 12   6  23  1   
 13   7  11  ar  
 14   7  24  1   
 15  10  12  1   
 16  10  13  1   
 17  11  14  1   
 18  12  15  1   
 19  12  25  1   
 20  12  26  1   
 21  13  16  1   
 22  13  27  1   
 23  13  28  1   
 24  14  17  2   
 25  14  18  am  
 26  15  19  1   
 27  15  29  1   
 28  15  30  1   
 29  16  19  1   
 30  16  31  1   
 31  16  32  1   
 32  18  20  1   
 33  18  21  1   
 34  19  33  1   
 35  19  34  1   
 36  20  35  1   
 37  20  36  1   
 38  20  37  1   
 39  21  38  1   
 40  21  39  1   
 41  21  40  1   
@<TRIPOS>SUBSTRUCTURE
  1 ****   3 GROUP 4 **** **** 0

# MOE 2024.06 (io_trps.svl 2023.06)
