@<TRIPOS>MOLECULE
NONAME
40 43 1 0 0 
SMALL
USER_CHARGES


@<TRIPOS>ATOM
  1 O       -8.9800     0.6020     2.0310 O.3   1 <1>  -0.6800 
  2 C       -8.3600     1.0890     0.9120 C.3   1 <1>   0.2800 
  3 C       -6.8480     0.9870     1.1360 C.3   1 <1>  -0.1600 
  4 C       -8.7790     0.2490    -0.3020 C.3   1 <1>  -0.1600 
  5 C       -8.7720     2.5530     0.7050 C.3   1 <1>  -0.1600 
  6 C       -6.1180     1.5290    -0.1080 C.3   1 <1>   0.5030 
  7 C       -8.0670     0.7890    -1.5570 C.3   1 <1>  -0.0800 
  8 C       -8.0600     3.1050    -0.5450 C.3   1 <1>  -0.0800 
  9 N       -4.6320     1.4600     0.0390 N.4   1 <1>  -0.9590 
 10 C       -6.5430     0.7030    -1.3440 C.3   1 <1>  -0.1600 
 11 C       -6.5360     2.9990    -0.3400 C.3   1 <1>  -0.1600 
 12 C       -8.4640     2.2620    -1.7700 C.3   1 <1>  -0.1600 
 13 C       -4.0560     0.0990     0.2020 C.3   1 <1>   0.3430 
 14 C       -4.0490     2.2620     1.1470 C.3   1 <1>   0.3430 
 15 C       -2.6280     0.3430     0.6700 C.3   1 <1>  -0.1600 
 16 C       -2.6240     1.7460     1.2830 C.3   1 <1>  -0.1600 
 17 H       -9.9490     0.6510     1.9250 H     1 <1>   0.4000 
 18 H       -6.6000    -0.0440     1.3070 H     1 <1>   0.0800 
 19 H       -6.5950     1.5610     2.0080 H     1 <1>   0.0800 
 20 H       -9.8440     0.3070    -0.4430 H     1 <1>   0.0800 
 21 H       -8.5160    -0.7830    -0.1460 H     1 <1>   0.0800 
 22 H       -8.5040     3.1390     1.5680 H     1 <1>   0.0800 
 23 H       -9.8370     2.6230     0.5700 H     1 <1>   0.0800 
 24 H       -8.3540     0.2070    -2.4180 H     1 <1>   0.0800 
 25 H       -8.3420     4.1330    -0.7020 H     1 <1>   0.0800 
 26 H       -4.2420     1.8390    -0.8300 H     1 <1>   0.4500 
 27 H       -6.2850    -0.3330    -1.2190 H     1 <1>   0.0800 
 28 H       -6.0460     1.0710    -2.2250 H     1 <1>   0.0800 
 29 H       -6.0400     3.3940    -1.2090 H     1 <1>   0.0800 
 30 H       -6.2730     3.6100     0.5050 H     1 <1>   0.0800 
 31 H       -7.9870     2.6480    -2.6560 H     1 <1>   0.0800 
 32 H       -9.5280     2.3330    -1.9250 H     1 <1>   0.0800 
 33 H       -4.0810    -0.4610    -0.7190 H     1 <1>   0.0800 
 34 H       -4.5920    -0.4400     0.9650 H     1 <1>   0.0800 
 35 H       -4.5850     2.0710     2.0630 H     1 <1>   0.0800 
 36 H       -4.0700     3.3190     0.9330 H     1 <1>   0.0800 
 37 H       -1.9550     0.2970    -0.1690 H     1 <1>   0.0800 
 38 H       -2.3350    -0.4070     1.3840 H     1 <1>   0.0800 
 39 H       -2.3290     1.7290     2.3180 H     1 <1>   0.0800 
 40 H       -1.9490     2.3900     0.7460 H     1 <1>   0.0800 
@<TRIPOS>BOND
  1   1   2  1   
  2   1  17  1   
  3   2   3  1   
  4   2   4  1   
  5   2   5  1   
  6   3   6  1   
  7   3  18  1   
  8   3  19  1   
  9   4   7  1   
 10   4  20  1   
 11   4  21  1   
 12   5   8  1   
 13   5  22  1   
 14   5  23  1   
 15   6   9  1   
 16   6  10  1   
 17   6  11  1   
 18   7  10  1   
 19   7  12  1   
 20   7  24  1   
 21   8  11  1   
 22   8  12  1   
 23   8  25  1   
 24   9  13  1   
 25   9  14  1   
 26   9  26  1   
 27  10  27  1   
 28  10  28  1   
 29  11  29  1   
 30  11  30  1   
 31  12  31  1   
 32  12  32  1   
 33  13  15  1   
 34  13  33  1   
 35  13  34  1   
 36  14  16  1   
 37  14  35  1   
 38  14  36  1   
 39  15  16  1   
 40  15  37  1   
 41  15  38  1   
 42  16  39  1   
 43  16  40  1   
@<TRIPOS>SUBSTRUCTURE
  1 ****   6 GROUP 4 **** **** 0

# MOE 2024.06 (io_trps.svl 2023.06)
