@<TRIPOS>MOLECULE
NONAME
46 47 1 0 0 
SMALL
USER_CHARGES


@<TRIPOS>ATOM
  1 O        0.1290     1.0650     3.0370 O.2   1 <1>  -0.5700 
  2 C       -0.2550     1.7230     2.0990 C.2   1 <1>   0.5690 
  3 N        0.4660     1.9170     0.9520 N.am  1 <1>  -0.5470 
  4 C       -1.6210     2.3910     2.2020 C.3   1 <1>   0.1810 
  5 C        1.7330     1.4980     0.5190 C.ar  1 <1>   0.1170 
  6 O       -1.7250     3.5050     1.3160 O.3   1 <1>  -0.3630 
  7 C        2.4760     2.2340    -0.4260 C.ar  1 <1>  -0.1430 
  8 C        2.2470     0.3060     1.0250 C.ar  1 <1>  -0.1500 
  9 C       -2.7200     3.5210     0.3910 C.ar  1 <1>   0.0830 
 10 C        3.7150     1.7140    -0.8090 C.ar  1 <1>  -0.1500 
 11 C        1.9730     3.5790    -1.0420 C.3   1 <1>   0.1440 
 12 C        3.4750    -0.1780     0.6300 C.ar  1 <1>  -0.1500 
 13 C       -2.9250     2.4880    -0.5330 C.ar  1 <1>   0.0830 
 14 C       -3.5340     4.6410     0.3700 C.ar  1 <1>  -0.1500 
 15 C        4.2110     0.5310    -0.2930 C.ar  1 <1>  -0.1500 
 16 C        2.9970     4.2300    -1.9960 C.3   1 <1>  -0.2400 
 17 C        0.7040     3.3570    -1.8840 C.3   1 <1>  -0.2400 
 18 C        1.7080     4.6300     0.0520 C.3   1 <1>  -0.2400 
 19 O       -2.0820     1.4190    -0.5160 O.3   1 <1>  -0.3630 
 20 C       -3.9700     2.5950    -1.4460 C.ar  1 <1>  -0.1500 
 21 C       -4.5660     4.7390    -0.5460 C.ar  1 <1>  -0.1500 
 22 C       -2.0350     0.4900    -1.5770 C.3   1 <1>   0.0400 
 23 C       -4.7850     3.7150    -1.4500 C.ar  1 <1>  -0.1500 
 24 H       -0.0130     2.5400     0.3000 H     1 <1>   0.3700 
 25 H       -1.7600     2.7590     3.2010 H     1 <1>   0.0800 
 26 H       -2.3950     1.6780     1.9860 H     1 <1>   0.0800 
 27 H        1.6800    -0.2610     1.7390 H     1 <1>   0.1500 
 28 H        4.3450     2.2070    -1.5220 H     1 <1>   0.1500 
 29 H        3.8520    -1.0990     1.0380 H     1 <1>   0.1500 
 30 H       -3.3560     5.4340     1.0740 H     1 <1>   0.1500 
 31 H        5.1720     0.1640    -0.6110 H     1 <1>   0.1500 
 32 H        3.1980     3.5880    -2.8360 H     1 <1>   0.0800 
 33 H        3.9170     4.4370    -1.4790 H     1 <1>   0.0800 
 34 H        2.6230     5.1610    -2.3830 H     1 <1>   0.0800 
 35 H        0.4330     4.2570    -2.4070 H     1 <1>   0.0800 
 36 H        0.8780     2.5810    -2.6080 H     1 <1>   0.0800 
 37 H       -0.1380     3.0760    -1.2870 H     1 <1>   0.0800 
 38 H        0.8750     4.3750     0.6760 H     1 <1>   0.0800 
 39 H        2.5760     4.7300     0.6790 H     1 <1>   0.0800 
 40 H        1.4910     5.5890    -0.3840 H     1 <1>   0.0800 
 41 H       -4.1680     1.8190    -2.1610 H     1 <1>   0.1500 
 42 H       -5.1970     5.6110    -0.5550 H     1 <1>   0.1500 
 43 H       -1.2170    -0.1830    -1.3930 H     1 <1>   0.0800 
 44 H       -1.8730     1.0190    -2.4990 H     1 <1>   0.0800 
 45 H       -2.9600    -0.0590    -1.6030 H     1 <1>   0.0800 
 46 H       -5.5910     3.7910    -2.1600 H     1 <1>   0.1500 
@<TRIPOS>BOND
  1   1   2  2   
  2   2   3  am  
  3   2   4  1   
  4   3   5  1   
  5   3  24  1   
  6   4   6  1   
  7   4  25  1   
  8   4  26  1   
  9   5   7  ar  
 10   5   8  ar  
 11   6   9  1   
 12   7  10  ar  
 13   7  11  1   
 14   8  12  ar  
 15   8  27  1   
 16   9  13  ar  
 17   9  14  ar  
 18  10  15  ar  
 19  10  28  1   
 20  11  16  1   
 21  11  17  1   
 22  11  18  1   
 23  12  15  ar  
 24  12  29  1   
 25  13  19  1   
 26  13  20  ar  
 27  14  21  ar  
 28  14  30  1   
 29  15  31  1   
 30  16  32  1   
 31  16  33  1   
 32  16  34  1   
 33  17  35  1   
 34  17  36  1   
 35  17  37  1   
 36  18  38  1   
 37  18  39  1   
 38  18  40  1   
 39  19  22  1   
 40  20  23  ar  
 41  20  41  1   
 42  21  23  ar  
 43  21  42  1   
 44  22  43  1   
 45  22  44  1   
 46  22  45  1   
 47  23  46  1   
@<TRIPOS>SUBSTRUCTURE
  1 ****   3 GROUP 4 **** **** 0

# MOE 2024.06 (io_trps.svl 2023.06)
