@<TRIPOS>MOLECULE
NONAME
52 54 1 0 0 
SMALL
USER_CHARGES


@<TRIPOS>ATOM
  1 CL       0.4710    -0.1530    -1.9400 Cl    1 <1>  -0.1770 
  2 C        1.9060     0.5270    -1.2150 C.ar  1 <1>   0.1770 
  3 C        3.0910    -0.1760    -1.2750 C.ar  1 <1>  -0.1500 
  4 C        1.8290     1.7590    -0.5930 C.ar  1 <1>  -0.1500 
  5 C        4.2410     0.3510    -0.7000 C.ar  1 <1>   0.1000 
  6 C        2.9700     2.2940    -0.0190 C.ar  1 <1>  -0.1500 
  7 N        5.4310    -0.3730    -0.7560 N.pl3 1 <1>  -0.8380 
  8 C        4.1630     1.5940    -0.0740 C.ar  1 <1>  -0.1500 
  9 C        6.7270     0.2980    -1.0810 C.3   1 <1>   0.2090 
 10 C        5.5140    -1.6800    -0.0380 C.3   1 <1>   0.2090 
 11 C        7.6680     0.3330     0.1430 C.3   1 <1>   0.3430 
 12 C        6.4720    -1.5940     1.1700 C.3   1 <1>   0.3430 
 13 N        7.8170    -1.0190     0.8040 N.4   1 <1>  -0.9590 
 14 C        8.7320    -0.9610     1.9750 C.3   1 <1>   0.4860 
 15 C       10.1090    -0.5630     1.4840 C.ar  1 <1>  -0.1430 
 16 C       10.5840     0.7210     1.6950 C.ar  1 <1>  -0.1500 
 17 C       10.9030    -1.4730     0.8060 C.ar  1 <1>  -0.1500 
 18 C       11.8330     1.1060     1.2360 C.ar  1 <1>   0.0830 
 19 C       12.1550    -1.1150     0.3370 C.ar  1 <1>   0.0830 
 20 O       12.1580     2.4040     1.4900 O.3   1 <1>  -0.3630 
 21 C       12.6490     0.1750     0.5780 C.ar  1 <1>   0.0830 
 22 O       12.8200    -2.0940    -0.3350 O.3   1 <1>  -0.3630 
 23 C       12.9560     3.1430     0.5890 C.3   1 <1>   0.0400 
 24 O       13.9170     0.5010     0.2160 O.3   1 <1>  -0.3630 
 25 C       13.5740    -1.7770    -1.4870 C.3   1 <1>   0.0400 
 26 C       14.9040     0.1810     1.1710 C.3   1 <1>   0.0400 
 27 H        3.1230    -1.1250    -1.7740 H     1 <1>   0.1500 
 28 H        0.8920     2.2870    -0.5620 H     1 <1>   0.1500 
 29 H        2.9240     3.2540     0.4670 H     1 <1>   0.1500 
 30 H        5.0360     2.0200     0.3800 H     1 <1>   0.1500 
 31 H        6.5430     1.3020    -1.4240 H     1 <1>   0.0800 
 32 H        7.2030    -0.2320    -1.8870 H     1 <1>   0.0800 
 33 H        5.8540    -2.4380    -0.7220 H     1 <1>   0.0800 
 34 H        4.5360    -1.9670     0.3090 H     1 <1>   0.0800 
 35 H        7.2690     1.0380     0.8520 H     1 <1>   0.0800 
 36 H        8.6330     0.6960    -0.1740 H     1 <1>   0.0800 
 37 H        6.5940    -2.5790     1.5880 H     1 <1>   0.0800 
 38 H        6.0070    -0.9730     1.9170 H     1 <1>   0.0800 
 39 H        8.2580    -1.6370     0.1120 H     1 <1>   0.4500 
 40 H        8.7910    -1.9260     2.4520 H     1 <1>   0.0800 
 41 H        8.3750    -0.2430     2.6960 H     1 <1>   0.0800 
 42 H        9.9970     1.4540     2.2210 H     1 <1>   0.1500 
 43 H       10.5720    -2.4820     0.6280 H     1 <1>   0.1500 
 44 H       12.7690     4.1890     0.7560 H     1 <1>   0.0800 
 45 H       12.6930     2.8780    -0.4200 H     1 <1>   0.0800 
 46 H       13.9910     2.9280     0.7810 H     1 <1>   0.0800 
 47 H       13.6530    -2.6630    -2.0910 H     1 <1>   0.0800 
 48 H       13.0750    -0.9990    -2.0370 H     1 <1>   0.0800 
 49 H       14.5560    -1.4580    -1.1880 H     1 <1>   0.0800 
 50 H       15.8610     0.4830     0.7840 H     1 <1>   0.0800 
 51 H       14.6910     0.7110     2.0830 H     1 <1>   0.0800 
 52 H       14.8940    -0.8810     1.3430 H     1 <1>   0.0800 
@<TRIPOS>BOND
  1   1   2  1   
  2   2   3  ar  
  3   2   4  ar  
  4   3   5  ar  
  5   3  27  1   
  6   4   6  ar  
  7   4  28  1   
  8   5   7  1   
  9   5   8  ar  
 10   6   8  ar  
 11   6  29  1   
 12   7   9  1   
 13   7  10  1   
 14   8  30  1   
 15   9  11  1   
 16   9  31  1   
 17   9  32  1   
 18  10  12  1   
 19  10  33  1   
 20  10  34  1   
 21  11  13  1   
 22  11  35  1   
 23  11  36  1   
 24  12  13  1   
 25  12  37  1   
 26  12  38  1   
 27  13  14  1   
 28  13  39  1   
 29  14  15  1   
 30  14  40  1   
 31  14  41  1   
 32  15  16  ar  
 33  15  17  ar  
 34  16  18  ar  
 35  16  42  1   
 36  17  19  ar  
 37  17  43  1   
 38  18  20  1   
 39  18  21  ar  
 40  19  21  ar  
 41  19  22  1   
 42  20  23  1   
 43  21  24  1   
 44  22  25  1   
 45  23  44  1   
 46  23  45  1   
 47  23  46  1   
 48  24  26  1   
 49  25  47  1   
 50  25  48  1   
 51  25  49  1   
 52  26  50  1   
 53  26  51  1   
 54  26  52  1   
@<TRIPOS>SUBSTRUCTURE
  1 ****  11 GROUP 4 **** **** 0

# MOE 2024.06 (io_trps.svl 2023.06)
