@<TRIPOS>MOLECULE
NONAME
42 43 1 0 0 
SMALL
USER_CHARGES


@<TRIPOS>ATOM
  1 O        0.9520     0.4750    -2.1030 O.2   1 <1>  -0.5700 
  2 C        0.6980     1.3290    -1.2920 C.2   1 <1>   0.5690 
  3 N        1.4980     1.6350    -0.2300 N.am  1 <1>  -0.5470 
  4 C       -0.5730     2.1390    -1.4600 C.3   1 <1>  -0.0990 
  5 C        2.7360     1.1120     0.1990 C.ar  1 <1>   0.1170 
  6 C       -1.6130     1.8240    -0.3690 C.3   1 <1>  -0.1600 
  7 C        3.5520     1.8930     1.0330 C.ar  1 <1>   0.1170 
  8 C        3.1650    -0.1630    -0.1510 C.ar  1 <1>  -0.1500 
  9 C       -2.9130     2.6220    -0.5540 C.3   1 <1>  -0.0800 
 10 N        3.1760     3.1940     1.4120 N.am  1 <1>  -0.5470 
 11 C        4.7540     1.3800     1.4980 C.ar  1 <1>  -0.1500 
 12 C        4.3700    -0.6610     0.3120 C.ar  1 <1>  -0.1500 
 13 C       -2.7460     4.1340    -0.4040 C.3   1 <1>  -0.1600 
 14 C       -3.9640     2.2750     0.4960 C.3   1 <1>  -0.1600 
 15 C        3.1100     4.3120     0.6470 C.2   1 <1>   0.5690 
 16 C        5.1650     0.1100     1.1400 C.ar  1 <1>  -0.1500 
 17 C       -4.1330     4.6600    -0.0230 C.3   1 <1>  -0.1600 
 18 C       -4.9370     3.4530     0.4730 C.3   1 <1>  -0.1600 
 19 O        2.6420     5.3220     1.1000 O.2   1 <1>  -0.5700 
 20 C        3.6120     4.3000    -0.7780 C.3   1 <1>  -0.1790 
 21 H        1.1830     2.4290     0.3280 H     1 <1>   0.3700 
 22 H       -0.9920     1.9200    -2.4260 H     1 <1>   0.0800 
 23 H       -0.3160     3.1820    -1.4430 H     1 <1>   0.0800 
 24 H       -1.1990     2.0330     0.6020 H     1 <1>   0.0800 
 25 H       -1.8420     0.7720    -0.4070 H     1 <1>   0.0800 
 26 H        2.5560    -0.7810    -0.7860 H     1 <1>   0.1500 
 27 H       -3.3290     2.4150    -1.5270 H     1 <1>   0.0800 
 28 H        2.9530     3.3520     2.3960 H     1 <1>   0.3700 
 29 H        5.3750     1.9800     2.1390 H     1 <1>   0.1500 
 30 H        4.6850    -1.6510     0.0270 H     1 <1>   0.1500 
 31 H       -2.3850     4.5920    -1.3090 H     1 <1>   0.0800 
 32 H       -2.0600     4.3490     0.3970 H     1 <1>   0.0800 
 33 H       -3.5050     2.2160     1.4680 H     1 <1>   0.0800 
 34 H       -4.4570     1.3430     0.2810 H     1 <1>   0.0800 
 35 H        6.1020    -0.2790     1.5020 H     1 <1>   0.1500 
 36 H       -4.6170     5.0890    -0.8830 H     1 <1>   0.0800 
 37 H       -4.0530     5.4140     0.7420 H     1 <1>   0.0800 
 38 H       -5.3590     3.6290     1.4480 H     1 <1>   0.0800 
 39 H       -5.7350     3.2470    -0.2190 H     1 <1>   0.0800 
 40 H        2.9120     3.7910    -1.4110 H     1 <1>   0.0800 
 41 H        4.5630     3.8040    -0.8300 H     1 <1>   0.0800 
 42 H        3.7280     5.3090    -1.1280 H     1 <1>   0.0800 
@<TRIPOS>BOND
  1   1   2  2   
  2   2   3  am  
  3   2   4  1   
  4   3   5  1   
  5   3  21  1   
  6   4   6  1   
  7   4  22  1   
  8   4  23  1   
  9   5   7  ar  
 10   5   8  ar  
 11   6   9  1   
 12   6  24  1   
 13   6  25  1   
 14   7  10  1   
 15   7  11  ar  
 16   8  12  ar  
 17   8  26  1   
 18   9  13  1   
 19   9  14  1   
 20   9  27  1   
 21  10  15  am  
 22  10  28  1   
 23  11  16  ar  
 24  11  29  1   
 25  12  16  ar  
 26  12  30  1   
 27  13  17  1   
 28  13  31  1   
 29  13  32  1   
 30  14  18  1   
 31  14  33  1   
 32  14  34  1   
 33  15  19  2   
 34  15  20  1   
 35  16  35  1   
 36  17  18  1   
 37  17  36  1   
 38  17  37  1   
 39  18  38  1   
 40  18  39  1   
 41  20  40  1   
 42  20  41  1   
 43  20  42  1   
@<TRIPOS>SUBSTRUCTURE
  1 ****   3 GROUP 4 **** **** 0

# MOE 2024.06 (io_trps.svl 2023.06)
