@<TRIPOS>MOLECULE
NONAME
44 45 1 0 0 
SMALL
USER_CHARGES


@<TRIPOS>ATOM
  1 S       -0.2030     1.5220     0.0250 S.o2  1 <1>   1.4470 
  2 O        0.0960     1.6560     1.4360 O.2   1 <1>  -0.6500 
  3 O       -0.2450     2.7060    -0.8050 O.2   1 <1>  -0.6500 
  4 N        0.8640     0.3750    -0.6430 N.am  1 <1>  -0.8490 
  5 C       -1.8120     0.7000    -0.1640 C.ar  1 <1>  -0.0090 
  6 C        2.2260     0.8130    -0.9850 C.3   1 <1>   0.2760 
  7 C        0.8670    -0.8880     0.1190 C.3   1 <1>   0.2760 
  8 C       -2.5380     0.2520     0.9340 C.ar  1 <1>  -0.1500 
  9 C       -2.3530     0.4780    -1.4240 C.ar  1 <1>  -0.1500 
 10 C        3.0480     1.1240     0.2770 C.3   1 <1>  -0.1600 
 11 C        2.2820     1.9420    -2.0120 C.3   1 <1>  -0.2400 
 12 C        2.2090    -1.2070     0.8180 C.3   1 <1>  -0.1600 
 13 C        0.4800    -2.0110    -0.8400 C.3   1 <1>  -0.2400 
 14 C       -3.7500    -0.3960     0.7800 C.ar  1 <1>  -0.1500 
 15 C       -3.5650    -0.1700    -1.5840 C.ar  1 <1>  -0.1500 
 16 C        2.8850     0.0540     1.3740 C.3   1 <1>  -0.1600 
 17 C       -4.2820    -0.6230    -0.4850 C.ar  1 <1>   0.1170 
 18 N       -5.5050    -1.2730    -0.6960 N.am  1 <1>  -0.5470 
 19 C       -6.2360    -2.1070     0.0920 C.2   1 <1>   0.7800 
 20 O       -5.9080    -2.4730     1.2020 O.2   1 <1>  -0.5700 
 21 O       -7.3770    -2.5310    -0.4460 O.3   1 <1>  -0.4300 
 22 C       -8.2330    -3.4090     0.2570 C.3   1 <1>   0.0400 
 23 H        2.6990    -0.0240    -1.4720 H     1 <1>   0.0800 
 24 H        0.1160    -0.8490     0.8910 H     1 <1>   0.0800 
 25 H       -2.1510     0.4150     1.9270 H     1 <1>   0.1500 
 26 H       -1.8100     0.8190    -2.2900 H     1 <1>   0.1500 
 27 H        2.7660     2.0850     0.6710 H     1 <1>   0.0800 
 28 H        4.0840     1.1880    -0.0040 H     1 <1>   0.0800 
 29 H        2.0810     2.8960    -1.5610 H     1 <1>   0.0800 
 30 H        1.5790     1.7600    -2.8050 H     1 <1>   0.0800 
 31 H        3.2680     1.9900    -2.4360 H     1 <1>   0.0800 
 32 H        2.8770    -1.6880     0.1250 H     1 <1>   0.0800 
 33 H        2.0310    -1.9040     1.6170 H     1 <1>   0.0800 
 34 H        1.1950    -2.0900    -1.6380 H     1 <1>   0.0800 
 35 H       -0.4930    -1.8240    -1.2550 H     1 <1>   0.0800 
 36 H        0.4460    -2.9480    -0.3140 H     1 <1>   0.0800 
 37 H       -4.2820    -0.7220     1.6560 H     1 <1>   0.1500 
 38 H       -3.9520    -0.3260    -2.5750 H     1 <1>   0.1500 
 39 H        2.2760     0.4530     2.1670 H     1 <1>   0.0800 
 40 H        3.8440    -0.1930     1.7950 H     1 <1>   0.0800 
 41 H       -5.9290    -1.1470    -1.6100 H     1 <1>   0.3700 
 42 H       -9.0880    -3.6190    -0.3590 H     1 <1>   0.0800 
 43 H       -8.5430    -2.9340     1.1720 H     1 <1>   0.0800 
 44 H       -7.6990    -4.3180     0.4740 H     1 <1>   0.0800 
@<TRIPOS>BOND
  1   1   2  2   
  2   1   3  2   
  3   1   4  am  
  4   1   5  1   
  5   4   6  1   
  6   4   7  1   
  7   5   8  ar  
  8   5   9  ar  
  9   6  10  1   
 10   6  11  1   
 11   6  23  1   
 12   7  12  1   
 13   7  13  1   
 14   7  24  1   
 15   8  14  ar  
 16   8  25  1   
 17   9  15  ar  
 18   9  26  1   
 19  10  16  1   
 20  10  27  1   
 21  10  28  1   
 22  11  29  1   
 23  11  30  1   
 24  11  31  1   
 25  12  16  1   
 26  12  32  1   
 27  12  33  1   
 28  13  34  1   
 29  13  35  1   
 30  13  36  1   
 31  14  17  ar  
 32  14  37  1   
 33  15  17  ar  
 34  15  38  1   
 35  16  39  1   
 36  16  40  1   
 37  17  18  1   
 38  18  19  am  
 39  18  41  1   
 40  19  20  2   
 41  19  21  1   
 42  21  22  1   
 43  22  42  1   
 44  22  43  1   
 45  22  44  1   
@<TRIPOS>SUBSTRUCTURE
  1 ****   5 GROUP 4 **** **** 0

# MOE 2024.06 (io_trps.svl 2023.06)
