@<TRIPOS>MOLECULE
NONAME
49 50 1 0 0 
SMALL
USER_CHARGES


@<TRIPOS>ATOM
  1 S       -0.9420     0.8710     0.2340 S.o2  1 <1>   1.4470 
  2 O       -1.5480     1.2790     1.4820 O.2   1 <1>  -0.6500 
  3 O       -1.2160    -0.4510    -0.2880 O.2   1 <1>  -0.6500 
  4 N       -1.4360     1.9720    -0.9550 N.am  1 <1>  -0.8490 
  5 C        0.8570     1.1000     0.3060 C.ar  1 <1>  -0.0090 
  6 C       -2.8480     1.7270    -1.3850 C.3   1 <1>   0.2570 
  7 C       -1.1880     3.3640    -0.5590 C.3   1 <1>   0.1960 
  8 C        1.4980     1.4300     1.4950 C.ar  1 <1>  -0.1500 
  9 C        1.6400     0.9560    -0.8330 C.ar  1 <1>  -0.1500 
 10 C       -3.9810     2.1550    -0.4230 C.2   1 <1>   0.5690 
 11 C       -1.2890     4.2980    -1.7630 C.3   1 <1>  -0.2400 
 12 C        2.8690     1.6150     1.5440 C.ar  1 <1>  -0.1500 
 13 C        3.0110     1.1390    -0.7910 C.ar  1 <1>  -0.1500 
 14 O       -4.2520     3.3360    -0.3980 O.2   1 <1>  -0.5700 
 15 N       -4.6980     1.2570     0.3350 N.am  1 <1>  -0.6600 
 16 C        3.6340     1.4720     0.3990 C.ar  1 <1>  -0.1430 
 17 C       -5.7340     1.7410     1.2840 C.3   1 <1>   0.1400 
 18 C       -4.5260    -0.2210     0.3590 C.3   1 <1>   0.1400 
 19 C        5.1380     1.6710     0.4490 C.3   1 <1>  -0.0970 
 20 C       -7.0940     1.9060     0.5930 C.3   1 <1>  -0.1600 
 21 C       -5.6050    -0.9240    -0.4730 C.3   1 <1>  -0.1600 
 22 C       -7.4670     0.8370    -0.4510 C.3   1 <1>  -0.1600 
 23 C       -7.0580    -0.5980    -0.0800 C.3   1 <1>  -0.1600 
 24 H       -2.9680     0.6920    -1.6410 H     1 <1>   0.0800 
 25 H       -3.0120     2.2630    -2.3010 H     1 <1>   0.0800 
 26 H       -0.1890     3.4510    -0.1660 H     1 <1>   0.0800 
 27 H       -1.8660     3.6710     0.2220 H     1 <1>   0.0800 
 28 H        0.9170     1.5450     2.3950 H     1 <1>   0.1500 
 29 H        1.1650     0.6970    -1.7650 H     1 <1>   0.1500 
 30 H       -0.6700     3.9410    -2.5660 H     1 <1>   0.0800 
 31 H       -0.9520     5.2780    -1.4800 H     1 <1>   0.0800 
 32 H       -2.3060     4.3880    -2.0980 H     1 <1>   0.0800 
 33 H        3.3380     1.8690     2.4790 H     1 <1>   0.1500 
 34 H        3.5900     1.0190    -1.6910 H     1 <1>   0.1500 
 35 H       -5.4290     2.6850     1.7050 H     1 <1>   0.0800 
 36 H       -5.8280     1.0460     2.0990 H     1 <1>   0.0800 
 37 H       -4.5700    -0.5670     1.3780 H     1 <1>   0.0800 
 38 H       -3.5650    -0.5000    -0.0180 H     1 <1>   0.0800 
 39 H        5.3990     2.3770     1.2170 H     1 <1>   0.0800 
 40 H        5.5000     2.0440    -0.4920 H     1 <1>   0.0800 
 41 H        5.6210     0.7340     0.6600 H     1 <1>   0.0800 
 42 H       -7.1120     2.8700     0.1150 H     1 <1>   0.0800 
 43 H       -7.8480     1.9260     1.3600 H     1 <1>   0.0800 
 44 H       -5.4560    -1.9840    -0.3650 H     1 <1>   0.0800 
 45 H       -5.4490    -0.6930    -1.5120 H     1 <1>   0.0800 
 46 H       -7.0200     1.0990    -1.3940 H     1 <1>   0.0800 
 47 H       -8.5330     0.8710    -0.5920 H     1 <1>   0.0800 
 48 H       -7.2190    -0.7780     0.9690 H     1 <1>   0.0800 
 49 H       -7.6990    -1.2730    -0.6210 H     1 <1>   0.0800 
@<TRIPOS>BOND
  1   1   2  2   
  2   1   3  2   
  3   1   4  am  
  4   1   5  1   
  5   4   6  1   
  6   4   7  1   
  7   5   8  ar  
  8   5   9  ar  
  9   6  10  1   
 10   6  24  1   
 11   6  25  1   
 12   7  11  1   
 13   7  26  1   
 14   7  27  1   
 15   8  12  ar  
 16   8  28  1   
 17   9  13  ar  
 18   9  29  1   
 19  10  14  2   
 20  10  15  am  
 21  11  30  1   
 22  11  31  1   
 23  11  32  1   
 24  12  16  ar  
 25  12  33  1   
 26  13  16  ar  
 27  13  34  1   
 28  15  17  1   
 29  15  18  1   
 30  16  19  1   
 31  17  20  1   
 32  17  35  1   
 33  17  36  1   
 34  18  21  1   
 35  18  37  1   
 36  18  38  1   
 37  19  39  1   
 38  19  40  1   
 39  19  41  1   
 40  20  22  1   
 41  20  42  1   
 42  20  43  1   
 43  21  23  1   
 44  21  44  1   
 45  21  45  1   
 46  22  23  1   
 47  22  46  1   
 48  22  47  1   
 49  23  48  1   
 50  23  49  1   
@<TRIPOS>SUBSTRUCTURE
  1 ****   1 GROUP 4 **** **** 0

# MOE 2024.06 (io_trps.svl 2023.06)
