@<TRIPOS>MOLECULE
NONAME
35 36 1 0 0 
SMALL
USER_CHARGES


@<TRIPOS>ATOM
  1 S       -0.1360     0.9690    -1.3070 S.3   1 <1>   0.1810 
  2 N       -1.6960     0.6090    -0.7650 N.2   1 <1>  -0.5100 
  3 C        0.4130     1.2370     0.3180 C.2   1 <1>   0.4340 
  4 C       -1.6410     0.7220     0.5050 C.2   1 <1>   0.5710 
  5 S        2.1150     1.6980     0.6080 S.3   1 <1>  -0.2860 
  6 N       -0.4910     1.0710     1.1820 N.2   1 <1>  -0.5650 
  7 S       -3.0770     0.4320     1.5310 S.3   1 <1>  -0.2850 
  8 C        2.9160     1.7740    -1.0720 C.3   1 <1>   0.1310 
  9 C       -4.4120    -0.0050     0.3300 C.3   1 <1>  -0.0100 
 10 C        4.3860     2.1590    -0.9910 C.2   1 <1>   0.5690 
 11 O        4.9910     2.2350    -2.0320 O.2   1 <1>  -0.5700 
 12 N        4.9600     2.4010     0.2210 N.am  1 <1>  -0.7300 
 13 C        6.3560     2.7850     0.5220 C.3   1 <1>   0.2200 
 14 C        6.7000     4.1400    -0.1090 C.3   1 <1>  -0.1600 
 15 C        7.3330     1.6890     0.0800 C.3   1 <1>  -0.1600 
 16 C        8.1500     4.5390     0.2070 C.3   1 <1>  -0.1600 
 17 C        8.7830     2.0870     0.3960 C.3   1 <1>  -0.1600 
 18 C        9.1330     3.4440    -0.2320 C.3   1 <1>  -0.1600 
 19 H        2.3830     2.5040    -1.6520 H     1 <1>   0.0800 
 20 H        2.8220     0.8020    -1.5190 H     1 <1>   0.0800 
 21 H       -5.3090    -0.1920     0.8910 H     1 <1>   0.0800 
 22 H       -4.0990    -0.8830    -0.2050 H     1 <1>   0.0800 
 23 H       -4.5390     0.8280    -0.3380 H     1 <1>   0.0800 
 24 H        4.3640     2.3120     1.0480 H     1 <1>   0.3700 
 25 H        6.4420     2.8900     1.5900 H     1 <1>   0.0800 
 26 H        6.0310     4.8940     0.2650 H     1 <1>   0.0800 
 27 H        6.5850     4.0820    -1.1770 H     1 <1>   0.0800 
 28 H        7.2450     1.5300    -0.9800 H     1 <1>   0.0800 
 29 H        7.0970     0.7690     0.5840 H     1 <1>   0.0800 
 30 H        8.2530     4.7090     1.2650 H     1 <1>   0.0800 
 31 H        8.3870     5.4590    -0.3000 H     1 <1>   0.0800 
 32 H        9.4530     1.3340     0.0190 H     1 <1>   0.0800 
 33 H        8.9160     2.1430     1.4630 H     1 <1>   0.0800 
 34 H       10.1340     3.7250     0.0490 H     1 <1>   0.0800 
 35 H        9.1050     3.3540    -1.3050 H     1 <1>   0.0800 
@<TRIPOS>BOND
  1   1   2  1   
  2   1   3  1   
  3   2   4  2   
  4   3   5  1   
  5   3   6  2   
  6   4   6  1   
  7   4   7  1   
  8   5   8  1   
  9   7   9  1   
 10   8  10  1   
 11   8  19  1   
 12   8  20  1   
 13   9  21  1   
 14   9  22  1   
 15   9  23  1   
 16  10  11  2   
 17  10  12  am  
 18  12  13  1   
 19  12  24  1   
 20  13  14  1   
 21  13  15  1   
 22  13  25  1   
 23  14  16  1   
 24  14  26  1   
 25  14  27  1   
 26  15  17  1   
 27  15  28  1   
 28  15  29  1   
 29  16  18  1   
 30  16  30  1   
 31  16  31  1   
 32  17  18  1   
 33  17  32  1   
 34  17  33  1   
 35  18  34  1   
 36  18  35  1   
@<TRIPOS>SUBSTRUCTURE
  1 ****   8 GROUP 4 **** **** 0

# MOE 2024.06 (io_trps.svl 2023.06)
