@<TRIPOS>MOLECULE
NONAME
42 44 1 0 0 
SMALL
USER_CHARGES


@<TRIPOS>ATOM
  1 CL       2.9780    -1.6990    -0.6080 Cl    1 <1>  -0.1770 
  2 C        3.1770     0.0080    -0.2660 C.ar  1 <1>   0.1770 
  3 C        2.2020     0.6990     0.4380 C.ar  1 <1>   0.0820 
  4 C        4.3200     0.6330    -0.7100 C.ar  1 <1>  -0.1500 
  5 O        1.0990     0.0190     0.8500 O.3   1 <1>  -0.3630 
  6 C        2.4060     2.0510     0.6830 C.ar  1 <1>  -0.1500 
  7 C        4.5580     1.9910    -0.4730 C.ar  1 <1>   0.0860 
  8 C        0.0480     0.6410     1.5550 C.3   1 <1>   0.0400 
  9 C        3.5600     2.6950     0.2340 C.ar  1 <1>   0.0830 
 10 C        5.8000     2.5590    -0.9690 C.2   1 <1>   0.3030 
 11 O        3.7430     4.0220     0.4620 O.3   1 <1>  -0.3630 
 12 N        6.5770     2.0080    -1.8120 N.2   1 <1>  -0.5130 
 13 C        6.3610     3.8860    -0.5210 C.3   1 <1>  -0.0990 
 14 C        2.7900     4.8440     1.1030 C.3   1 <1>   0.0400 
 15 O        7.6380     2.7480    -2.0490 O.3   1 <1>  -0.2170 
 16 C        7.7330     3.8600    -1.1790 C.3   1 <1>   0.2610 
 17 C        8.8680     3.6410    -0.1770 C.2   1 <1>   0.5690 
 18 O        9.3690     4.6000     0.3620 O.2   1 <1>  -0.5700 
 19 N        9.2760     2.3770     0.1010 N.am  1 <1>  -0.7300 
 20 C       10.4260     2.0040     0.9480 C.3   1 <1>   0.3200 
 21 C       11.2630     0.9420     0.2550 C.2   1 <1>  -0.0400 
 22 O       12.2380     0.3720     0.9370 O.3   1 <1>  -0.2800 
 23 C       11.2080     0.4330    -0.9970 C.2   1 <1>  -0.1500 
 24 C       12.8210    -0.5070     0.1460 C.2   1 <1>  -0.0100 
 25 C       12.2310    -0.5200    -1.0670 C.2   1 <1>  -0.1500 
 26 H        5.0420     0.0470    -1.2520 H     1 <1>   0.1500 
 27 H        1.6610     2.5970     1.2230 H     1 <1>   0.1500 
 28 H       -0.7020    -0.1030     1.7570 H     1 <1>   0.0800 
 29 H       -0.3700     1.4220     0.9450 H     1 <1>   0.0800 
 30 H        0.4300     1.0320     2.4810 H     1 <1>   0.0800 
 31 H        6.4310     3.9580     0.5500 H     1 <1>   0.0800 
 32 H        5.7830     4.7010    -0.9130 H     1 <1>   0.0800 
 33 H        3.1770     5.8470     1.1280 H     1 <1>   0.0800 
 34 H        2.6380     4.4900     2.1070 H     1 <1>   0.0800 
 35 H        1.8730     4.8240     0.5410 H     1 <1>   0.0800 
 36 H        7.9160     4.7390    -1.7690 H     1 <1>   0.0800 
 37 H        8.8290     1.6070    -0.4070 H     1 <1>   0.3700 
 38 H       10.0630     1.6150     1.8820 H     1 <1>   0.0800 
 39 H       11.0360     2.8680     1.1510 H     1 <1>   0.0800 
 40 H       10.5360     0.6830    -1.8010 H     1 <1>   0.1500 
 41 H       13.6480    -1.0800     0.5280 H     1 <1>   0.1500 
 42 H       12.4700    -1.1200    -1.9280 H     1 <1>   0.1500 
@<TRIPOS>BOND
  1   1   2  1   
  2   2   3  ar  
  3   2   4  ar  
  4   3   5  1   
  5   3   6  ar  
  6   4   7  ar  
  7   4  26  1   
  8   5   8  1   
  9   6   9  ar  
 10   6  27  1   
 11   7   9  ar  
 12   7  10  1   
 13   8  28  1   
 14   8  29  1   
 15   8  30  1   
 16   9  11  1   
 17  10  12  2   
 18  10  13  1   
 19  11  14  1   
 20  12  15  1   
 21  13  16  1   
 22  13  31  1   
 23  13  32  1   
 24  14  33  1   
 25  14  34  1   
 26  14  35  1   
 27  15  16  1   
 28  16  17  1   
 29  16  36  1   
 30  17  18  2   
 31  17  19  am  
 32  19  20  1   
 33  19  37  1   
 34  20  21  1   
 35  20  38  1   
 36  20  39  1   
 37  21  22  1   
 38  21  23  2   
 39  22  24  1   
 40  23  25  1   
 41  23  40  1   
 42  24  25  2   
 43  24  41  1   
 44  25  42  1   
@<TRIPOS>SUBSTRUCTURE
  1 ****  10 GROUP 4 **** **** 0

# MOE 2024.06 (io_trps.svl 2023.06)
