@<TRIPOS>MOLECULE
NONAME
30 30 1 0 0 
SMALL
USER_CHARGES


@<TRIPOS>ATOM
  1 S       -0.1530     0.3960     1.1260 S.3   1 <1>  -0.0800 
  2 C        1.0020    -0.5440     0.2400 C.2   1 <1>   0.4420 
  3 C       -1.3500    -0.1510     0.0010 C.2   1 <1>   0.1980 
  4 N        0.4710    -1.1490    -0.7580 N.2   1 <1>  -0.3380 
  5 N        2.3010    -0.5160     0.6880 N.am  1 <1>  -0.4940 
  6 N       -0.8720    -0.9260    -0.8850 N.2   1 <1>  -0.3380 
  7 C       -2.7800     0.3230     0.1790 C.3   1 <1>   0.0200 
  8 C        3.4360    -1.1090     0.2330 C.2   1 <1>   0.7800 
  9 C       -2.9390     1.8020    -0.2050 C.3   1 <1>  -0.1600 
 10 O        4.4910    -0.5530     0.4250 O.2   1 <1>  -0.5700 
 11 O        3.4620    -2.3090    -0.3490 O.3   1 <1>  -0.4300 
 12 C       -4.3900     2.2700    -0.0530 C.3   1 <1>  -0.2400 
 13 C        2.5110    -3.3310    -0.1470 C.3   1 <1>   0.1200 
 14 C        3.2520    -4.6670    -0.1170 C.3   1 <1>  -0.1600 
 15 C        2.2830    -5.8350     0.0960 C.3   1 <1>  -0.2400 
 16 H        2.5250     0.2450     1.3200 H     1 <1>   0.3700 
 17 H       -3.0760     0.1720     1.2020 H     1 <1>   0.0800 
 18 H       -3.4190    -0.2780    -0.4440 H     1 <1>   0.0800 
 19 H       -2.6270     1.9370    -1.2270 H     1 <1>   0.0800 
 20 H       -2.3050     2.4090     0.4190 H     1 <1>   0.0800 
 21 H       -5.0410     1.6960    -0.6900 H     1 <1>   0.0800 
 22 H       -4.4720     3.3070    -0.3310 H     1 <1>   0.0800 
 23 H       -4.7190     2.1640     0.9660 H     1 <1>   0.0800 
 24 H        1.8130    -3.3090    -0.9660 H     1 <1>   0.0800 
 25 H        1.9960    -3.1640     0.7840 H     1 <1>   0.0800 
 26 H        3.9750    -4.6550     0.6800 H     1 <1>   0.0800 
 27 H        3.7710    -4.8030    -1.0510 H     1 <1>   0.0800 
 28 H        1.7640    -5.7290     1.0330 H     1 <1>   0.0800 
 29 H        2.8250    -6.7640     0.1090 H     1 <1>   0.0800 
 30 H        1.5590    -5.8730    -0.6990 H     1 <1>   0.0800 
@<TRIPOS>BOND
  1   1   2  1   
  2   1   3  1   
  3   2   4  2   
  4   2   5  1   
  5   3   6  2   
  6   3   7  1   
  7   4   6  1   
  8   5   8  am  
  9   5  16  1   
 10   7   9  1   
 11   7  17  1   
 12   7  18  1   
 13   8  10  2   
 14   8  11  1   
 15   9  12  1   
 16   9  19  1   
 17   9  20  1   
 18  11  13  1   
 19  12  21  1   
 20  12  22  1   
 21  12  23  1   
 22  13  14  1   
 23  13  24  1   
 24  13  25  1   
 25  14  15  1   
 26  14  26  1   
 27  14  27  1   
 28  15  28  1   
 29  15  29  1   
 30  15  30  1   
@<TRIPOS>SUBSTRUCTURE
  1 ****   2 GROUP 4 **** **** 0

# MOE 2024.06 (io_trps.svl 2023.06)
