@<TRIPOS>MOLECULE
NONAME
39 40 1 0 0 
SMALL
USER_CHARGES


@<TRIPOS>ATOM
  1 CL      -0.2690     0.4890     1.1960 Cl    1 <1>  -0.1770 
  2 C       -1.9660     0.3470     0.8240 C.ar  1 <1>   0.1770 
  3 C       -2.6100    -0.8570     1.0310 C.ar  1 <1>  -0.1500 
  4 C       -2.6480     1.4400     0.3260 C.ar  1 <1>  -0.1500 
  5 C       -3.9580    -0.9610     0.7350 C.ar  1 <1>  -0.1500 
  6 C       -3.9950     1.3230     0.0320 C.ar  1 <1>  -0.1500 
  7 C       -4.6870     0.1220     0.2330 C.ar  1 <1>   0.0860 
  8 C       -6.1050    -0.0120    -0.0640 C.2   1 <1>   0.5440 
  9 O       -6.6160    -1.1050    -0.2110 O.2   1 <1>  -0.5700 
 10 N       -6.9090     1.0810    -0.1800 N.am  1 <1>  -0.7300 
 11 C       -8.3720     1.0430    -0.4640 C.3   1 <1>   0.2010 
 12 C       -9.0240     2.4320    -0.4410 C.2   1 <1>   0.5690 
 13 O       -8.3070     3.3880    -0.2270 O.2   1 <1>  -0.5700 
 14 N      -10.3750     2.5780    -0.6540 N.am  1 <1>  -0.6600 
 15 C      -11.3220     1.4620    -0.9380 C.3   1 <1>   0.1400 
 16 C      -11.0330     3.9120    -0.5700 C.3   1 <1>   0.1400 
 17 C      -12.3940     1.4100     0.1550 C.3   1 <1>  -0.1600 
 18 C      -12.1070     3.8870     0.5210 C.3   1 <1>  -0.1600 
 19 C      -13.1230     2.7560     0.2940 C.3   1 <1>  -0.0800 
 20 C      -14.1400     2.7040     1.4390 C.3   1 <1>  -0.2400 
 21 H       -2.0620    -1.6980     1.4170 H     1 <1>   0.1500 
 22 H       -2.1250     2.3670     0.1690 H     1 <1>   0.1500 
 23 H       -4.4640    -1.8990     0.8930 H     1 <1>   0.1500 
 24 H       -4.5130     2.1780    -0.3650 H     1 <1>   0.1500 
 25 H       -6.5710     2.0290     0.0180 H     1 <1>   0.3700 
 26 H       -8.8490     0.4220     0.2730 H     1 <1>   0.0800 
 27 H       -8.5210     0.6020    -1.4320 H     1 <1>   0.0800 
 28 H      -10.8150     0.5150    -0.9870 H     1 <1>   0.0800 
 29 H      -11.7880     1.6370    -1.8930 H     1 <1>   0.0800 
 30 H      -11.4800     4.1440    -1.5210 H     1 <1>   0.0800 
 31 H      -10.3130     4.6810    -0.3460 H     1 <1>   0.0800 
 32 H      -11.9250     1.1470     1.0880 H     1 <1>   0.0800 
 33 H      -13.1030     0.6380    -0.0850 H     1 <1>   0.0800 
 34 H      -12.6150     4.8350     0.5340 H     1 <1>   0.0800 
 35 H      -11.6230     3.7620     1.4750 H     1 <1>   0.0800 
 36 H      -13.6540     2.9540    -0.6230 H     1 <1>   0.0800 
 37 H      -13.6470     2.5090     2.3760 H     1 <1>   0.0800 
 38 H      -14.8620     1.9270     1.2630 H     1 <1>   0.0800 
 39 H      -14.6630     3.6410     1.5160 H     1 <1>   0.0800 
@<TRIPOS>BOND
  1   1   2  1   
  2   2   3  ar  
  3   2   4  ar  
  4   3   5  ar  
  5   3  21  1   
  6   4   6  ar  
  7   4  22  1   
  8   5   7  ar  
  9   5  23  1   
 10   6   7  ar  
 11   6  24  1   
 12   7   8  1   
 13   8   9  2   
 14   8  10  am  
 15  10  11  1   
 16  10  25  1   
 17  11  12  1   
 18  11  26  1   
 19  11  27  1   
 20  12  13  2   
 21  12  14  am  
 22  14  15  1   
 23  14  16  1   
 24  15  17  1   
 25  15  28  1   
 26  15  29  1   
 27  16  18  1   
 28  16  30  1   
 29  16  31  1   
 30  17  19  1   
 31  17  32  1   
 32  17  33  1   
 33  18  19  1   
 34  18  34  1   
 35  18  35  1   
 36  19  20  1   
 37  19  36  1   
 38  20  37  1   
 39  20  38  1   
 40  20  39  1   
@<TRIPOS>SUBSTRUCTURE
  1 ****  10 GROUP 4 **** **** 0

# MOE 2024.06 (io_trps.svl 2023.06)
