@<TRIPOS>MOLECULE
NONAME
49 50 1 0 0 
SMALL
USER_CHARGES


@<TRIPOS>ATOM
  1 O       -0.0380    -0.3560    -0.3870 O.2   1 <1>  -0.5700 
  2 C       -0.6800    -1.3120     0.0040 C.2   1 <1>   0.6340 
  3 O       -0.0230    -2.3840     0.4600 O.3   1 <1>  -0.4300 
  4 C       -2.1270    -1.3480    -0.0030 C.ar  1 <1>   0.0860 
  5 C        1.3900    -2.4300     0.5010 C.3   1 <1>   0.0400 
  6 C       -2.8710    -0.2430    -0.4190 C.ar  1 <1>  -0.1500 
  7 C       -2.8480    -2.4710     0.3980 C.ar  1 <1>  -0.1500 
  8 C       -4.2560    -0.2230    -0.4430 C.ar  1 <1>   0.1170 
  9 C       -4.2270    -2.4790     0.3800 C.ar  1 <1>  -0.1500 
 10 N       -4.8400     0.9780    -0.9020 N.am  1 <1>  -0.5470 
 11 C       -4.9640    -1.3760    -0.0330 C.ar  1 <1>   0.1000 
 12 C       -5.6740     1.8440    -0.2580 C.2   1 <1>   0.5690 
 13 N       -6.3540    -1.5120    -0.0070 N.pl3 1 <1>  -0.8380 
 14 O       -6.2970     1.5550     0.7360 O.2   1 <1>  -0.5700 
 15 C       -5.8490     3.2390    -0.8690 C.3   1 <1>  -0.0190 
 16 C       -7.0310    -1.7260     1.3090 C.3   1 <1>   0.2090 
 17 C       -7.2120    -1.2030    -1.1880 C.3   1 <1>   0.2090 
 18 C       -5.8070     4.3490     0.1950 C.3   1 <1>  -0.2400 
 19 C       -7.1560     3.3340    -1.6740 C.3   1 <1>  -0.2400 
 20 C       -8.1550    -0.7020     1.5660 C.3   1 <1>   0.3430 
 21 C       -8.3390    -0.2030    -0.8440 C.3   1 <1>   0.3430 
 22 N       -9.1070    -0.5660     0.4030 N.4   1 <1>  -0.9590 
 23 C      -10.1380     0.4680     0.7040 C.3   1 <1>   0.2630 
 24 H        1.6890    -3.3810     0.9030 H     1 <1>   0.0800 
 25 H        1.7460    -1.6320     1.1300 H     1 <1>   0.0800 
 26 H        1.7710    -2.3120    -0.4990 H     1 <1>   0.0800 
 27 H       -2.3320     0.6350    -0.7270 H     1 <1>   0.1500 
 28 H       -2.3220    -3.3510     0.7270 H     1 <1>   0.1500 
 29 H       -4.7500    -3.3670     0.6850 H     1 <1>   0.1500 
 30 H       -4.3550     1.3780    -1.7050 H     1 <1>   0.3700 
 31 H       -5.0300     3.4150    -1.5440 H     1 <1>   0.0800 
 32 H       -6.3050    -1.6460     2.1010 H     1 <1>   0.0800 
 33 H       -7.4370    -2.7210     1.3360 H     1 <1>   0.0800 
 34 H       -7.6470    -2.1190    -1.5470 H     1 <1>   0.0800 
 35 H       -6.6060    -0.8020    -1.9800 H     1 <1>   0.0800 
 36 H       -6.6250     4.2440     0.8870 H     1 <1>   0.0800 
 37 H       -5.8690     5.3190    -0.2660 H     1 <1>   0.0800 
 38 H       -4.8870     4.2950     0.7500 H     1 <1>   0.0800 
 39 H       -8.0040     3.1910    -1.0280 H     1 <1>   0.0800 
 40 H       -7.1740     2.5900    -2.4490 H     1 <1>   0.0800 
 41 H       -7.2380     4.3040    -2.1340 H     1 <1>   0.0800 
 42 H       -7.7010     0.2500     1.7770 H     1 <1>   0.0800 
 43 H       -8.6960    -1.0000     2.4480 H     1 <1>   0.0800 
 44 H       -9.0120    -0.1390    -1.6810 H     1 <1>   0.0800 
 45 H       -7.8940     0.7670    -0.7120 H     1 <1>   0.0800 
 46 H       -9.5530    -1.4800     0.2500 H     1 <1>   0.4500 
 47 H       -9.6660     1.4230     0.8730 H     1 <1>   0.0800 
 48 H      -10.6940     0.1980     1.5870 H     1 <1>   0.0800 
 49 H      -10.8270     0.5630    -0.1200 H     1 <1>   0.0800 
@<TRIPOS>BOND
  1   1   2  2   
  2   2   3  1   
  3   2   4  1   
  4   3   5  1   
  5   4   6  ar  
  6   4   7  ar  
  7   5  24  1   
  8   5  25  1   
  9   5  26  1   
 10   6   8  ar  
 11   6  27  1   
 12   7   9  ar  
 13   7  28  1   
 14   8  10  1   
 15   8  11  ar  
 16   9  11  ar  
 17   9  29  1   
 18  10  12  am  
 19  10  30  1   
 20  11  13  1   
 21  12  14  2   
 22  12  15  1   
 23  13  16  1   
 24  13  17  1   
 25  15  18  1   
 26  15  19  1   
 27  15  31  1   
 28  16  20  1   
 29  16  32  1   
 30  16  33  1   
 31  17  21  1   
 32  17  34  1   
 33  17  35  1   
 34  18  36  1   
 35  18  37  1   
 36  18  38  1   
 37  19  39  1   
 38  19  40  1   
 39  19  41  1   
 40  20  22  1   
 41  20  42  1   
 42  20  43  1   
 43  21  22  1   
 44  21  44  1   
 45  21  45  1   
 46  22  23  1   
 47  22  46  1   
 48  23  47  1   
 49  23  48  1   
 50  23  49  1   
@<TRIPOS>SUBSTRUCTURE
  1 ****   8 GROUP 4 **** **** 0

# MOE 2024.06 (io_trps.svl 2023.06)
