@<TRIPOS>MOLECULE
NONAME
34 35 1 0 0 
SMALL
USER_CHARGES


@<TRIPOS>ATOM
  1 O        0.7020    -1.0390    -1.4370 O.3   1 <1>  -0.3630 
  2 C        1.6680    -1.1920    -0.4950 C.ar  1 <1>   0.0830 
  3 C       -0.6080    -1.4370    -1.0790 C.3   1 <1>   0.1200 
  4 C        1.4540    -1.9810     0.6370 C.ar  1 <1>   0.0830 
  5 C        2.8780    -0.5460    -0.6700 C.ar  1 <1>  -0.1500 
  6 C       -0.5680    -2.7600    -0.3020 C.3   1 <1>   0.1200 
  7 O        0.2840    -2.6440     0.8210 O.3   1 <1>  -0.3630 
  8 C        2.4480    -2.0980     1.5910 C.ar  1 <1>  -0.1500 
  9 C        3.8820    -0.6670     0.2820 C.ar  1 <1>  -0.1430 
 10 C        3.6560    -1.4440     1.4120 C.ar  1 <1>  -0.1500 
 11 C        5.2140     0.0550     0.0780 C.3   1 <1>   0.3440 
 12 O        6.2760    -0.7950     0.4020 O.3   1 <1>  -0.5600 
 13 C        5.3050     1.2990     0.9720 C.3   1 <1>  -0.1600 
 14 C        6.5280    -1.8260    -0.5000 C.3   1 <1>   0.1200 
 15 C        6.6000     2.1000     0.7630 C.3   1 <1>  -0.2400 
 16 C        7.4700    -1.3160    -1.5900 C.3   1 <1>  -0.2400 
 17 H       -1.1820    -1.5400    -1.9820 H     1 <1>   0.0800 
 18 H       -1.0390    -0.6610    -0.4720 H     1 <1>   0.0800 
 19 H        3.0220     0.0510    -1.5510 H     1 <1>   0.1500 
 20 H       -0.1910    -3.5500    -0.9280 H     1 <1>   0.0800 
 21 H       -1.5480    -3.0270     0.0510 H     1 <1>   0.0800 
 22 H        2.2760    -2.7010     2.4630 H     1 <1>   0.1500 
 23 H        4.4310    -1.5410     2.1540 H     1 <1>   0.1500 
 24 H        5.3190     0.3550    -0.9500 H     1 <1>   0.0800 
 25 H        5.2270     0.9970     2.0010 H     1 <1>   0.0800 
 26 H        4.4640     1.9340     0.7560 H     1 <1>   0.0800 
 27 H        5.6040    -2.1970    -0.9100 H     1 <1>   0.0800 
 28 H        7.0030    -2.6190     0.0500 H     1 <1>   0.0800 
 29 H        7.4550     1.4960     1.0110 H     1 <1>   0.0800 
 30 H        6.6020     2.9700     1.3960 H     1 <1>   0.0800 
 31 H        6.6860     2.4180    -0.2610 H     1 <1>   0.0800 
 32 H        6.9970    -0.5540    -2.1820 H     1 <1>   0.0800 
 33 H        7.7400    -2.1280    -2.2390 H     1 <1>   0.0800 
 34 H        8.3660    -0.9220    -1.1440 H     1 <1>   0.0800 
@<TRIPOS>BOND
  1   1   2  1   
  2   1   3  1   
  3   2   4  ar  
  4   2   5  ar  
  5   3   6  1   
  6   3  17  1   
  7   3  18  1   
  8   4   7  1   
  9   4   8  ar  
 10   5   9  ar  
 11   5  19  1   
 12   6   7  1   
 13   6  20  1   
 14   6  21  1   
 15   8  10  ar  
 16   8  22  1   
 17   9  10  ar  
 18   9  11  1   
 19  10  23  1   
 20  11  12  1   
 21  11  13  1   
 22  11  24  1   
 23  12  14  1   
 24  13  15  1   
 25  13  25  1   
 26  13  26  1   
 27  14  16  1   
 28  14  27  1   
 29  14  28  1   
 30  15  29  1   
 31  15  30  1   
 32  15  31  1   
 33  16  32  1   
 34  16  33  1   
 35  16  34  1   
@<TRIPOS>SUBSTRUCTURE
  1 ****   9 GROUP 4 **** **** 0

# MOE 2024.06 (io_trps.svl 2023.06)
