@<TRIPOS>MOLECULE
NONAME
44 46 1 0 0 
SMALL
USER_CHARGES


@<TRIPOS>ATOM
  1 S        0.4560    -0.0940     0.1870 S.o2  1 <1>   1.5000 
  2 O        0.6920     0.1340     1.5960 O.2   1 <1>  -0.6500 
  3 O        0.4540     1.0380    -0.7140 O.2   1 <1>  -0.6500 
  4 N        1.6830    -1.1410    -0.3380 N.am  1 <1>  -0.8490 
  5 C       -1.0660    -1.0500    -0.0260 C.2   1 <1>  -0.0220 
  6 C        1.8960    -2.2670     0.5920 C.3   1 <1>   0.1960 
  7 C        2.9450    -0.4160    -0.5550 C.3   1 <1>   0.1960 
  8 S       -1.2820    -1.9550    -1.5240 S.3   1 <1>  -0.0800 
  9 C       -2.1520    -1.2220     0.7570 C.2   1 <1>  -0.1500 
 10 C        2.9580    -3.2450     0.0630 C.3   1 <1>   0.1400 
 11 C        4.0510    -1.3360    -1.1040 C.3   1 <1>   0.1400 
 12 C       -2.8540    -2.5440    -1.0180 C.2   1 <1>  -0.1100 
 13 C       -3.1640    -2.0680     0.2000 C.2   1 <1>  -0.1500 
 14 N        4.2400    -2.5310    -0.2230 N.am  1 <1>  -0.6600 
 15 C        5.4260    -2.9430     0.3310 C.2   1 <1>   0.5690 
 16 O        5.4730    -3.8850     1.0860 O.2   1 <1>  -0.5700 
 17 C        6.7170    -2.2070     0.0030 C.3   1 <1>  -0.0990 
 18 C        7.9780    -2.8590     0.5890 C.3   1 <1>  -0.0170 
 19 C        9.2080    -2.0570     0.1980 C.ar  1 <1>  -0.1430 
 20 C        9.6750    -1.0440     1.0210 C.ar  1 <1>  -0.1500 
 21 C        9.8690    -2.3260    -0.9910 C.ar  1 <1>  -0.1500 
 22 C       10.7900    -0.3070     0.6600 C.ar  1 <1>  -0.1500 
 23 C       10.9830    -1.5900    -1.3540 C.ar  1 <1>  -0.1500 
 24 C       11.4440    -0.5790    -0.5280 C.ar  1 <1>  -0.1500 
 25 H        0.9740    -2.8040     0.7290 H     1 <1>   0.0800 
 26 H        2.2130    -1.9010     1.5560 H     1 <1>   0.0800 
 27 H        3.2760     0.0280     0.3700 H     1 <1>   0.0800 
 28 H        2.7870     0.3800    -1.2640 H     1 <1>   0.0800 
 29 H       -2.2840    -0.7740     1.7280 H     1 <1>   0.1500 
 30 H        2.5990    -3.7030    -0.8410 H     1 <1>   0.0800 
 31 H        3.1100    -4.0240     0.7900 H     1 <1>   0.0800 
 32 H        4.9580    -0.7690    -1.1940 H     1 <1>   0.0800 
 33 H        3.7700    -1.6680    -2.0880 H     1 <1>   0.0800 
 34 H       -3.3850    -3.1900    -1.6960 H     1 <1>   0.1500 
 35 H       -4.0720    -2.2750     0.7410 H     1 <1>   0.1500 
 36 H        6.6420    -1.2050     0.3800 H     1 <1>   0.0800 
 37 H        6.8230    -2.1630    -1.0650 H     1 <1>   0.0800 
 38 H        8.0690    -3.8680     0.2260 H     1 <1>   0.0800 
 39 H        7.8990    -2.9070     1.6620 H     1 <1>   0.0800 
 40 H        9.1730    -0.8260     1.9480 H     1 <1>   0.1500 
 41 H        9.5180    -3.1110    -1.6380 H     1 <1>   0.1500 
 42 H       11.1480     0.4770     1.3040 H     1 <1>   0.1500 
 43 H       11.4930    -1.8040    -2.2770 H     1 <1>   0.1500 
 44 H       12.3100    -0.0070    -0.8100 H     1 <1>   0.1500 
@<TRIPOS>BOND
  1   1   2  2   
  2   1   3  2   
  3   1   4  am  
  4   1   5  1   
  5   4   6  1   
  6   4   7  1   
  7   5   8  1   
  8   5   9  2   
  9   6  10  1   
 10   6  25  1   
 11   6  26  1   
 12   7  11  1   
 13   7  27  1   
 14   7  28  1   
 15   8  12  1   
 16   9  13  1   
 17   9  29  1   
 18  10  14  1   
 19  10  30  1   
 20  10  31  1   
 21  11  14  1   
 22  11  32  1   
 23  11  33  1   
 24  12  13  2   
 25  12  34  1   
 26  13  35  1   
 27  14  15  am  
 28  15  16  2   
 29  15  17  1   
 30  17  18  1   
 31  17  36  1   
 32  17  37  1   
 33  18  19  1   
 34  18  38  1   
 35  18  39  1   
 36  19  20  ar  
 37  19  21  ar  
 38  20  22  ar  
 39  20  40  1   
 40  21  23  ar  
 41  21  41  1   
 42  22  24  ar  
 43  22  42  1   
 44  23  24  ar  
 45  23  43  1   
 46  24  44  1   
@<TRIPOS>SUBSTRUCTURE
  1 ****  14 GROUP 4 **** **** 0

# MOE 2024.06 (io_trps.svl 2023.06)
