@<TRIPOS>MOLECULE
NONAME
47 48 1 0 0 
SMALL
USER_CHARGES


@<TRIPOS>ATOM
  1 S       -0.4030    -0.3310     0.0340 S.3   1 <1>  -0.2860 
  2 C        1.2640    -0.9950    -0.0300 C.2   1 <1>   0.2420 
  3 C       -1.3580    -1.5340    -1.0180 C.3   1 <1>   0.1310 
  4 N        1.5780    -2.0730    -0.6540 N.2   1 <1>  -0.3380 
  5 N        2.2960    -0.4050     0.5710 N.pl3 1 <1>   0.0480 
  6 C       -2.8430    -1.2030    -1.0450 C.2   1 <1>   0.5690 
  7 N        2.8920    -2.2260    -0.4700 N.2   1 <1>  -0.3380 
  8 C        3.3040    -1.2330     0.2530 C.2   1 <1>   0.0060 
  9 C        2.2930     0.8420     1.3610 C.3   1 <1>   0.0160 
 10 O       -3.5100    -1.6290    -1.9560 O.2   1 <1>  -0.5700 
 11 N       -3.3830    -0.4530    -0.0480 N.am  1 <1>  -0.7300 
 12 C        4.7450    -1.0080     0.7010 C.3   1 <1>   0.0200 
 13 C       -4.7940    -0.0520     0.0580 C.3   1 <1>   0.2200 
 14 C        5.7260    -2.0480     0.1380 C.3   1 <1>  -0.1600 
 15 C       -4.8810     1.4750    -0.0290 C.3   1 <1>  -0.1600 
 16 C       -5.3560    -0.5670     1.3870 C.3   1 <1>  -0.1600 
 17 C        7.1640    -1.7810     0.6040 C.3   1 <1>  -0.1600 
 18 C       -6.3210     1.9620     0.1860 C.3   1 <1>  -0.1600 
 19 C       -6.7970    -0.0840     1.6040 C.3   1 <1>  -0.1600 
 20 C        8.1270    -2.8260     0.0340 C.3   1 <1>  -0.2400 
 21 C       -6.8890     1.4460     1.5150 C.3   1 <1>  -0.1600 
 22 H       -1.2030    -2.5140    -0.6070 H     1 <1>   0.0800 
 23 H       -0.9460    -1.4860    -2.0080 H     1 <1>   0.0800 
 24 H        1.4600     0.8330     2.0390 H     1 <1>   0.0800 
 25 H        2.2020     1.6810     0.6950 H     1 <1>   0.0800 
 26 H        3.2050     0.9260     1.9230 H     1 <1>   0.0800 
 27 H       -2.7650    -0.0810     0.6750 H     1 <1>   0.3700 
 28 H        4.7800    -1.0420     1.7750 H     1 <1>   0.0800 
 29 H        5.0550    -0.0290     0.3830 H     1 <1>   0.0800 
 30 H       -5.3560    -0.4840    -0.7540 H     1 <1>   0.0800 
 31 H        5.6860    -2.0230    -0.9380 H     1 <1>   0.0800 
 32 H        5.4210    -3.0300     0.4560 H     1 <1>   0.0800 
 33 H       -4.5390     1.7940    -0.9990 H     1 <1>   0.0800 
 34 H       -4.2470     1.9170     0.7190 H     1 <1>   0.0800 
 35 H       -4.7430    -0.2160     2.1980 H     1 <1>   0.0800 
 36 H       -5.3380    -1.6430     1.3850 H     1 <1>   0.0800 
 37 H        7.2080    -1.8110     1.6790 H     1 <1>   0.0800 
 38 H        7.4750    -0.8020     0.2810 H     1 <1>   0.0800 
 39 H       -6.9390     1.6130    -0.6250 H     1 <1>   0.0800 
 40 H       -6.3440     3.0390     0.1770 H     1 <1>   0.0800 
 41 H       -7.1470    -0.4110     2.5680 H     1 <1>   0.0800 
 42 H       -7.4360    -0.5230     0.8560 H     1 <1>   0.0800 
 43 H        7.8470    -3.8120     0.3600 H     1 <1>   0.0800 
 44 H        9.1290    -2.6260     0.3690 H     1 <1>   0.0800 
 45 H        8.1150    -2.8010    -1.0420 H     1 <1>   0.0800 
 46 H       -7.9170     1.7510     1.6100 H     1 <1>   0.0800 
 47 H       -6.3410     1.8840     2.3310 H     1 <1>   0.0800 
@<TRIPOS>BOND
  1   1   2  1   
  2   1   3  1   
  3   2   4  2   
  4   2   5  1   
  5   3   6  1   
  6   3  22  1   
  7   3  23  1   
  8   4   7  1   
  9   5   8  1   
 10   5   9  1   
 11   6  10  2   
 12   6  11  am  
 13   7   8  2   
 14   8  12  1   
 15   9  24  1   
 16   9  25  1   
 17   9  26  1   
 18  11  13  1   
 19  11  27  1   
 20  12  14  1   
 21  12  28  1   
 22  12  29  1   
 23  13  15  1   
 24  13  16  1   
 25  13  30  1   
 26  14  17  1   
 27  14  31  1   
 28  14  32  1   
 29  15  18  1   
 30  15  33  1   
 31  15  34  1   
 32  16  19  1   
 33  16  35  1   
 34  16  36  1   
 35  17  20  1   
 36  17  37  1   
 37  17  38  1   
 38  18  21  1   
 39  18  39  1   
 40  18  40  1   
 41  19  21  1   
 42  19  41  1   
 43  19  42  1   
 44  20  43  1   
 45  20  44  1   
 46  20  45  1   
 47  21  46  1   
 48  21  47  1   
@<TRIPOS>SUBSTRUCTURE
  1 ****   1 GROUP 4 **** **** 0

# MOE 2024.06 (io_trps.svl 2023.06)
