@<TRIPOS>MOLECULE
NONAME
47 50 1 0 0 
SMALL
USER_CHARGES


@<TRIPOS>ATOM
  1 O        0.7410     2.7710     2.6560 O.3   1 <1>  -0.5600 
  2 C       -0.5820     2.3670     2.8390 C.3   1 <1>   0.1200 
  3 C        1.2210     2.5380     1.3640 C.3   1 <1>   0.1200 
  4 C       -1.5060     3.1190     1.8640 C.3   1 <1>   0.1100 
  5 C        0.3590     3.2900     0.3330 C.3   1 <1>   0.1100 
  6 N       -1.0710     2.9300     0.4610 N.3   1 <1>  -0.8100 
  7 C       -1.9000     3.6930    -0.5100 C.3   1 <1>   0.2540 
  8 C       -3.3420     3.1740    -0.6300 C.cat 1 <1>   0.6560 
  9 N       -4.4090     3.7440    -0.0580 N.pl3 1 <1>  -0.7000 
 10 N       -3.6950     2.0780    -1.2990 N.pl3 1 <1>  -0.5110 
 11 C       -5.5100     2.9750    -0.3650 C.ar  1 <1>   0.3090 
 12 N       -2.8280     1.1910    -2.0530 N.pl3 1 <1>  -0.3690 
 13 C       -5.0680     1.9180    -1.1450 C.ar  1 <1>   0.3090 
 14 C       -6.8570     3.1040    -0.0300 C.ar  1 <1>  -0.1090 
 15 C       -2.2790     0.1150    -1.1870 C.3   1 <1>   0.2530 
 16 C       -5.9690     0.9580    -1.6070 C.ar  1 <1>  -0.1090 
 17 C       -7.7440     2.1540    -0.4890 C.ar  1 <1>  -0.1500 
 18 C       -3.2500    -1.0500    -1.1960 C.ar  1 <1>  -0.1440 
 19 C       -7.3010     1.0840    -1.2750 C.ar  1 <1>  -0.1500 
 20 C       -3.3550    -1.8660    -2.3130 C.ar  1 <1>  -0.1500 
 21 C       -4.0520    -1.2990    -0.0910 C.ar  1 <1>  -0.1500 
 22 C       -4.2630    -2.9110    -2.3290 C.ar  1 <1>  -0.1500 
 23 C       -4.9590    -2.3440    -0.1080 C.ar  1 <1>  -0.1500 
 24 C       -5.0660    -3.1490    -1.2290 C.ar  1 <1>  -0.1500 
 25 H       -0.8530     2.5850     3.8570 H     1 <1>   0.0800 
 26 H       -0.6440     1.3040     2.6840 H     1 <1>   0.0800 
 27 H        1.2060     1.4790     1.1750 H     1 <1>   0.0800 
 28 H        2.2390     2.8840     1.3250 H     1 <1>   0.0800 
 29 H       -1.4920     4.1650     2.1210 H     1 <1>   0.0800 
 30 H       -2.5080     2.7490     1.9900 H     1 <1>   0.0800 
 31 H        0.7080     3.0430    -0.6550 H     1 <1>   0.0800 
 32 H        0.4920     4.3480     0.4830 H     1 <1>   0.0800 
 33 H       -1.4510     3.6150    -1.4850 H     1 <1>   0.0800 
 34 H       -1.9120     4.7340    -0.2380 H     1 <1>   0.0800 
 35 H       -4.4240     4.5890     0.5170 H     1 <1>   0.4500 
 36 H       -3.3740     0.7140    -2.7870 H     1 <1>   0.3600 
 37 H       -7.1880     3.9290     0.5750 H     1 <1>   0.1500 
 38 H       -2.1280     0.4810    -0.1860 H     1 <1>   0.0800 
 39 H       -1.3250    -0.1980    -1.5750 H     1 <1>   0.0800 
 40 H       -5.6220     0.1340    -2.2040 H     1 <1>   0.1500 
 41 H       -8.7930     2.2260    -0.2470 H     1 <1>   0.1500 
 42 H       -8.0150     0.3520    -1.6180 H     1 <1>   0.1500 
 43 H       -2.7320    -1.7020    -3.1750 H     1 <1>   0.1500 
 44 H       -3.9780    -0.6830     0.7880 H     1 <1>   0.1500 
 45 H       -4.3420    -3.5440    -3.1970 H     1 <1>   0.1500 
 46 H       -5.5790    -2.5360     0.7500 H     1 <1>   0.1500 
 47 H       -5.7700    -3.9630    -1.2410 H     1 <1>   0.1500 
@<TRIPOS>BOND
  1   1   2  1   
  2   1   3  1   
  3   2   4  1   
  4   2  25  1   
  5   2  26  1   
  6   3   5  1   
  7   3  27  1   
  8   3  28  1   
  9   4   6  1   
 10   4  29  1   
 11   4  30  1   
 12   5   6  1   
 13   5  31  1   
 14   5  32  1   
 15   6   7  1   
 16   7   8  1   
 17   7  33  1   
 18   7  34  1   
 19   8   9  ar  
 20   8  10  ar  
 21   9  11  1   
 22   9  35  1   
 23  10  12  1   
 24  10  13  1   
 25  11  13  ar  
 26  11  14  ar  
 27  12  15  1   
 28  12  36  1   
 29  13  16  ar  
 30  14  17  ar  
 31  14  37  1   
 32  15  18  1   
 33  15  38  1   
 34  15  39  1   
 35  16  19  ar  
 36  16  40  1   
 37  17  19  ar  
 38  17  41  1   
 39  18  20  ar  
 40  18  21  ar  
 41  19  42  1   
 42  20  22  ar  
 43  20  43  1   
 44  21  23  ar  
 45  21  44  1   
 46  22  24  ar  
 47  22  45  1   
 48  23  24  ar  
 49  23  46  1   
 50  24  47  1   
@<TRIPOS>SUBSTRUCTURE
  1 ****  10 GROUP 4 **** **** 0

# MOE 2024.06 (io_trps.svl 2023.06)
