@<TRIPOS>MOLECULE
NONAME
35 35 1 0 0 
SMALL
USER_CHARGES


@<TRIPOS>ATOM
  1 O       -0.1320    -0.7580    -1.0890 O.2   1 <1>  -0.5700 
  2 C       -0.0410    -1.6840    -0.3180 C.2   1 <1>   0.5690 
  3 N        1.1520    -2.0240     0.2230 N.am  1 <1>  -0.7300 
  4 C       -1.2800    -2.4940     0.0620 C.3   1 <1>  -0.0190 
  5 C        2.4420    -1.3410    -0.0750 C.3   1 <1>   0.2010 
  6 C       -1.8890    -3.1980    -1.1660 C.3   1 <1>  -0.1600 
  7 C       -2.3360    -1.6140     0.7600 C.3   1 <1>  -0.1600 
  8 C        3.6570    -2.0390     0.5520 C.2   1 <1>   0.5690 
  9 C       -3.1400    -4.0060    -0.7920 C.3   1 <1>  -0.1600 
 10 C       -3.5870    -2.4210     1.1340 C.3   1 <1>  -0.1600 
 11 O        3.4500    -2.9890     1.2780 O.2   1 <1>  -0.5700 
 12 N        4.9360    -1.5950     0.2930 N.am  1 <1>  -0.6600 
 13 C       -4.1820    -3.1210    -0.0950 C.3   1 <1>  -0.1600 
 14 C        5.2770    -0.4270    -0.5680 C.3   1 <1>   0.0600 
 15 C        6.1270    -2.2830     0.8700 C.3   1 <1>   0.0600 
 16 H        1.2550    -2.8170     0.8650 H     1 <1>   0.3700 
 17 H       -0.9760    -3.2540     0.7580 H     1 <1>   0.0800 
 18 H        2.3900    -0.3340     0.2980 H     1 <1>   0.0800 
 19 H        2.5710    -1.3030    -1.1410 H     1 <1>   0.0800 
 20 H       -1.1560    -3.8520    -1.6060 H     1 <1>   0.0800 
 21 H       -2.1520    -2.4580    -1.9040 H     1 <1>   0.0800 
 22 H       -2.6160    -0.8090     0.1000 H     1 <1>   0.0800 
 23 H       -1.9100    -1.1760     1.6460 H     1 <1>   0.0800 
 24 H       -2.8620    -4.8130    -0.1370 H     1 <1>   0.0800 
 25 H       -3.5700    -4.4350    -1.6810 H     1 <1>   0.0800 
 26 H       -4.3230    -1.7640     1.5650 H     1 <1>   0.0800 
 27 H       -3.3280    -3.1580     1.8740 H     1 <1>   0.0800 
 28 H       -5.0230    -3.7220     0.2050 H     1 <1>   0.0800 
 29 H       -4.5380    -2.3780    -0.7880 H     1 <1>   0.0800 
 30 H        4.4010     0.1180    -0.8700 H     1 <1>   0.0800 
 31 H        5.7920    -0.7680    -1.4500 H     1 <1>   0.0800 
 32 H        5.9220     0.2440    -0.0270 H     1 <1>   0.0800 
 33 H        5.8360    -3.1390     1.4540 H     1 <1>   0.0800 
 34 H        6.6660    -1.6030     1.5060 H     1 <1>   0.0800 
 35 H        6.7740    -2.6160     0.0780 H     1 <1>   0.0800 
@<TRIPOS>BOND
  1   1   2  2   
  2   2   3  am  
  3   2   4  1   
  4   3   5  1   
  5   3  16  1   
  6   4   6  1   
  7   4   7  1   
  8   4  17  1   
  9   5   8  1   
 10   5  18  1   
 11   5  19  1   
 12   6   9  1   
 13   6  20  1   
 14   6  21  1   
 15   7  10  1   
 16   7  22  1   
 17   7  23  1   
 18   8  11  2   
 19   8  12  am  
 20   9  13  1   
 21   9  24  1   
 22   9  25  1   
 23  10  13  1   
 24  10  26  1   
 25  10  27  1   
 26  12  14  1   
 27  12  15  1   
 28  13  28  1   
 29  13  29  1   
 30  14  30  1   
 31  14  31  1   
 32  14  32  1   
 33  15  33  1   
 34  15  34  1   
 35  15  35  1   
@<TRIPOS>SUBSTRUCTURE
  1 ****   3 GROUP 4 **** **** 0

# MOE 2024.06 (io_trps.svl 2023.06)
