@<TRIPOS>MOLECULE
NONAME
50 52 1 0 0 
SMALL
USER_CHARGES


@<TRIPOS>ATOM
  1 O       -1.5180    -0.4460    -1.5660 O.3   1 <1>  -0.6800 
  2 C       -2.0880    -0.8180    -0.3440 C.3   1 <1>   0.2800 
  3 C       -1.4670    -2.1560     0.1430 C.3   1 <1>   0.0000 
  4 C       -3.5880    -1.0620    -0.5950 C.3   1 <1>  -0.0800 
  5 C       -1.8630     0.3630     0.6490 C.3   1 <1>   0.3430 
  6 C       -1.6890    -3.2620    -0.9200 C.3   1 <1>   0.3430 
  7 C       -2.1510    -2.5570     1.4660 C.3   1 <1>   0.1100 
  8 C        0.0560    -2.0510     0.4000 C.3   1 <1>  -0.2400 
  9 C       -3.7840    -2.1130    -1.6990 C.3   1 <1>   0.3430 
 10 C       -4.2910    -1.4790     0.7060 C.3   1 <1>   0.1100 
 11 N       -2.1670     1.6950     0.0210 N.4   1 <1>  -0.9060 
 12 N       -3.1010    -3.4150    -1.4140 N.4   1 <1>  -0.9590 
 13 N       -3.6130    -2.6180     1.3350 N.3   1 <1>  -0.8100 
 14 C       -1.6440     2.8870     0.6890 C.3   1 <1>   0.5030 
 15 C       -3.9380    -4.3320    -0.5570 C.3   1 <1>   0.3430 
 16 C       -4.1280    -3.9390     0.9260 C.3   1 <1>   0.1100 
 17 C       -0.1170     2.8520     0.6840 C.3   1 <1>  -0.2400 
 18 C       -2.1910     2.9590     2.1130 C.3   1 <1>  -0.2400 
 19 C       -2.1380     4.0810    -0.1210 C.3   1 <1>  -0.2400 
 20 H       -0.5390    -0.5260    -1.5500 H     1 <1>   0.4000 
 21 H       -4.0500    -0.1540    -0.9360 H     1 <1>   0.0800 
 22 H       -0.8340     0.3490     0.9600 H     1 <1>   0.0800 
 23 H       -2.4630     0.2230     1.5330 H     1 <1>   0.0800 
 24 H       -1.0660    -3.0250    -1.7670 H     1 <1>   0.0800 
 25 H       -1.3440    -4.2040    -0.5260 H     1 <1>   0.0800 
 26 H       -1.9120    -1.8450     2.2370 H     1 <1>   0.0800 
 27 H       -1.7770    -3.5090     1.8070 H     1 <1>   0.0800 
 28 H        0.5910    -1.7580    -0.4860 H     1 <1>   0.0800 
 29 H        0.4460    -3.0060     0.7100 H     1 <1>   0.0800 
 30 H        0.2860    -1.3510     1.1850 H     1 <1>   0.0800 
 31 H       -3.3830    -1.7080    -2.6150 H     1 <1>   0.0800 
 32 H       -4.8380    -2.2810    -1.8540 H     1 <1>   0.0800 
 33 H       -4.2970    -0.6610     1.4060 H     1 <1>   0.0800 
 34 H       -5.3230    -1.7260     0.5150 H     1 <1>   0.0800 
 35 H       -3.1760     1.8250    -0.0790 H     1 <1>   0.4500 
 36 H       -1.7900     1.6750    -0.9370 H     1 <1>   0.4500 
 37 H       -3.0300    -3.8950    -2.3230 H     1 <1>   0.4500 
 38 H       -3.5100    -5.3210    -0.5790 H     1 <1>   0.0800 
 39 H       -4.9170    -4.4200    -0.9990 H     1 <1>   0.0800 
 40 H       -5.1800    -3.9830     1.1530 H     1 <1>   0.0800 
 41 H       -3.6680    -4.6960     1.5400 H     1 <1>   0.0800 
 42 H        0.2690     2.0640     1.3050 H     1 <1>   0.0800 
 43 H        0.2650     3.7770     1.0800 H     1 <1>   0.0800 
 44 H        0.2670     2.7430    -0.3150 H     1 <1>   0.0800 
 45 H       -3.2670     2.9430     2.1190 H     1 <1>   0.0800 
 46 H       -1.8780     3.8810     2.5730 H     1 <1>   0.0800 
 47 H       -1.8180     2.1580     2.7250 H     1 <1>   0.0800 
 48 H       -3.2120     4.1280    -0.1350 H     1 <1>   0.0800 
 49 H       -1.7710     4.0450    -1.1320 H     1 <1>   0.0800 
 50 H       -1.7800     4.9950     0.3210 H     1 <1>   0.0800 
@<TRIPOS>BOND
  1   1   2  1   
  2   1  20  1   
  3   2   3  1   
  4   2   4  1   
  5   2   5  1   
  6   3   6  1   
  7   3   7  1   
  8   3   8  1   
  9   4   9  1   
 10   4  10  1   
 11   4  21  1   
 12   5  11  1   
 13   5  22  1   
 14   5  23  1   
 15   6  12  1   
 16   6  24  1   
 17   6  25  1   
 18   7  13  1   
 19   7  26  1   
 20   7  27  1   
 21   8  28  1   
 22   8  29  1   
 23   8  30  1   
 24   9  12  1   
 25   9  31  1   
 26   9  32  1   
 27  10  13  1   
 28  10  33  1   
 29  10  34  1   
 30  11  14  1   
 31  11  35  1   
 32  11  36  1   
 33  12  15  1   
 34  12  37  1   
 35  13  16  1   
 36  14  17  1   
 37  14  18  1   
 38  14  19  1   
 39  15  16  1   
 40  15  38  1   
 41  15  39  1   
 42  16  40  1   
 43  16  41  1   
 44  17  42  1   
 45  17  43  1   
 46  17  44  1   
 47  18  45  1   
 48  18  46  1   
 49  18  47  1   
 50  19  48  1   
 51  19  49  1   
 52  19  50  1   
@<TRIPOS>SUBSTRUCTURE
  1 ****   2 GROUP 4 **** **** 0

# MOE 2024.06 (io_trps.svl 2023.06)
