@<TRIPOS>MOLECULE
NONAME
37 39 1 0 0 
SMALL
USER_CHARGES


@<TRIPOS>ATOM
  1 BR       0.2200    -0.7980    -1.4220 Br    1 <1>  -0.1110 
  2 C       -1.6380    -0.3010    -1.2520 C.ar  1 <1>   0.1110 
  3 C       -2.5250    -1.1500    -0.6010 C.ar  1 <1>   0.0830 
  4 C       -2.0310     0.9020    -1.8010 C.ar  1 <1>  -0.1500 
  5 O       -2.0680    -2.3170    -0.0860 O.3   1 <1>  -0.3630 
  6 C       -3.8770    -0.7900    -0.4690 C.ar  1 <1>   0.0280 
  7 C       -3.3600     1.2500    -1.6760 C.ar  1 <1>   0.1770 
  8 C       -2.2430    -3.4590    -0.8940 C.3   1 <1>   0.0400 
  9 C       -4.2650     0.4320    -1.0270 C.ar  1 <1>  -0.1500 
 10 C       -4.8130    -1.6410     0.2290 C.2   1 <1>  -0.1780 
 11 CL      -3.9060     2.7640    -2.3530 Cl    1 <1>  -0.1770 
 12 C       -6.1550    -1.7720     0.1060 C.2   1 <1>  -0.0380 
 13 N       -6.9690    -1.0670    -0.7840 N.pl3 1 <1>  -0.8380 
 14 C       -6.9430    -2.7730     0.9740 C.3   1 <1>   0.3380 
 15 C       -7.6660    -1.9780    -1.7420 C.3   1 <1>   0.2090 
 16 C       -8.0000    -0.2640    -0.0560 C.3   1 <1>   0.2090 
 17 O       -6.4680    -4.0430     0.7100 O.3   1 <1>  -0.6800 
 18 C       -8.4390    -2.6860     0.5760 C.3   1 <1>  -0.0800 
 19 C       -8.5770    -2.9450    -0.9470 C.3   1 <1>  -0.1600 
 20 C       -8.8720    -1.2170     0.7990 C.3   1 <1>  -0.1600 
 21 H       -1.3320     1.5440    -2.3040 H     1 <1>   0.1500 
 22 H       -1.8480    -4.3080    -0.3650 H     1 <1>   0.0800 
 23 H       -1.7090    -3.3180    -1.8170 H     1 <1>   0.0800 
 24 H       -3.2930    -3.5990    -1.0840 H     1 <1>   0.0800 
 25 H       -5.2850     0.7550    -0.9500 H     1 <1>   0.1500 
 26 H       -4.3330    -2.2710     0.9570 H     1 <1>   0.1500 
 27 H       -6.8060    -2.5720     2.0230 H     1 <1>   0.0800 
 28 H       -8.2450    -1.3980    -2.4400 H     1 <1>   0.0800 
 29 H       -6.9280    -2.5320    -2.2970 H     1 <1>   0.0800 
 30 H       -7.5070     0.4550     0.5760 H     1 <1>   0.0800 
 31 H       -8.6090     0.2720    -0.7640 H     1 <1>   0.0800 
 32 H       -6.2530    -4.0690    -0.2400 H     1 <1>   0.4000 
 33 H       -9.0360    -3.3620     1.1610 H     1 <1>   0.0800 
 34 H       -9.5980    -2.8040    -1.2540 H     1 <1>   0.0800 
 35 H       -8.3150    -3.9610    -1.1820 H     1 <1>   0.0800 
 36 H       -8.7670    -0.9560     1.8380 H     1 <1>   0.0800 
 37 H       -9.9070    -1.0870     0.5380 H     1 <1>   0.0800 
@<TRIPOS>BOND
  1   1   2  1   
  2   2   3  ar  
  3   2   4  ar  
  4   3   5  1   
  5   3   6  ar  
  6   4   7  ar  
  7   4  21  1   
  8   5   8  1   
  9   6   9  ar  
 10   6  10  1   
 11   7   9  ar  
 12   7  11  1   
 13   8  22  1   
 14   8  23  1   
 15   8  24  1   
 16   9  25  1   
 17  10  12  2   
 18  10  26  1   
 19  12  13  1   
 20  12  14  1   
 21  13  15  1   
 22  13  16  1   
 23  14  17  1   
 24  14  18  1   
 25  14  27  1   
 26  15  19  1   
 27  15  28  1   
 28  15  29  1   
 29  16  20  1   
 30  16  30  1   
 31  16  31  1   
 32  17  32  1   
 33  18  19  1   
 34  18  20  1   
 35  18  33  1   
 36  19  34  1   
 37  19  35  1   
 38  20  36  1   
 39  20  37  1   
@<TRIPOS>SUBSTRUCTURE
  1 ****  10 GROUP 4 **** **** 0

# MOE 2024.06 (io_trps.svl 2023.06)
