@<TRIPOS>MOLECULE
NONAME
43 43 1 0 0 
SMALL
USER_CHARGES


@<TRIPOS>ATOM
  1 O        0.2990    -0.2080     0.1800 O.3   1 <1>  -0.3630 
  2 C       -0.9520    -0.7330     0.2220 C.ar  1 <1>   0.0830 
  3 C        1.4380    -1.0280     0.1180 C.3   1 <1>   0.1200 
  4 C       -1.2210    -2.0990     0.2670 C.ar  1 <1>  -0.1500 
  5 C       -2.0010     0.1700     0.2180 C.ar  1 <1>  -0.1500 
  6 C        2.6550    -0.1010     0.0440 C.3   1 <1>   0.3430 
  7 C       -2.5300    -2.5600     0.3040 C.ar  1 <1>  -0.1440 
  8 C       -3.3070    -0.2800     0.2550 C.ar  1 <1>  -0.1500 
  9 N        3.9610    -0.8460    -0.0210 N.4   1 <1>  -0.9590 
 10 C       -3.5690    -1.6380     0.2970 C.ar  1 <1>  -0.1500 
 11 C       -2.8140    -4.0610     0.3520 C.3   1 <1>   0.0630 
 12 C        5.1050     0.0710     0.2480 C.3   1 <1>   0.3430 
 13 C        4.1280    -1.5370    -1.3310 C.3   1 <1>   0.3430 
 14 C       -3.5960    -4.5090    -0.8870 C.3   1 <1>  -0.2400 
 15 C       -3.5670    -4.4360     1.6330 C.3   1 <1>  -0.2400 
 16 C        5.1850     0.3630     1.7420 C.3   1 <1>  -0.2400 
 17 C        5.1470    -2.6600    -1.1870 C.3   1 <1>  -0.2400 
 18 H        1.3520    -1.6410    -0.7610 H     1 <1>   0.0800 
 19 H        1.4640    -1.6290     1.0090 H     1 <1>   0.0800 
 20 H       -0.4270    -2.8190     0.2750 H     1 <1>   0.1500 
 21 H       -1.7950     1.2240     0.1850 H     1 <1>   0.1500 
 22 H        2.6400     0.5240     0.9210 H     1 <1>   0.0800 
 23 H        2.5590     0.5340    -0.8220 H     1 <1>   0.0800 
 24 H       -4.1210     0.4240     0.2510 H     1 <1>   0.1500 
 25 H        3.9680    -1.5620     0.7180 H     1 <1>   0.4500 
 26 H       -4.5900    -1.9730     0.3250 H     1 <1>   0.1500 
 27 H       -1.8780    -4.5930     0.3570 H     1 <1>   0.0800 
 28 H        4.9880     0.9890    -0.3070 H     1 <1>   0.0800 
 29 H        6.0290    -0.3910    -0.0600 H     1 <1>   0.0800 
 30 H        4.4470    -0.8350    -2.0860 H     1 <1>   0.0800 
 31 H        3.1900    -1.9640    -1.6470 H     1 <1>   0.0800 
 32 H       -4.5660    -4.0480    -0.9170 H     1 <1>   0.0800 
 33 H       -3.7240    -5.5770    -0.8810 H     1 <1>   0.0800 
 34 H       -3.0590    -4.2340    -1.7780 H     1 <1>   0.0800 
 35 H       -4.5380    -3.9760     1.6570 H     1 <1>   0.0800 
 36 H       -3.0110    -4.1070     2.4930 H     1 <1>   0.0800 
 37 H       -3.6910    -5.5020     1.6940 H     1 <1>   0.0800 
 38 H        4.3230     0.9020     2.0900 H     1 <1>   0.0800 
 39 H        6.0490     0.9760     1.9320 H     1 <1>   0.0800 
 40 H        5.2970    -0.5470     2.3050 H     1 <1>   0.0800 
 41 H        6.1240    -2.2830    -0.9450 H     1 <1>   0.0800 
 42 H        5.2250    -3.1850    -2.1240 H     1 <1>   0.0800 
 43 H        4.8360    -3.3670    -0.4390 H     1 <1>   0.0800 
@<TRIPOS>BOND
  1   1   2  1   
  2   1   3  1   
  3   2   4  ar  
  4   2   5  ar  
  5   3   6  1   
  6   3  18  1   
  7   3  19  1   
  8   4   7  ar  
  9   4  20  1   
 10   5   8  ar  
 11   5  21  1   
 12   6   9  1   
 13   6  22  1   
 14   6  23  1   
 15   7  10  ar  
 16   7  11  1   
 17   8  10  ar  
 18   8  24  1   
 19   9  12  1   
 20   9  13  1   
 21   9  25  1   
 22  10  26  1   
 23  11  14  1   
 24  11  15  1   
 25  11  27  1   
 26  12  16  1   
 27  12  28  1   
 28  12  29  1   
 29  13  17  1   
 30  13  30  1   
 31  13  31  1   
 32  14  32  1   
 33  14  33  1   
 34  14  34  1   
 35  15  35  1   
 36  15  36  1   
 37  15  37  1   
 38  16  38  1   
 39  16  39  1   
 40  16  40  1   
 41  17  41  1   
 42  17  42  1   
 43  17  43  1   
@<TRIPOS>SUBSTRUCTURE
  1 ****   3 GROUP 4 **** **** 0

# MOE 2024.06 (io_trps.svl 2023.06)
