@<TRIPOS>MOLECULE
NONAME
48 50 1 0 0 
SMALL
USER_CHARGES


@<TRIPOS>ATOM
  1 F       -0.2480    -1.6450    -1.2960 F     1 <1>  -0.1900 
  2 C        0.7760    -2.4410    -1.1570 C.ar  1 <1>   0.1900 
  3 C        0.7570    -3.3800    -0.1440 C.ar  1 <1>  -0.1500 
  4 C        1.8410    -2.3170    -2.0270 C.ar  1 <1>  -0.1500 
  5 C        1.8470    -4.2220     0.0030 C.ar  1 <1>  -0.1500 
  6 C        2.9270    -3.1620    -1.8730 C.ar  1 <1>  -0.1500 
  7 C        2.9370    -4.1120    -0.8560 C.ar  1 <1>  -0.1430 
  8 C        4.1370    -5.0260    -0.6850 C.3   1 <1>   0.4870 
  9 N        4.9330    -4.5600     0.4820 N.4   1 <1>  -0.9590 
 10 C        5.5000    -3.1830     0.2210 C.3   1 <1>   0.3430 
 11 C        6.0180    -5.5530     0.8160 C.3   1 <1>   0.3430 
 12 C        6.4480    -2.7100     1.3420 C.3   1 <1>   0.1400 
 13 C        6.9400    -5.0600     1.9530 C.3   1 <1>   0.1400 
 14 N        7.5060    -3.7290     1.6040 N.am  1 <1>  -0.6600 
 15 C        8.5720    -3.7450     0.7560 C.2   1 <1>   0.6900 
 16 O        8.3590    -3.7040    -0.4410 O.2   1 <1>  -0.5700 
 17 N        9.8150    -3.8500     1.2940 N.am  1 <1>  -0.5470 
 18 C       11.0700    -4.0280     0.6950 C.ar  1 <1>   0.1170 
 19 C       11.2330    -4.5890    -0.5670 C.ar  1 <1>  -0.1500 
 20 C       12.2070    -3.6480     1.3990 C.ar  1 <1>  -0.1500 
 21 C       12.4900    -4.7650    -1.1180 C.ar  1 <1>   0.0830 
 22 C       13.4700    -3.8180     0.8580 C.ar  1 <1>  -0.1500 
 23 O       12.5400    -5.3230    -2.3540 O.3   1 <1>  -0.3630 
 24 C       13.6170    -4.3750    -0.3990 C.ar  1 <1>  -0.1500 
 25 C       13.7650    -5.4920    -3.0320 C.3   1 <1>   0.0400 
 26 H       -0.0980    -3.4470     0.5060 H     1 <1>   0.1500 
 27 H        1.8110    -1.5760    -2.8070 H     1 <1>   0.1500 
 28 H        1.8260    -4.9600     0.7870 H     1 <1>   0.1500 
 29 H        3.7550    -3.0700    -2.5560 H     1 <1>   0.1500 
 30 H        4.7430    -5.0110    -1.5780 H     1 <1>   0.0800 
 31 H        3.7940    -6.0350    -0.5240 H     1 <1>   0.0800 
 32 H        4.2890    -4.4800     1.2770 H     1 <1>   0.4500 
 33 H        4.6990    -2.4700     0.1120 H     1 <1>   0.0800 
 34 H        6.0570    -3.1930    -0.7030 H     1 <1>   0.0800 
 35 H        6.6300    -5.7220    -0.0560 H     1 <1>   0.0800 
 36 H        5.5800    -6.4970     1.1000 H     1 <1>   0.0800 
 37 H        5.8940    -2.5210     2.2450 H     1 <1>   0.0800 
 38 H        6.9120    -1.7840     1.0420 H     1 <1>   0.0800 
 39 H        7.7420    -5.7670     2.0910 H     1 <1>   0.0800 
 40 H        6.3940    -4.9940     2.8780 H     1 <1>   0.0800 
 41 H        9.8280    -3.6850     2.2970 H     1 <1>   0.3700 
 42 H       10.3820    -4.9000    -1.1410 H     1 <1>   0.1500 
 43 H       12.1100    -3.2110     2.3760 H     1 <1>   0.1500 
 44 H       14.3390    -3.5150     1.4150 H     1 <1>   0.1500 
 45 H       14.6050    -4.4980    -0.7990 H     1 <1>   0.1500 
 46 H       13.5560    -5.9260    -3.9930 H     1 <1>   0.0800 
 47 H       14.3910    -6.1530    -2.4610 H     1 <1>   0.0800 
 48 H       14.2290    -4.5300    -3.1580 H     1 <1>   0.0800 
@<TRIPOS>BOND
  1   1   2  1   
  2   2   3  ar  
  3   2   4  ar  
  4   3   5  ar  
  5   3  26  1   
  6   4   6  ar  
  7   4  27  1   
  8   5   7  ar  
  9   5  28  1   
 10   6   7  ar  
 11   6  29  1   
 12   7   8  1   
 13   8   9  1   
 14   8  30  1   
 15   8  31  1   
 16   9  10  1   
 17   9  11  1   
 18   9  32  1   
 19  10  12  1   
 20  10  33  1   
 21  10  34  1   
 22  11  13  1   
 23  11  35  1   
 24  11  36  1   
 25  12  14  1   
 26  12  37  1   
 27  12  38  1   
 28  13  14  1   
 29  13  39  1   
 30  13  40  1   
 31  14  15  am  
 32  15  16  2   
 33  15  17  am  
 34  17  18  1   
 35  17  41  1   
 36  18  19  ar  
 37  18  20  ar  
 38  19  21  ar  
 39  19  42  1   
 40  20  22  ar  
 41  20  43  1   
 42  21  23  1   
 43  21  24  ar  
 44  22  24  ar  
 45  22  44  1   
 46  23  25  1   
 47  24  45  1   
 48  25  46  1   
 49  25  47  1   
 50  25  48  1   
@<TRIPOS>SUBSTRUCTURE
  1 ****  16 GROUP 4 **** **** 0

# MOE 2024.06 (io_trps.svl 2023.06)
