@<TRIPOS>MOLECULE
NONAME
37 38 1 0 0 
SMALL
USER_CHARGES


@<TRIPOS>ATOM
  1 S       -0.0850    -0.0160    -0.2840 S.3   1 <1>  -0.0800 
  2 C       -1.3540     1.1780    -0.1780 C.2   1 <1>   0.1980 
  3 C       -1.2500    -1.2390     0.1150 C.2   1 <1>  -0.1100 
  4 N       -2.4950     0.7040     0.1180 N.2   1 <1>  -0.5650 
  5 C       -0.9780     2.6160    -0.4430 C.3   1 <1>  -0.0600 
  6 C       -2.4660    -0.6820     0.2950 C.2   1 <1>   0.1730 
  7 C       -3.6930    -1.3810     0.6440 C.ar  1 <1>   0.0540 
  8 C       -4.9440    -0.8250     0.3880 C.ar  1 <1>  -0.1500 
  9 C       -3.6630    -2.6380     1.2460 C.ar  1 <1>  -0.1500 
 10 C       -6.1290    -1.4750     0.7050 C.ar  1 <1>   0.1170 
 11 C       -4.8290    -3.3050     1.5720 C.ar  1 <1>  -0.1500 
 12 N       -7.3410    -0.8270     0.4190 N.am  1 <1>  -0.5470 
 13 C       -6.0550    -2.7260     1.3050 C.ar  1 <1>  -0.1500 
 14 C       -8.6240    -1.2940     0.2930 C.2   1 <1>   0.5690 
 15 O       -8.9040    -2.4640     0.4060 O.2   1 <1>  -0.5700 
 16 C       -9.7620    -0.2850    -0.0170 C.3   1 <1>   0.0610 
 17 C      -10.4520    -0.6680    -1.3400 C.3   1 <1>  -0.2400 
 18 C       -9.2660     1.1730    -0.1500 C.3   1 <1>  -0.2400 
 19 C      -10.8110    -0.3220     1.1110 C.3   1 <1>  -0.2400 
 20 H       -0.9080    -2.2550     0.1730 H     1 <1>   0.1500 
 21 H       -0.2330     2.9330     0.2630 H     1 <1>   0.0800 
 22 H       -1.8450     3.2430    -0.3430 H     1 <1>   0.0800 
 23 H       -0.5880     2.7130    -1.4390 H     1 <1>   0.0800 
 24 H       -4.9900     0.1420    -0.0770 H     1 <1>   0.1500 
 25 H       -2.7200    -3.1020     1.4690 H     1 <1>   0.1500 
 26 H       -4.7870    -4.2750     2.0370 H     1 <1>   0.1500 
 27 H       -7.2470     0.1690     0.2390 H     1 <1>   0.3700 
 28 H       -6.9520    -3.2540     1.5700 H     1 <1>   0.1500 
 29 H       -9.7440    -0.6510    -2.1490 H     1 <1>   0.0800 
 30 H      -11.2540     0.0120    -1.5680 H     1 <1>   0.0800 
 31 H      -10.8590    -1.6620    -1.2730 H     1 <1>   0.0800 
 32 H      -10.0910     1.8310    -0.3610 H     1 <1>   0.0800 
 33 H       -8.8050     1.5040     0.7640 H     1 <1>   0.0800 
 34 H       -8.5580     1.2630    -0.9550 H     1 <1>   0.0800 
 35 H      -11.2200    -1.3130     1.2060 H     1 <1>   0.0800 
 36 H      -11.6180     0.3600     0.9100 H     1 <1>   0.0800 
 37 H      -10.3590    -0.0570     2.0500 H     1 <1>   0.0800 
@<TRIPOS>BOND
  1   1   2  1   
  2   1   3  1   
  3   2   4  2   
  4   2   5  1   
  5   3   6  2   
  6   3  20  1   
  7   4   6  1   
  8   5  21  1   
  9   5  22  1   
 10   5  23  1   
 11   6   7  1   
 12   7   8  ar  
 13   7   9  ar  
 14   8  10  ar  
 15   8  24  1   
 16   9  11  ar  
 17   9  25  1   
 18  10  12  1   
 19  10  13  ar  
 20  11  13  ar  
 21  11  26  1   
 22  12  14  am  
 23  12  27  1   
 24  13  28  1   
 25  14  15  2   
 26  14  16  1   
 27  16  17  1   
 28  16  18  1   
 29  16  19  1   
 30  17  29  1   
 31  17  30  1   
 32  17  31  1   
 33  18  32  1   
 34  18  33  1   
 35  18  34  1   
 36  19  35  1   
 37  19  36  1   
 38  19  37  1   
@<TRIPOS>SUBSTRUCTURE
  1 ****   8 GROUP 4 **** **** 0

# MOE 2024.06 (io_trps.svl 2023.06)
