@<TRIPOS>MOLECULE
NONAME
47 48 1 0 0 
SMALL
USER_CHARGES


@<TRIPOS>ATOM
  1 CL       0.4290    -0.3840    -1.0190 Cl    1 <1>  -0.1770 
  2 C        1.9270    -1.1320    -0.5270 C.ar  1 <1>   0.1770 
  3 C        2.3460    -1.0160     0.7840 C.ar  1 <1>  -0.1500 
  4 C        2.6740    -1.8280    -1.4580 C.ar  1 <1>  -0.1500 
  5 C        3.5350    -1.6110     1.1690 C.ar  1 <1>  -0.1500 
  6 C        3.8620    -2.4210    -1.0650 C.ar  1 <1>  -0.1500 
  7 C        4.2990    -2.3210     0.2510 C.ar  1 <1>  -0.1430 
  8 C        5.6070    -2.9670     0.7100 C.3   1 <1>   0.0640 
  9 C        6.8180    -2.2770     0.0520 C.3   1 <1>  -0.1600 
 10 C        5.6060    -4.4850     0.4550 C.3   1 <1>  -0.1600 
 11 C        8.1680    -2.9370     0.4380 C.3   1 <1>  -0.1860 
 12 C        6.9440    -5.1220     0.8600 C.3   1 <1>  -0.1600 
 13 C        8.6180    -2.6610     1.8740 C.2   1 <1>   0.9060 
 14 C        8.1030    -4.4410     0.1260 C.3   1 <1>   0.2200 
 15 O        7.8610    -2.1020     2.6750 O.co2 1 <1>  -0.9000 
 16 O        9.7630    -3.0000     2.2020 O.co2 1 <1>  -0.9000 
 17 N        9.3590    -5.0980     0.4900 N.am  1 <1>  -0.7300 
 18 C       10.0210    -6.0290    -0.2210 C.2   1 <1>   0.7800 
 19 O        9.5480    -6.5480    -1.2150 O.2   1 <1>  -0.5700 
 20 O       11.2320    -6.3520     0.2300 O.3   1 <1>  -0.4300 
 21 C       12.1330    -7.2820    -0.3260 C.3   1 <1>   0.2800 
 22 C       12.5430    -6.8430    -1.7370 C.3   1 <1>  -0.2400 
 23 C       11.5250    -8.6900    -0.3030 C.3   1 <1>  -0.2400 
 24 C       13.3570    -7.2460     0.5890 C.3   1 <1>  -0.2400 
 25 H        1.7520    -0.4660     1.4910 H     1 <1>   0.1500 
 26 H        2.3300    -1.9030    -2.4730 H     1 <1>   0.1500 
 27 H        3.8710    -1.5190     2.1890 H     1 <1>   0.1500 
 28 H        4.4480    -2.9590    -1.7890 H     1 <1>   0.1500 
 29 H        5.6900    -2.8300     1.7740 H     1 <1>   0.0800 
 30 H        6.8340    -1.2410     0.3470 H     1 <1>   0.0800 
 31 H        6.7100    -2.3100    -1.0160 H     1 <1>   0.0800 
 32 H        4.8080    -4.9370     1.0170 H     1 <1>   0.0800 
 33 H        5.4320    -4.6830    -0.5870 H     1 <1>   0.0800 
 34 H        8.9260    -2.5070    -0.1880 H     1 <1>   0.0800 
 35 H        6.9320    -6.1690     0.6120 H     1 <1>   0.0800 
 36 H        7.0840    -5.0220     1.9230 H     1 <1>   0.0800 
 37 H        7.9520    -4.5640    -0.9330 H     1 <1>   0.0800 
 38 H        9.8570    -4.5980     1.2530 H     1 <1>   0.3700 
 39 H       13.3330    -7.4740    -2.1030 H     1 <1>   0.0800 
 40 H       12.8940    -5.8270    -1.7220 H     1 <1>   0.0800 
 41 H       11.7190    -6.9220    -2.4220 H     1 <1>   0.0800 
 42 H       12.2630    -9.4130    -0.5970 H     1 <1>   0.0800 
 43 H       10.7020    -8.7670    -0.9900 H     1 <1>   0.0800 
 44 H       11.1830    -8.9300     0.6870 H     1 <1>   0.0800 
 45 H       13.7770    -6.2560     0.6070 H     1 <1>   0.0800 
 46 H       14.1090    -7.9300     0.2400 H     1 <1>   0.0800 
 47 H       13.0800    -7.5240     1.5900 H     1 <1>   0.0800 
@<TRIPOS>BOND
  1   1   2  1   
  2   2   3  ar  
  3   2   4  ar  
  4   3   5  ar  
  5   3  25  1   
  6   4   6  ar  
  7   4  26  1   
  8   5   7  ar  
  9   5  27  1   
 10   6   7  ar  
 11   6  28  1   
 12   7   8  1   
 13   8   9  1   
 14   8  10  1   
 15   8  29  1   
 16   9  11  1   
 17   9  30  1   
 18   9  31  1   
 19  10  12  1   
 20  10  32  1   
 21  10  33  1   
 22  11  13  1   
 23  11  14  1   
 24  11  34  1   
 25  12  14  1   
 26  12  35  1   
 27  12  36  1   
 28  13  15  ar  
 29  13  16  ar  
 30  14  17  1   
 31  14  37  1   
 32  17  18  am  
 33  17  38  1   
 34  18  19  2   
 35  18  20  1   
 36  20  21  1   
 37  21  22  1   
 38  21  23  1   
 39  21  24  1   
 40  22  39  1   
 41  22  40  1   
 42  22  41  1   
 43  23  42  1   
 44  23  43  1   
 45  23  44  1   
 46  24  45  1   
 47  24  46  1   
 48  24  47  1   
@<TRIPOS>SUBSTRUCTURE
  1 ****  14 GROUP 4 **** **** 0

# MOE 2024.06 (io_trps.svl 2023.06)
