@<TRIPOS>MOLECULE
NONAME
47 50 1 0 0 
SMALL
USER_CHARGES


@<TRIPOS>ATOM
  1 S        0.1610     1.3710     1.5910 S.3   1 <1>  -0.2860 
  2 C        1.1190    -0.1260     1.3190 C.2   1 <1>   0.2420 
  3 C       -1.3350     0.8200     2.5500 C.3   1 <1>   0.1310 
  4 N        0.8000    -1.2820     1.7770 N.2   1 <1>  -0.3380 
  5 N        2.2360    -0.1300     0.5950 N.pl3 1 <1>   0.0480 
  6 C       -2.6020     1.1150     1.7580 C.2   1 <1>   0.5690 
  7 N        1.7370    -2.1210     1.3320 N.2   1 <1>  -0.3380 
  8 C        2.5970    -1.4280     0.6360 C.2   1 <1>   0.1870 
  9 C        2.8530     0.9880    -0.1550 C.3   1 <1>   0.0960 
 10 O       -3.2790     2.0410     2.1400 O.2   1 <1>  -0.5700 
 11 N       -2.9660     0.3670     0.6630 N.am  1 <1>  -0.6600 
 12 C        3.7650    -1.9560    -0.0180 C.2   1 <1>  -0.0010 
 13 C        2.2790     1.0640    -1.5740 C.3   1 <1>  -0.2400 
 14 C       -2.2410    -0.8390     0.1550 C.3   1 <1>   0.1400 
 15 C       -4.1290     0.7590    -0.1900 C.3   1 <1>   0.1400 
 16 C        5.1060    -1.5800     0.2630 C.ar  1 <1>   0.0000 
 17 C        3.8290    -2.8830    -1.0150 C.2   1 <1>  -0.3020 
 18 C       -3.2220    -1.9590    -0.2320 C.3   1 <1>   0.1200 
 19 C       -4.9980    -0.4610    -0.5340 C.3   1 <1>   0.1200 
 20 C        5.9200    -2.2870    -0.6140 C.ar  1 <1>  -0.1520 
 21 C        5.6890    -0.7130     1.1930 C.ar  1 <1>  -0.1500 
 22 N        5.1220    -3.0910    -1.3860 N.pl3 1 <1>   0.0330 
 23 O       -4.2170    -1.4790    -1.0910 O.3   1 <1>  -0.5600 
 24 C        7.3070    -2.1220    -0.6030 C.ar  1 <1>  -0.1500 
 25 C        7.0560    -0.5510     1.2070 C.ar  1 <1>  -0.1500 
 26 C        7.8650    -1.2530     0.3060 C.ar  1 <1>  -0.1500 
 27 H       -1.3360     1.3840     3.4640 H     1 <1>   0.0800 
 28 H       -1.2480    -0.2230     2.7800 H     1 <1>   0.0800 
 29 H        3.9160     0.8410    -0.2030 H     1 <1>   0.0800 
 30 H        2.6650     1.9090     0.3680 H     1 <1>   0.0800 
 31 H        2.4820     0.1530    -2.1090 H     1 <1>   0.0800 
 32 H        2.7360     1.8790    -2.1060 H     1 <1>   0.0800 
 33 H        1.2170     1.2320    -1.5410 H     1 <1>   0.0800 
 34 H       -1.5760    -1.2280     0.8990 H     1 <1>   0.0800 
 35 H       -1.6570    -0.5660    -0.7060 H     1 <1>   0.0800 
 36 H       -3.7640     1.1990    -1.1010 H     1 <1>   0.0800 
 37 H       -4.7370     1.4920     0.3110 H     1 <1>   0.0800 
 38 H        3.0080    -3.4040    -1.4740 H     1 <1>   0.1500 
 39 H       -3.6930    -2.3680     0.6450 H     1 <1>   0.0800 
 40 H       -2.6990    -2.7480    -0.7420 H     1 <1>   0.0800 
 41 H       -5.7480    -0.1900    -1.2550 H     1 <1>   0.0800 
 42 H       -5.4850    -0.8390     0.3480 H     1 <1>   0.0800 
 43 H        5.0630    -0.1890     1.8920 H     1 <1>   0.1500 
 44 H        5.4590    -3.7440    -2.1010 H     1 <1>   0.2700 
 45 H        7.9220    -2.6720    -1.2940 H     1 <1>   0.1500 
 46 H        7.5180     0.1150     1.9150 H     1 <1>   0.1500 
 47 H        8.9310    -1.1080     0.3360 H     1 <1>   0.1500 
@<TRIPOS>BOND
  1   1   2  1   
  2   1   3  1   
  3   2   4  2   
  4   2   5  1   
  5   3   6  1   
  6   3  27  1   
  7   3  28  1   
  8   4   7  1   
  9   5   8  1   
 10   5   9  1   
 11   6  10  2   
 12   6  11  am  
 13   7   8  2   
 14   8  12  1   
 15   9  13  1   
 16   9  29  1   
 17   9  30  1   
 18  11  14  1   
 19  11  15  1   
 20  12  16  1   
 21  12  17  2   
 22  13  31  1   
 23  13  32  1   
 24  13  33  1   
 25  14  18  1   
 26  14  34  1   
 27  14  35  1   
 28  15  19  1   
 29  15  36  1   
 30  15  37  1   
 31  16  20  ar  
 32  16  21  ar  
 33  17  22  1   
 34  17  38  1   
 35  18  23  1   
 36  18  39  1   
 37  18  40  1   
 38  19  23  1   
 39  19  41  1   
 40  19  42  1   
 41  20  22  1   
 42  20  24  ar  
 43  21  25  ar  
 44  21  43  1   
 45  22  44  1   
 46  24  26  ar  
 47  24  45  1   
 48  25  26  ar  
 49  25  46  1   
 50  26  47  1   
@<TRIPOS>SUBSTRUCTURE
  1 ****   5 GROUP 4 **** **** 0

# MOE 2024.06 (io_trps.svl 2023.06)
