@<TRIPOS>MOLECULE
NONAME
47 48 1 0 0 
SMALL
USER_CHARGES


@<TRIPOS>ATOM
  1 O        0.1820    -0.4290     1.4140 O.3   1 <1>  -0.6800 
  2 C        0.0440    -1.5690     0.6400 C.3   1 <1>   0.1200 
  3 C        1.3640    -2.3480     0.6990 C.3   1 <1>  -0.0800 
  4 C        2.5500    -1.3960     0.4990 C.3   1 <1>   0.3430 
  5 C        1.3850    -3.4770    -0.3440 C.3   1 <1>  -0.1600 
  6 N        3.8480    -2.1450     0.5440 N.4   1 <1>  -0.9590 
  7 C        2.7540    -4.1730    -0.3630 C.3   1 <1>  -0.1600 
  8 C        5.0040    -1.2040     0.6230 C.3   1 <1>   0.4230 
  9 C        3.9030    -3.1780    -0.5410 C.3   1 <1>   0.3430 
 10 C        5.2520    -0.4580    -0.6940 C.3   1 <1>  -0.1600 
 11 C        6.2700    -1.9420     1.0600 C.3   1 <1>  -0.1600 
 12 C        6.4270     0.5090    -0.5430 C.3   1 <1>   0.3430 
 13 C        7.4380    -0.9650     1.1950 C.3   1 <1>   0.3430 
 14 N        7.6440    -0.2260    -0.0890 N.4   1 <1>  -0.9590 
 15 C        8.7910     0.7270     0.0120 C.3   1 <1>   0.3430 
 16 C       10.1190    -0.0330     0.0580 C.3   1 <1>  -0.1600 
 17 C       11.3020     0.9420     0.0370 C.3   1 <1>  -0.2400 
 18 H       -0.6800     0.0300     1.5130 H     1 <1>   0.4000 
 19 H       -0.1920    -1.2630    -0.3660 H     1 <1>   0.0800 
 20 H       -0.7680    -2.1580     1.0360 H     1 <1>   0.0800 
 21 H        1.4340    -2.7800     1.6820 H     1 <1>   0.0800 
 22 H        2.5270    -0.6490     1.2770 H     1 <1>   0.0800 
 23 H        2.4420    -0.8940    -0.4490 H     1 <1>   0.0800 
 24 H        1.1790    -3.0750    -1.3220 H     1 <1>   0.0800 
 25 H        0.6160    -4.1990    -0.1190 H     1 <1>   0.0800 
 26 H        3.8140    -2.6690     1.4290 H     1 <1>   0.4500 
 27 H        2.7770    -4.8830    -1.1720 H     1 <1>   0.0800 
 28 H        2.8960    -4.7280     0.5490 H     1 <1>   0.0800 
 29 H        4.7800    -0.4690     1.3810 H     1 <1>   0.0800 
 30 H        4.8380    -3.7120    -0.5070 H     1 <1>   0.0800 
 31 H        3.8150    -2.7040    -1.5050 H     1 <1>   0.0800 
 32 H        4.3840     0.1160    -0.9650 H     1 <1>   0.0800 
 33 H        5.4700    -1.1400    -1.4960 H     1 <1>   0.0800 
 34 H        6.5400    -2.7070     0.3540 H     1 <1>   0.0800 
 35 H        6.1060    -2.4060     2.0170 H     1 <1>   0.0800 
 36 H        6.1770     1.2750     0.1750 H     1 <1>   0.0800 
 37 H        6.6210     0.9910    -1.4890 H     1 <1>   0.0800 
 38 H        8.3310    -1.5120     1.4550 H     1 <1>   0.0800 
 39 H        7.2360    -0.2630     1.9900 H     1 <1>   0.0800 
 40 H        7.9080    -0.9040    -0.8200 H     1 <1>   0.4500 
 41 H        8.6920     1.3450     0.8900 H     1 <1>   0.0800 
 42 H        8.8010     1.3740    -0.8510 H     1 <1>   0.0800 
 43 H       10.2020    -0.6830    -0.7970 H     1 <1>   0.0800 
 44 H       10.1900    -0.6240     0.9530 H     1 <1>   0.0800 
 45 H       11.2950     1.5380    -0.8600 H     1 <1>   0.0800 
 46 H       12.2290     0.3950     0.0670 H     1 <1>   0.0800 
 47 H       11.2750     1.5990     0.8900 H     1 <1>   0.0800 
@<TRIPOS>BOND
  1   1   2  1   
  2   1  18  1   
  3   2   3  1   
  4   2  19  1   
  5   2  20  1   
  6   3   4  1   
  7   3   5  1   
  8   3  21  1   
  9   4   6  1   
 10   4  22  1   
 11   4  23  1   
 12   5   7  1   
 13   5  24  1   
 14   5  25  1   
 15   6   8  1   
 16   6   9  1   
 17   6  26  1   
 18   7   9  1   
 19   7  27  1   
 20   7  28  1   
 21   8  10  1   
 22   8  11  1   
 23   8  29  1   
 24   9  30  1   
 25   9  31  1   
 26  10  12  1   
 27  10  32  1   
 28  10  33  1   
 29  11  13  1   
 30  11  34  1   
 31  11  35  1   
 32  12  14  1   
 33  12  36  1   
 34  12  37  1   
 35  13  14  1   
 36  13  38  1   
 37  13  39  1   
 38  14  15  1   
 39  14  40  1   
 40  15  16  1   
 41  15  41  1   
 42  15  42  1   
 43  16  17  1   
 44  16  43  1   
 45  16  44  1   
 46  17  45  1   
 47  17  46  1   
 48  17  47  1   
@<TRIPOS>SUBSTRUCTURE
  1 ****   8 GROUP 4 **** **** 0

# MOE 2024.06 (io_trps.svl 2023.06)
