@<TRIPOS>MOLECULE
NONAME
47 48 1 0 0 
SMALL
USER_CHARGES


@<TRIPOS>ATOM
  1 O       -2.2060     5.5500     0.5440 O.3   1 <1>  -0.3630 
  2 C       -2.9220     4.4730     0.1190 C.ar  1 <1>   0.0820 
  3 C       -2.8090     6.5430     1.3500 C.3   1 <1>   0.1200 
  4 C       -2.3870     3.7090    -0.9160 C.ar  1 <1>  -0.1440 
  5 C       -4.1420     4.1090     0.6810 C.ar  1 <1>  -0.1500 
  6 C       -1.8160     7.6880     1.5150 C.3   1 <1>  -0.2400 
  7 C       -3.0710     2.5950    -1.3790 C.ar  1 <1>  -0.1500 
  8 C       -1.0660     4.0960    -1.5410 C.3   1 <1>   0.4860 
  9 C       -4.8170     2.9960     0.2130 C.ar  1 <1>  -0.1500 
 10 C       -4.2830     2.2400    -0.8140 C.ar  1 <1>  -0.1500 
 11 N       -0.0660     4.0750    -0.4490 N.4   1 <1>  -0.9060 
 12 C        1.2720     4.6480    -0.8220 C.3   1 <1>   0.3430 
 13 C        2.2790     4.7520     0.3690 C.3   1 <1>   0.4230 
 14 N        3.6500     5.2300     0.0090 N.4   1 <1>  -0.9590 
 15 C        2.5460     3.4110     1.0490 C.3   1 <1>  -0.1600 
 16 C        4.5260     4.8400     1.1540 C.3   1 <1>   0.3430 
 17 C        3.7490     6.6890    -0.2910 C.3   1 <1>   0.3430 
 18 C        3.9310     3.5430     1.6870 C.3   1 <1>  -0.1600 
 19 C        5.1000     6.9830    -0.9310 C.3   1 <1>  -0.2400 
 20 H       -3.0540     6.1140     2.3070 H     1 <1>   0.0800 
 21 H       -3.7060     6.8860     0.8600 H     1 <1>   0.0800 
 22 H       -4.5880     4.6690     1.4820 H     1 <1>   0.1500 
 23 H       -0.9270     7.3500     2.0150 H     1 <1>   0.0800 
 24 H       -2.2620     8.4620     2.1140 H     1 <1>   0.0800 
 25 H       -1.5670     8.1100     0.5580 H     1 <1>   0.0800 
 26 H       -2.6830     1.9900    -2.1820 H     1 <1>   0.1500 
 27 H       -1.1520     5.0870    -1.9590 H     1 <1>   0.0800 
 28 H       -0.8010     3.4030    -2.3230 H     1 <1>   0.0800 
 29 H       -5.7620     2.7150     0.6480 H     1 <1>   0.1500 
 30 H       -4.8160     1.3750    -1.1740 H     1 <1>   0.1500 
 31 H       -0.0290     3.1090    -0.0960 H     1 <1>   0.4500 
 32 H       -0.5420     4.6260     0.2910 H     1 <1>   0.4500 
 33 H        1.1240     5.6350    -1.2290 H     1 <1>   0.0800 
 34 H        1.7100     4.0310    -1.5890 H     1 <1>   0.0800 
 35 H        1.8750     5.4290     1.1050 H     1 <1>   0.0800 
 36 H        4.0040     4.7060    -0.8030 H     1 <1>   0.4500 
 37 H        2.5610     2.6140     0.3240 H     1 <1>   0.0800 
 38 H        1.7950     3.1890     1.7890 H     1 <1>   0.0800 
 39 H        4.4880     5.5950     1.9240 H     1 <1>   0.0800 
 40 H        5.5510     4.7070     0.8430 H     1 <1>   0.0800 
 41 H        3.6370     7.2670     0.6140 H     1 <1>   0.0800 
 42 H        2.9710     6.9810    -0.9780 H     1 <1>   0.0800 
 43 H        4.5580     2.7070     1.4240 H     1 <1>   0.0800 
 44 H        3.8680     3.5890     2.7620 H     1 <1>   0.0800 
 45 H        5.9100     6.7860    -0.2520 H     1 <1>   0.0800 
 46 H        5.1450     8.0260    -1.1920 H     1 <1>   0.0800 
 47 H        5.2350     6.4140    -1.8330 H     1 <1>   0.0800 
@<TRIPOS>BOND
  1   1   2  1   
  2   1   3  1   
  3   2   4  ar  
  4   2   5  ar  
  5   3   6  1   
  6   3  20  1   
  7   3  21  1   
  8   4   7  ar  
  9   4   8  1   
 10   5   9  ar  
 11   5  22  1   
 12   6  23  1   
 13   6  24  1   
 14   6  25  1   
 15   7  10  ar  
 16   7  26  1   
 17   8  11  1   
 18   8  27  1   
 19   8  28  1   
 20   9  10  ar  
 21   9  29  1   
 22  10  30  1   
 23  11  12  1   
 24  11  31  1   
 25  11  32  1   
 26  12  13  1   
 27  12  33  1   
 28  12  34  1   
 29  13  14  1   
 30  13  15  1   
 31  13  35  1   
 32  14  16  1   
 33  14  17  1   
 34  14  36  1   
 35  15  18  1   
 36  15  37  1   
 37  15  38  1   
 38  16  18  1   
 39  16  39  1   
 40  16  40  1   
 41  17  19  1   
 42  17  41  1   
 43  17  42  1   
 44  18  43  1   
 45  18  44  1   
 46  19  45  1   
 47  19  46  1   
 48  19  47  1   
@<TRIPOS>SUBSTRUCTURE
  1 ****  11 GROUP 4 **** **** 0

# MOE 2024.06 (io_trps.svl 2023.06)
