@<TRIPOS>MOLECULE
NONAME
40 43 1 0 0 
SMALL
USER_CHARGES


@<TRIPOS>ATOM
  1 S       -4.1260     1.5770     0.5900 S.3   1 <1>  -0.1460 
  2 C       -4.2740    -0.1070     0.2310 C.cat 1 <1>   0.8210 
  3 C       -5.8670     1.8130     0.4720 C.2   1 <1>  -0.1530 
  4 N       -3.1690    -0.8550     0.1830 N.pl3 1 <1>  -0.7380 
  5 N       -5.5570    -0.4470     0.0380 N.pl3 1 <1>  -0.0090 
  6 C       -6.4890     0.6450     0.1720 C.2   1 <1>   0.1390 
  7 C       -6.2490     3.2680     0.7330 C.3   1 <1>  -0.0740 
  8 N       -5.9060    -1.8260    -0.2780 N.pl3 1 <1>  -0.4680 
  9 C       -8.0390     0.5130    -0.0040 C.3   1 <1>   0.1690 
 10 C       -8.7330     0.9330     1.3200 C.3   1 <1>  -0.1730 
 11 C       -8.6000    -0.9000    -0.3480 C.3   1 <1>  -0.1730 
 12 C       -8.4950     1.4420    -1.1610 C.3   1 <1>  -0.1730 
 13 C      -10.2640     0.9690     1.1720 C.3   1 <1>  -0.0940 
 14 C      -10.1320    -0.9040    -0.4960 C.3   1 <1>  -0.0940 
 15 C      -10.0270     1.4750    -1.2930 C.3   1 <1>  -0.0940 
 16 C      -10.7680    -0.4400     0.8230 C.3   1 <1>  -0.1730 
 17 C      -10.6420     1.9410     0.0390 C.3   1 <1>  -0.1730 
 18 C      -10.5340     0.0620    -1.6210 C.3   1 <1>  -0.1730 
 19 H       -3.1800    -1.8570    -0.0230 H     1 <1>   0.4410 
 20 H       -2.2360    -0.4680     0.3520 H     1 <1>   0.4410 
 21 H       -5.9240     3.5570     1.7170 H     1 <1>   0.0660 
 22 H       -7.3020     3.4530     0.6700 H     1 <1>   0.0660 
 23 H       -5.7610     3.9060     0.0180 H     1 <1>   0.0660 
 24 H       -6.5780    -2.1580     0.4300 H     1 <1>   0.3500 
 25 H       -6.4250    -1.8300    -1.1700 H     1 <1>   0.3500 
 26 H       -8.4160     1.9030     1.6440 H     1 <1>   0.0660 
 27 H       -8.4720     0.2430     2.1030 H     1 <1>   0.0660 
 28 H       -8.3590    -1.5970     0.4340 H     1 <1>   0.0660 
 29 H       -8.1950    -1.2450    -1.2810 H     1 <1>   0.0660 
 30 H       -8.0690     1.1040    -2.0890 H     1 <1>   0.0660 
 31 H       -8.1600     2.4490    -1.0160 H     1 <1>   0.0660 
 32 H      -10.7140     1.2950     2.0940 H     1 <1>   0.0660 
 33 H      -10.4790    -1.8950    -0.7320 H     1 <1>   0.0660 
 34 H      -10.3130     2.1520    -2.0800 H     1 <1>   0.0660 
 35 H      -11.8400    -0.4270     0.7250 H     1 <1>   0.0660 
 36 H      -10.5230    -1.1250     1.6150 H     1 <1>   0.0660 
 37 H      -10.2970     2.9330     0.2760 H     1 <1>   0.0660 
 38 H      -11.7140     1.9850    -0.0550 H     1 <1>   0.0660 
 39 H      -11.6050     0.0760    -1.7230 H     1 <1>   0.0660 
 40 H      -10.1220    -0.2680    -2.5580 H     1 <1>   0.0660 
@<TRIPOS>BOND
  1   1   2  1   
  2   1   3  1   
  3   2   4  ar  
  4   2   5  ar  
  5   3   6  2   
  6   3   7  1   
  7   4  19  1   
  8   4  20  1   
  9   5   6  1   
 10   5   8  1   
 11   6   9  1   
 12   7  21  1   
 13   7  22  1   
 14   7  23  1   
 15   8  24  1   
 16   8  25  1   
 17   9  10  1   
 18   9  11  1   
 19   9  12  1   
 20  10  13  1   
 21  10  26  1   
 22  10  27  1   
 23  11  14  1   
 24  11  28  1   
 25  11  29  1   
 26  12  15  1   
 27  12  30  1   
 28  12  31  1   
 29  13  16  1   
 30  13  17  1   
 31  13  32  1   
 32  14  16  1   
 33  14  18  1   
 34  14  33  1   
 35  15  17  1   
 36  15  18  1   
 37  15  34  1   
 38  16  35  1   
 39  16  36  1   
 40  17  37  1   
 41  17  38  1   
 42  18  39  1   
 43  18  40  1   
@<TRIPOS>SUBSTRUCTURE
  1 ****   9 GROUP 4 **** **** 0

# MOE 2024.06 (io_trps.svl 2023.06)
