@<TRIPOS>MOLECULE
NONAME
42 43 1 0 0 
SMALL
USER_CHARGES


@<TRIPOS>ATOM
  1 O       -0.0160    -0.8710    -1.2620 O.2   1 <1>  -0.5700 
  2 C        0.0980    -1.8190    -0.5220 C.2   1 <1>   0.5690 
  3 N        1.3190    -2.2520    -0.1310 N.am  1 <1>  -0.7300 
  4 C       -1.1420    -2.5500    -0.0080 C.3   1 <1>  -0.0190 
  5 C        2.6080    -1.6210    -0.5300 C.3   1 <1>   0.2010 
  6 C       -1.9600    -3.1530    -1.1670 C.3   1 <1>  -0.1600 
  7 C       -2.0230    -1.6230     0.8520 C.3   1 <1>  -0.1600 
  8 C        3.8270    -2.2320     0.1770 C.2   1 <1>   0.5690 
  9 C       -3.2130    -3.8790    -0.6560 C.3   1 <1>  -0.1600 
 10 C       -3.2760    -2.3490     1.3630 C.3   1 <1>  -0.1600 
 11 O        3.6380    -3.1800     0.9090 O.2   1 <1>  -0.5700 
 12 N        5.0850    -1.7120    -0.0200 N.am  1 <1>  -0.6600 
 13 C       -4.0800    -2.9490     0.2030 C.3   1 <1>  -0.1600 
 14 C        6.2670    -2.2470     0.7150 C.3   1 <1>   0.1400 
 15 C        5.4090    -0.5690    -0.9210 C.3   1 <1>   0.1400 
 16 C        6.9000    -1.1280     1.5500 C.3   1 <1>  -0.1600 
 17 C        6.0230     0.5700    -0.1010 C.3   1 <1>  -0.1600 
 18 C        7.2510     0.0950     0.6900 C.3   1 <1>  -0.1600 
 19 H        1.4400    -3.0430     0.5130 H     1 <1>   0.3700 
 20 H       -0.8120    -3.3610     0.6160 H     1 <1>   0.0800 
 21 H        2.5610    -0.5720    -0.3000 H     1 <1>   0.0800 
 22 H        2.7300    -1.7330    -1.5920 H     1 <1>   0.0800 
 23 H       -1.3450    -3.8410    -1.7210 H     1 <1>   0.0800 
 24 H       -2.2560    -2.3640    -1.8380 H     1 <1>   0.0800 
 25 H       -2.3210    -0.7720     0.2620 H     1 <1>   0.0800 
 26 H       -1.4520    -1.2570     1.6870 H     1 <1>   0.0800 
 27 H       -2.9170    -4.7330    -0.0700 H     1 <1>   0.0800 
 28 H       -3.7880    -4.2360    -1.4930 H     1 <1>   0.0800 
 29 H       -3.8940    -1.6570     1.9090 H     1 <1>   0.0800 
 30 H       -2.9830    -3.1350     2.0380 H     1 <1>   0.0800 
 31 H       -4.9210    -3.4970     0.5920 H     1 <1>   0.0800 
 32 H       -4.4630    -2.1530    -0.4130 H     1 <1>   0.0800 
 33 H        6.9820    -2.6240     0.0040 H     1 <1>   0.0800 
 34 H        5.9820    -3.0600     1.3610 H     1 <1>   0.0800 
 35 H        4.5360    -0.2110    -1.4360 H     1 <1>   0.0800 
 36 H        6.1160    -0.9020    -1.6630 H     1 <1>   0.0800 
 37 H        7.7880    -1.5020     2.0280 H     1 <1>   0.0800 
 38 H        6.2080    -0.8430     2.3230 H     1 <1>   0.0800 
 39 H        5.2800     0.9520     0.5770 H     1 <1>   0.0800 
 40 H        6.3080     1.3700    -0.7610 H     1 <1>   0.0800 
 41 H        8.0380    -0.1670     0.0040 H     1 <1>   0.0800 
 42 H        7.6090     0.8910     1.3200 H     1 <1>   0.0800 
@<TRIPOS>BOND
  1   1   2  2   
  2   2   3  am  
  3   2   4  1   
  4   3   5  1   
  5   3  19  1   
  6   4   6  1   
  7   4   7  1   
  8   4  20  1   
  9   5   8  1   
 10   5  21  1   
 11   5  22  1   
 12   6   9  1   
 13   6  23  1   
 14   6  24  1   
 15   7  10  1   
 16   7  25  1   
 17   7  26  1   
 18   8  11  2   
 19   8  12  am  
 20   9  13  1   
 21   9  27  1   
 22   9  28  1   
 23  10  13  1   
 24  10  29  1   
 25  10  30  1   
 26  12  14  1   
 27  12  15  1   
 28  13  31  1   
 29  13  32  1   
 30  14  16  1   
 31  14  33  1   
 32  14  34  1   
 33  15  17  1   
 34  15  35  1   
 35  15  36  1   
 36  16  18  1   
 37  16  37  1   
 38  16  38  1   
 39  17  18  1   
 40  17  39  1   
 41  17  40  1   
 42  18  41  1   
 43  18  42  1   
@<TRIPOS>SUBSTRUCTURE
  1 ****   3 GROUP 4 **** **** 0

# MOE 2024.06 (io_trps.svl 2023.06)
