@<TRIPOS>MOLECULE
NONAME
47 49 1 0 0 
SMALL
USER_CHARGES


@<TRIPOS>ATOM
  1 BR       0.8450    -0.5840    -2.3420 Br    1 <1>  -0.1110 
  2 C        0.1830    -1.7730    -0.9760 C.ar  1 <1>   0.1110 
  3 C        0.9120    -1.9760     0.1880 C.ar  1 <1>   0.0820 
  4 C       -1.0310    -2.3950    -1.1960 C.ar  1 <1>  -0.1500 
  5 O        2.0860    -1.3510     0.4130 O.3   1 <1>  -0.3630 
  6 C        0.3990    -2.8250     1.1540 C.ar  1 <1>  -0.1500 
  7 C       -1.5440    -3.2410    -0.2200 C.ar  1 <1>  -0.1430 
  8 C        3.2390    -1.9800    -0.1000 C.3   1 <1>   0.0400 
  9 C       -0.8190    -3.4560     0.9490 C.ar  1 <1>  -0.1500 
 10 C       -2.8880    -3.9130    -0.4250 C.3   1 <1>   0.4870 
 11 N       -3.9020    -3.2110     0.4070 N.4   1 <1>  -0.9590 
 12 C       -5.2280    -3.9320     0.4040 C.3   1 <1>   0.3430 
 13 C       -4.0740    -1.7660    -0.0050 C.3   1 <1>   0.3430 
 14 C       -6.2860    -3.2360     1.2840 C.3   1 <1>   0.2090 
 15 C       -5.1120    -1.0170     0.8560 C.3   1 <1>   0.2090 
 16 N       -6.3890    -1.7810     0.9750 N.pl3 1 <1>  -0.8380 
 17 C       -7.4790    -1.3580     0.2160 C.ar  1 <1>   0.1000 
 18 C       -8.5810    -0.7540     0.8230 C.ar  1 <1>  -0.1430 
 19 C       -7.4830    -1.5360    -1.1640 C.ar  1 <1>  -0.1500 
 20 C       -9.6550    -0.3450     0.0500 C.ar  1 <1>  -0.1500 
 21 C       -8.6170    -0.5350     2.3290 C.3   1 <1>  -0.0970 
 22 C       -8.5580    -1.1260    -1.9300 C.ar  1 <1>  -0.1500 
 23 C       -9.6470    -0.5290    -1.3220 C.ar  1 <1>  -0.1500 
 24 H       -1.5490    -2.2080    -2.1200 H     1 <1>   0.1500 
 25 H        0.9580    -2.9840     2.0600 H     1 <1>   0.1500 
 26 H        4.0920    -1.3760     0.1530 H     1 <1>   0.0800 
 27 H        3.1510    -2.0620    -1.1690 H     1 <1>   0.0800 
 28 H        3.3330    -2.9550     0.3460 H     1 <1>   0.0800 
 29 H       -1.1880    -4.1170     1.7160 H     1 <1>   0.1500 
 30 H       -2.8170    -4.9480    -0.1310 H     1 <1>   0.0800 
 31 H       -3.1660    -3.8720    -1.4660 H     1 <1>   0.0800 
 32 H       -3.5480    -3.1970     1.3710 H     1 <1>   0.4500 
 33 H       -5.0990    -4.9440     0.7510 H     1 <1>   0.0800 
 34 H       -5.6120    -3.9750    -0.6020 H     1 <1>   0.0800 
 35 H       -4.3970    -1.7200    -1.0310 H     1 <1>   0.0800 
 36 H       -3.1310    -1.2480     0.0660 H     1 <1>   0.0800 
 37 H       -6.0350    -3.3560     2.3240 H     1 <1>   0.0800 
 38 H       -7.2450    -3.7020     1.1270 H     1 <1>   0.0800 
 39 H       -5.3120    -0.0540     0.4170 H     1 <1>   0.0800 
 40 H       -4.7140    -0.8460     1.8400 H     1 <1>   0.0800 
 41 H       -6.6460    -1.9980    -1.6460 H     1 <1>   0.1500 
 42 H      -10.5080     0.1210     0.5100 H     1 <1>   0.1500 
 43 H       -8.5650    -1.4820     2.8350 H     1 <1>   0.0800 
 44 H       -9.5200    -0.0350     2.6280 H     1 <1>   0.0800 
 45 H       -7.7780     0.0650     2.6300 H     1 <1>   0.0800 
 46 H       -8.5540    -1.2670    -2.9970 H     1 <1>   0.1500 
 47 H      -10.4880    -0.2070    -1.9120 H     1 <1>   0.1500 
@<TRIPOS>BOND
  1   1   2  1   
  2   2   3  ar  
  3   2   4  ar  
  4   3   5  1   
  5   3   6  ar  
  6   4   7  ar  
  7   4  24  1   
  8   5   8  1   
  9   6   9  ar  
 10   6  25  1   
 11   7   9  ar  
 12   7  10  1   
 13   8  26  1   
 14   8  27  1   
 15   8  28  1   
 16   9  29  1   
 17  10  11  1   
 18  10  30  1   
 19  10  31  1   
 20  11  12  1   
 21  11  13  1   
 22  11  32  1   
 23  12  14  1   
 24  12  33  1   
 25  12  34  1   
 26  13  15  1   
 27  13  35  1   
 28  13  36  1   
 29  14  16  1   
 30  14  37  1   
 31  14  38  1   
 32  15  16  1   
 33  15  39  1   
 34  15  40  1   
 35  16  17  1   
 36  17  18  ar  
 37  17  19  ar  
 38  18  20  ar  
 39  18  21  1   
 40  19  22  ar  
 41  19  41  1   
 42  20  23  ar  
 43  20  42  1   
 44  21  43  1   
 45  21  44  1   
 46  21  45  1   
 47  22  23  ar  
 48  22  46  1   
 49  23  47  1   
@<TRIPOS>SUBSTRUCTURE
  1 ****  13 GROUP 4 **** **** 0

# MOE 2024.06 (io_trps.svl 2023.06)
