@<TRIPOS>MOLECULE
NONAME
35 36 1 0 0 
SMALL
USER_CHARGES


@<TRIPOS>ATOM
  1 CL      -0.3470     0.0340     0.2990 Cl    1 <1>  -0.1770 
  2 C       -0.2970     1.7820     0.2180 C.ar  1 <1>   0.1770 
  3 C       -1.4600     2.4800    -0.0980 C.ar  1 <1>   0.1170 
  4 C        0.9030     2.4230     0.4690 C.ar  1 <1>  -0.1500 
  5 N       -2.6720     1.7940    -0.3260 N.am  1 <1>  -0.5470 
  6 C       -1.3560     3.8700    -0.1820 C.ar  1 <1>   0.1770 
  7 C        0.9690     3.8060     0.3980 C.ar  1 <1>  -0.1500 
  8 C       -3.8250     1.9740     0.3870 C.2   1 <1>   0.5690 
  9 CL      -2.7470     4.8300    -0.6520 Cl    1 <1>  -0.1770 
 10 C       -0.1650     4.5300     0.0680 C.ar  1 <1>  -0.1500 
 11 O       -3.8630     2.6350     1.3970 O.2   1 <1>  -0.5700 
 12 C       -5.1510     1.3720    -0.1010 C.3   1 <1>   0.4040 
 13 N       -6.3360     2.2620     0.2000 N.4   1 <1>  -0.9590 
 14 C       -7.6420     1.5740     0.0030 C.3   1 <1>   0.3430 
 15 C       -6.2480     3.5650    -0.5280 C.3   1 <1>   0.3430 
 16 C       -8.7770     2.4780     0.4870 C.3   1 <1>  -0.1600 
 17 C       -7.3640     4.4950    -0.0520 C.3   1 <1>  -0.1600 
 18 C       -8.7480     3.8490    -0.2010 C.3   1 <1>  -0.1600 
 19 H        1.7760     1.8460     0.7180 H     1 <1>   0.1500 
 20 H       -2.6000     1.0010    -0.9680 H     1 <1>   0.3700 
 21 H        1.8980     4.3150     0.5960 H     1 <1>   0.1500 
 22 H       -0.1260     5.6030     0.0010 H     1 <1>   0.1500 
 23 H       -5.2810     0.4240     0.3930 H     1 <1>   0.0800 
 24 H       -5.0890     1.1960    -1.1610 H     1 <1>   0.0800 
 25 H       -6.2430     2.5080     1.2000 H     1 <1>   0.4500 
 26 H       -7.6630     0.6480     0.5550 H     1 <1>   0.0800 
 27 H       -7.7840     1.3520    -1.0430 H     1 <1>   0.0800 
 28 H       -6.3420     3.4020    -1.5890 H     1 <1>   0.0800 
 29 H       -5.2940     4.0340    -0.3370 H     1 <1>   0.0800 
 30 H       -8.7040     2.6020     1.5540 H     1 <1>   0.0800 
 31 H       -9.7200     1.9990     0.2850 H     1 <1>   0.0800 
 32 H       -7.3310     5.4050    -0.6260 H     1 <1>   0.0800 
 33 H       -7.1900     4.7600     0.9770 H     1 <1>   0.0800 
 34 H       -9.4980     4.4910     0.2320 H     1 <1>   0.0800 
 35 H       -8.9810     3.7340    -1.2470 H     1 <1>   0.0800 
@<TRIPOS>BOND
  1   1   2  1   
  2   2   3  ar  
  3   2   4  ar  
  4   3   5  1   
  5   3   6  ar  
  6   4   7  ar  
  7   4  19  1   
  8   5   8  am  
  9   5  20  1   
 10   6   9  1   
 11   6  10  ar  
 12   7  10  ar  
 13   7  21  1   
 14   8  11  2   
 15   8  12  1   
 16  10  22  1   
 17  12  13  1   
 18  12  23  1   
 19  12  24  1   
 20  13  14  1   
 21  13  15  1   
 22  13  25  1   
 23  14  16  1   
 24  14  26  1   
 25  14  27  1   
 26  15  17  1   
 27  15  28  1   
 28  15  29  1   
 29  16  18  1   
 30  16  30  1   
 31  16  31  1   
 32  17  18  1   
 33  17  32  1   
 34  17  33  1   
 35  18  34  1   
 36  18  35  1   
@<TRIPOS>SUBSTRUCTURE
  1 ****   8 GROUP 4 **** **** 0

# MOE 2024.06 (io_trps.svl 2023.06)
