@<TRIPOS>MOLECULE
NONAME
40 41 1 0 0 
SMALL
USER_CHARGES


@<TRIPOS>ATOM
  1 BR      -1.5320     0.0560     2.9050 Br    1 <1>  -0.1110 
  2 C       -2.2710     0.9760     1.3870 C.ar  1 <1>   0.1110 
  3 C       -3.4370     0.4930     0.8260 C.ar  1 <1>  -0.1500 
  4 C       -1.6210     2.0930     0.9010 C.ar  1 <1>  -0.1500 
  5 C       -3.9810     1.1580    -0.2650 C.ar  1 <1>  -0.1440 
  6 C       -2.1610     2.7450    -0.1930 C.ar  1 <1>  -0.1500 
  7 C       -3.3320     2.2790    -0.7730 C.ar  1 <1>  -0.1500 
  8 C       -5.2700     0.6680    -0.8950 C.3   1 <1>   0.4870 
  9 N       -6.4080     0.9820     0.0320 N.4   1 <1>  -0.9590 
 10 C       -7.6840     0.2590    -0.2970 C.3   1 <1>   0.4230 
 11 C       -6.5560     2.4800     0.1060 C.3   1 <1>   0.2630 
 12 C       -8.7980     0.6560     0.6860 C.3   1 <1>  -0.1600 
 13 C       -7.4710    -1.2630    -0.2420 C.3   1 <1>  -0.1600 
 14 C      -10.0830    -0.1410     0.4540 C.3   1 <1>   0.3430 
 15 C       -8.7750    -2.0350    -0.4600 C.3   1 <1>   0.3430 
 16 N       -9.7990    -1.6000     0.5290 N.4   1 <1>  -0.9590 
 17 C      -11.0650    -2.3840     0.3430 C.3   1 <1>   0.2630 
 18 H       -3.8840    -0.3890     1.2480 H     1 <1>   0.1500 
 19 H       -0.7130     2.4390     1.3650 H     1 <1>   0.1500 
 20 H       -1.6650     3.6140    -0.5940 H     1 <1>   0.1500 
 21 H       -3.7220     2.8060    -1.6280 H     1 <1>   0.1500 
 22 H       -5.1810    -0.3930    -1.0530 H     1 <1>   0.0800 
 23 H       -5.4190     1.1430    -1.8510 H     1 <1>   0.0800 
 24 H       -6.0810     0.6800     0.9610 H     1 <1>   0.4500 
 25 H       -7.9940     0.5310    -1.2950 H     1 <1>   0.0800 
 26 H       -6.8890     2.8760    -0.8400 H     1 <1>   0.0800 
 27 H       -5.6130     2.9410     0.3550 H     1 <1>   0.0800 
 28 H       -7.2650     2.7590     0.8680 H     1 <1>   0.0800 
 29 H       -9.0530     1.6930     0.5620 H     1 <1>   0.0800 
 30 H       -8.4770     0.5070     1.7020 H     1 <1>   0.0800 
 31 H       -7.0540    -1.5520     0.7060 H     1 <1>   0.0800 
 32 H       -6.7960    -1.5770    -1.0170 H     1 <1>   0.0800 
 33 H      -10.4930     0.1000    -0.5150 H     1 <1>   0.0800 
 34 H      -10.8150     0.1290     1.2000 H     1 <1>   0.0800 
 35 H       -8.5890    -3.0930    -0.3540 H     1 <1>   0.0800 
 36 H       -9.1400    -1.8600    -1.4610 H     1 <1>   0.0800 
 37 H       -9.4540    -1.8190     1.4780 H     1 <1>   0.4500 
 38 H      -11.4840    -2.2020    -0.6340 H     1 <1>   0.0800 
 39 H      -11.7950    -2.1030     1.0870 H     1 <1>   0.0800 
 40 H      -10.8720    -3.4410     0.4420 H     1 <1>   0.0800 
@<TRIPOS>BOND
  1   1   2  1   
  2   2   3  ar  
  3   2   4  ar  
  4   3   5  ar  
  5   3  18  1   
  6   4   6  ar  
  7   4  19  1   
  8   5   7  ar  
  9   5   8  1   
 10   6   7  ar  
 11   6  20  1   
 12   7  21  1   
 13   8   9  1   
 14   8  22  1   
 15   8  23  1   
 16   9  10  1   
 17   9  11  1   
 18   9  24  1   
 19  10  12  1   
 20  10  13  1   
 21  10  25  1   
 22  11  26  1   
 23  11  27  1   
 24  11  28  1   
 25  12  14  1   
 26  12  29  1   
 27  12  30  1   
 28  13  15  1   
 29  13  31  1   
 30  13  32  1   
 31  14  16  1   
 32  14  33  1   
 33  14  34  1   
 34  15  16  1   
 35  15  35  1   
 36  15  36  1   
 37  16  17  1   
 38  16  37  1   
 39  17  38  1   
 40  17  39  1   
 41  17  40  1   
@<TRIPOS>SUBSTRUCTURE
  1 ****   9 GROUP 4 **** **** 0

# MOE 2024.06 (io_trps.svl 2023.06)
