@<TRIPOS>MOLECULE
NONAME
55 57 1 0 0 
SMALL
USER_CHARGES


@<TRIPOS>ATOM
  1 O       -0.2970    -0.2780    -0.0890 O.3   1 <1>  -0.3630 
  2 C       -1.5680    -0.7120    -0.2960 C.ar  1 <1>   0.0830 
  3 C        0.6920    -0.9920    -0.7960 C.3   1 <1>   0.0400 
  4 C       -2.3580    -0.1470    -1.3080 C.ar  1 <1>   0.0830 
  5 C       -2.0900    -1.7620     0.4710 C.ar  1 <1>   0.0820 
  6 O       -2.0050     0.9080    -2.0930 O.3   1 <1>  -0.3630 
  7 C       -3.6100    -0.6750    -1.5760 C.ar  1 <1>  -0.1500 
  8 O       -1.4520    -2.3620     1.5120 O.3   1 <1>  -0.3630 
  9 C       -3.3450    -2.2710     0.1810 C.ar  1 <1>  -0.1500 
 10 C       -1.2040     1.9550    -1.5860 C.3   1 <1>   0.0400 
 11 C       -4.1130    -1.7350    -0.8390 C.ar  1 <1>  -0.1430 
 12 C       -0.7010    -1.5880     2.4260 C.3   1 <1>   0.0400 
 13 C       -5.4920    -2.2880    -1.1340 C.3   1 <1>   0.4860 
 14 N       -6.4230    -1.8150    -0.0760 N.4   1 <1>  -0.9590 
 15 C       -7.7730    -2.4780    -0.1750 C.3   1 <1>   0.3430 
 16 C       -6.5570    -0.3090    -0.0780 C.3   1 <1>   0.3430 
 17 C       -8.7440    -2.0160     0.9310 C.3   1 <1>   0.2090 
 18 C       -7.5130     0.2090     1.0170 C.3   1 <1>   0.2090 
 19 N       -8.8100    -0.5290     1.0170 N.pl3 1 <1>  -0.8380 
 20 C       -9.9220     0.0980     0.4580 C.ar  1 <1>   0.1000 
 21 C      -10.9900     0.5070     1.2580 C.ar  1 <1>  -0.1430 
 22 C       -9.9860     0.3190    -0.9150 C.ar  1 <1>  -0.1500 
 23 C      -12.0890     1.1210     0.6800 C.ar  1 <1>  -0.1500 
 24 C      -10.9620     0.2900     2.7650 C.3   1 <1>  -0.0970 
 25 C      -11.0850     0.9330    -1.4850 C.ar  1 <1>  -0.1500 
 26 C      -12.1400     1.3350    -0.6860 C.ar  1 <1>  -0.1500 
 27 H        1.6500    -0.5660    -0.5610 H     1 <1>   0.0800 
 28 H        0.6620    -2.0240    -0.4930 H     1 <1>   0.0800 
 29 H        0.4980    -0.9060    -1.8510 H     1 <1>   0.0800 
 30 H       -4.1770    -0.2350    -2.3780 H     1 <1>   0.1500 
 31 H       -3.6970    -3.0980     0.7730 H     1 <1>   0.1500 
 32 H       -1.3680     2.8270    -2.1930 H     1 <1>   0.0800 
 33 H       -0.1710     1.6650    -1.6450 H     1 <1>   0.0800 
 34 H       -1.4840     2.1570    -0.5680 H     1 <1>   0.0800 
 35 H       -1.1880    -0.6400     2.5750 H     1 <1>   0.0800 
 36 H       -0.6460    -2.1250     3.3550 H     1 <1>   0.0800 
 37 H        0.2890    -1.4450     2.0340 H     1 <1>   0.0800 
 38 H       -5.4480    -3.3660    -1.1380 H     1 <1>   0.0800 
 39 H       -5.8240    -1.9550    -2.1040 H     1 <1>   0.0800 
 40 H       -6.0040    -2.0680     0.8270 H     1 <1>   0.4500 
 41 H       -7.6640    -3.5480    -0.1160 H     1 <1>   0.0800 
 42 H       -8.2200    -2.2440    -1.1270 H     1 <1>   0.0800 
 43 H       -6.9340     0.0170    -1.0320 H     1 <1>   0.0800 
 44 H       -5.5900     0.1470     0.0640 H     1 <1>   0.0800 
 45 H       -8.4300    -2.4090     1.8820 H     1 <1>   0.0800 
 46 H       -9.7280    -2.4050     0.7280 H     1 <1>   0.0800 
 47 H       -7.6990     1.2590     0.8600 H     1 <1>   0.0800 
 48 H       -7.0500     0.1040     1.9820 H     1 <1>   0.0800 
 49 H       -9.1760     0.0110    -1.5440 H     1 <1>   0.1500 
 50 H      -12.9160     1.4390     1.2900 H     1 <1>   0.1500 
 51 H      -10.9170    -0.7620     2.9800 H     1 <1>   0.0800 
 52 H      -11.8380     0.6990     3.2330 H     1 <1>   0.0800 
 53 H      -10.0950     0.7670     3.1850 H     1 <1>   0.0800 
 54 H      -11.1260     1.1010    -2.5470 H     1 <1>   0.1500 
 55 H      -12.9990     1.8130    -1.1240 H     1 <1>   0.1500 
@<TRIPOS>BOND
  1   1   2  1   
  2   1   3  1   
  3   2   4  ar  
  4   2   5  ar  
  5   3  27  1   
  6   3  28  1   
  7   3  29  1   
  8   4   6  1   
  9   4   7  ar  
 10   5   8  1   
 11   5   9  ar  
 12   6  10  1   
 13   7  11  ar  
 14   7  30  1   
 15   8  12  1   
 16   9  11  ar  
 17   9  31  1   
 18  10  32  1   
 19  10  33  1   
 20  10  34  1   
 21  11  13  1   
 22  12  35  1   
 23  12  36  1   
 24  12  37  1   
 25  13  14  1   
 26  13  38  1   
 27  13  39  1   
 28  14  15  1   
 29  14  16  1   
 30  14  40  1   
 31  15  17  1   
 32  15  41  1   
 33  15  42  1   
 34  16  18  1   
 35  16  43  1   
 36  16  44  1   
 37  17  19  1   
 38  17  45  1   
 39  17  46  1   
 40  18  19  1   
 41  18  47  1   
 42  18  48  1   
 43  19  20  1   
 44  20  21  ar  
 45  20  22  ar  
 46  21  23  ar  
 47  21  24  1   
 48  22  25  ar  
 49  22  49  1   
 50  23  26  ar  
 51  23  50  1   
 52  24  51  1   
 53  24  52  1   
 54  24  53  1   
 55  25  26  ar  
 56  25  54  1   
 57  26  55  1   
@<TRIPOS>SUBSTRUCTURE
  1 ****  16 GROUP 4 **** **** 0

# MOE 2024.06 (io_trps.svl 2023.06)
