@<TRIPOS>MOLECULE
NONAME
42 44 1 0 0 
SMALL
USER_CHARGES


@<TRIPOS>ATOM
  1 O       -1.4930    -1.6530     1.8960 O.2   1 <1>  -0.5700 
  2 C       -2.5050    -1.2650     1.3500 C.2   1 <1>   0.6900 
  3 N       -3.4250    -0.5480     2.0370 N.am  1 <1>  -0.4300 
  4 N       -2.6800    -1.5040     0.0440 N.am  1 <1>  -0.8000 
  5 N       -4.7910    -0.1950     1.5850 N.am  1 <1>  -0.4300 
  6 C       -5.1020     0.6340     0.5490 C.2   1 <1>   0.5690 
  7 O       -4.2310     1.1060    -0.1550 O.2   1 <1>  -0.5700 
  8 C       -6.5790     0.9550     0.2290 C.3   1 <1>   0.0610 
  9 C       -6.8270     2.4740     0.4010 C.3   1 <1>  -0.1600 
 10 C       -6.8960     0.5740    -1.2390 C.3   1 <1>  -0.1600 
 11 C       -7.5760     0.1940     1.1450 C.3   1 <1>  -0.1600 
 12 C       -8.2820     2.8630     0.0470 C.3   1 <1>   0.0000 
 13 C       -8.3490     0.9310    -1.6020 C.3   1 <1>  -0.0800 
 14 C       -9.0300     0.5500     0.7900 C.3   1 <1>  -0.0800 
 15 C       -8.5570     2.4460    -1.4170 C.3   1 <1>  -0.1600 
 16 C       -9.2350     2.0640     0.9640 C.3   1 <1>  -0.1600 
 17 C       -8.5420     4.3720     0.2710 C.3   1 <1>  -0.1600 
 18 C       -9.3070     0.1670    -0.6740 C.3   1 <1>  -0.1600 
 19 C       -7.6760     5.3390    -0.5540 C.3   1 <1>  -0.2400 
 20 H       -3.0820    -0.1300     2.9060 H     1 <1>   0.3700 
 21 H       -1.8690    -1.8570    -0.4590 H     1 <1>   0.3700 
 22 H       -3.2260    -0.7960    -0.4560 H     1 <1>   0.3700 
 23 H       -5.5510    -0.7240     2.0220 H     1 <1>   0.3700 
 24 H       -6.1440     3.0050    -0.2370 H     1 <1>   0.0800 
 25 H       -6.6110     2.7630     1.4150 H     1 <1>   0.0800 
 26 H       -6.7350    -0.4790    -1.3860 H     1 <1>   0.0800 
 27 H       -6.2280     1.0970    -1.9030 H     1 <1>   0.0800 
 28 H       -7.4010     0.4510     2.1760 H     1 <1>   0.0800 
 29 H       -7.4430    -0.8680     1.0350 H     1 <1>   0.0800 
 30 H       -8.5440     0.6620    -2.6260 H     1 <1>   0.0800 
 31 H       -9.7060     0.0160     1.4370 H     1 <1>   0.0800 
 32 H       -9.5640     2.7080    -1.6880 H     1 <1>   0.0800 
 33 H       -7.8940     2.9680    -2.0840 H     1 <1>   0.0800 
 34 H      -10.2560     2.3120     0.7320 H     1 <1>   0.0800 
 35 H       -9.0640     2.3310     1.9930 H     1 <1>   0.0800 
 36 H       -8.3920     4.5990     1.3120 H     1 <1>   0.0800 
 37 H       -9.5750     4.5800     0.0500 H     1 <1>   0.0800 
 38 H       -9.1780    -0.8930    -0.8070 H     1 <1>   0.0800 
 39 H      -10.3250     0.4060    -0.9270 H     1 <1>   0.0800 
 40 H       -6.6330     5.2180    -0.3260 H     1 <1>   0.0800 
 41 H       -7.9490     6.3520    -0.3210 H     1 <1>   0.0800 
 42 H       -7.8240     5.1900    -1.6080 H     1 <1>   0.0800 
@<TRIPOS>BOND
  1   1   2  2   
  2   2   3  am  
  3   2   4  am  
  4   3   5  1   
  5   3  20  1   
  6   4  21  1   
  7   4  22  1   
  8   5   6  am  
  9   5  23  1   
 10   6   7  2   
 11   6   8  1   
 12   8   9  1   
 13   8  10  1   
 14   8  11  1   
 15   9  12  1   
 16   9  24  1   
 17   9  25  1   
 18  10  13  1   
 19  10  26  1   
 20  10  27  1   
 21  11  14  1   
 22  11  28  1   
 23  11  29  1   
 24  12  15  1   
 25  12  16  1   
 26  12  17  1   
 27  13  15  1   
 28  13  18  1   
 29  13  30  1   
 30  14  16  1   
 31  14  18  1   
 32  14  31  1   
 33  15  32  1   
 34  15  33  1   
 35  16  34  1   
 36  16  35  1   
 37  17  19  1   
 38  17  36  1   
 39  17  37  1   
 40  18  38  1   
 41  18  39  1   
 42  19  40  1   
 43  19  41  1   
 44  19  42  1   
@<TRIPOS>SUBSTRUCTURE
  1 ****   8 GROUP 4 **** **** 0

# MOE 2024.06 (io_trps.svl 2023.06)
