@<TRIPOS>MOLECULE
NONAME
49 51 1 0 0 
SMALL
USER_CHARGES


@<TRIPOS>ATOM
  1 O       -0.8180    -6.7010     0.7210 O.2   1 <1>  -0.5700 
  2 C       -1.0150    -5.5490     0.4260 C.2   1 <1>   0.5690 
  3 N       -2.2350    -5.0210     0.1310 N.am  1 <1>  -0.5470 
  4 C        0.1790    -4.6230     0.3780 C.3   1 <1>  -0.0990 
  5 C       -3.5320    -5.5650     0.0620 C.ar  1 <1>   0.1170 
  6 C        1.4580    -5.4560     0.2740 C.3   1 <1>   0.3430 
  7 C       -4.5690    -4.7090    -0.3220 C.ar  1 <1>   0.0820 
  8 C       -3.8290    -6.8920     0.3520 C.ar  1 <1>  -0.1500 
  9 N        2.6760    -4.5990     0.1860 N.4   1 <1>  -0.9590 
 10 O       -4.2340    -3.4110    -0.5980 O.3   1 <1>  -0.3630 
 11 C       -5.8720    -5.1900    -0.4090 C.ar  1 <1>  -0.1500 
 12 C       -5.1270    -7.3700     0.2670 C.ar  1 <1>  -0.1440 
 13 C        3.8440    -5.4040    -0.2680 C.3   1 <1>   0.4860 
 14 C        3.0210    -3.9210     1.4740 C.3   1 <1>   0.3430 
 15 C       -5.2150    -2.4760    -0.9940 C.3   1 <1>   0.0400 
 16 C       -6.1450    -6.5150    -0.1160 C.ar  1 <1>  -0.1500 
 17 C       -5.4320    -8.8220     0.5870 C.3   1 <1>  -0.0970 
 18 C        5.0590    -4.5070    -0.4280 C.ar  1 <1>  -0.1440 
 19 C        4.0910    -2.8520     1.2370 C.3   1 <1>  -0.0170 
 20 C        5.1830    -3.3180     0.2850 C.ar  1 <1>  -0.1440 
 21 C        6.0690    -4.8920    -1.2990 C.ar  1 <1>  -0.1500 
 22 C        6.3120    -2.5320     0.1190 C.ar  1 <1>  -0.1500 
 23 C        7.1920    -4.1010    -1.4600 C.ar  1 <1>  -0.1500 
 24 C        7.3140    -2.9220    -0.7500 C.ar  1 <1>  -0.1500 
 25 H       -2.2690    -4.0250    -0.0980 H     1 <1>   0.3700 
 26 H        0.1760    -4.0370     1.2770 H     1 <1>   0.0800 
 27 H        0.0880    -3.9800    -0.4770 H     1 <1>   0.0800 
 28 H        1.3840    -6.0760    -0.6070 H     1 <1>   0.0800 
 29 H        1.5270    -6.1140     1.1270 H     1 <1>   0.0800 
 30 H       -3.0490    -7.5660     0.6490 H     1 <1>   0.1500 
 31 H        2.5490    -3.8740    -0.5320 H     1 <1>   0.4500 
 32 H       -6.6880    -4.5580    -0.7020 H     1 <1>   0.1500 
 33 H        3.6230    -5.8730    -1.2130 H     1 <1>   0.0800 
 34 H        4.0650    -6.1760     0.4510 H     1 <1>   0.0800 
 35 H        3.3970    -4.6510     2.1730 H     1 <1>   0.0800 
 36 H        2.1500    -3.4580     1.9070 H     1 <1>   0.0800 
 37 H       -4.7320    -1.5290    -1.1560 H     1 <1>   0.0800 
 38 H       -5.9460    -2.3820    -0.2100 H     1 <1>   0.0800 
 39 H       -5.6720    -2.8130    -1.9080 H     1 <1>   0.0800 
 40 H       -7.1550    -6.8780    -0.1880 H     1 <1>   0.1500 
 41 H       -4.6740    -9.2360     1.2290 H     1 <1>   0.0800 
 42 H       -5.4650    -9.3960    -0.3220 H     1 <1>   0.0800 
 43 H       -6.3800    -8.9050     1.0860 H     1 <1>   0.0800 
 44 H        4.5270    -2.5790     2.1820 H     1 <1>   0.0800 
 45 H        3.6260    -1.9710     0.8300 H     1 <1>   0.0800 
 46 H        5.9980    -5.8080    -1.8610 H     1 <1>   0.1500 
 47 H        6.4230    -1.6090     0.6630 H     1 <1>   0.1500 
 48 H        7.9750    -4.4020    -2.1360 H     1 <1>   0.1500 
 49 H        8.1900    -2.3070    -0.8750 H     1 <1>   0.1500 
@<TRIPOS>BOND
  1   1   2  2   
  2   2   3  am  
  3   2   4  1   
  4   3   5  1   
  5   3  25  1   
  6   4   6  1   
  7   4  26  1   
  8   4  27  1   
  9   5   7  ar  
 10   5   8  ar  
 11   6   9  1   
 12   6  28  1   
 13   6  29  1   
 14   7  10  1   
 15   7  11  ar  
 16   8  12  ar  
 17   8  30  1   
 18   9  13  1   
 19   9  14  1   
 20   9  31  1   
 21  10  15  1   
 22  11  16  ar  
 23  11  32  1   
 24  12  16  ar  
 25  12  17  1   
 26  13  18  1   
 27  13  33  1   
 28  13  34  1   
 29  14  19  1   
 30  14  35  1   
 31  14  36  1   
 32  15  37  1   
 33  15  38  1   
 34  15  39  1   
 35  16  40  1   
 36  17  41  1   
 37  17  42  1   
 38  17  43  1   
 39  18  20  ar  
 40  18  21  ar  
 41  19  20  1   
 42  19  44  1   
 43  19  45  1   
 44  20  22  ar  
 45  21  23  ar  
 46  21  46  1   
 47  22  24  ar  
 48  22  47  1   
 49  23  24  ar  
 50  23  48  1   
 51  24  49  1   
@<TRIPOS>SUBSTRUCTURE
  1 ****   4 GROUP 4 **** **** 0

# MOE 2024.06 (io_trps.svl 2023.06)
