@<TRIPOS>MOLECULE
NONAME
34 34 1 0 0 
SMALL
USER_CHARGES


@<TRIPOS>ATOM
  1 S        0.0150    -0.1370    -0.0380 S.o2  1 <1>   1.2040 
  2 O        0.1100    -0.7750    -1.3300 O.2   1 <1>  -0.6500 
  3 O        0.3730    -0.8930     1.1440 O.2   1 <1>  -0.6500 
  4 C        1.0220     1.3720    -0.0540 C.ar  1 <1>  -0.0090 
  5 C       -1.6920     0.3880     0.1610 C.3   1 <1>  -0.0550 
  6 C        2.3950     1.2960    -0.3410 C.ar  1 <1>   0.0860 
  7 C        0.4640     2.6200     0.2190 C.ar  1 <1>  -0.1500 
  8 C       -2.6940    -0.7810     0.1530 C.3   1 <1>  -0.1600 
  9 C        3.1130     0.0610    -0.6170 C.2   1 <1>   0.5440 
 10 C        3.1340     2.4810    -0.3690 C.ar  1 <1>  -0.1500 
 11 C        1.2200     3.7770     0.1960 C.ar  1 <1>  -0.1500 
 12 C       -4.1410    -0.3410     0.4380 C.3   1 <1>  -0.0800 
 13 O        3.8870    -0.0090    -1.5460 O.2   1 <1>  -0.5700 
 14 N        3.0160    -1.0420     0.1570 N.am  1 <1>  -0.8000 
 15 C        2.5630     3.7080    -0.1040 C.ar  1 <1>  -0.1500 
 16 C       -5.0430    -1.5770     0.5330 C.3   1 <1>  -0.2400 
 17 C       -4.6830     0.6030    -0.6440 C.3   1 <1>  -0.2400 
 18 H       -1.9430     1.0610    -0.6360 H     1 <1>   0.0800 
 19 H       -1.7960     0.9110     1.0920 H     1 <1>   0.0800 
 20 H       -0.5780     2.7250     0.4580 H     1 <1>   0.1500 
 21 H       -2.3920    -1.4910     0.9050 H     1 <1>   0.0800 
 22 H       -2.6470    -1.2810    -0.8000 H     1 <1>   0.0800 
 23 H        4.1840     2.4290    -0.6060 H     1 <1>   0.1500 
 24 H        0.7650     4.7310     0.4090 H     1 <1>   0.1500 
 25 H       -4.1730     0.1670     1.3880 H     1 <1>   0.0800 
 26 H        3.4940    -1.8880    -0.1510 H     1 <1>   0.3700 
 27 H        2.2620    -1.1900     0.8420 H     1 <1>   0.3700 
 28 H        3.1620     4.6030    -0.1320 H     1 <1>   0.1500 
 29 H       -5.0480    -2.1170    -0.3970 H     1 <1>   0.0800 
 30 H       -6.0530    -1.2870     0.7650 H     1 <1>   0.0800 
 31 H       -4.6980    -2.2360     1.3100 H     1 <1>   0.0800 
 32 H       -4.6090     0.1470    -1.6160 H     1 <1>   0.0800 
 33 H       -4.1440     1.5320    -0.6540 H     1 <1>   0.0800 
 34 H       -5.7180     0.8290    -0.4540 H     1 <1>   0.0800 
@<TRIPOS>BOND
  1   1   2  2   
  2   1   3  2   
  3   1   4  1   
  4   1   5  1   
  5   4   6  ar  
  6   4   7  ar  
  7   5   8  1   
  8   5  18  1   
  9   5  19  1   
 10   6   9  1   
 11   6  10  ar  
 12   7  11  ar  
 13   7  20  1   
 14   8  12  1   
 15   8  21  1   
 16   8  22  1   
 17   9  13  2   
 18   9  14  am  
 19  10  15  ar  
 20  10  23  1   
 21  11  15  ar  
 22  11  24  1   
 23  12  16  1   
 24  12  17  1   
 25  12  25  1   
 26  14  26  1   
 27  14  27  1   
 28  15  28  1   
 29  16  29  1   
 30  16  30  1   
 31  16  31  1   
 32  17  32  1   
 33  17  33  1   
 34  17  34  1   
@<TRIPOS>SUBSTRUCTURE
  1 ****   1 GROUP 4 **** **** 0

# MOE 2024.06 (io_trps.svl 2023.06)
