@<TRIPOS>MOLECULE
NONAME
39 40 1 0 0 
SMALL
USER_CHARGES


@<TRIPOS>ATOM
  1 CL       0.0990    -0.3510    -1.0650 Cl    1 <1>  -0.1770 
  2 C        1.7470     0.0820    -0.6820 C.ar  1 <1>   0.1770 
  3 C        2.0540     0.5200     0.5910 C.ar  1 <1>  -0.1500 
  4 C        2.7180    -0.0210    -1.6590 C.ar  1 <1>  -0.1500 
  5 C        3.3600     0.8650     0.9040 C.ar  1 <1>  -0.1440 
  6 C        4.0230     0.3220    -1.3550 C.ar  1 <1>  -0.1500 
  7 C        4.3510     0.7660    -0.0730 C.ar  1 <1>   0.0830 
  8 C        3.6910     1.3470     2.3090 C.3   1 <1>  -0.0960 
  9 O        5.6160     1.1150     0.2820 O.3   1 <1>  -0.3630 
 10 C        6.7020     0.9990    -0.6130 C.3   1 <1>   0.1200 
 11 C        7.9760     1.4540     0.1090 C.3   1 <1>   0.2000 
 12 O        7.7520     2.7100     0.6760 O.3   1 <1>  -0.6800 
 13 C        9.1960     1.5380    -0.8320 C.3   1 <1>   0.3430 
 14 N       10.2300     2.4540    -0.2600 N.4   1 <1>  -0.9590 
 15 C       11.1640     3.0460    -1.2420 C.3   1 <1>   0.3430 
 16 C       11.0510     1.8710     0.8240 C.3   1 <1>   0.3430 
 17 C       12.3230     3.5590    -0.3980 C.3   1 <1>  -0.1600 
 18 C       12.2350     2.8210     0.9430 C.3   1 <1>  -0.1600 
 19 H        1.2700     0.5870     1.3240 H     1 <1>   0.1500 
 20 H        2.4480    -0.3650    -2.6420 H     1 <1>   0.1500 
 21 H        4.7600     0.2360    -2.1300 H     1 <1>   0.1500 
 22 H        2.8210     1.3320     2.9400 H     1 <1>   0.0800 
 23 H        4.0670     2.3530     2.2720 H     1 <1>   0.0800 
 24 H        4.4390     0.7110     2.7480 H     1 <1>   0.0800 
 25 H        6.5050     1.6230    -1.4680 H     1 <1>   0.0800 
 26 H        6.7820    -0.0310    -0.9180 H     1 <1>   0.0800 
 27 H        8.1850     0.7660     0.9110 H     1 <1>   0.0800 
 28 H        6.8470     2.7150     1.0690 H     1 <1>   0.4000 
 29 H        8.8610     1.9330    -1.7770 H     1 <1>   0.0800 
 30 H        9.6060     0.5580    -1.0070 H     1 <1>   0.0800 
 31 H        9.6750     3.2160     0.1740 H     1 <1>   0.4500 
 32 H       10.6990     3.8400    -1.8060 H     1 <1>   0.0800 
 33 H       11.5190     2.2840    -1.9170 H     1 <1>   0.0800 
 34 H       11.4010     0.8930     0.5350 H     1 <1>   0.0800 
 35 H       10.4990     1.8030     1.7480 H     1 <1>   0.0800 
 36 H       12.2240     4.6210    -0.2490 H     1 <1>   0.0800 
 37 H       13.2590     3.3720    -0.8960 H     1 <1>   0.0800 
 38 H       13.1370     2.2750     1.1610 H     1 <1>   0.0800 
 39 H       12.0580     3.5200     1.7430 H     1 <1>   0.0800 
@<TRIPOS>BOND
  1   1   2  1   
  2   2   3  ar  
  3   2   4  ar  
  4   3   5  ar  
  5   3  19  1   
  6   4   6  ar  
  7   4  20  1   
  8   5   7  ar  
  9   5   8  1   
 10   6   7  ar  
 11   6  21  1   
 12   7   9  1   
 13   8  22  1   
 14   8  23  1   
 15   8  24  1   
 16   9  10  1   
 17  10  11  1   
 18  10  25  1   
 19  10  26  1   
 20  11  12  1   
 21  11  13  1   
 22  11  27  1   
 23  12  28  1   
 24  13  14  1   
 25  13  29  1   
 26  13  30  1   
 27  14  15  1   
 28  14  16  1   
 29  14  31  1   
 30  15  17  1   
 31  15  32  1   
 32  15  33  1   
 33  16  18  1   
 34  16  34  1   
 35  16  35  1   
 36  17  18  1   
 37  17  36  1   
 38  17  37  1   
 39  18  38  1   
 40  18  39  1   
@<TRIPOS>SUBSTRUCTURE
  1 ****  10 GROUP 4 **** **** 0

# MOE 2024.06 (io_trps.svl 2023.06)
