@<TRIPOS>MOLECULE
NONAME
46 48 1 0 0 
SMALL
USER_CHARGES


@<TRIPOS>ATOM
  1 O       -0.9670    -0.2530     0.9400 O.3   1 <1>  -0.3630 
  2 C       -1.6730    -0.5440    -0.1850 C.ar  1 <1>   0.0820 
  3 C        0.4310    -0.1170     0.7920 C.3   1 <1>   0.0400 
  4 C       -1.5780    -1.8250    -0.7440 C.ar  1 <1>   0.0820 
  5 C       -2.4900     0.4310    -0.7680 C.ar  1 <1>  -0.1440 
  6 O       -0.8210    -2.7610    -0.1020 O.3   1 <1>  -0.3620 
  7 C       -2.2590    -2.1090    -1.9220 C.ar  1 <1>  -0.1500 
  8 C       -3.1460     0.1140    -1.9530 C.ar  1 <1>  -0.1500 
  9 C       -2.7060     1.8540    -0.2210 C.3   1 <1>   0.5230 
 10 C       -0.7980    -4.1100    -0.5140 C.3   1 <1>   0.0400 
 11 C       -3.0330    -1.1380    -2.5260 C.ar  1 <1>  -0.1500 
 12 O       -2.2460     1.9990     1.0720 O.3   1 <1>  -0.6800 
 13 C       -4.1590     2.3410    -0.3130 C.2   1 <1>   0.0070 
 14 N       -4.4480     3.3460    -1.0750 N.2   1 <1>  -0.5650 
 15 N       -5.2560     1.7950     0.3220 N.pl3 1 <1>   0.0480 
 16 C       -5.7870     3.5020    -0.9590 C.ar  1 <1>   0.2270 
 17 C       -6.3140     2.5510    -0.1090 C.ar  1 <1>  -0.1520 
 18 C       -5.4850     0.6090     1.2150 C.3   1 <1>   0.1760 
 19 C       -6.6110     4.4430    -1.5730 C.ar  1 <1>  -0.1500 
 20 C       -7.6930     2.5160     0.1370 C.ar  1 <1>  -0.1500 
 21 C       -4.4500     0.4170     2.3250 C.3   1 <1>  -0.2400 
 22 C       -5.6660    -0.6740     0.3970 C.3   1 <1>  -0.2400 
 23 C       -7.9660     4.4140    -1.3280 C.ar  1 <1>  -0.1500 
 24 C       -8.5050     3.4470    -0.4720 C.ar  1 <1>  -0.1500 
 25 H        0.8580    -1.0710     0.5390 H     1 <1>   0.0800 
 26 H        0.8370     0.2260     1.7260 H     1 <1>   0.0800 
 27 H        0.6330     0.6000     0.0150 H     1 <1>   0.0800 
 28 H       -2.2000    -3.0740    -2.3880 H     1 <1>   0.1500 
 29 H       -3.7620     0.8500    -2.4460 H     1 <1>   0.1500 
 30 H       -2.1050     2.5170    -0.8190 H     1 <1>   0.0800 
 31 H       -0.1870    -4.6600     0.1800 H     1 <1>   0.0800 
 32 H       -0.3730    -4.1680    -1.5000 H     1 <1>   0.0800 
 33 H       -1.8020    -4.4960    -0.5010 H     1 <1>   0.0800 
 34 H       -3.5550    -1.3560    -3.4420 H     1 <1>   0.1500 
 35 H       -1.7010     1.1980     1.2550 H     1 <1>   0.4000 
 36 H       -6.4140     0.7920     1.7220 H     1 <1>   0.0800 
 37 H       -6.1640     5.1700    -2.2240 H     1 <1>   0.1500 
 38 H       -8.1160     1.7760     0.7910 H     1 <1>   0.1500 
 39 H       -3.5480    -0.0200     1.9430 H     1 <1>   0.0800 
 40 H       -4.8400    -0.2560     3.0680 H     1 <1>   0.0800 
 41 H       -4.2310     1.3560     2.8020 H     1 <1>   0.0800 
 42 H       -4.7360    -0.9890    -0.0350 H     1 <1>   0.0800 
 43 H       -6.3890    -0.5210    -0.3850 H     1 <1>   0.0800 
 44 H       -6.0180    -1.4650     1.0340 H     1 <1>   0.0800 
 45 H       -8.6180     5.1320    -1.7920 H     1 <1>   0.1500 
 46 H       -9.5670     3.4390    -0.2950 H     1 <1>   0.1500 
@<TRIPOS>BOND
  1   1   2  1   
  2   1   3  1   
  3   2   4  ar  
  4   2   5  ar  
  5   3  25  1   
  6   3  26  1   
  7   3  27  1   
  8   4   6  1   
  9   4   7  ar  
 10   5   8  ar  
 11   5   9  1   
 12   6  10  1   
 13   7  11  ar  
 14   7  28  1   
 15   8  11  ar  
 16   8  29  1   
 17   9  12  1   
 18   9  13  1   
 19   9  30  1   
 20  10  31  1   
 21  10  32  1   
 22  10  33  1   
 23  11  34  1   
 24  12  35  1   
 25  13  14  2   
 26  13  15  1   
 27  14  16  1   
 28  15  17  1   
 29  15  18  1   
 30  16  17  ar  
 31  16  19  ar  
 32  17  20  ar  
 33  18  21  1   
 34  18  22  1   
 35  18  36  1   
 36  19  23  ar  
 37  19  37  1   
 38  20  24  ar  
 39  20  38  1   
 40  21  39  1   
 41  21  40  1   
 42  21  41  1   
 43  22  42  1   
 44  22  43  1   
 45  22  44  1   
 46  23  24  ar  
 47  23  45  1   
 48  24  46  1   
@<TRIPOS>SUBSTRUCTURE
  1 ****  13 GROUP 4 **** **** 0

# MOE 2024.06 (io_trps.svl 2023.06)
