@<TRIPOS>MOLECULE
NONAME
54 58 1 0 0 
SMALL
USER_CHARGES


@<TRIPOS>ATOM
  1 O       -0.5800    -5.1160    -1.7080 O.co2 1 <1>  -0.9000 
  2 C       -0.4130    -3.9150    -1.4580 C.2   1 <1>   0.9060 
  3 O        0.7220    -3.4330    -1.4710 O.co2 1 <1>  -0.9000 
  4 C       -1.5880    -3.0290    -1.0760 C.3   1 <1>  -0.1860 
  5 C       -1.6530    -2.5270     0.5330 C.3   1 <1>  -0.0190 
  6 C       -3.0640    -3.6340    -1.4660 C.3   1 <1>  -0.0800 
  7 C       -0.4670    -2.9210     1.4390 C.2   1 <1>   0.5690 
  8 C       -3.1470    -2.8860     1.1060 C.3   1 <1>  -0.0800 
  9 C       -3.1120    -3.2460    -0.1860 C.3   1 <1>  -0.1600 
 10 C       -4.5510    -3.9840    -0.8840 C.3   1 <1>  -0.1600 
 11 O        0.1060    -2.0160     2.0020 O.2   1 <1>  -0.5700 
 12 N       -0.0100    -4.2060     1.6270 N.am  1 <1>  -0.6600 
 13 C       -4.6290    -3.4320     0.6910 C.3   1 <1>  -0.1600 
 14 C       -0.7920    -5.4500     1.8670 C.3   1 <1>   0.1400 
 15 C        1.4550    -4.4460     1.5230 C.3   1 <1>   0.1400 
 16 C       -0.4820    -6.5470     0.8360 C.3   1 <1>   0.3430 
 17 C        1.7680    -5.4940     0.4390 C.3   1 <1>   0.3430 
 18 N        0.9880    -6.7760     0.5680 N.4   1 <1>  -0.9590 
 19 C        1.1010    -7.4820    -0.7360 C.3   1 <1>   0.4860 
 20 C        0.4740    -8.8590    -0.6050 C.ar  1 <1>  -0.1440 
 21 C       -0.7950    -9.0770    -1.1340 C.ar  1 <1>  -0.1500 
 22 C        1.1520    -9.8930     0.0440 C.ar  1 <1>  -0.1500 
 23 C       -1.3570   -10.3280    -0.9800 C.ar  1 <1>   0.0820 
 24 C        0.5690   -11.1460     0.1830 C.ar  1 <1>  -0.1500 
 25 O       -2.5550   -10.7540    -1.3910 O.3   1 <1>  -0.3620 
 26 C       -0.6950   -11.3330    -0.3400 C.ar  1 <1>   0.0820 
 27 C       -2.6560   -12.1250    -1.0060 C.3   1 <1>   0.4000 
 28 O       -1.4450   -12.4390    -0.3210 O.3   1 <1>  -0.3620 
 29 H       -1.4260    -2.1430    -1.6680 H     1 <1>   0.0800 
 30 H       -1.5970    -1.4480     0.4970 H     1 <1>   0.0800 
 31 H       -3.3280    -2.9780    -2.2830 H     1 <1>   0.0800 
 32 H       -2.9180    -3.5450     1.9230 H     1 <1>   0.0800 
 33 H       -2.7470    -4.3160     0.1250 H     1 <1>   0.0800 
 34 H       -3.4590    -2.1710    -0.5120 H     1 <1>   0.0800 
 35 H       -4.7140    -5.0510    -0.9160 H     1 <1>   0.0800 
 36 H       -5.3190    -3.5210    -1.4840 H     1 <1>   0.0800 
 37 H       -5.3520    -2.6330     0.7680 H     1 <1>   0.0800 
 38 H       -4.9500    -4.2230     1.3500 H     1 <1>   0.0800 
 39 H       -1.8440    -5.2610     1.8550 H     1 <1>   0.0800 
 40 H       -0.5500    -5.8170     2.8480 H     1 <1>   0.0800 
 41 H        1.8350    -4.7660     2.4760 H     1 <1>   0.0800 
 42 H        1.9540    -3.5280     1.2570 H     1 <1>   0.0800 
 43 H       -0.9870    -6.2910    -0.0740 H     1 <1>   0.0800 
 44 H       -0.9270    -7.4690     1.1710 H     1 <1>   0.0800 
 45 H        2.8220    -5.7060     0.4600 H     1 <1>   0.0800 
 46 H        1.5670    -5.0640    -0.5220 H     1 <1>   0.0800 
 47 H        1.3780    -7.3610     1.3080 H     1 <1>   0.4500 
 48 H        2.1360    -7.5830    -1.0160 H     1 <1>   0.0800 
 49 H        0.6010    -6.9210    -1.5100 H     1 <1>   0.0800 
 50 H       -1.3390    -8.3030    -1.6520 H     1 <1>   0.1500 
 51 H        2.1390    -9.7350     0.4430 H     1 <1>   0.1500 
 52 H        1.0720   -11.9580     0.6780 H     1 <1>   0.1500 
 53 H       -2.7440   -12.7410    -1.8830 H     1 <1>   0.0800 
 54 H       -3.4920   -12.2540    -0.3420 H     1 <1>   0.0800 
@<TRIPOS>BOND
  1   1   2  ar  
  2   2   3  ar  
  3   2   4  1   
  4   4   5  1   
  5   4   6  1   
  6   4  29  1   
  7   5   7  1   
  8   5   8  1   
  9   5  30  1   
 10   6   9  1   
 11   6  10  1   
 12   6  31  1   
 13   7  11  2   
 14   7  12  am  
 15   8   9  1   
 16   8  13  1   
 17   8  32  1   
 18   9  33  1   
 19   9  34  1   
 20  10  13  1   
 21  10  35  1   
 22  10  36  1   
 23  12  14  1   
 24  12  15  1   
 25  13  37  1   
 26  13  38  1   
 27  14  16  1   
 28  14  39  1   
 29  14  40  1   
 30  15  17  1   
 31  15  41  1   
 32  15  42  1   
 33  16  18  1   
 34  16  43  1   
 35  16  44  1   
 36  17  18  1   
 37  17  45  1   
 38  17  46  1   
 39  18  19  1   
 40  18  47  1   
 41  19  20  1   
 42  19  48  1   
 43  19  49  1   
 44  20  21  ar  
 45  20  22  ar  
 46  21  23  ar  
 47  21  50  1   
 48  22  24  ar  
 49  22  51  1   
 50  23  25  1   
 51  23  26  ar  
 52  24  26  ar  
 53  24  52  1   
 54  25  27  1   
 55  26  28  1   
 56  27  28  1   
 57  27  53  1   
 58  27  54  1   
@<TRIPOS>SUBSTRUCTURE
  1 ****  16 GROUP 4 **** **** 0

# MOE 2024.06 (io_trps.svl 2023.06)
