@<TRIPOS>MOLECULE
NONAME
48 51 1 0 0 
SMALL
USER_CHARGES


@<TRIPOS>ATOM
  1 S        4.9570    -0.4360    -1.3690 S.3   1 <1>  -0.0800 
  2 C        4.3390     1.0830    -2.0340 C.2   1 <1>  -0.0450 
  3 C        4.7870    -1.2650    -2.9010 C.2   1 <1>  -0.1100 
  4 C        4.2340     2.2230    -1.1640 C.2   1 <1>   0.5210 
  5 C        4.0440     0.8880    -3.3470 C.2   1 <1>  -0.1500 
  6 C        4.2970    -0.4280    -3.8320 C.2   1 <1>  -0.1500 
  7 N        5.0180     2.3210    -0.1160 N.2   1 <1>  -0.5760 
  8 C        3.2830     3.2490    -1.4610 C.2   1 <1>  -0.1360 
  9 C        4.8500     3.4210     0.6850 C.2   1 <1>  -0.0260 
 10 C        3.1510     4.3520    -0.6680 C.2   1 <1>  -0.1690 
 11 N        3.9610     4.4400     0.4330 N.pl3 1 <1>   0.6010 
 12 C        5.5120     3.7570     1.8370 C.2   1 <1>  -0.0860 
 13 C        2.1890     5.5040    -0.8740 C.3   1 <1>   1.1580 
 14 N        4.0650     5.4090     1.3620 N.2   1 <1>  -0.7070 
 15 C        6.5350     3.0210     2.5000 C.2   1 <1>   0.7160 
 16 C        4.9840     4.9950     2.1830 C.2   1 <1>   0.1390 
 17 F        1.4510     5.3120    -1.9600 F     1 <1>  -0.3400 
 18 F        1.3300     5.6520     0.1250 F     1 <1>  -0.3400 
 19 F        2.7990     6.6660    -1.0550 F     1 <1>  -0.3400 
 20 O        7.4890     3.5770     3.0060 O.2   1 <1>  -0.5700 
 21 N        6.5170     1.6580     2.4450 N.am  1 <1>  -0.7300 
 22 C        7.7160     0.7820     2.5750 C.3   1 <1>   0.1400 
 23 C        8.2040     0.2890     1.1940 C.3   1 <1>   0.3430 
 24 N        8.0550     1.3340     0.1270 N.4   1 <1>  -0.9590 
 25 C        8.2280     0.7810    -1.2560 C.3   1 <1>   0.3430 
 26 C        8.9720     2.5120     0.3170 C.3   1 <1>   0.3430 
 27 C        8.0450     1.8860    -2.3140 C.3   1 <1>   0.1200 
 28 C        8.7530     3.5540    -0.7950 C.3   1 <1>   0.1200 
 29 O        8.9040     2.9600    -2.0550 O.3   1 <1>  -0.5600 
 30 H        5.0680    -2.3040    -2.9480 H     1 <1>   0.1500 
 31 H        3.6490     1.6350    -4.0140 H     1 <1>   0.1500 
 32 H        4.0950    -0.6910    -4.8580 H     1 <1>   0.1500 
 33 H        2.6710     3.1100    -2.3360 H     1 <1>   0.1500 
 34 H        5.3010     5.5610     3.0460 H     1 <1>   0.1500 
 35 H        5.6580     1.2280     2.0850 H     1 <1>   0.3700 
 36 H        7.4800    -0.0620     3.2000 H     1 <1>   0.0800 
 37 H        8.5110     1.3240     3.0590 H     1 <1>   0.0800 
 38 H        7.6170    -0.5730     0.9230 H     1 <1>   0.0800 
 39 H        9.2320    -0.0280     1.2660 H     1 <1>   0.0800 
 40 H        7.0840     1.6950     0.1960 H     1 <1>   0.4500 
 41 H        7.5150    -0.0060    -1.4350 H     1 <1>   0.0800 
 42 H        9.2160     0.3640    -1.3630 H     1 <1>   0.0800 
 43 H        9.9990     2.1880     0.2860 H     1 <1>   0.0800 
 44 H        8.8030     2.9730     1.2750 H     1 <1>   0.0800 
 45 H        7.0330     2.2480    -2.3240 H     1 <1>   0.0800 
 46 H        8.2830     1.5050    -3.2920 H     1 <1>   0.0800 
 47 H        9.4820     4.3410    -0.7140 H     1 <1>   0.0800 
 48 H        7.7700     3.9880    -0.7290 H     1 <1>   0.0800 
@<TRIPOS>BOND
  1   1   2  1   
  2   1   3  1   
  3   2   4  1   
  4   2   5  2   
  5   3   6  2   
  6   3  30  1   
  7   4   7  2   
  8   4   8  1   
  9   5   6  1   
 10   5  31  1   
 11   6  32  1   
 12   7   9  1   
 13   8  10  2   
 14   8  33  1   
 15   9  11  1   
 16   9  12  2   
 17  10  11  1   
 18  10  13  1   
 19  11  14  1   
 20  12  15  1   
 21  12  16  1   
 22  13  17  1   
 23  13  18  1   
 24  13  19  1   
 25  14  16  2   
 26  15  20  2   
 27  15  21  am  
 28  16  34  1   
 29  21  22  1   
 30  21  35  1   
 31  22  23  1   
 32  22  36  1   
 33  22  37  1   
 34  23  24  1   
 35  23  38  1   
 36  23  39  1   
 37  24  25  1   
 38  24  26  1   
 39  24  40  1   
 40  25  27  1   
 41  25  41  1   
 42  25  42  1   
 43  26  28  1   
 44  26  43  1   
 45  26  44  1   
 46  27  29  1   
 47  27  45  1   
 48  27  46  1   
 49  28  29  1   
 50  28  47  1   
 51  28  48  1   
@<TRIPOS>SUBSTRUCTURE
  1 ****   7 GROUP 4 **** **** 0

# MOE 2024.06 (io_trps.svl 2023.06)
