@<TRIPOS>MOLECULE
NONAME
48 50 1 0 0 
SMALL
USER_CHARGES


@<TRIPOS>ATOM
  1 F        0.1800    -2.7300     2.4350 F     1 <1>  -0.1900 
  2 C       -0.8600    -2.3270     1.7420 C.ar  1 <1>   0.1900 
  3 C       -0.8790    -2.5170     0.3540 C.ar  1 <1>   0.1000 
  4 C       -1.8960    -1.7290     2.4310 C.ar  1 <1>  -0.1500 
  5 N        0.1520    -3.1190    -0.3820 N.pl3 1 <1>  -0.8380 
  6 C       -2.0060    -2.0700    -0.3240 C.ar  1 <1>  -0.1500 
  7 C       -3.0060    -1.2950     1.7240 C.ar  1 <1>  -0.1500 
  8 C        0.3540    -4.5750    -0.1130 C.3   1 <1>   0.2090 
  9 C        1.4250    -2.3390    -0.4410 C.3   1 <1>   0.2090 
 10 C       -3.0560    -1.4670     0.3500 C.ar  1 <1>  -0.1500 
 11 C        1.3470    -5.1920    -1.1200 C.3   1 <1>   0.3430 
 12 C        2.4140    -2.9670    -1.4450 C.3   1 <1>   0.3430 
 13 N        2.6490    -4.4350    -1.1820 N.4   1 <1>  -0.9590 
 14 C        3.5910    -5.0390    -2.1470 C.3   1 <1>   0.4810 
 15 C        4.9460    -4.4610    -1.8320 C.2   1 <1>  -0.2880 
 16 C        5.8290    -5.0260    -0.9920 C.2   1 <1>  -0.1780 
 17 C        7.1300    -4.5180    -0.6160 C.ar  1 <1>   0.0280 
 18 C        7.6580    -4.7530     0.6600 C.ar  1 <1>   0.0830 
 19 C        7.8920    -3.7810    -1.5200 C.ar  1 <1>  -0.1500 
 20 O        6.8980    -5.4640     1.5370 O.3   1 <1>  -0.3630 
 21 C        8.9140    -4.2540     1.0000 C.ar  1 <1>  -0.1500 
 22 C        9.1360    -3.2870    -1.1770 C.ar  1 <1>  -0.1500 
 23 C        7.3650    -5.8070     2.8240 C.3   1 <1>   0.0400 
 24 C        9.6480    -3.5240     0.0840 C.ar  1 <1>  -0.1500 
 25 H       -1.8370    -1.6040     3.4970 H     1 <1>   0.1500 
 26 H       -2.0570    -2.1980    -1.3900 H     1 <1>   0.1500 
 27 H       -3.8260    -0.8250     2.2410 H     1 <1>   0.1500 
 28 H        0.7210    -4.7140     0.8890 H     1 <1>   0.0800 
 29 H       -0.5930    -5.0820    -0.1900 H     1 <1>   0.0800 
 30 H        1.2060    -1.3290    -0.7410 H     1 <1>   0.0800 
 31 H        1.8780    -2.3010     0.5350 H     1 <1>   0.0800 
 32 H       -3.9200    -1.1290    -0.1980 H     1 <1>   0.1500 
 33 H        0.8810    -5.1870    -2.0910 H     1 <1>   0.0800 
 34 H        1.5310    -6.2170    -0.8440 H     1 <1>   0.0800 
 35 H        3.3470    -2.4300    -1.3940 H     1 <1>   0.0800 
 36 H        2.0100    -2.8380    -2.4360 H     1 <1>   0.0800 
 37 H        3.1080    -4.5030    -0.2630 H     1 <1>   0.4500 
 38 H        3.6220    -6.1070    -2.0040 H     1 <1>   0.0800 
 39 H        3.3040    -4.8300    -3.1650 H     1 <1>   0.0800 
 40 H        5.1420    -3.5310    -2.3360 H     1 <1>   0.1500 
 41 H        5.5900    -5.9560    -0.5020 H     1 <1>   0.1500 
 42 H        7.5160    -3.5970    -2.5090 H     1 <1>   0.1500 
 43 H        9.3400    -4.4210     1.9710 H     1 <1>   0.1500 
 44 H        9.7100    -2.7210    -1.8910 H     1 <1>   0.1500 
 45 H        6.6050    -6.3920     3.3120 H     1 <1>   0.0800 
 46 H        7.5460    -4.9060     3.3830 H     1 <1>   0.0800 
 47 H        8.2650    -6.3880     2.7270 H     1 <1>   0.0800 
 48 H       10.6180    -3.1410     0.3520 H     1 <1>   0.1500 
@<TRIPOS>BOND
  1   1   2  1   
  2   2   3  ar  
  3   2   4  ar  
  4   3   5  1   
  5   3   6  ar  
  6   4   7  ar  
  7   4  25  1   
  8   5   8  1   
  9   5   9  1   
 10   6  10  ar  
 11   6  26  1   
 12   7  10  ar  
 13   7  27  1   
 14   8  11  1   
 15   8  28  1   
 16   8  29  1   
 17   9  12  1   
 18   9  30  1   
 19   9  31  1   
 20  10  32  1   
 21  11  13  1   
 22  11  33  1   
 23  11  34  1   
 24  12  13  1   
 25  12  35  1   
 26  12  36  1   
 27  13  14  1   
 28  13  37  1   
 29  14  15  1   
 30  14  38  1   
 31  14  39  1   
 32  15  16  2   
 33  15  40  1   
 34  16  17  1   
 35  16  41  1   
 36  17  18  ar  
 37  17  19  ar  
 38  18  20  1   
 39  18  21  ar  
 40  19  22  ar  
 41  19  42  1   
 42  20  23  1   
 43  21  24  ar  
 44  21  43  1   
 45  22  24  ar  
 46  22  44  1   
 47  23  45  1   
 48  23  46  1   
 49  23  47  1   
 50  24  48  1   
@<TRIPOS>SUBSTRUCTURE
  1 ****  13 GROUP 4 **** **** 0

# MOE 2024.06 (io_trps.svl 2023.06)
