@<TRIPOS>MOLECULE
NONAME
48 50 1 0 0 
SMALL
USER_CHARGES


@<TRIPOS>ATOM
  1 O       -1.6190     1.1750     0.0460 O.2   1 <1>  -0.5700 
  2 C       -1.2370     2.3070     0.2490 C.2   1 <1>   0.5690 
  3 N       -0.1500     2.8880    -0.3410 N.am  1 <1>  -0.4770 
  4 C       -1.9350     3.3240     1.1820 C.3   1 <1>   0.4850 
  5 C        0.0020     4.1940     0.1220 C.ar  1 <1>   0.1170 
  6 C        0.7740     2.1880    -1.2590 C.3   1 <1>   0.1400 
  7 O       -1.9380     2.9360     2.5200 O.3   1 <1>  -0.6800 
  8 C       -0.9960     4.5120     1.0250 C.ar  1 <1>  -0.1430 
  9 C       -3.3580     3.6760     0.7460 C.3   1 <1>  -0.0990 
 10 C        0.9740     5.1290    -0.2020 C.ar  1 <1>  -0.1500 
 11 C        1.9850     1.6690    -0.4800 C.3   1 <1>  -0.1600 
 12 C       -1.0350     5.7550     1.6320 C.ar  1 <1>  -0.1500 
 13 C       -4.2630     2.4620     0.7350 C.2   1 <1>   0.5950 
 14 C        0.9350     6.3790     0.3950 C.ar  1 <1>  -0.1500 
 15 C        2.9720     0.9460    -1.4040 C.3   1 <1>  -0.1600 
 16 C       -0.0630     6.6900     1.3090 C.ar  1 <1>  -0.1500 
 17 O       -4.3200     1.8040     1.7460 O.2   1 <1>  -0.5700 
 18 C       -5.0060     2.1560    -0.4600 C.2   1 <1>  -0.0860 
 19 C        4.1810     0.4290    -0.6190 C.3   1 <1>  -0.2400 
 20 C       -5.2510     0.8640    -0.9520 C.2   1 <1>   0.1080 
 21 C       -5.6270     2.9590    -1.3800 C.2   1 <1>  -0.3320 
 22 N       -5.9280     0.8620    -2.0530 N.2   1 <1>  -0.7070 
 23 C       -4.7860    -0.4250    -0.3070 C.3   1 <1>  -0.0590 
 24 N       -6.1570     2.1550    -2.3160 N.pl3 1 <1>   0.3000 
 25 C       -5.7930     4.4710    -1.4330 C.3   1 <1>  -0.0600 
 26 H        1.0870     2.8650    -2.0340 H     1 <1>   0.0800 
 27 H        0.2580     1.3630    -1.7200 H     1 <1>   0.0800 
 28 H       -2.5770     2.1930     2.6140 H     1 <1>   0.4000 
 29 H       -3.3040     4.0880    -0.2430 H     1 <1>   0.0800 
 30 H       -3.7650     4.4210     1.4020 H     1 <1>   0.0800 
 31 H        1.7500     4.8860    -0.9040 H     1 <1>   0.1500 
 32 H        1.6440     0.9870     0.2810 H     1 <1>   0.0800 
 33 H        2.4830     2.4940     0.0000 H     1 <1>   0.0800 
 34 H       -1.8030     5.9900     2.3490 H     1 <1>   0.1500 
 35 H        1.6840     7.1130     0.1530 H     1 <1>   0.1500 
 36 H        3.3120     1.6190    -2.1730 H     1 <1>   0.0800 
 37 H        2.4790     0.1140    -1.8800 H     1 <1>   0.0800 
 38 H       -0.0800     7.6610     1.7730 H     1 <1>   0.1500 
 39 H        4.7030     1.2450    -0.1510 H     1 <1>   0.0800 
 40 H        4.8620    -0.0770    -1.2810 H     1 <1>   0.0800 
 41 H        3.8670    -0.2630     0.1420 H     1 <1>   0.0800 
 42 H       -5.2470    -0.5380     0.6560 H     1 <1>   0.0800 
 43 H       -3.7190    -0.4140    -0.1880 H     1 <1>   0.0800 
 44 H       -5.0570    -1.2630    -0.9230 H     1 <1>   0.0800 
 45 H       -6.6920     2.4470    -3.1430 H     1 <1>   0.2700 
 46 H       -5.1340     4.8910    -2.1730 H     1 <1>   0.0800 
 47 H       -5.5780     4.9170    -0.4800 H     1 <1>   0.0800 
 48 H       -6.8070     4.7230    -1.6920 H     1 <1>   0.0800 
@<TRIPOS>BOND
  1   1   2  2   
  2   2   3  am  
  3   2   4  1   
  4   3   5  1   
  5   3   6  1   
  6   4   7  1   
  7   4   8  1   
  8   4   9  1   
  9   5   8  ar  
 10   5  10  ar  
 11   6  11  1   
 12   6  26  1   
 13   6  27  1   
 14   7  28  1   
 15   8  12  ar  
 16   9  13  1   
 17   9  29  1   
 18   9  30  1   
 19  10  14  ar  
 20  10  31  1   
 21  11  15  1   
 22  11  32  1   
 23  11  33  1   
 24  12  16  ar  
 25  12  34  1   
 26  13  17  2   
 27  13  18  1   
 28  14  16  ar  
 29  14  35  1   
 30  15  19  1   
 31  15  36  1   
 32  15  37  1   
 33  16  38  1   
 34  18  20  1   
 35  18  21  2   
 36  19  39  1   
 37  19  40  1   
 38  19  41  1   
 39  20  22  2   
 40  20  23  1   
 41  21  24  1   
 42  21  25  1   
 43  22  24  1   
 44  23  42  1   
 45  23  43  1   
 46  23  44  1   
 47  24  45  1   
 48  25  46  1   
 49  25  47  1   
 50  25  48  1   
@<TRIPOS>SUBSTRUCTURE
  1 ****   2 GROUP 4 **** **** 0

# MOE 2024.06 (io_trps.svl 2023.06)
