@<TRIPOS>MOLECULE
NONAME
45 47 1 0 0 
SMALL
USER_CHARGES


@<TRIPOS>ATOM
  1 S       -0.0120     0.2040    -0.6820 S.3   1 <1>  -0.0800 
  2 C       -1.7250     0.3980    -0.3340 C.ar  1 <1>   0.2970 
  3 C        0.0910    -1.3310     0.2360 C.2   1 <1>  -0.0450 
  4 N       -2.4180     1.4340    -0.7750 N.ar  1 <1>  -0.5670 
  5 C       -2.1750    -0.6680     0.4270 C.ar  1 <1>   0.0000 
  6 C       -1.1460    -1.6280     0.7320 C.2   1 <1>   0.0830 
  7 C        1.3390    -2.0310     0.3200 C.2   1 <1>   0.7150 
  8 C       -3.6910     1.4080    -0.4350 C.ar  1 <1>   0.1670 
  9 C       -3.5190    -0.6670     0.7650 C.ar  1 <1>  -0.1500 
 10 N       -1.4220    -2.7650     1.4660 N.pl3 1 <1>  -0.8830 
 11 O        1.3580    -3.2000     0.6860 O.2   1 <1>  -0.5700 
 12 N        2.5510    -1.4450     0.0130 N.am  1 <1>  -0.6600 
 13 C       -4.2870     0.3930     0.3220 C.ar  1 <1>  -0.1430 
 14 C       -4.5040     2.5770    -0.9610 C.3   1 <1>  -0.0170 
 15 C        2.9580    -0.1550     0.6380 C.3   1 <1>   0.1400 
 16 C        3.5810    -2.2280    -0.7240 C.3   1 <1>   0.1400 
 17 C       -5.7620     0.4320     0.6720 C.3   1 <1>   0.4860 
 18 C       -5.9100     2.6400    -0.3680 C.3   1 <1>   0.3430 
 19 C        4.0270    -0.3800     1.7060 C.3   1 <1>  -0.2400 
 20 C        3.9820    -1.4970    -2.0030 C.3   1 <1>  -0.2400 
 21 N       -6.5070     1.2730    -0.3070 N.4   1 <1>  -0.9590 
 22 C       -7.9660     1.3220     0.0150 C.3   1 <1>   0.2630 
 23 H       -3.9190    -1.4790     1.3470 H     1 <1>   0.1500 
 24 H       -2.1480    -2.7900     2.1850 H     1 <1>   0.4000 
 25 H       -0.6350    -3.4150     1.6330 H     1 <1>   0.4000 
 26 H       -4.5690     2.4970    -2.0310 H     1 <1>   0.0800 
 27 H       -3.9900     3.4960    -0.7400 H     1 <1>   0.0800 
 28 H        2.1060     0.3040     1.1090 H     1 <1>   0.0800 
 29 H        3.3190     0.5200    -0.1190 H     1 <1>   0.0800 
 30 H        3.1790    -3.1930    -0.9880 H     1 <1>   0.0800 
 31 H        4.4390    -2.3960    -0.0970 H     1 <1>   0.0800 
 32 H       -5.8770     0.8350     1.6650 H     1 <1>   0.0800 
 33 H       -6.1540    -0.5720     0.6660 H     1 <1>   0.0800 
 34 H       -6.5200     3.2900    -0.9740 H     1 <1>   0.0800 
 35 H       -5.8580     3.0560     0.6250 H     1 <1>   0.0800 
 36 H        3.6940    -1.1170     2.4160 H     1 <1>   0.0800 
 37 H        4.2080     0.5410     2.2310 H     1 <1>   0.0800 
 38 H        4.9530    -0.6960     1.2640 H     1 <1>   0.0800 
 39 H        3.1120    -1.2970    -2.6030 H     1 <1>   0.0800 
 40 H        4.6540    -2.1130    -2.5720 H     1 <1>   0.0800 
 41 H        4.4830    -0.5740    -1.7750 H     1 <1>   0.0800 
 42 H       -6.3810     0.8320    -1.2310 H     1 <1>   0.4500 
 43 H       -8.1240     1.7720     0.9820 H     1 <1>   0.0800 
 44 H       -8.3820     0.3280     0.0250 H     1 <1>   0.0800 
 45 H       -8.4920     1.9040    -0.7250 H     1 <1>   0.0800 
@<TRIPOS>BOND
  1   1   2  1   
  2   1   3  1   
  3   2   4  ar  
  4   2   5  ar  
  5   3   6  2   
  6   3   7  1   
  7   4   8  ar  
  8   5   6  1   
  9   5   9  ar  
 10   6  10  1   
 11   7  11  2   
 12   7  12  am  
 13   8  13  ar  
 14   8  14  1   
 15   9  13  ar  
 16   9  23  1   
 17  10  24  1   
 18  10  25  1   
 19  12  15  1   
 20  12  16  1   
 21  13  17  1   
 22  14  18  1   
 23  14  26  1   
 24  14  27  1   
 25  15  19  1   
 26  15  28  1   
 27  15  29  1   
 28  16  20  1   
 29  16  30  1   
 30  16  31  1   
 31  17  21  1   
 32  17  32  1   
 33  17  33  1   
 34  18  21  1   
 35  18  34  1   
 36  18  35  1   
 37  19  36  1   
 38  19  37  1   
 39  19  38  1   
 40  20  39  1   
 41  20  40  1   
 42  20  41  1   
 43  21  22  1   
 44  21  42  1   
 45  22  43  1   
 46  22  44  1   
 47  22  45  1   
@<TRIPOS>SUBSTRUCTURE
  1 ****   2 GROUP 4 **** **** 0

# MOE 2024.06 (io_trps.svl 2023.06)
