@<TRIPOS>MOLECULE
NONAME
27 27 1 0 0 
SMALL
USER_CHARGES


@<TRIPOS>ATOM
  1 CL      -1.9840     2.9970     2.5600 Cl    1 <1>  -0.1770 
  2 C       -2.5980     1.9600     1.2920 C.ar  1 <1>   0.1770 
  3 C       -2.5340     2.3460    -0.0370 C.ar  1 <1>   0.1900 
  4 C       -3.1520     0.7400     1.6280 C.ar  1 <1>  -0.1500 
  5 F       -2.0080     3.5000    -0.3610 F     1 <1>  -0.1900 
  6 C       -3.0190     1.5330    -1.0450 C.ar  1 <1>  -0.1500 
  7 C       -3.6400    -0.1000     0.6330 C.ar  1 <1>   0.1170 
  8 C       -3.5740     0.3110    -0.7000 C.ar  1 <1>  -0.1500 
  9 N       -4.2010    -1.3300     0.9900 N.am  1 <1>  -0.5470 
 10 C       -4.2540    -2.5140     0.3240 C.2   1 <1>   0.6900 
 11 O       -5.1620    -3.2710     0.5770 O.2   1 <1>  -0.5700 
 12 N       -3.3310    -2.8960    -0.5880 N.am  1 <1>  -0.7300 
 13 C       -1.9030    -2.5230    -0.6050 C.3   1 <1>   0.1400 
 14 C       -1.0570    -3.7940    -0.6660 C.3   1 <1>  -0.1600 
 15 C        0.4400    -3.4650    -0.6740 C.3   1 <1>  -0.2400 
 16 H       -3.1970     0.4440     2.6600 H     1 <1>   0.1500 
 17 H       -2.9650     1.8520    -2.0710 H     1 <1>   0.1500 
 18 H       -3.9640    -0.3330    -1.4690 H     1 <1>   0.1500 
 19 H       -4.8590    -1.3230     1.7680 H     1 <1>   0.3700 
 20 H       -3.5440    -3.7940    -1.0220 H     1 <1>   0.3700 
 21 H       -1.6560    -1.9650     0.2830 H     1 <1>   0.0800 
 22 H       -1.7070    -1.9060    -1.4650 H     1 <1>   0.0800 
 23 H       -1.2990    -4.3460    -1.5580 H     1 <1>   0.0800 
 24 H       -1.2760    -4.4100     0.1900 H     1 <1>   0.0800 
 25 H        0.6900    -2.8630    -1.5310 H     1 <1>   0.0800 
 26 H        1.0160    -4.3730    -0.7160 H     1 <1>   0.0800 
 27 H        0.7140    -2.9300     0.2190 H     1 <1>   0.0800 
@<TRIPOS>BOND
  1   1   2  1   
  2   2   3  ar  
  3   2   4  ar  
  4   3   5  1   
  5   3   6  ar  
  6   4   7  ar  
  7   4  16  1   
  8   6   8  ar  
  9   6  17  1   
 10   7   8  ar  
 11   7   9  1   
 12   8  18  1   
 13   9  10  am  
 14   9  19  1   
 15  10  11  2   
 16  10  12  am  
 17  12  13  1   
 18  12  20  1   
 19  13  14  1   
 20  13  21  1   
 21  13  22  1   
 22  14  15  1   
 23  14  23  1   
 24  14  24  1   
 25  15  25  1   
 26  15  26  1   
 27  15  27  1   
@<TRIPOS>SUBSTRUCTURE
  1 ****   7 GROUP 4 **** **** 0

# MOE 2024.06 (io_trps.svl 2023.06)
