@<TRIPOS>MOLECULE
NONAME
29 30 1 0 0 
SMALL
USER_CHARGES


@<TRIPOS>ATOM
  1 CL      -1.3350     1.8800    -1.8500 Cl    1 <1>  -0.1770 
  2 C        0.0650     2.4380    -0.9610 C.ar  1 <1>   0.1770 
  3 C       -0.0570     3.0350     0.3030 C.ar  1 <1>   0.0860 
  4 C        1.2900     2.2440    -1.5720 C.ar  1 <1>  -0.1500 
  5 C       -1.3210     3.2660     0.9750 C.2   1 <1>   0.5440 
  6 C        1.1320     3.4210     0.9370 C.ar  1 <1>  -0.1500 
  7 C        2.4260     2.6500    -0.9040 C.ar  1 <1>   0.1900 
  8 O       -1.3880     3.1740     2.1850 O.2   1 <1>  -0.5700 
  9 N       -2.4450     3.6240     0.2900 N.am  1 <1>  -0.7300 
 10 C        2.3690     3.2360     0.3450 C.ar  1 <1>  -0.1500 
 11 F        3.5870     2.4750    -1.4680 F     1 <1>  -0.1900 
 12 C       -3.7820     3.8360     0.8680 C.3   1 <1>   0.2200 
 13 C       -4.7030     2.7240     0.3820 C.3   1 <1>  -0.1600 
 14 C       -4.3880     5.0880     0.2460 C.3   1 <1>  -0.1600 
 15 C       -5.1410     3.1320    -1.0290 C.3   1 <1>  -0.1600 
 16 C       -4.9430     4.6510    -1.1150 C.3   1 <1>  -0.1600 
 17 H        1.3600     1.7860    -2.5410 H     1 <1>   0.1500 
 18 H        1.0750     3.8730     1.9140 H     1 <1>   0.1500 
 19 H       -2.4440     3.5850    -0.7300 H     1 <1>   0.3700 
 20 H        3.2760     3.5370     0.8410 H     1 <1>   0.1500 
 21 H       -3.7340     3.8920     1.9430 H     1 <1>   0.0800 
 22 H       -5.5670     2.6950     1.0220 H     1 <1>   0.0800 
 23 H       -4.2240     1.7610     0.4090 H     1 <1>   0.0800 
 24 H       -3.6750     5.8900     0.1690 H     1 <1>   0.0800 
 25 H       -5.2040     5.4130     0.8670 H     1 <1>   0.0800 
 26 H       -6.1660     2.8560    -1.2070 H     1 <1>   0.0800 
 27 H       -4.5190     2.6430    -1.7600 H     1 <1>   0.0800 
 28 H       -4.2340     4.8810    -1.8920 H     1 <1>   0.0800 
 29 H       -5.8690     5.1560    -1.3310 H     1 <1>   0.0800 
@<TRIPOS>BOND
  1   1   2  1   
  2   2   3  ar  
  3   2   4  ar  
  4   3   5  1   
  5   3   6  ar  
  6   4   7  ar  
  7   4  17  1   
  8   5   8  2   
  9   5   9  am  
 10   6  10  ar  
 11   6  18  1   
 12   7  10  ar  
 13   7  11  1   
 14   9  12  1   
 15   9  19  1   
 16  10  20  1   
 17  12  13  1   
 18  12  14  1   
 19  12  21  1   
 20  13  15  1   
 21  13  22  1   
 22  13  23  1   
 23  14  16  1   
 24  14  24  1   
 25  14  25  1   
 26  15  16  1   
 27  15  26  1   
 28  15  27  1   
 29  16  28  1   
 30  16  29  1   
@<TRIPOS>SUBSTRUCTURE
  1 ****   5 GROUP 4 **** **** 0

# MOE 2024.06 (io_trps.svl 2023.06)
