@<TRIPOS>MOLECULE
NONAME
35 39 1 0 0 
SMALL
USER_CHARGES


@<TRIPOS>ATOM
  1 BR      -0.6170     0.3100    -0.8620 Br    1 <1>  -0.1110 
  2 C        0.9750     1.2160    -0.2520 C.ar  1 <1>   0.1110 
  3 C        0.9000     2.5530     0.1270 C.ar  1 <1>   0.1170 
  4 C        2.1530     0.4960    -0.2160 C.ar  1 <1>  -0.1500 
  5 N       -0.3110     3.2680     0.0870 N.am  1 <1>  -0.2370 
  6 C        2.0720     3.1680     0.5500 C.ar  1 <1>  -0.1500 
  7 C        3.3080     1.1290     0.2110 C.ar  1 <1>  -0.1500 
  8 C       -1.3380     3.1480     1.0060 C.2   1 <1>   0.5690 
  9 C       -0.7150     4.1010    -0.9400 C.2   1 <1>   0.5690 
 10 C        3.2650     2.4620     0.5920 C.ar  1 <1>  -0.1500 
 11 O       -1.2810     2.7090     2.1250 O.2   1 <1>  -0.5700 
 12 C       -2.5860     3.6520     0.3390 C.3   1 <1>  -0.0190 
 13 O       -0.1710     4.2960    -1.9960 O.2   1 <1>  -0.5700 
 14 C       -1.9590     4.7970    -0.4680 C.3   1 <1>  -0.0190 
 15 C       -3.9810     4.2190     0.7010 C.3   1 <1>   0.1530 
 16 C       -3.1830     5.5790    -0.9780 C.3   1 <1>   0.1530 
 17 C       -4.7680     3.9260    -0.5720 C.2   1 <1>  -0.2880 
 18 C       -3.8210     5.7120     0.4140 C.3   1 <1>  -0.1900 
 19 C       -4.2640     4.6760    -1.5580 C.2   1 <1>  -0.2880 
 20 C       -3.5030     6.7510     1.4410 C.3   1 <1>  -0.2000 
 21 C       -4.8560     6.7300     0.7640 C.3   1 <1>  -0.2000 
 22 H        2.1670    -0.5370    -0.5170 H     1 <1>   0.1500 
 23 H        2.0530     4.2010     0.8480 H     1 <1>   0.1500 
 24 H        4.2380     0.5880     0.2470 H     1 <1>   0.1500 
 25 H        4.1650     2.9510     0.9230 H     1 <1>   0.1500 
 26 H       -2.7900     2.8210    -0.3200 H     1 <1>   0.0800 
 27 H       -1.5050     5.5020     0.2120 H     1 <1>   0.0800 
 28 H       -4.4380     3.9290     1.6310 H     1 <1>   0.0800 
 29 H       -3.0050     6.5180    -1.4740 H     1 <1>   0.0800 
 30 H       -5.5520     3.1880    -0.5740 H     1 <1>   0.1500 
 31 H       -4.5110     4.7270    -2.6050 H     1 <1>   0.1500 
 32 H       -2.8320     7.5570     1.1970 H     1 <1>   0.1000 
 33 H       -3.4480     6.4660     2.4770 H     1 <1>   0.1000 
 34 H       -5.7170     6.4180     1.3300 H     1 <1>   0.1000 
 35 H       -5.0910     7.4960     0.0460 H     1 <1>   0.1000 
@<TRIPOS>BOND
  1   1   2  1   
  2   2   3  ar  
  3   2   4  ar  
  4   3   5  1   
  5   3   6  ar  
  6   4   7  ar  
  7   4  22  1   
  8   5   8  am  
  9   5   9  am  
 10   6  10  ar  
 11   6  23  1   
 12   7  10  ar  
 13   7  24  1   
 14   8  11  2   
 15   8  12  1   
 16   9  13  2   
 17   9  14  1   
 18  10  25  1   
 19  12  14  1   
 20  12  15  1   
 21  12  26  1   
 22  14  16  1   
 23  14  27  1   
 24  15  17  1   
 25  15  18  1   
 26  15  28  1   
 27  16  18  1   
 28  16  19  1   
 29  16  29  1   
 30  17  19  2   
 31  17  30  1   
 32  18  20  1   
 33  18  21  1   
 34  19  31  1   
 35  20  21  1   
 36  20  32  1   
 37  20  33  1   
 38  21  34  1   
 39  21  35  1   
@<TRIPOS>SUBSTRUCTURE
  1 ****   5 GROUP 4 **** **** 0

# MOE 2024.06 (io_trps.svl 2023.06)
