@<TRIPOS>MOLECULE
NONAME
34 34 1 0 0 
SMALL
USER_CHARGES


@<TRIPOS>ATOM
  1 O        0.7890    -0.7010    -0.4000 O.3   1 <1>  -0.6800 
  2 C        1.9140    -0.0190    -0.8250 C.3   1 <1>   0.1200 
  3 C        2.7860     0.2500     0.4100 C.3   1 <1>   0.3430 
  4 N        4.0650     0.9550     0.0640 N.4   1 <1>  -0.9590 
  5 C        5.2230     0.2590     0.6930 C.3   1 <1>   0.4860 
  6 C        4.0590     2.4020     0.4380 C.3   1 <1>   0.3430 
  7 C        6.5010     0.8060     0.0880 C.ar  1 <1>  -0.1430 
  8 C        3.0530     3.1900    -0.4030 C.3   1 <1>  -0.1600 
  9 C        6.8720     0.4550    -1.2030 C.ar  1 <1>  -0.1500 
 10 C        7.3080     1.6660     0.8210 C.ar  1 <1>  -0.1500 
 11 C        3.1900     4.6950    -0.1460 C.3   1 <1>  -0.2400 
 12 C        8.0300     0.9700    -1.7590 C.ar  1 <1>  -0.1500 
 13 C        8.4650     2.1800     0.2620 C.ar  1 <1>  -0.1500 
 14 C        8.8250     1.8340    -1.0280 C.ar  1 <1>  -0.1500 
 15 H        0.1780    -0.8990    -1.1430 H     1 <1>   0.4000 
 16 H        1.5920     0.8950    -1.2910 H     1 <1>   0.0800 
 17 H        2.4300    -0.6420    -1.5360 H     1 <1>   0.0800 
 18 H        3.0050    -0.7010     0.8670 H     1 <1>   0.0800 
 19 H        2.2210     0.8370     1.1150 H     1 <1>   0.0800 
 20 H        4.2310     0.9060    -0.9480 H     1 <1>   0.4500 
 21 H        5.1700    -0.8000     0.5010 H     1 <1>   0.0800 
 22 H        5.2210     0.4130     1.7600 H     1 <1>   0.0800 
 23 H        5.0390     2.8210     0.2680 H     1 <1>   0.0800 
 24 H        3.8260     2.5160     1.4850 H     1 <1>   0.0800 
 25 H        2.0480     2.8980    -0.1560 H     1 <1>   0.0800 
 26 H        3.2280     3.0070    -1.4500 H     1 <1>   0.0800 
 27 H        6.2770    -0.2230    -1.7900 H     1 <1>   0.1500 
 28 H        7.0540     1.9450     1.8290 H     1 <1>   0.1500 
 29 H        3.0020     4.9260     0.8890 H     1 <1>   0.0800 
 30 H        2.4790     5.2370    -0.7460 H     1 <1>   0.0800 
 31 H        4.1770     5.0400    -0.4040 H     1 <1>   0.0800 
 32 H        8.3190     0.6990    -2.7600 H     1 <1>   0.1500 
 33 H        9.0920     2.8470     0.8300 H     1 <1>   0.1500 
 34 H        9.7270     2.2340    -1.4610 H     1 <1>   0.1500 
@<TRIPOS>BOND
  1   1   2  1   
  2   1  15  1   
  3   2   3  1   
  4   2  16  1   
  5   2  17  1   
  6   3   4  1   
  7   3  18  1   
  8   3  19  1   
  9   4   5  1   
 10   4   6  1   
 11   4  20  1   
 12   5   7  1   
 13   5  21  1   
 14   5  22  1   
 15   6   8  1   
 16   6  23  1   
 17   6  24  1   
 18   7   9  ar  
 19   7  10  ar  
 20   8  11  1   
 21   8  25  1   
 22   8  26  1   
 23   9  12  ar  
 24   9  27  1   
 25  10  13  ar  
 26  10  28  1   
 27  11  29  1   
 28  11  30  1   
 29  11  31  1   
 30  12  14  ar  
 31  12  32  1   
 32  13  14  ar  
 33  13  33  1   
 34  14  34  1   
@<TRIPOS>SUBSTRUCTURE
  1 ****   4 GROUP 4 **** **** 0

# MOE 2024.06 (io_trps.svl 2023.06)
