@<TRIPOS>MOLECULE
NONAME
45 47 1 0 0 
SMALL
USER_CHARGES


@<TRIPOS>ATOM
  1 O       -0.0180    -1.2350    -2.7620 O.2   1 <1>  -0.5700 
  2 C        0.1130    -2.1470    -1.9770 C.2   1 <1>   0.5690 
  3 N       -0.9670    -2.8770    -1.5440 N.am  1 <1>  -0.6600 
  4 C        1.5330    -2.4700    -1.5210 C.3   1 <1>   0.1810 
  5 C       -2.3560    -2.4480    -1.8770 C.3   1 <1>   0.2840 
  6 C       -0.8920    -4.0580    -0.6430 C.3   1 <1>   0.1400 
  7 O        1.6600    -2.3680    -0.1090 O.3   1 <1>  -0.3630 
  8 C       -3.3200    -2.5900    -0.6970 C.ar  1 <1>  -0.1440 
  9 C       -1.5260    -3.7010     0.6990 C.3   1 <1>  -0.0160 
 10 C        2.8650    -2.6800     0.4160 C.ar  1 <1>   0.0820 
 11 C       -2.9410    -3.1770     0.5070 C.ar  1 <1>  -0.1440 
 12 C       -4.6160    -2.1170    -0.8420 C.ar  1 <1>  -0.1500 
 13 C        3.3460    -3.9920     0.4470 C.ar  1 <1>   0.0820 
 14 C        3.6160    -1.6490     0.9510 C.ar  1 <1>  -0.1500 
 15 C       -3.8560    -3.2810     1.5430 C.ar  1 <1>  -0.1500 
 16 C       -5.5270    -2.2250     0.1940 C.ar  1 <1>  -0.1500 
 17 O        2.5570    -4.9820    -0.0590 O.3   1 <1>  -0.3630 
 18 C        4.5990    -4.2360     0.9980 C.ar  1 <1>  -0.1500 
 19 C        4.8580    -1.9090     1.4990 C.ar  1 <1>  -0.1500 
 20 C       -5.1460    -2.8080     1.3880 C.ar  1 <1>  -0.1500 
 21 C        2.9130    -6.3420     0.0330 C.3   1 <1>   0.1200 
 22 C        5.3670    -3.2030     1.5260 C.ar  1 <1>   0.0730 
 23 C        1.7750    -7.1640    -0.5620 C.3   1 <1>  -0.2400 
 24 C        6.6590    -3.4680     2.0880 C.1   1 <1>   0.4840 
 25 N        7.6860    -3.6870     2.5310 N.1   1 <1>  -0.5570 
 26 H        2.2190    -1.7720    -1.9650 H     1 <1>   0.0800 
 27 H        1.7900    -3.4630    -1.8320 H     1 <1>   0.0800 
 28 H       -2.7120    -3.0490    -2.6950 H     1 <1>   0.0800 
 29 H       -2.3550    -1.4200    -2.1960 H     1 <1>   0.0800 
 30 H        0.1220    -4.3770    -0.4930 H     1 <1>   0.0800 
 31 H       -1.4350    -4.8730    -1.0900 H     1 <1>   0.0800 
 32 H       -0.9270    -2.9490     1.1840 H     1 <1>   0.0800 
 33 H       -1.5370    -4.5740     1.3240 H     1 <1>   0.0800 
 34 H       -4.9230    -1.6600    -1.7660 H     1 <1>   0.1500 
 35 H        3.2220    -0.6480     0.9330 H     1 <1>   0.1500 
 36 H       -3.5660    -3.7290     2.4770 H     1 <1>   0.1500 
 37 H       -6.5290    -1.8550     0.0710 H     1 <1>   0.1500 
 38 H        5.0040    -5.2310     1.0300 H     1 <1>   0.1500 
 39 H        5.4360    -1.0980     1.9090 H     1 <1>   0.1500 
 40 H       -5.8520    -2.8910     2.1960 H     1 <1>   0.1500 
 41 H        3.0570    -6.5890     1.0710 H     1 <1>   0.0800 
 42 H        3.8240    -6.4970    -0.5200 H     1 <1>   0.0800 
 43 H        0.8690    -6.9990    -0.0070 H     1 <1>   0.0800 
 44 H        2.0180    -8.2100    -0.5150 H     1 <1>   0.0800 
 45 H        1.6210    -6.8950    -1.5920 H     1 <1>   0.0800 
@<TRIPOS>BOND
  1   1   2  2   
  2   2   3  am  
  3   2   4  1   
  4   3   5  1   
  5   3   6  1   
  6   4   7  1   
  7   4  26  1   
  8   4  27  1   
  9   5   8  1   
 10   5  28  1   
 11   5  29  1   
 12   6   9  1   
 13   6  30  1   
 14   6  31  1   
 15   7  10  1   
 16   8  11  ar  
 17   8  12  ar  
 18   9  11  1   
 19   9  32  1   
 20   9  33  1   
 21  10  13  ar  
 22  10  14  ar  
 23  11  15  ar  
 24  12  16  ar  
 25  12  34  1   
 26  13  17  1   
 27  13  18  ar  
 28  14  19  ar  
 29  14  35  1   
 30  15  20  ar  
 31  15  36  1   
 32  16  20  ar  
 33  16  37  1   
 34  17  21  1   
 35  18  22  ar  
 36  18  38  1   
 37  19  22  ar  
 38  19  39  1   
 39  20  40  1   
 40  21  23  1   
 41  21  41  1   
 42  21  42  1   
 43  22  24  1   
 44  23  43  1   
 45  23  44  1   
 46  23  45  1   
 47  24  25  3   
@<TRIPOS>SUBSTRUCTURE
  1 ****   7 GROUP 4 **** **** 0

# MOE 2024.06 (io_trps.svl 2023.06)
