@<TRIPOS>MOLECULE
NONAME
44 46 1 0 0 
SMALL
USER_CHARGES


@<TRIPOS>ATOM
  1 CL      -0.3030     0.1960     0.4160 Cl    1 <1>  -0.1770 
  2 C       -1.7920    -0.6930     0.2340 C.ar  1 <1>   0.1770 
  3 C       -2.4130    -0.7310    -1.0000 C.ar  1 <1>  -0.1500 
  4 C       -2.3290    -1.3480     1.3250 C.ar  1 <1>  -0.1500 
  5 C       -3.5970    -1.4340    -1.1430 C.ar  1 <1>  -0.1500 
  6 C       -3.5140    -2.0500     1.1800 C.ar  1 <1>  -0.1500 
  7 C       -4.1560    -2.0910    -0.0520 C.ar  1 <1>  -0.1430 
  8 C       -5.4630    -2.8490    -0.2030 C.3   1 <1>   0.4870 
  9 N       -6.5760    -1.8670    -0.2870 N.4   1 <1>  -0.9590 
 10 C       -6.7030    -1.0470     0.9760 C.3   1 <1>   0.3430 
 11 C       -7.8880    -2.5290    -0.6270 C.3   1 <1>   0.3430 
 12 C       -7.8560    -0.0270     0.9010 C.3   1 <1>   0.2090 
 13 C       -9.0500    -1.5190    -0.7160 C.3   1 <1>   0.2090 
 14 N       -9.1370    -0.6920     0.5230 N.pl3 1 <1>  -0.8380 
 15 C      -10.2610     0.1460     0.5790 C.ar  1 <1>   0.1000 
 16 C      -10.4670     1.2420    -0.2800 C.ar  1 <1>   0.0830 
 17 C      -11.2160    -0.1370     1.5440 C.ar  1 <1>  -0.1500 
 18 O       -9.5160     1.5130    -1.2310 O.3   1 <1>  -0.3630 
 19 C      -11.6180     2.0130    -0.1440 C.ar  1 <1>  -0.1500 
 20 C      -12.3560     0.6350     1.6720 C.ar  1 <1>  -0.1500 
 21 C       -9.6530     2.6140    -2.1050 C.3   1 <1>   0.0400 
 22 C      -12.5580     1.7100     0.8280 C.ar  1 <1>  -0.1500 
 23 H       -1.9660    -0.2170    -1.8330 H     1 <1>   0.1500 
 24 H       -1.8180    -1.3060     2.2720 H     1 <1>   0.1500 
 25 H       -4.0670    -1.4630    -2.1120 H     1 <1>   0.1500 
 26 H       -3.9200    -2.5620     2.0370 H     1 <1>   0.1500 
 27 H       -5.6080    -3.5060     0.6390 H     1 <1>   0.0800 
 28 H       -5.4250    -3.4450    -1.1000 H     1 <1>   0.0800 
 29 H       -6.3490    -1.2050    -1.0390 H     1 <1>   0.4500 
 30 H       -5.7840    -0.5180     1.1660 H     1 <1>   0.0800 
 31 H       -6.8900    -1.6990     1.8140 H     1 <1>   0.0800 
 32 H       -8.1360    -3.2510     0.1330 H     1 <1>   0.0800 
 33 H       -7.8070    -3.0500    -1.5660 H     1 <1>   0.0800 
 34 H       -7.6120     0.7400     0.1870 H     1 <1>   0.0800 
 35 H       -7.9770     0.4470     1.8610 H     1 <1>   0.0800 
 36 H       -9.9770    -2.0510    -0.8480 H     1 <1>   0.0800 
 37 H       -8.9120    -0.8850    -1.5740 H     1 <1>   0.0800 
 38 H      -11.0600    -0.9720     2.2000 H     1 <1>   0.1500 
 39 H      -11.8130     2.8550    -0.7790 H     1 <1>   0.1500 
 40 H      -13.0850     0.3980     2.4280 H     1 <1>   0.1500 
 41 H       -8.7940     2.6400    -2.7510 H     1 <1>   0.0800 
 42 H       -9.6990     3.5190    -1.5240 H     1 <1>   0.0800 
 43 H      -10.5460     2.4860    -2.6920 H     1 <1>   0.0800 
 44 H      -13.4450     2.3110     0.9260 H     1 <1>   0.1500 
@<TRIPOS>BOND
  1   1   2  1   
  2   2   3  ar  
  3   2   4  ar  
  4   3   5  ar  
  5   3  23  1   
  6   4   6  ar  
  7   4  24  1   
  8   5   7  ar  
  9   5  25  1   
 10   6   7  ar  
 11   6  26  1   
 12   7   8  1   
 13   8   9  1   
 14   8  27  1   
 15   8  28  1   
 16   9  10  1   
 17   9  11  1   
 18   9  29  1   
 19  10  12  1   
 20  10  30  1   
 21  10  31  1   
 22  11  13  1   
 23  11  32  1   
 24  11  33  1   
 25  12  14  1   
 26  12  34  1   
 27  12  35  1   
 28  13  14  1   
 29  13  36  1   
 30  13  37  1   
 31  14  15  1   
 32  15  16  ar  
 33  15  17  ar  
 34  16  18  1   
 35  16  19  ar  
 36  17  20  ar  
 37  17  38  1   
 38  18  21  1   
 39  19  22  ar  
 40  19  39  1   
 41  20  22  ar  
 42  20  40  1   
 43  21  41  1   
 44  21  42  1   
 45  21  43  1   
 46  22  44  1   
@<TRIPOS>SUBSTRUCTURE
  1 ****  12 GROUP 4 **** **** 0

# MOE 2024.06 (io_trps.svl 2023.06)
