@<TRIPOS>MOLECULE
NONAME
34 37 1 0 0 
SMALL
USER_CHARGES


@<TRIPOS>ATOM
  1 I        0.6270    -0.0190    -1.0190 I     1 <1>  -0.0810 
  2 C       -1.5020    -0.0230    -0.9610 C.ar  1 <1>   0.0810 
  3 C       -2.1680     1.1860    -0.8970 C.ar  1 <1>  -0.1500 
  4 C       -2.1660    -1.2350    -0.9900 C.ar  1 <1>  -0.1500 
  5 C       -3.5520     1.1720    -0.8600 C.ar  1 <1>  -0.1500 
  6 C       -3.5490    -1.2270    -0.9520 C.ar  1 <1>  -0.1500 
  7 C       -4.2590    -0.0280    -0.8890 C.ar  1 <1>   0.1170 
  8 N       -5.6610     0.0220    -0.8320 N.am  1 <1>  -0.5470 
  9 C       -6.6080    -0.8670    -1.2700 C.2   1 <1>   0.5690 
 10 O       -6.3290    -1.8940    -1.8360 O.2   1 <1>  -0.5700 
 11 C       -8.0930    -0.5810    -1.0420 C.3   1 <1>  -0.0190 
 12 C       -8.4810     0.9150    -0.8880 C.3   1 <1>  -0.0190 
 13 C       -8.6090    -1.1930     0.2830 C.3   1 <1>  -0.0800 
 14 C       -9.7580     1.1900    -1.6390 C.2   1 <1>   0.6590 
 15 C       -8.9810     0.9920     0.5630 C.3   1 <1>  -0.0800 
 16 C      -10.1510    -1.0920     0.3170 C.3   1 <1>  -0.1600 
 17 C       -8.2410    -0.1190     1.2910 C.3   1 <1>  -0.1600 
 18 O       -9.8270     1.6350    -2.7510 O.2   1 <1>  -0.5700 
 19 O      -10.7980     0.8830    -0.8920 O.3   1 <1>  -0.4300 
 20 C      -10.4010     0.4290     0.3790 C.3   1 <1>   0.2000 
 21 H       -1.6210     2.1120    -0.8770 H     1 <1>   0.1500 
 22 H       -1.6210    -2.1610    -1.0410 H     1 <1>   0.1500 
 23 H       -4.0830     2.1050    -0.8150 H     1 <1>   0.1500 
 24 H       -4.0760    -2.1650    -0.9680 H     1 <1>   0.1500 
 25 H       -6.0280     0.8750    -0.4190 H     1 <1>   0.3700 
 26 H       -8.6200    -1.0220    -1.8720 H     1 <1>   0.0800 
 27 H       -7.7160     1.6260    -1.1400 H     1 <1>   0.0800 
 28 H       -8.2280    -2.1790     0.4950 H     1 <1>   0.0800 
 29 H       -8.9520     1.9680     1.0180 H     1 <1>   0.0800 
 30 H      -10.5220    -1.5570     1.2140 H     1 <1>   0.0800 
 31 H      -10.6200    -1.5550    -0.5350 H     1 <1>   0.0800 
 32 H       -7.1830     0.0540     1.3710 H     1 <1>   0.0800 
 33 H       -8.6490    -0.3120     2.2700 H     1 <1>   0.0800 
 34 H      -11.1150     0.7280     1.1280 H     1 <1>   0.0800 
@<TRIPOS>BOND
  1   1   2  1   
  2   2   3  ar  
  3   2   4  ar  
  4   3   5  ar  
  5   3  21  1   
  6   4   6  ar  
  7   4  22  1   
  8   5   7  ar  
  9   5  23  1   
 10   6   7  ar  
 11   6  24  1   
 12   7   8  1   
 13   8   9  am  
 14   8  25  1   
 15   9  10  2   
 16   9  11  1   
 17  11  12  1   
 18  11  13  1   
 19  11  26  1   
 20  12  14  1   
 21  12  15  1   
 22  12  27  1   
 23  13  16  1   
 24  13  17  1   
 25  13  28  1   
 26  14  18  2   
 27  14  19  1   
 28  15  17  1   
 29  15  20  1   
 30  15  29  1   
 31  16  20  1   
 32  16  30  1   
 33  16  31  1   
 34  17  32  1   
 35  17  33  1   
 36  19  20  1   
 37  20  34  1   
@<TRIPOS>SUBSTRUCTURE
  1 ****   8 GROUP 4 **** **** 0

# MOE 2024.06 (io_trps.svl 2023.06)
