@<TRIPOS>MOLECULE
NONAME
39 40 1 0 0 
SMALL
USER_CHARGES


@<TRIPOS>ATOM
  1 N       -0.3790     0.2200    -0.4320 N.1   1 <1>  -0.5570 
  2 C       -1.4100     0.7060    -0.3660 C.1   1 <1>   0.4840 
  3 C       -2.6820     1.3540    -0.3060 C.ar  1 <1>   0.0730 
  4 C       -2.7570     2.7440    -0.4280 C.ar  1 <1>   0.4100 
  5 C       -3.8590     0.6380    -0.1370 C.ar  1 <1>   0.0000 
  6 N       -3.8790     3.4370    -0.4090 N.ar  1 <1>  -0.6200 
  7 N       -1.6630     3.5430    -0.5900 N.pl3 1 <1>  -0.9000 
  8 C       -3.9100    -0.7990     0.0020 C.ar  1 <1>   0.0000 
  9 C       -5.0280     1.3810    -0.1110 C.ar  1 <1>  -0.1500 
 10 C       -5.0080     2.7600    -0.2480 C.ar  1 <1>   0.1670 
 11 C       -3.4350    -1.4310     1.1470 C.ar  1 <1>  -0.1500 
 12 C       -4.4440    -1.5920    -1.0090 C.ar  1 <1>  -0.1500 
 13 C       -6.3430     3.5470    -0.2120 C.3   1 <1>   0.1440 
 14 C       -3.4890    -2.8070     1.2760 C.ar  1 <1>  -0.1500 
 15 C       -4.5010    -2.9680    -0.8820 C.ar  1 <1>  -0.1500 
 16 C       -7.0450     3.3280     1.1390 C.3   1 <1>  -0.2400 
 17 C       -7.2670     3.0680    -1.3450 C.3   1 <1>  -0.2400 
 18 C       -6.1420     5.0660    -0.3900 C.3   1 <1>  -0.2400 
 19 C       -4.0210    -3.5850     0.2620 C.ar  1 <1>  -0.1430 
 20 C       -4.0800    -5.0950     0.4030 C.3   1 <1>  -0.0970 
 21 H       -1.8940     4.5130    -0.8170 H     1 <1>   0.4000 
 22 H       -0.8270     3.1850    -1.0570 H     1 <1>   0.4000 
 23 H       -5.9580     0.8620     0.0220 H     1 <1>   0.1500 
 24 H       -3.0200    -0.8410     1.9440 H     1 <1>   0.1500 
 25 H       -4.8170    -1.1270    -1.9040 H     1 <1>   0.1500 
 26 H       -3.1140    -3.2710     2.1710 H     1 <1>   0.1500 
 27 H       -4.9180    -3.5590    -1.6780 H     1 <1>   0.1500 
 28 H       -7.2930     2.2930     1.2870 H     1 <1>   0.0800 
 29 H       -7.9530     3.9010     1.1920 H     1 <1>   0.0800 
 30 H       -6.3990     3.6390     1.9410 H     1 <1>   0.0800 
 31 H       -6.7770     3.1940    -2.2950 H     1 <1>   0.0800 
 32 H       -8.1800     3.6370    -1.3560 H     1 <1>   0.0800 
 33 H       -7.5220     2.0310    -1.2300 H     1 <1>   0.0800 
 34 H       -5.6680     5.2730    -1.3330 H     1 <1>   0.0800 
 35 H       -5.5150     5.4540     0.3940 H     1 <1>   0.0800 
 36 H       -7.0820     5.5870    -0.3600 H     1 <1>   0.0800 
 37 H       -3.2590    -5.4490     1.0010 H     1 <1>   0.0800 
 38 H       -4.0230    -5.5670    -0.5610 H     1 <1>   0.0800 
 39 H       -5.0030    -5.3810     0.8760 H     1 <1>   0.0800 
@<TRIPOS>BOND
  1   1   2  3   
  2   2   3  1   
  3   3   4  ar  
  4   3   5  ar  
  5   4   6  ar  
  6   4   7  1   
  7   5   8  1   
  8   5   9  ar  
  9   6  10  ar  
 10   7  21  1   
 11   7  22  1   
 12   8  11  ar  
 13   8  12  ar  
 14   9  10  ar  
 15   9  23  1   
 16  10  13  1   
 17  11  14  ar  
 18  11  24  1   
 19  12  15  ar  
 20  12  25  1   
 21  13  16  1   
 22  13  17  1   
 23  13  18  1   
 24  14  19  ar  
 25  14  26  1   
 26  15  19  ar  
 27  15  27  1   
 28  16  28  1   
 29  16  29  1   
 30  16  30  1   
 31  17  31  1   
 32  17  32  1   
 33  17  33  1   
 34  18  34  1   
 35  18  35  1   
 36  18  36  1   
 37  19  20  1   
 38  20  37  1   
 39  20  38  1   
 40  20  39  1   
@<TRIPOS>SUBSTRUCTURE
  1 ****   5 GROUP 4 **** **** 0

# MOE 2024.06 (io_trps.svl 2023.06)
