@<TRIPOS>MOLECULE
NONAME
41 42 1 0 0 
SMALL
USER_CHARGES


@<TRIPOS>ATOM
  1 O        0.3110    -0.7390    -0.3740 O.2   1 <1>  -0.5700 
  2 C       -0.1350    -1.8490    -0.4810 C.2   1 <1>   0.5690 
  3 N        0.5910    -2.8420    -1.0490 N.am  1 <1>  -0.4900 
  4 C       -1.5340    -2.1590     0.0250 C.3   1 <1>  -0.0990 
  5 C        0.2090    -4.1350    -1.1930 C.2   1 <1>   0.5690 
  6 C       -1.6850    -3.6420     0.4190 C.3   1 <1>  -0.0800 
  7 O        0.9500    -4.9450    -1.6790 O.2   1 <1>  -0.5700 
  8 C       -1.1800    -4.5390    -0.7310 C.3   1 <1>  -0.0990 
  9 C       -3.1370    -3.9540     0.8380 C.3   1 <1>  -0.0220 
 10 C       -3.3200    -5.4080     1.2840 C.2   1 <1>  -0.0380 
 11 N       -2.7330    -5.6430     2.4800 N.pl3 1 <1>  -0.9000 
 12 C       -4.0230    -6.3860     0.5840 C.2   1 <1>   0.0290 
 13 C       -4.6050    -6.1770    -0.7150 C.2   1 <1>   0.4950 
 14 C       -4.2200    -7.7060     1.1330 C.2   1 <1>   0.4950 
 15 O       -4.2000    -5.3790    -1.5270 O.2   1 <1>  -0.5700 
 16 C       -5.7870    -7.0000    -1.2070 C.3   1 <1>  -0.0990 
 17 O       -3.5790    -8.1860     2.0430 O.2   1 <1>  -0.5700 
 18 C       -5.2920    -8.6330     0.5830 C.3   1 <1>  -0.0990 
 19 C       -6.4240    -7.8840    -0.1290 C.3   1 <1>   0.0000 
 20 C       -7.3770    -8.8940    -0.7870 C.3   1 <1>  -0.2400 
 21 C       -7.2360    -7.0350     0.8680 C.3   1 <1>  -0.2400 
 22 H        1.5220    -2.6030    -1.3750 H     1 <1>   0.3700 
 23 H       -1.7430    -1.5300     0.8710 H     1 <1>   0.0800 
 24 H       -2.2310    -1.9110    -0.7560 H     1 <1>   0.0800 
 25 H       -1.0490    -3.8200     1.2710 H     1 <1>   0.0800 
 26 H       -1.8370    -4.4650    -1.5760 H     1 <1>   0.0800 
 27 H       -1.1530    -5.5670    -0.4160 H     1 <1>   0.0800 
 28 H       -3.8140    -3.6800     0.0530 H     1 <1>   0.0800 
 29 H       -3.3950    -3.3220     1.6690 H     1 <1>   0.0800 
 30 H       -2.7540    -6.5930     2.8950 H     1 <1>   0.4000 
 31 H       -2.2150    -4.9620     3.0440 H     1 <1>   0.4000 
 32 H       -6.5250    -6.3340    -1.6170 H     1 <1>   0.0800 
 33 H       -5.4300    -7.6140    -2.0150 H     1 <1>   0.0800 
 34 H       -4.8160    -9.3190    -0.0940 H     1 <1>   0.0800 
 35 H       -5.6980    -9.2110     1.3940 H     1 <1>   0.0800 
 36 H       -8.1650    -8.3840    -1.3130 H     1 <1>   0.0800 
 37 H       -7.8270    -9.5290    -0.0430 H     1 <1>   0.0800 
 38 H       -6.8530    -9.5190    -1.4890 H     1 <1>   0.0800 
 39 H       -6.6340    -6.2900     1.3560 H     1 <1>   0.0800 
 40 H       -7.6670    -7.6620     1.6300 H     1 <1>   0.0800 
 41 H       -8.0410    -6.5290     0.3620 H     1 <1>   0.0800 
@<TRIPOS>BOND
  1   1   2  2   
  2   2   3  am  
  3   2   4  1   
  4   3   5  am  
  5   3  22  1   
  6   4   6  1   
  7   4  23  1   
  8   4  24  1   
  9   5   7  2   
 10   5   8  1   
 11   6   8  1   
 12   6   9  1   
 13   6  25  1   
 14   8  26  1   
 15   8  27  1   
 16   9  10  1   
 17   9  28  1   
 18   9  29  1   
 19  10  11  1   
 20  10  12  2   
 21  11  30  1   
 22  11  31  1   
 23  12  13  1   
 24  12  14  1   
 25  13  15  2   
 26  13  16  1   
 27  14  17  2   
 28  14  18  1   
 29  16  19  1   
 30  16  32  1   
 31  16  33  1   
 32  18  19  1   
 33  18  34  1   
 34  18  35  1   
 35  19  20  1   
 36  19  21  1   
 37  20  36  1   
 38  20  37  1   
 39  20  38  1   
 40  21  39  1   
 41  21  40  1   
 42  21  41  1   
@<TRIPOS>SUBSTRUCTURE
  1 ****  10 GROUP 4 **** **** 0

# MOE 2024.06 (io_trps.svl 2023.06)
