@<TRIPOS>MOLECULE
NONAME
49 50 1 0 0 
SMALL
USER_CHARGES


@<TRIPOS>ATOM
  1 O       -1.1990     1.7250    -2.2010 O.2   1 <1>  -0.5700 
  2 C       -1.1350     2.0730    -1.0400 C.2   1 <1>   0.7800 
  3 O       -2.2110     1.9990    -0.2630 O.3   1 <1>  -0.4300 
  4 N       -0.0230     2.5630    -0.4300 N.am  1 <1>  -0.5470 
  5 C       -3.4400     1.5120    -0.7800 C.3   1 <1>   0.1200 
  6 C        1.2870     2.7920    -0.8810 C.ar  1 <1>   0.1170 
  7 C       -4.5480     1.5210     0.2970 C.3   1 <1>   0.3000 
  8 C        2.1200     3.6900    -0.1520 C.ar  1 <1>   0.0000 
  9 C        1.7880     2.1530    -1.9930 C.ar  1 <1>  -0.1500 
 10 N       -5.7790     0.9990    -0.3260 N.am  1 <1>  -0.7300 
 11 C       -4.1590     0.6080     1.4660 C.3   1 <1>  -0.2400 
 12 C       -4.8050     2.9530     0.7810 C.3   1 <1>  -0.2400 
 13 C        3.4550     3.8830    -0.5820 C.ar  1 <1>   0.0000 
 14 C        1.6900     4.4160     0.9850 C.ar  1 <1>  -0.1500 
 15 C        3.1000     2.3580    -2.4190 C.ar  1 <1>  -0.1500 
 16 C       -7.0050     0.8150     0.2140 C.2   1 <1>   0.7800 
 17 C        3.9160     3.2040    -1.7240 C.ar  1 <1>  -0.1500 
 18 C        4.2950     4.7550     0.1400 C.ar  1 <1>  -0.1500 
 19 C        2.5260     5.2590     1.6650 C.ar  1 <1>  -0.1500 
 20 O       -7.2920     1.0790     1.3640 O.2   1 <1>  -0.5700 
 21 O       -7.9110     0.3090    -0.6170 O.3   1 <1>  -0.4300 
 22 C        3.8460     5.4290     1.2400 C.ar  1 <1>  -0.1500 
 23 C       -9.2300     0.0340    -0.2060 C.3   1 <1>   0.2000 
 24 C       -9.2590    -1.3510     0.4420 C.3   1 <1>  -0.2400 
 25 C      -10.1110     0.0840    -1.4510 C.3   1 <1>  -0.2400 
 26 H       -0.2060     2.8350     0.5300 H     1 <1>   0.3700 
 27 H       -3.2730     0.5090    -1.1330 H     1 <1>   0.0800 
 28 H       -3.7210     2.1420    -1.6060 H     1 <1>   0.0800 
 29 H        1.1830     1.4700    -2.5590 H     1 <1>   0.1500 
 30 H       -5.7000     0.7250    -1.3020 H     1 <1>   0.3700 
 31 H       -3.2410     0.9450     1.9120 H     1 <1>   0.0800 
 32 H       -4.0200    -0.4020     1.1250 H     1 <1>   0.0800 
 33 H       -4.9150     0.6190     2.2290 H     1 <1>   0.0800 
 34 H       -3.9100     3.3700     1.2030 H     1 <1>   0.0800 
 35 H       -5.5630     2.9700     1.5430 H     1 <1>   0.0800 
 36 H       -5.1180     3.5760    -0.0370 H     1 <1>   0.0800 
 37 H        0.6800     4.3140     1.3290 H     1 <1>   0.1500 
 38 H        3.4540     1.8410    -3.2940 H     1 <1>   0.1500 
 39 H        4.9290     3.3640    -2.0460 H     1 <1>   0.1500 
 40 H        5.3080     4.8840    -0.1950 H     1 <1>   0.1500 
 41 H        2.1840     5.8020     2.5290 H     1 <1>   0.1500 
 42 H        4.4930     6.0940     1.7860 H     1 <1>   0.1500 
 43 H       -9.5470     0.7920     0.4940 H     1 <1>   0.0800 
 44 H       -8.9070    -2.0970    -0.2470 H     1 <1>   0.0800 
 45 H      -10.2640    -1.5970     0.7340 H     1 <1>   0.0800 
 46 H       -8.6440    -1.3590     1.3240 H     1 <1>   0.0800 
 47 H       -9.7890    -0.6480    -2.1690 H     1 <1>   0.0800 
 48 H      -10.0640     1.0630    -1.8930 H     1 <1>   0.0800 
 49 H      -11.1320    -0.1190    -1.1860 H     1 <1>   0.0800 
@<TRIPOS>BOND
  1   1   2  2   
  2   2   3  1   
  3   2   4  am  
  4   3   5  1   
  5   4   6  1   
  6   4  26  1   
  7   5   7  1   
  8   5  27  1   
  9   5  28  1   
 10   6   8  ar  
 11   6   9  ar  
 12   7  10  1   
 13   7  11  1   
 14   7  12  1   
 15   8  13  ar  
 16   8  14  ar  
 17   9  15  ar  
 18   9  29  1   
 19  10  16  am  
 20  10  30  1   
 21  11  31  1   
 22  11  32  1   
 23  11  33  1   
 24  12  34  1   
 25  12  35  1   
 26  12  36  1   
 27  13  17  ar  
 28  13  18  ar  
 29  14  19  ar  
 30  14  37  1   
 31  15  17  ar  
 32  15  38  1   
 33  16  20  2   
 34  16  21  1   
 35  17  39  1   
 36  18  22  ar  
 37  18  40  1   
 38  19  22  ar  
 39  19  41  1   
 40  21  23  1   
 41  22  42  1   
 42  23  24  1   
 43  23  25  1   
 44  23  43  1   
 45  24  44  1   
 46  24  45  1   
 47  24  46  1   
 48  25  47  1   
 49  25  48  1   
 50  25  49  1   
@<TRIPOS>SUBSTRUCTURE
  1 ****   3 GROUP 4 **** **** 0

# MOE 2024.06 (io_trps.svl 2023.06)
