@<TRIPOS>MOLECULE
NONAME
47 50 1 0 0 
SMALL
USER_CHARGES


@<TRIPOS>ATOM
  1 O       -0.6420     0.5100     1.2560 O.2   1 <1>  -0.5700 
  2 C       -0.9430    -0.6500     1.0770 C.2   1 <1>   0.5440 
  3 N       -0.0820    -1.7030     1.2460 N.am  1 <1>  -0.4200 
  4 C       -2.2170    -1.1600     0.6540 C.ar  1 <1>   0.0860 
  5 C       -0.7450    -2.8610     0.9380 C.2   1 <1>   0.5440 
  6 C        1.3390    -1.6080     1.6640 C.3   1 <1>   0.1400 
  7 C       -2.0920    -2.5370     0.5690 C.ar  1 <1>   0.0860 
  8 C       -3.4230    -0.5460     0.3510 C.ar  1 <1>  -0.1500 
  9 O       -0.2400    -3.9640     0.9680 O.2   1 <1>  -0.5700 
 10 C        2.2840    -1.8410     0.4790 C.3   1 <1>   0.2000 
 11 C       -3.1760    -3.3090     0.1760 C.ar  1 <1>  -0.1500 
 12 C       -4.5320    -1.2980    -0.0390 C.ar  1 <1>   0.0860 
 13 O        3.5940    -1.6490     0.8950 O.3   1 <1>  -0.5600 
 14 C        2.1160    -0.8630    -0.6780 C.3   1 <1>  -0.1600 
 15 C       -4.3760    -2.6900    -0.1240 C.ar  1 <1>  -0.1500 
 16 C       -5.7940    -0.6500    -0.3460 C.2   1 <1>   0.5440 
 17 C        4.4120    -1.3890    -0.2000 C.3   1 <1>   0.1200 
 18 C        3.5080    -0.8090    -1.2850 C.3   1 <1>  -0.1600 
 19 O       -5.8120     0.4840    -0.7780 O.2   1 <1>  -0.5700 
 20 N       -6.9760    -1.2990    -0.1390 N.am  1 <1>  -0.7300 
 21 C       -8.3170    -0.7500    -0.4000 C.3   1 <1>   0.2200 
 22 C       -9.0800    -0.6840     0.9160 C.3   1 <1>  -0.1600 
 23 C       -9.1080    -1.7660    -1.2130 C.3   1 <1>  -0.1600 
 24 C       -9.6000    -2.1040     1.1670 C.3   1 <1>  -0.1600 
 25 C       -9.6310    -2.7950    -0.2030 C.3   1 <1>  -0.1600 
 26 H        1.5310    -2.3500     2.4190 H     1 <1>   0.0800 
 27 H        1.5230    -0.6320     2.0800 H     1 <1>   0.0800 
 28 H       -3.5000     0.5280     0.4170 H     1 <1>   0.1500 
 29 H        2.2050    -2.8590     0.1330 H     1 <1>   0.0800 
 30 H       -3.0660    -4.3790     0.1080 H     1 <1>   0.1500 
 31 H        1.8400     0.1060    -0.2980 H     1 <1>   0.0800 
 32 H        1.3710    -1.1960    -1.3780 H     1 <1>   0.0800 
 33 H       -5.2090    -3.2940    -0.4410 H     1 <1>   0.1500 
 34 H        4.8570    -2.3170    -0.5150 H     1 <1>   0.0800 
 35 H        5.1790    -0.6960     0.1040 H     1 <1>   0.0800 
 36 H        3.7930     0.1990    -1.5310 H     1 <1>   0.0800 
 37 H        3.5700    -1.4170    -2.1700 H     1 <1>   0.0800 
 38 H       -6.9920    -2.2030     0.3290 H     1 <1>   0.3700 
 39 H       -8.2550     0.2090    -0.8890 H     1 <1>   0.0800 
 40 H       -9.9190    -0.0230     0.7880 H     1 <1>   0.0800 
 41 H       -8.4710    -0.3110     1.7210 H     1 <1>   0.0800 
 42 H       -8.5180    -2.2100    -1.9960 H     1 <1>   0.0800 
 43 H       -9.9460    -1.2620    -1.6610 H     1 <1>   0.0800 
 44 H      -10.5770    -2.0800     1.6190 H     1 <1>   0.0800 
 45 H       -8.9280    -2.6300     1.8250 H     1 <1>   0.0800 
 46 H       -8.9890    -3.6590    -0.1900 H     1 <1>   0.0800 
 47 H      -10.6280    -3.1090    -0.4610 H     1 <1>   0.0800 
@<TRIPOS>BOND
  1   1   2  2   
  2   2   3  am  
  3   2   4  1   
  4   3   5  am  
  5   3   6  1   
  6   4   7  ar  
  7   4   8  ar  
  8   5   7  1   
  9   5   9  2   
 10   6  10  1   
 11   6  26  1   
 12   6  27  1   
 13   7  11  ar  
 14   8  12  ar  
 15   8  28  1   
 16  10  13  1   
 17  10  14  1   
 18  10  29  1   
 19  11  15  ar  
 20  11  30  1   
 21  12  15  ar  
 22  12  16  1   
 23  13  17  1   
 24  14  18  1   
 25  14  31  1   
 26  14  32  1   
 27  15  33  1   
 28  16  19  2   
 29  16  20  am  
 30  17  18  1   
 31  17  34  1   
 32  17  35  1   
 33  18  36  1   
 34  18  37  1   
 35  20  21  1   
 36  20  38  1   
 37  21  22  1   
 38  21  23  1   
 39  21  39  1   
 40  22  24  1   
 41  22  40  1   
 42  22  41  1   
 43  23  25  1   
 44  23  42  1   
 45  23  43  1   
 46  24  25  1   
 47  24  44  1   
 48  24  45  1   
 49  25  46  1   
 50  25  47  1   
@<TRIPOS>SUBSTRUCTURE
  1 ****   4 GROUP 4 **** **** 0

# MOE 2024.06 (io_trps.svl 2023.06)
