@<TRIPOS>MOLECULE
NONAME
39 41 1 0 0 
SMALL
USER_CHARGES


@<TRIPOS>ATOM
  1 O        1.5230    -0.0020     1.5430 O.co2 1 <1>  -0.9000 
  2 C        2.0120    -1.0990     1.8170 C.2   1 <1>   0.9060 
  3 O        2.7840    -1.2430     2.7730 O.co2 1 <1>  -0.9000 
  4 C        1.6620    -2.3130     0.9640 C.3   1 <1>  -0.1860 
  5 C        2.6600    -3.5020     1.0870 C.3   1 <1>  -0.0190 
  6 C        1.4500    -1.9330    -0.5150 C.3   1 <1>  -0.0220 
  7 C        4.0810    -3.1920     0.5740 C.2   1 <1>   0.5690 
  8 C        2.0370    -4.7470     0.4090 C.3   1 <1>  -0.0220 
  9 C        1.1890    -3.1700    -1.3630 C.2   1 <1>  -0.2880 
 10 O        4.5550    -3.8310    -0.3390 O.2   1 <1>  -0.5700 
 11 N        4.7820    -2.2160     1.2230 N.am  1 <1>  -0.5470 
 12 C        1.4350    -4.4170    -0.9510 C.2   1 <1>  -0.2880 
 13 C        6.0480    -1.6490     1.0350 C.ar  1 <1>   0.1170 
 14 C        7.0550    -2.2430     0.2770 C.ar  1 <1>  -0.1500 
 15 C        6.3080    -0.4290     1.6530 C.ar  1 <1>  -0.1500 
 16 C        8.2800    -1.6160     0.1520 C.ar  1 <1>  -0.1430 
 17 C        7.5380     0.1960     1.5260 C.ar  1 <1>  -0.1500 
 18 C        8.5210    -0.4130     0.7680 C.ar  1 <1>  -0.1430 
 19 C        9.4850    -2.0890    -0.6200 C.3   1 <1>  -0.0170 
 20 C        9.9200     0.0750     0.4880 C.3   1 <1>  -0.0170 
 21 C       10.6070    -1.1520    -0.1380 C.3   1 <1>  -0.1600 
 22 H        0.7160    -2.6470     1.3430 H     1 <1>   0.0800 
 23 H        2.7670    -3.7390     2.1300 H     1 <1>   0.0800 
 24 H        2.3160    -1.4150    -0.8910 H     1 <1>   0.0800 
 25 H        0.6100    -1.2640    -0.5850 H     1 <1>   0.0800 
 26 H        1.2570    -5.1380     1.0360 H     1 <1>   0.0800 
 27 H        2.7830    -5.5150     0.3020 H     1 <1>   0.0800 
 28 H        0.7880    -2.9380    -2.3350 H     1 <1>   0.1500 
 29 H        4.2100    -1.7390     1.9470 H     1 <1>   0.3700 
 30 H        1.2340    -5.2860    -1.5520 H     1 <1>   0.1500 
 31 H        6.8820    -3.1840    -0.2090 H     1 <1>   0.1500 
 32 H        5.5280     0.0320     2.2370 H     1 <1>   0.1500 
 33 H        7.7210     1.1390     2.0080 H     1 <1>   0.1500 
 34 H        9.3040    -1.9610    -1.6720 H     1 <1>   0.0800 
 35 H        9.7080    -3.1190    -0.4080 H     1 <1>   0.0800 
 36 H       10.4160     0.3900     1.3890 H     1 <1>   0.0800 
 37 H        9.8790     0.8890    -0.2140 H     1 <1>   0.0800 
 38 H       11.2680    -0.8750    -0.9400 H     1 <1>   0.0800 
 39 H       11.1730    -1.6570     0.6250 H     1 <1>   0.0800 
@<TRIPOS>BOND
  1   1   2  ar  
  2   2   3  ar  
  3   2   4  1   
  4   4   5  1   
  5   4   6  1   
  6   4  22  1   
  7   5   7  1   
  8   5   8  1   
  9   5  23  1   
 10   6   9  1   
 11   6  24  1   
 12   6  25  1   
 13   7  10  2   
 14   7  11  am  
 15   8  12  1   
 16   8  26  1   
 17   8  27  1   
 18   9  12  2   
 19   9  28  1   
 20  11  13  1   
 21  11  29  1   
 22  12  30  1   
 23  13  14  ar  
 24  13  15  ar  
 25  14  16  ar  
 26  14  31  1   
 27  15  17  ar  
 28  15  32  1   
 29  16  18  ar  
 30  16  19  1   
 31  17  18  ar  
 32  17  33  1   
 33  18  20  1   
 34  19  21  1   
 35  19  34  1   
 36  19  35  1   
 37  20  21  1   
 38  20  36  1   
 39  20  37  1   
 40  21  38  1   
 41  21  39  1   
@<TRIPOS>SUBSTRUCTURE
  1 ****  11 GROUP 4 **** **** 0

# MOE 2024.06 (io_trps.svl 2023.06)
