@<TRIPOS>MOLECULE
NONAME
50 52 1 0 0 
SMALL
USER_CHARGES


@<TRIPOS>ATOM
  1 O        2.8240     1.3360     1.6960 O.2   1 <1>  -0.5700 
  2 C        1.6980     1.7340     1.4540 C.2   1 <1>   0.5440 
  3 N        0.6430     0.8470     1.5290 N.am  1 <1>  -0.6600 
  4 C        1.5060     3.1130     1.0670 C.ar  1 <1>   0.0860 
  5 C        0.8000    -0.5220     2.0970 C.3   1 <1>   0.1400 
  6 C       -0.6860     1.1010     0.9060 C.3   1 <1>   0.1400 
  7 C        2.0650     3.6110    -0.1180 C.ar  1 <1>   0.1170 
  8 C        0.7420     3.9690     1.8610 C.ar  1 <1>  -0.1500 
  9 C        0.5570    -1.5670     1.0040 C.3   1 <1>  -0.1600 
 10 C       -0.9340     0.0740    -0.2030 C.3   1 <1>  -0.1600 
 11 N        2.8580     2.7750    -0.9160 N.am  1 <1>  -0.5470 
 12 C        1.8300     4.9360    -0.4760 C.ar  1 <1>  -0.1500 
 13 C        0.5190     5.2820     1.4950 C.ar  1 <1>  -0.1500 
 14 C       -0.8010    -1.3650     0.3160 C.3   1 <1>  -0.1600 
 15 C        3.0030     2.7060    -2.2750 C.2   1 <1>   0.5690 
 16 C        1.0630     5.7660     0.3180 C.ar  1 <1>  -0.1500 
 17 O        2.4490     3.4620    -3.0350 O.2   1 <1>  -0.5700 
 18 C        3.8750     1.6120    -2.8730 C.3   1 <1>   0.0440 
 19 C        4.5920     0.7670    -1.8250 C.ar  1 <1>  -0.1430 
 20 C        5.9400     0.9620    -1.5650 C.ar  1 <1>  -0.1500 
 21 C        3.8910    -0.1900    -1.1060 C.ar  1 <1>  -0.1500 
 22 C        6.5740     0.2160    -0.5880 C.ar  1 <1>  -0.1500 
 23 C        4.5220    -0.9310    -0.1240 C.ar  1 <1>  -0.1500 
 24 C        5.8720    -0.7260     0.1440 C.ar  1 <1>   0.0830 
 25 O        6.5550    -1.3970     1.1040 O.3   1 <1>  -0.3630 
 26 C        5.8640    -2.0580     2.1400 C.3   1 <1>   0.0400 
 27 H        0.0870    -0.6520     2.8920 H     1 <1>   0.0800 
 28 H        1.7850    -0.6520     2.5130 H     1 <1>   0.0800 
 29 H       -0.7380     2.0910     0.4880 H     1 <1>   0.0800 
 30 H       -1.4490     1.0160     1.6610 H     1 <1>   0.0800 
 31 H        0.3220     3.5910     2.7770 H     1 <1>   0.1500 
 32 H        0.6000    -2.5500     1.4380 H     1 <1>   0.0800 
 33 H        1.3460    -1.4960     0.2770 H     1 <1>   0.0800 
 34 H       -0.2240     0.2420    -0.9950 H     1 <1>   0.0800 
 35 H       -1.9180     0.2210    -0.6100 H     1 <1>   0.0800 
 36 H        3.3430     2.0290    -0.3940 H     1 <1>   0.3700 
 37 H        2.2540     5.3230    -1.3850 H     1 <1>   0.1500 
 38 H       -0.0750     5.9280     2.1190 H     1 <1>   0.1500 
 39 H       -1.5900    -1.5640     1.0210 H     1 <1>   0.0800 
 40 H       -0.9020    -2.0580    -0.5010 H     1 <1>   0.0800 
 41 H        0.8920     6.7870     0.0240 H     1 <1>   0.1500 
 42 H        4.5910     2.0730    -3.5260 H     1 <1>   0.0800 
 43 H        3.2510     0.9780    -3.4750 H     1 <1>   0.0800 
 44 H        6.5020     1.6970    -2.1130 H     1 <1>   0.1500 
 45 H        2.8440    -0.3560    -1.2980 H     1 <1>   0.1500 
 46 H        7.6180     0.3640    -0.3800 H     1 <1>   0.1500 
 47 H        3.9520    -1.6560     0.4240 H     1 <1>   0.1500 
 48 H        6.5850    -2.3820     2.8690 H     1 <1>   0.0800 
 49 H        5.3510    -2.9090     1.7300 H     1 <1>   0.0800 
 50 H        5.1710    -1.3680     2.5910 H     1 <1>   0.0800 
@<TRIPOS>BOND
  1   1   2  2   
  2   2   3  am  
  3   2   4  1   
  4   3   5  1   
  5   3   6  1   
  6   4   7  ar  
  7   4   8  ar  
  8   5   9  1   
  9   5  27  1   
 10   5  28  1   
 11   6  10  1   
 12   6  29  1   
 13   6  30  1   
 14   7  11  1   
 15   7  12  ar  
 16   8  13  ar  
 17   8  31  1   
 18   9  14  1   
 19   9  32  1   
 20   9  33  1   
 21  10  14  1   
 22  10  34  1   
 23  10  35  1   
 24  11  15  am  
 25  11  36  1   
 26  12  16  ar  
 27  12  37  1   
 28  13  16  ar  
 29  13  38  1   
 30  14  39  1   
 31  14  40  1   
 32  15  17  2   
 33  15  18  1   
 34  16  41  1   
 35  18  19  1   
 36  18  42  1   
 37  18  43  1   
 38  19  20  ar  
 39  19  21  ar  
 40  20  22  ar  
 41  20  44  1   
 42  21  23  ar  
 43  21  45  1   
 44  22  24  ar  
 45  22  46  1   
 46  23  24  ar  
 47  23  47  1   
 48  24  25  1   
 49  25  26  1   
 50  26  48  1   
 51  26  49  1   
 52  26  50  1   
@<TRIPOS>SUBSTRUCTURE
  1 ****   1 GROUP 4 **** **** 0

# MOE 2024.06 (io_trps.svl 2023.06)
