@<TRIPOS>MOLECULE
NONAME
31 32 1 0 0 
SMALL
USER_CHARGES


@<TRIPOS>ATOM
  1 O       -0.1040    -0.3990    -0.7740 O.2   1 <1>  -0.5700 
  2 C       -0.4240    -1.5080    -0.4250 C.2   1 <1>   0.5690 
  3 N        0.4040    -2.5500    -0.1180 N.am  1 <1>  -0.4770 
  4 C       -1.8690    -1.8910    -0.2700 C.3   1 <1>  -0.0990 
  5 C        1.8140    -2.5810    -0.1110 C.ar  1 <1>   0.1170 
  6 C       -0.3880    -3.7380     0.2650 C.3   1 <1>   0.1400 
  7 C       -1.7970    -3.1940     0.5410 C.3   1 <1>  -0.0190 
  8 C        2.5040    -3.7410    -0.4620 C.ar  1 <1>  -0.1500 
  9 C        2.5550    -1.4600     0.2580 C.ar  1 <1>  -0.1500 
 10 C       -2.9070    -4.1860     0.2280 C.2   1 <1>   0.5690 
 11 C        3.8860    -3.7810    -0.4400 C.ar  1 <1>  -0.1500 
 12 C        3.9380    -1.4910     0.2800 C.ar  1 <1>  -0.1500 
 13 O       -2.6300    -5.3430     0.0310 O.2   1 <1>  -0.5700 
 14 N       -4.1920    -3.7400     0.1980 N.am  1 <1>  -0.7300 
 15 C        4.6000    -2.6570    -0.0680 C.ar  1 <1>   0.0820 
 16 C       -5.3810    -4.5840    -0.0840 C.3   1 <1>   0.0600 
 17 O        5.9420    -2.7050    -0.0510 O.3   1 <1>  -0.5320 
 18 H       -2.2830    -2.0560    -1.2480 H     1 <1>   0.0800 
 19 H       -2.4160    -1.1220     0.2430 H     1 <1>   0.0800 
 20 H        0.0260    -4.2150     1.1370 H     1 <1>   0.0800 
 21 H       -0.3950    -4.4300    -0.5600 H     1 <1>   0.0800 
 22 H       -1.8520    -2.9560     1.5880 H     1 <1>   0.0800 
 23 H        1.9630    -4.6180    -0.7630 H     1 <1>   0.1500 
 24 H        2.0440    -0.5540     0.5290 H     1 <1>   0.1500 
 25 H        4.4160    -4.6770    -0.7110 H     1 <1>   0.1500 
 26 H        4.4870    -0.6130     0.5660 H     1 <1>   0.1500 
 27 H       -4.3880    -2.7550     0.3860 H     1 <1>   0.3700 
 28 H       -5.0850    -5.6030    -0.2710 H     1 <1>   0.0800 
 29 H       -5.8960    -4.2100    -0.9520 H     1 <1>   0.0800 
 30 H       -6.0490    -4.5680     0.7590 H     1 <1>   0.0800 
 31 H        6.3440    -1.8570     0.2050 H     1 <1>   0.4500 
@<TRIPOS>BOND
  1   1   2  2   
  2   2   3  am  
  3   2   4  1   
  4   3   5  1   
  5   3   6  1   
  6   4   7  1   
  7   4  18  1   
  8   4  19  1   
  9   5   8  ar  
 10   5   9  ar  
 11   6   7  1   
 12   6  20  1   
 13   6  21  1   
 14   7  10  1   
 15   7  22  1   
 16   8  11  ar  
 17   8  23  1   
 18   9  12  ar  
 19   9  24  1   
 20  10  13  2   
 21  10  14  am  
 22  11  15  ar  
 23  11  25  1   
 24  12  15  ar  
 25  12  26  1   
 26  14  16  1   
 27  14  27  1   
 28  15  17  1   
 29  16  28  1   
 30  16  29  1   
 31  16  30  1   
 32  17  31  1   
@<TRIPOS>SUBSTRUCTURE
  1 ****   3 GROUP 4 **** **** 0

# MOE 2024.06 (io_trps.svl 2023.06)
