@<TRIPOS>MOLECULE
NONAME
36 37 1 0 0 
SMALL
USER_CHARGES


@<TRIPOS>ATOM
  1 O       -0.8010     0.4030     0.4370 O.2   1 <1>  -0.5700 
  2 C       -1.2310     1.5080     0.2100 C.2   1 <1>   0.5770 
  3 N       -2.4790     1.6620    -0.3480 N.am  1 <1>  -0.6600 
  4 C       -0.3800     2.7210     0.5880 C.3   1 <1>   0.0530 
  5 C       -3.2220     0.4820    -0.8880 C.3   1 <1>   0.1400 
  6 C       -3.2820     2.9220    -0.3190 C.3   1 <1>   0.1400 
  7 C        0.0190     3.6300    -0.6070 C.3   1 <1>   0.0000 
  8 C        1.1420     2.4620     0.7830 C.3   1 <1>   0.0000 
  9 C       -4.5240     0.2630    -0.1000 C.3   1 <1>   0.3430 
 10 C       -4.6090     2.6990     0.4380 C.3   1 <1>   0.3430 
 11 C        1.3810     3.8340     0.1030 C.3   1 <1>   0.0000 
 12 N       -5.3770     1.5050    -0.0720 N.4   1 <1>  -0.9590 
 13 C       -6.6230     1.2740     0.6900 C.3   1 <1>   0.4810 
 14 C       -7.5920     2.3650     0.2960 C.2   1 <1>  -0.2880 
 15 C       -8.6280     2.2110    -0.5350 C.2   1 <1>  -0.3000 
 16 H       -0.7920     3.2860     1.4080 H     1 <1>   0.0000 
 17 H       -2.6210    -0.4100    -0.8290 H     1 <1>   0.0800 
 18 H       -3.4450     0.6470    -1.9280 H     1 <1>   0.0800 
 19 H       -3.4860     3.2360    -1.3290 H     1 <1>   0.0800 
 20 H       -2.7390     3.7140     0.1640 H     1 <1>   0.0800 
 21 H       -0.5660     4.5290    -0.6890 H     1 <1>   0.0000 
 22 H        0.1130     3.0910    -1.5350 H     1 <1>   0.0000 
 23 H        1.5220     1.6470     0.1920 H     1 <1>   0.0000 
 24 H        1.4500     2.4280     1.8130 H     1 <1>   0.0000 
 25 H       -4.2630    -0.0250     0.9060 H     1 <1>   0.0800 
 26 H       -5.0710    -0.5510    -0.5460 H     1 <1>   0.0800 
 27 H       -5.2130     3.5880     0.3500 H     1 <1>   0.0800 
 28 H       -4.3810     2.5600     1.4820 H     1 <1>   0.0800 
 29 H        1.3680     4.6530     0.8020 H     1 <1>   0.0000 
 30 H        2.2240     3.8490    -0.5650 H     1 <1>   0.0000 
 31 H       -5.6760     1.7120    -1.0340 H     1 <1>   0.4500 
 32 H       -6.4410     1.2830     1.7530 H     1 <1>   0.0800 
 33 H       -7.0440     0.3190     0.4190 H     1 <1>   0.0800 
 34 H       -7.3780     3.3110     0.7640 H     1 <1>   0.1500 
 35 H       -9.3110     3.0050    -0.7950 H     1 <1>   0.1500 
 36 H       -8.8990     1.2900    -1.0270 H     1 <1>   0.1500 
@<TRIPOS>BOND
  1   1   2  2   
  2   2   3  am  
  3   2   4  1   
  4   3   5  1   
  5   3   6  1   
  6   4   7  1   
  7   4   8  1   
  8   4  16  1   
  9   5   9  1   
 10   5  17  1   
 11   5  18  1   
 12   6  10  1   
 13   6  19  1   
 14   6  20  1   
 15   7  11  1   
 16   7  21  1   
 17   7  22  1   
 18   8  11  1   
 19   8  23  1   
 20   8  24  1   
 21   9  12  1   
 22   9  25  1   
 23   9  26  1   
 24  10  12  1   
 25  10  27  1   
 26  10  28  1   
 27  11  29  1   
 28  11  30  1   
 29  12  13  1   
 30  12  31  1   
 31  13  14  1   
 32  13  32  1   
 33  13  33  1   
 34  14  15  2   
 35  14  34  1   
 36  15  35  1   
 37  15  36  1   
@<TRIPOS>SUBSTRUCTURE
  1 ****   3 GROUP 4 **** **** 0

# MOE 2024.06 (io_trps.svl 2023.06)
