@<TRIPOS>MOLECULE
NONAME
47 49 1 0 0 
SMALL
USER_CHARGES


@<TRIPOS>ATOM
  1 O        0.0330    -0.4830    -0.3230 O.3   1 <1>  -0.3630 
  2 C       -1.1920    -1.0590    -0.4120 C.ar  1 <1>   0.0830 
  3 C        0.7980    -0.5710     0.8600 C.3   1 <1>   0.2640 
  4 C       -1.8160    -1.0010    -1.6470 C.ar  1 <1>  -0.1500 
  5 C       -1.8350    -1.6900     0.6480 C.ar  1 <1>  -0.1500 
  6 C        2.1270     0.1390     0.6490 C.ar  1 <1>  -0.1440 
  7 C       -3.0660    -1.5670    -1.8310 C.ar  1 <1>  -0.1500 
  8 C       -3.0860    -2.2540     0.4610 C.ar  1 <1>  -0.1500 
  9 C        2.1530     1.4910     0.3410 C.ar  1 <1>  -0.1500 
 10 C        3.3240    -0.5520     0.7690 C.ar  1 <1>  -0.1500 
 11 C       -3.7090    -2.1970    -0.7770 C.ar  1 <1>  -0.1430 
 12 C        3.3590     2.1460     0.1600 C.ar  1 <1>  -0.1500 
 13 C        4.5310     0.1020     0.5890 C.ar  1 <1>  -0.1500 
 14 C       -5.0830    -2.8230    -0.9710 C.3   1 <1>   0.2530 
 15 C        4.5490     1.4520     0.2850 C.ar  1 <1>  -0.1500 
 16 N       -6.0890    -2.1730    -0.1050 N.3   1 <1>  -0.8100 
 17 C       -7.3870    -2.8700    -0.1720 C.3   1 <1>   0.1100 
 18 C       -6.2280    -0.7290    -0.3970 C.3   1 <1>   0.1100 
 19 C       -8.4200    -2.2230     0.7740 C.3   1 <1>   0.3430 
 20 C       -7.2520    -0.0610     0.5420 C.3   1 <1>   0.3430 
 21 N       -8.5880    -0.7530     0.4970 N.4   1 <1>  -0.9590 
 22 C       -9.5510    -0.1290     1.4520 C.3   1 <1>   0.2630 
 23 H        0.9510    -1.6110     1.0850 H     1 <1>   0.0800 
 24 H        0.2500    -0.0960     1.6540 H     1 <1>   0.0800 
 25 H       -1.3130    -0.5130    -2.4620 H     1 <1>   0.1500 
 26 H       -1.3850    -1.7550     1.6200 H     1 <1>   0.1500 
 27 H       -3.5270    -1.5130    -2.8020 H     1 <1>   0.1500 
 28 H       -3.5810    -2.7400     1.2840 H     1 <1>   0.1500 
 29 H        1.2300     2.0340     0.2360 H     1 <1>   0.1500 
 30 H        3.3250    -1.6020     1.0020 H     1 <1>   0.1500 
 31 H        3.3690     3.1950    -0.0800 H     1 <1>   0.1500 
 32 H        5.4560    -0.4400     0.6830 H     1 <1>   0.1500 
 33 H       -5.0160    -3.8690    -0.7190 H     1 <1>   0.0800 
 34 H       -5.3810    -2.7480    -2.0030 H     1 <1>   0.0800 
 35 H        5.4870     1.9610     0.1440 H     1 <1>   0.1500 
 36 H       -7.2510    -3.8980     0.1190 H     1 <1>   0.0800 
 37 H       -7.7620    -2.8580    -1.1820 H     1 <1>   0.0800 
 38 H       -6.5230    -0.5850    -1.4230 H     1 <1>   0.0800 
 39 H       -5.2780    -0.2400    -0.2570 H     1 <1>   0.0800 
 40 H       -8.0830    -2.3650     1.7870 H     1 <1>   0.0800 
 41 H       -9.3650    -2.7290     0.6640 H     1 <1>   0.0800 
 42 H       -7.3630     0.9740     0.2640 H     1 <1>   0.0800 
 43 H       -6.8580    -0.0960     1.5440 H     1 <1>   0.0800 
 44 H       -8.9490    -0.6590    -0.4620 H     1 <1>   0.4500 
 45 H       -9.1860    -0.2170     2.4620 H     1 <1>   0.0800 
 46 H      -10.5110    -0.6150     1.3880 H     1 <1>   0.0800 
 47 H       -9.6800     0.9170     1.2230 H     1 <1>   0.0800 
@<TRIPOS>BOND
  1   1   2  1   
  2   1   3  1   
  3   2   4  ar  
  4   2   5  ar  
  5   3   6  1   
  6   3  23  1   
  7   3  24  1   
  8   4   7  ar  
  9   4  25  1   
 10   5   8  ar  
 11   5  26  1   
 12   6   9  ar  
 13   6  10  ar  
 14   7  11  ar  
 15   7  27  1   
 16   8  11  ar  
 17   8  28  1   
 18   9  12  ar  
 19   9  29  1   
 20  10  13  ar  
 21  10  30  1   
 22  11  14  1   
 23  12  15  ar  
 24  12  31  1   
 25  13  15  ar  
 26  13  32  1   
 27  14  16  1   
 28  14  33  1   
 29  14  34  1   
 30  15  35  1   
 31  16  17  1   
 32  16  18  1   
 33  17  19  1   
 34  17  36  1   
 35  17  37  1   
 36  18  20  1   
 37  18  38  1   
 38  18  39  1   
 39  19  21  1   
 40  19  40  1   
 41  19  41  1   
 42  20  21  1   
 43  20  42  1   
 44  20  43  1   
 45  21  22  1   
 46  21  44  1   
 47  22  45  1   
 48  22  46  1   
 49  22  47  1   
@<TRIPOS>SUBSTRUCTURE
  1 ****   5 GROUP 4 **** **** 0

# MOE 2024.06 (io_trps.svl 2023.06)
