@<TRIPOS>MOLECULE
NONAME
45 47 1 0 0 
SMALL
USER_CHARGES


@<TRIPOS>ATOM
  1 O       -2.0310    -2.3270    -0.2710 O.3   1 <1>  -0.5320 
  2 C       -0.8910    -2.8940     0.1490 C.ar  1 <1>   0.0830 
  3 C       -0.6970    -4.2460    -0.0600 C.ar  1 <1>  -0.1500 
  4 C        0.0760    -2.1380     0.7890 C.ar  1 <1>  -0.1500 
  5 C        0.4760    -4.8470     0.3610 C.ar  1 <1>  -0.1500 
  6 C        1.2490    -2.7420     1.2050 C.ar  1 <1>  -0.1500 
  7 C        1.4680    -4.0960     0.9780 C.ar  1 <1>  -0.1430 
  8 C        2.7830    -4.7430     1.4060 C.3   1 <1>  -0.0170 
  9 C        3.8180    -5.0430     0.2770 C.3   1 <1>   0.5030 
 10 N        4.1650    -3.8360    -0.5540 N.4   1 <1>  -0.9590 
 11 C        5.1550    -5.5130     0.9280 C.3   1 <1>  -0.1600 
 12 C        3.2780    -6.1550    -0.6650 C.3   1 <1>  -0.1600 
 13 C        4.6550    -2.6560     0.2030 C.3   1 <1>   0.3430 
 14 C        3.1350    -3.3200    -1.5090 C.3   1 <1>   0.3430 
 15 C        5.3670    -7.0350     0.9070 C.3   1 <1>  -0.1600 
 16 C        4.3870    -6.8550    -1.4660 C.3   1 <1>  -0.1600 
 17 C        4.6560    -1.5370    -0.8220 C.3   1 <1>  -0.1600 
 18 C        3.4900    -1.8580    -1.7560 C.3   1 <1>  -0.1600 
 19 C        5.3810    -7.5720    -0.5340 C.3   1 <1>  -0.1600 
 20 H       -2.1240    -1.3930    -0.0120 H     1 <1>   0.4500 
 21 H       -1.4690    -4.8200    -0.5430 H     1 <1>   0.1500 
 22 H       -0.0850    -1.0910     0.9680 H     1 <1>   0.1500 
 23 H        0.5950    -5.9050     0.2050 H     1 <1>   0.1500 
 24 H        1.9830    -2.1420     1.7130 H     1 <1>   0.1500 
 25 H        2.5480    -5.6670     1.9060 H     1 <1>   0.0800 
 26 H        3.2370    -4.1220     2.1560 H     1 <1>   0.0800 
 27 H        4.9450    -4.1430    -1.1440 H     1 <1>   0.4500 
 28 H        5.2200    -5.1790     1.9490 H     1 <1>   0.0800 
 29 H        5.9970    -5.0900     0.4090 H     1 <1>   0.0800 
 30 H        2.5210    -5.7890    -1.3320 H     1 <1>   0.0800 
 31 H        2.7960    -6.9130    -0.0710 H     1 <1>   0.0800 
 32 H        5.6370    -2.8190     0.6160 H     1 <1>   0.0800 
 33 H        3.9660    -2.4140     0.9950 H     1 <1>   0.0800 
 34 H        2.1470    -3.3770    -1.0880 H     1 <1>   0.0800 
 35 H        3.1490    -3.8820    -2.4290 H     1 <1>   0.0800 
 36 H        4.5800    -7.5160     1.4640 H     1 <1>   0.0800 
 37 H        6.2970    -7.2870     1.3900 H     1 <1>   0.0800 
 38 H        4.9130    -6.1350    -2.0690 H     1 <1>   0.0800 
 39 H        3.9520    -7.5760    -2.1380 H     1 <1>   0.0800 
 40 H        5.5850    -1.5530    -1.3660 H     1 <1>   0.0800 
 41 H        4.5480    -0.5740    -0.3530 H     1 <1>   0.0800 
 42 H        2.6340    -1.2480    -1.5240 H     1 <1>   0.0800 
 43 H        3.7550    -1.6950    -2.7860 H     1 <1>   0.0800 
 44 H        5.1520    -8.6240    -0.5070 H     1 <1>   0.0800 
 45 H        6.3730    -7.4770    -0.9450 H     1 <1>   0.0800 
@<TRIPOS>BOND
  1   1   2  1   
  2   1  20  1   
  3   2   3  ar  
  4   2   4  ar  
  5   3   5  ar  
  6   3  21  1   
  7   4   6  ar  
  8   4  22  1   
  9   5   7  ar  
 10   5  23  1   
 11   6   7  ar  
 12   6  24  1   
 13   7   8  1   
 14   8   9  1   
 15   8  25  1   
 16   8  26  1   
 17   9  10  1   
 18   9  11  1   
 19   9  12  1   
 20  10  13  1   
 21  10  14  1   
 22  10  27  1   
 23  11  15  1   
 24  11  28  1   
 25  11  29  1   
 26  12  16  1   
 27  12  30  1   
 28  12  31  1   
 29  13  17  1   
 30  13  32  1   
 31  13  33  1   
 32  14  18  1   
 33  14  34  1   
 34  14  35  1   
 35  15  19  1   
 36  15  36  1   
 37  15  37  1   
 38  16  19  1   
 39  16  38  1   
 40  16  39  1   
 41  17  18  1   
 42  17  40  1   
 43  17  41  1   
 44  18  42  1   
 45  18  43  1   
 46  19  44  1   
 47  19  45  1   
@<TRIPOS>SUBSTRUCTURE
  1 ****   9 GROUP 4 **** **** 0

# MOE 2024.06 (io_trps.svl 2023.06)
