@<TRIPOS>MOLECULE
NONAME
30 31 1 0 0 
SMALL
USER_CHARGES


@<TRIPOS>ATOM
  1 BR      -2.4190     0.5600    -3.8690 Br    1 <1>  -0.0580 
  2 C       -2.7790     0.6030    -1.9780 C.2   1 <1>   0.1980 
  3 O       -3.7720    -0.1290    -1.5280 O.3   1 <1>  -0.2800 
  4 C       -2.1460     1.2960    -1.0130 C.2   1 <1>  -0.1500 
  5 C       -3.8080     0.0790    -0.2200 C.2   1 <1>  -0.0400 
  6 C       -2.8340     0.9450     0.1580 C.2   1 <1>  -0.1500 
  7 C       -4.8660    -0.6320     0.6120 C.3   1 <1>   0.2900 
  8 N       -6.2350    -0.3100     0.1500 N.3   1 <1>  -0.8100 
  9 C       -6.5310     1.1380     0.1710 C.3   1 <1>   0.1100 
 10 C       -7.2620    -1.0950     0.8560 C.3   1 <1>   0.1100 
 11 C       -7.9230     1.4250    -0.4250 C.3   1 <1>   0.3430 
 12 C       -8.6630    -0.8290     0.2670 C.3   1 <1>   0.3430 
 13 N       -9.0040     0.6380     0.2700 N.4   1 <1>  -0.9590 
 14 C      -10.3350     0.8840    -0.3590 C.3   1 <1>   0.2630 
 15 H       -1.3090     1.9660    -1.0960 H     1 <1>   0.1500 
 16 H       -2.6010     1.3110     1.1420 H     1 <1>   0.1500 
 17 H       -4.7520    -0.3580     1.6470 H     1 <1>   0.0800 
 18 H       -4.7020    -1.6930     0.5220 H     1 <1>   0.0800 
 19 H       -5.8030     1.6650    -0.4230 H     1 <1>   0.0800 
 20 H       -6.4740     1.5150     1.1770 H     1 <1>   0.0800 
 21 H       -7.2550    -0.8580     1.9060 H     1 <1>   0.0800 
 22 H       -7.0400    -2.1440     0.7500 H     1 <1>   0.0800 
 23 H       -7.9000     1.1630    -1.4700 H     1 <1>   0.0800 
 24 H       -8.1290     2.4800    -0.3510 H     1 <1>   0.0800 
 25 H       -9.3960    -1.3780     0.8340 H     1 <1>   0.0800 
 26 H       -8.6770    -1.2010    -0.7440 H     1 <1>   0.0800 
 27 H       -9.0270     0.9490     1.2510 H     1 <1>   0.4500 
 28 H      -10.3250     0.5650    -1.3890 H     1 <1>   0.0800 
 29 H      -10.5760     1.9340    -0.3260 H     1 <1>   0.0800 
 30 H      -11.1030     0.3390     0.1640 H     1 <1>   0.0800 
@<TRIPOS>BOND
  1   1   2  1   
  2   2   3  1   
  3   2   4  2   
  4   3   5  1   
  5   4   6  1   
  6   4  15  1   
  7   5   6  2   
  8   5   7  1   
  9   6  16  1   
 10   7   8  1   
 11   7  17  1   
 12   7  18  1   
 13   8   9  1   
 14   8  10  1   
 15   9  11  1   
 16   9  19  1   
 17   9  20  1   
 18  10  12  1   
 19  10  21  1   
 20  10  22  1   
 21  11  13  1   
 22  11  23  1   
 23  11  24  1   
 24  12  13  1   
 25  12  25  1   
 26  12  26  1   
 27  13  14  1   
 28  13  27  1   
 29  14  28  1   
 30  14  29  1   
 31  14  30  1   
@<TRIPOS>SUBSTRUCTURE
  1 ****   8 GROUP 4 **** **** 0

# MOE 2024.06 (io_trps.svl 2023.06)
