@<TRIPOS>MOLECULE
NONAME
43 44 1 0 0 
SMALL
USER_CHARGES


@<TRIPOS>ATOM
  1 O       -1.5720    -1.4470     2.3830 O.2   1 <1>  -0.5700 
  2 C       -1.2310    -1.9270     1.3450 C.2   1 <1>   0.4480 
  3 C       -2.2320    -2.2950     0.2700 C.3   1 <1>   0.1030 
  4 C        0.2440    -2.1830     1.0690 C.3   1 <1>  -0.0990 
  5 C       -1.5350    -2.2970    -1.0710 C.2   1 <1>   0.4480 
  6 C       -3.3820    -1.3170     0.2590 C.2   1 <1>   0.3290 
  7 C        0.4900    -3.3680     0.1120 C.3   1 <1>   0.0000 
  8 O       -1.9090    -1.6240    -1.9850 O.2   1 <1>  -0.5700 
  9 C       -0.2890    -3.1600    -1.2110 C.3   1 <1>  -0.0990 
 10 N       -4.6000    -1.6660     0.3460 N.2   1 <1>  -0.5030 
 11 C        0.0760    -4.6910     0.7850 C.3   1 <1>  -0.2400 
 12 C        1.9940    -3.4610    -0.1930 C.3   1 <1>  -0.2400 
 13 N       -5.5810    -0.7240     0.2760 N.pl3 1 <1>  -0.4870 
 14 C       -6.8710    -1.1650     0.8620 C.3   1 <1>   0.1100 
 15 C       -5.7100     0.0080    -1.0190 C.3   1 <1>   0.1100 
 16 C       -7.8570     0.0080     0.9670 C.3   1 <1>   0.3430 
 17 C       -6.7180     1.1630    -0.9010 C.3   1 <1>   0.3430 
 18 N       -8.0440     0.7030    -0.3560 N.4   1 <1>  -0.9590 
 19 C       -9.0060     1.8380    -0.2400 C.3   1 <1>   0.2630 
 20 H       -2.6210    -3.2740     0.4650 H     1 <1>   0.0800 
 21 H        0.7440    -2.3540     2.0060 H     1 <1>   0.0800 
 22 H        0.6590    -1.2840     0.6470 H     1 <1>   0.0800 
 23 H       -3.0760    -0.2900     0.1570 H     1 <1>   0.0600 
 24 H        0.3430    -2.6680    -1.9290 H     1 <1>   0.0800 
 25 H       -0.5650    -4.1060    -1.6410 H     1 <1>   0.0800 
 26 H       -0.9710    -4.7250     1.0190 H     1 <1>   0.0800 
 27 H        0.6210    -4.8310     1.7030 H     1 <1>   0.0800 
 28 H        0.2970    -5.5260     0.1430 H     1 <1>   0.0800 
 29 H        2.3530    -2.5520    -0.6450 H     1 <1>   0.0800 
 30 H        2.1950    -4.2740    -0.8680 H     1 <1>   0.0800 
 31 H        2.5560    -3.6280     0.7100 H     1 <1>   0.0800 
 32 H       -6.6860    -1.5660     1.8440 H     1 <1>   0.0800 
 33 H       -7.2870    -1.9510     0.2570 H     1 <1>   0.0800 
 34 H       -6.0230    -0.6810    -1.7840 H     1 <1>   0.0800 
 35 H       -4.7520     0.4050    -1.3080 H     1 <1>   0.0800 
 36 H       -7.4760     0.7070     1.6940 H     1 <1>   0.0800 
 37 H       -8.8040    -0.3610     1.3270 H     1 <1>   0.0800 
 38 H       -6.8540     1.6100    -1.8720 H     1 <1>   0.0800 
 39 H       -6.2990     1.9110    -0.2480 H     1 <1>   0.0800 
 40 H       -8.4190     0.0050    -1.0150 H     1 <1>   0.4500 
 41 H       -8.6310     2.5790     0.4470 H     1 <1>   0.0800 
 42 H       -9.9600     1.4860     0.1190 H     1 <1>   0.0800 
 43 H       -9.1540     2.3040    -1.2020 H     1 <1>   0.0800 
@<TRIPOS>BOND
  1   1   2  2   
  2   2   3  1   
  3   2   4  1   
  4   3   5  1   
  5   3   6  1   
  6   3  20  1   
  7   4   7  1   
  8   4  21  1   
  9   4  22  1   
 10   5   8  2   
 11   5   9  1   
 12   6  10  2   
 13   6  23  1   
 14   7   9  1   
 15   7  11  1   
 16   7  12  1   
 17   9  24  1   
 18   9  25  1   
 19  10  13  1   
 20  11  26  1   
 21  11  27  1   
 22  11  28  1   
 23  12  29  1   
 24  12  30  1   
 25  12  31  1   
 26  13  14  1   
 27  13  15  1   
 28  14  16  1   
 29  14  32  1   
 30  14  33  1   
 31  15  17  1   
 32  15  34  1   
 33  15  35  1   
 34  16  18  1   
 35  16  36  1   
 36  16  37  1   
 37  17  18  1   
 38  17  38  1   
 39  17  39  1   
 40  18  19  1   
 41  18  40  1   
 42  19  41  1   
 43  19  42  1   
 44  19  43  1   
@<TRIPOS>SUBSTRUCTURE
  1 ****   6 GROUP 4 **** **** 0

# MOE 2024.06 (io_trps.svl 2023.06)
