@<TRIPOS>MOLECULE
NONAME
42 43 1 0 0 
SMALL
USER_CHARGES


@<TRIPOS>ATOM
  1 O        0.8870    -2.8780     2.3380 O.2   1 <1>  -0.5700 
  2 C        0.2320    -2.4940     1.3990 C.2   1 <1>   0.5690 
  3 N        0.7440    -1.6650     0.4510 N.am  1 <1>  -0.7300 
  4 C       -1.2150    -2.9590     1.2840 C.3   1 <1>   0.1810 
  5 C        2.1100    -1.1280     0.4150 C.3   1 <1>   0.2200 
  6 O       -1.8490    -2.4220     0.1290 O.3   1 <1>  -0.3630 
  7 C        2.0430     0.4010     0.4760 C.3   1 <1>  -0.1600 
  8 C        2.7950    -1.6040    -0.8700 C.3   1 <1>  -0.1600 
  9 C       -3.1420    -2.7120    -0.1600 C.ar  1 <1>   0.0820 
 10 C        3.4390     1.0250     0.3320 C.3   1 <1>  -0.1600 
 11 C        4.1930    -0.9840    -1.0170 C.3   1 <1>  -0.1600 
 12 C       -3.9470    -3.5380     0.6190 C.ar  1 <1>  -0.1500 
 13 C       -3.6680    -2.1400    -1.3050 C.ar  1 <1>  -0.1500 
 14 C        4.1300     0.5480    -0.9530 C.3   1 <1>  -0.1600 
 15 C       -5.2630    -3.7880     0.2570 C.ar  1 <1>  -0.1440 
 16 C       -4.9780    -2.3870    -1.6700 C.ar  1 <1>  -0.1500 
 17 C       -5.7830    -3.2090    -0.8960 C.ar  1 <1>  -0.1440 
 18 C       -6.1110    -4.6970     1.1360 C.3   1 <1>  -0.0970 
 19 C       -7.2210    -3.4540    -1.3330 C.3   1 <1>  -0.0970 
 20 H        0.1270    -1.3830    -0.3140 H     1 <1>   0.3700 
 21 H       -1.7590    -2.6350     2.1510 H     1 <1>   0.0800 
 22 H       -1.2350    -4.0310     1.2140 H     1 <1>   0.0800 
 23 H        2.6650    -1.4910     1.2650 H     1 <1>   0.0800 
 24 H        1.6160     0.6990     1.4180 H     1 <1>   0.0800 
 25 H        1.4130     0.7660    -0.3160 H     1 <1>   0.0800 
 26 H        2.1980    -1.3260    -1.7210 H     1 <1>   0.0800 
 27 H        2.8820    -2.6760    -0.8490 H     1 <1>   0.0800 
 28 H        4.0400     0.7510     1.1820 H     1 <1>   0.0800 
 29 H        3.3550     2.0980     0.3210 H     1 <1>   0.0800 
 30 H        4.6260    -1.2890    -1.9540 H     1 <1>   0.0800 
 31 H        4.8280    -1.3470    -0.2270 H     1 <1>   0.0800 
 32 H       -3.5640    -3.9930     1.5110 H     1 <1>   0.1500 
 33 H       -3.0480    -1.5030    -1.9080 H     1 <1>   0.1500 
 34 H        5.1270     0.9520    -0.9970 H     1 <1>   0.0800 
 35 H        3.5880     0.9190    -1.8070 H     1 <1>   0.0800 
 36 H       -5.3660    -1.9320    -2.5640 H     1 <1>   0.1500 
 37 H       -5.5520    -5.0550     1.9810 H     1 <1>   0.0800 
 38 H       -6.4470    -5.5470     0.5700 H     1 <1>   0.0800 
 39 H       -6.9670    -4.1590     1.5030 H     1 <1>   0.0800 
 40 H       -7.3790    -4.5030    -1.5040 H     1 <1>   0.0800 
 41 H       -7.4430    -2.9270    -2.2430 H     1 <1>   0.0800 
 42 H       -7.9000    -3.1150    -0.5720 H     1 <1>   0.0800 
@<TRIPOS>BOND
  1   1   2  2   
  2   2   3  am  
  3   2   4  1   
  4   3   5  1   
  5   3  20  1   
  6   4   6  1   
  7   4  21  1   
  8   4  22  1   
  9   5   7  1   
 10   5   8  1   
 11   5  23  1   
 12   6   9  1   
 13   7  10  1   
 14   7  24  1   
 15   7  25  1   
 16   8  11  1   
 17   8  26  1   
 18   8  27  1   
 19   9  12  ar  
 20   9  13  ar  
 21  10  14  1   
 22  10  28  1   
 23  10  29  1   
 24  11  14  1   
 25  11  30  1   
 26  11  31  1   
 27  12  15  ar  
 28  12  32  1   
 29  13  16  ar  
 30  13  33  1   
 31  14  34  1   
 32  14  35  1   
 33  15  17  ar  
 34  15  18  1   
 35  16  17  ar  
 36  16  36  1   
 37  17  19  1   
 38  18  37  1   
 39  18  38  1   
 40  18  39  1   
 41  19  40  1   
 42  19  41  1   
 43  19  42  1   
@<TRIPOS>SUBSTRUCTURE
  1 ****   6 GROUP 4 **** **** 0

# MOE 2024.06 (io_trps.svl 2023.06)
