@<TRIPOS>MOLECULE
NONAME
33 36 1 0 0 
SMALL
USER_CHARGES


@<TRIPOS>ATOM
  1 BR      -0.1000     0.3860     0.8020 Br    1 <1>  -0.1110 
  2 C       -1.6410    -0.5260     0.0980 C.ar  1 <1>   0.1110 
  3 C       -2.8790     0.0720     0.2210 C.ar  1 <1>  -0.1500 
  4 C       -1.4650    -1.7540    -0.5090 C.ar  1 <1>  -0.1500 
  5 C       -4.0030    -0.5770    -0.2810 C.ar  1 <1>   0.1170 
  6 C       -2.5790    -2.4030    -1.0110 C.ar  1 <1>  -0.1500 
  7 N       -5.2870     0.0060    -0.1700 N.am  1 <1>  -0.2370 
  8 C       -3.8310    -1.8180    -0.8960 C.ar  1 <1>  -0.1500 
  9 C       -6.4760    -0.6750     0.0480 C.2   1 <1>   0.5690 
 10 C       -5.5760     1.3630    -0.2460 C.2   1 <1>   0.5690 
 11 O       -6.6500    -1.8200     0.3810 O.2   1 <1>  -0.5700 
 12 C       -7.5890     0.2740    -0.2520 C.3   1 <1>  -0.0190 
 13 O       -4.8740     2.2580    -0.6370 O.2   1 <1>  -0.5700 
 14 C       -6.9590     1.5460     0.2960 C.3   1 <1>  -0.0190 
 15 C       -9.0580     0.4860     0.1530 C.3   1 <1>   0.4180 
 16 C       -8.1840     2.4550     0.3520 C.3   1 <1>   0.3380 
 17 O       -8.9660     1.5420     1.0640 O.3   1 <1>  -0.5600 
 18 C       -9.6280     1.3030    -0.9920 C.2   1 <1>  -0.2880 
 19 C       -9.8560    -0.7240     0.6750 C.3   1 <1>   0.1200 
 20 C       -9.0400     2.4950    -0.9040 C.2   1 <1>  -0.2880 
 21 O       -9.1690    -1.4200     1.6740 O.3   1 <1>  -0.6800 
 22 H       -2.9570     1.0310     0.7000 H     1 <1>   0.1500 
 23 H       -0.4830    -2.1870    -0.5860 H     1 <1>   0.1500 
 24 H       -2.4730    -3.3620    -1.4880 H     1 <1>   0.1500 
 25 H       -4.6840    -2.3430    -1.2900 H     1 <1>   0.1500 
 26 H       -7.5790     0.2850    -1.3310 H     1 <1>   0.0800 
 27 H       -6.7520     1.4220     1.3500 H     1 <1>   0.0800 
 28 H       -8.0910     3.3730     0.9070 H     1 <1>   0.0800 
 29 H      -10.3270     0.8850    -1.6950 H     1 <1>   0.1500 
 30 H      -10.0480    -1.4130    -0.1270 H     1 <1>   0.0800 
 31 H      -10.7950    -0.3920     1.0820 H     1 <1>   0.0800 
 32 H       -9.0940     3.3810    -1.5130 H     1 <1>   0.1500 
 33 H       -8.3330    -1.8190     1.3310 H     1 <1>   0.4000 
@<TRIPOS>BOND
  1   1   2  1   
  2   2   3  ar  
  3   2   4  ar  
  4   3   5  ar  
  5   3  22  1   
  6   4   6  ar  
  7   4  23  1   
  8   5   7  1   
  9   5   8  ar  
 10   6   8  ar  
 11   6  24  1   
 12   7   9  am  
 13   7  10  am  
 14   8  25  1   
 15   9  11  2   
 16   9  12  1   
 17  10  13  2   
 18  10  14  1   
 19  12  14  1   
 20  12  15  1   
 21  12  26  1   
 22  14  16  1   
 23  14  27  1   
 24  15  17  1   
 25  15  18  1   
 26  15  19  1   
 27  16  17  1   
 28  16  20  1   
 29  16  28  1   
 30  18  20  2   
 31  18  29  1   
 32  19  21  1   
 33  19  30  1   
 34  19  31  1   
 35  20  32  1   
 36  21  33  1   
@<TRIPOS>SUBSTRUCTURE
  1 ****   7 GROUP 4 **** **** 0

# MOE 2024.06 (io_trps.svl 2023.06)
