@<TRIPOS>MOLECULE
NONAME
50 53 1 0 0 
SMALL
USER_CHARGES


@<TRIPOS>ATOM
  1 O        0.7750    -0.9180    -2.1110 O.2   1 <1>  -0.5700 
  2 C        0.8480    -1.5660    -1.0910 C.2   1 <1>   0.4950 
  3 C        1.8990    -1.4400    -0.1380 C.2   1 <1>  -0.1240 
  4 C       -0.2820    -2.5470    -0.8270 C.3   1 <1>  -0.0990 
  5 C        1.9590    -2.2050     0.9830 C.2   1 <1>  -0.0380 
  6 C        2.8760    -0.2950    -0.4310 C.3   1 <1>   0.5020 
  7 C        0.1500    -3.7360     0.0510 C.3   1 <1>   0.0000 
  8 N        2.9880    -2.1810     1.8800 N.pl3 1 <1>  -0.6000 
  9 C        0.8580    -3.2060     1.3150 C.3   1 <1>  -0.0220 
 10 N        4.3380    -0.4400    -0.0940 N.am  1 <1>  -0.4770 
 11 C        2.2870     0.9350     0.2640 C.ar  1 <1>  -0.1430 
 12 C       -1.0890    -4.5510     0.4550 C.3   1 <1>  -0.2400 
 13 C        1.0990    -4.6590    -0.7380 C.3   1 <1>  -0.2400 
 14 C        4.2860    -2.4180     1.4270 C.ar  1 <1>   0.1000 
 15 C        4.8880    -1.6530     0.4140 C.ar  1 <1>   0.1170 
 16 C        5.1580     0.6610    -0.2730 C.2   1 <1>   0.5690 
 17 C        1.4290     1.7770    -0.4310 C.ar  1 <1>   0.1600 
 18 C        2.5790     1.2340     1.5830 C.ar  1 <1>  -0.1500 
 19 C        4.9520    -3.5140     1.9590 C.ar  1 <1>  -0.1500 
 20 C        6.1150    -2.0900    -0.0800 C.ar  1 <1>  -0.1500 
 21 O        6.2030     0.7940     0.3180 O.2   1 <1>  -0.5700 
 22 C        4.8250     1.7710    -1.2540 C.3   1 <1>  -0.1790 
 23 N        0.8710     2.8700     0.0650 N.ar  1 <1>  -0.6200 
 24 C        2.0030     2.3660     2.1160 C.ar  1 <1>  -0.1500 
 25 C        6.1840    -3.9070     1.4720 C.ar  1 <1>  -0.1500 
 26 C        6.7620    -3.1980     0.4370 C.ar  1 <1>  -0.1500 
 27 C        1.1710     3.1390     1.3250 C.ar  1 <1>   0.1600 
 28 H       -0.6620    -2.9050    -1.7680 H     1 <1>   0.0800 
 29 H       -1.0720    -2.0030    -0.3440 H     1 <1>   0.0800 
 30 H        2.8590    -0.1210    -1.4910 H     1 <1>   0.0800 
 31 H        2.8060    -2.5460     2.8190 H     1 <1>   0.4000 
 32 H        0.1460    -2.7200     1.9600 H     1 <1>   0.0800 
 33 H        1.2720    -4.0390     1.8560 H     1 <1>   0.0800 
 34 H       -1.7830    -3.9440     1.0090 H     1 <1>   0.0800 
 35 H       -0.8080    -5.3890     1.0690 H     1 <1>   0.0800 
 36 H       -1.5940    -4.9280    -0.4180 H     1 <1>   0.0800 
 37 H        1.9960    -4.1450    -1.0330 H     1 <1>   0.0800 
 38 H        0.6170    -5.0280    -1.6260 H     1 <1>   0.0800 
 39 H        1.3870    -5.5050    -0.1380 H     1 <1>   0.0800 
 40 H        1.1840     1.5450    -1.4550 H     1 <1>   0.1500 
 41 H        3.2330     0.6110     2.1710 H     1 <1>   0.1500 
 42 H        4.4990    -4.0830     2.7490 H     1 <1>   0.1500 
 43 H        6.5920    -1.5430    -0.8730 H     1 <1>   0.1500 
 44 H        5.7360     2.2460    -1.5680 H     1 <1>   0.0800 
 45 H        4.2130     2.5130    -0.7780 H     1 <1>   0.0800 
 46 H        4.3340     1.3890    -2.1280 H     1 <1>   0.0800 
 47 H        2.1990     2.6490     3.1340 H     1 <1>   0.1500 
 48 H        6.6880    -4.7620     1.8890 H     1 <1>   0.1500 
 49 H        7.7160    -3.4990     0.0410 H     1 <1>   0.1500 
 50 H        0.7280     4.0230     1.7520 H     1 <1>   0.1500 
@<TRIPOS>BOND
  1   1   2  2   
  2   2   3  1   
  3   2   4  1   
  4   3   5  2   
  5   3   6  1   
  6   4   7  1   
  7   4  28  1   
  8   4  29  1   
  9   5   8  1   
 10   5   9  1   
 11   6  10  1   
 12   6  11  1   
 13   6  30  1   
 14   7   9  1   
 15   7  12  1   
 16   7  13  1   
 17   8  14  1   
 18   8  31  1   
 19   9  32  1   
 20   9  33  1   
 21  10  15  1   
 22  10  16  am  
 23  11  17  ar  
 24  11  18  ar  
 25  12  34  1   
 26  12  35  1   
 27  12  36  1   
 28  13  37  1   
 29  13  38  1   
 30  13  39  1   
 31  14  15  ar  
 32  14  19  ar  
 33  15  20  ar  
 34  16  21  2   
 35  16  22  1   
 36  17  23  ar  
 37  17  40  1   
 38  18  24  ar  
 39  18  41  1   
 40  19  25  ar  
 41  19  42  1   
 42  20  26  ar  
 43  20  43  1   
 44  22  44  1   
 45  22  45  1   
 46  22  46  1   
 47  23  27  ar  
 48  24  27  ar  
 49  24  47  1   
 50  25  26  ar  
 51  25  48  1   
 52  26  49  1   
 53  27  50  1   
@<TRIPOS>SUBSTRUCTURE
  1 ****   6 GROUP 4 **** **** 0

# MOE 2024.06 (io_trps.svl 2023.06)
