@<TRIPOS>MOLECULE
NONAME
39 40 1 0 0 
SMALL
USER_CHARGES


@<TRIPOS>ATOM
  1 S        0.2540     1.5570    -0.1060 S.3   1 <1>  -0.4600 
  2 C       -0.5240     0.1080    -0.8810 C.3   1 <1>   0.2140 
  3 C        1.4270     2.1210    -1.3880 C.3   1 <1>   0.1310 
  4 C       -1.6510    -0.3780     0.0210 C.ar  1 <1>  -0.1440 
  5 C        2.4550     1.0440    -1.6970 C.2   1 <1>   0.5690 
  6 C       -1.4520    -1.3330     1.0150 C.ar  1 <1>  -0.1440 
  7 C       -2.9180     0.1540    -0.1680 C.ar  1 <1>  -0.1500 
  8 O        2.6950     0.7830    -2.8510 O.2   1 <1>  -0.5700 
  9 N        3.0630     0.4030    -0.6670 N.am  1 <1>  -0.7300 
 10 C       -2.5250    -1.7450     1.7910 C.ar  1 <1>  -0.1500 
 11 C       -0.0810    -1.9380     1.2790 C.3   1 <1>  -0.0970 
 12 C       -3.9820    -0.2600     0.6110 C.ar  1 <1>  -0.1500 
 13 C        4.1010    -0.6320    -0.7890 C.3   1 <1>   0.2200 
 14 C       -3.7860    -1.2140     1.5910 C.ar  1 <1>  -0.1500 
 15 C        3.6270    -1.8920    -0.0760 C.3   1 <1>  -0.1600 
 16 C        5.3170    -0.2050     0.0230 C.3   1 <1>  -0.1600 
 17 C        3.9210    -1.6670     1.4130 C.3   1 <1>  -0.1600 
 18 C        4.9990    -0.5770     1.4760 C.3   1 <1>  -0.1600 
 19 H        0.2360    -0.6390    -1.0230 H     1 <1>   0.0800 
 20 H       -0.9000     0.4200    -1.8390 H     1 <1>   0.0800 
 21 H        1.9100     3.0040    -1.0140 H     1 <1>   0.0800 
 22 H        0.8550     2.3610    -2.2650 H     1 <1>   0.0800 
 23 H       -3.0810     0.9010    -0.9250 H     1 <1>   0.1500 
 24 H        2.7710     0.6110     0.2900 H     1 <1>   0.3700 
 25 H       -2.3860    -2.4840     2.5600 H     1 <1>   0.1500 
 26 H        0.2050    -2.5700     0.4580 H     1 <1>   0.0800 
 27 H       -0.0870    -2.5290     2.1770 H     1 <1>   0.0800 
 28 H        0.6460    -1.1570     1.3980 H     1 <1>   0.0800 
 29 H       -4.9600     0.1600     0.4550 H     1 <1>   0.1500 
 30 H        4.3420    -0.8120    -1.8250 H     1 <1>   0.0800 
 31 H       -4.6110    -1.5400     2.2000 H     1 <1>   0.1500 
 32 H        4.2190    -2.7200    -0.4250 H     1 <1>   0.0800 
 33 H        2.5920    -2.1050    -0.2730 H     1 <1>   0.0800 
 34 H        5.5440     0.8390    -0.1010 H     1 <1>   0.0800 
 35 H        6.1640    -0.7810    -0.3060 H     1 <1>   0.0800 
 36 H        4.2560    -2.5780     1.8790 H     1 <1>   0.0800 
 37 H        3.0340    -1.3250     1.9180 H     1 <1>   0.0800 
 38 H        4.6140     0.2830     1.9980 H     1 <1>   0.0800 
 39 H        5.8820    -0.9240     1.9860 H     1 <1>   0.0800 
@<TRIPOS>BOND
  1   1   2  1   
  2   1   3  1   
  3   2   4  1   
  4   2  19  1   
  5   2  20  1   
  6   3   5  1   
  7   3  21  1   
  8   3  22  1   
  9   4   6  ar  
 10   4   7  ar  
 11   5   8  2   
 12   5   9  am  
 13   6  10  ar  
 14   6  11  1   
 15   7  12  ar  
 16   7  23  1   
 17   9  13  1   
 18   9  24  1   
 19  10  14  ar  
 20  10  25  1   
 21  11  26  1   
 22  11  27  1   
 23  11  28  1   
 24  12  14  ar  
 25  12  29  1   
 26  13  15  1   
 27  13  16  1   
 28  13  30  1   
 29  14  31  1   
 30  15  17  1   
 31  15  32  1   
 32  15  33  1   
 33  16  18  1   
 34  16  34  1   
 35  16  35  1   
 36  17  18  1   
 37  17  36  1   
 38  17  37  1   
 39  18  38  1   
 40  18  39  1   
@<TRIPOS>SUBSTRUCTURE
  1 ****   2 GROUP 4 **** **** 0

# MOE 2024.06 (io_trps.svl 2023.06)
