@<TRIPOS>MOLECULE
NONAME
40 40 1 0 0 
SMALL
USER_CHARGES


@<TRIPOS>ATOM
  1 S        0.0990     0.2950    -0.0290 S.o2  1 <1>   1.3330 
  2 O        1.3120     1.0410    -0.2620 O.2   1 <1>  -0.6500 
  3 O       -1.1680     0.7540    -0.5450 O.2   1 <1>  -0.6500 
  4 N        0.3260    -1.3270    -0.6050 N.am  1 <1>  -0.6930 
  5 C       -0.0850     0.0250     1.7200 C.3   1 <1>  -0.1350 
  6 C        1.4770    -2.0590    -0.3570 C.ar  1 <1>   0.1990 
  7 C       -0.8100    -1.9560    -1.3230 C.3   1 <1>   0.1160 
  8 C        2.7250    -1.6140    -0.7770 C.ar  1 <1>  -0.1500 
  9 C        1.4150    -3.2720     0.3200 C.ar  1 <1>  -0.1500 
 10 C        3.8690    -2.3440    -0.5170 C.ar  1 <1>  -0.1500 
 11 C        2.5590    -4.0010     0.5800 C.ar  1 <1>  -0.1500 
 12 C        3.8210    -3.5560     0.1780 C.ar  1 <1>   0.0860 
 13 C        5.0130    -4.3270     0.4730 C.2   1 <1>   0.5440 
 14 O        4.9450    -5.5240     0.6810 O.2   1 <1>  -0.5700 
 15 N        6.2400    -3.7250     0.5470 N.am  1 <1>  -0.7300 
 16 C        7.5130    -4.4270     0.8060 C.3   1 <1>   0.1400 
 17 C        8.6360    -3.7180     0.0530 C.3   1 <1>  -0.1600 
 18 C        9.9650    -4.4390     0.2610 C.3   1 <1>   0.1200 
 19 O       10.9430    -3.7170    -0.4100 O.3   1 <1>  -0.5600 
 20 C       12.2150    -4.2730    -0.3250 C.3   1 <1>   0.0400 
 21 H       -0.2510     0.9590     2.2190 H     1 <1>   0.0800 
 22 H        0.8020    -0.4260     2.1190 H     1 <1>   0.0800 
 23 H       -0.9190    -0.6210     1.9090 H     1 <1>   0.0800 
 24 H       -1.0850    -1.3450    -2.1660 H     1 <1>   0.0800 
 25 H       -1.6570    -2.0420    -0.6650 H     1 <1>   0.0800 
 26 H       -0.5350    -2.9340    -1.6810 H     1 <1>   0.0800 
 27 H        2.7940    -0.6870    -1.3190 H     1 <1>   0.1500 
 28 H        0.4610    -3.6420     0.6490 H     1 <1>   0.1500 
 29 H        4.8130    -1.9690    -0.8690 H     1 <1>   0.1500 
 30 H        2.4870    -4.9380     1.1060 H     1 <1>   0.1500 
 31 H        6.3000    -2.7080     0.5040 H     1 <1>   0.3700 
 32 H        7.4350    -5.4500     0.4760 H     1 <1>   0.0800 
 33 H        7.7100    -4.4220     1.8650 H     1 <1>   0.0800 
 34 H        8.7280    -2.7080     0.4120 H     1 <1>   0.0800 
 35 H        8.4090    -3.7070    -0.9980 H     1 <1>   0.0800 
 36 H        9.9260    -5.4350    -0.1470 H     1 <1>   0.0800 
 37 H       10.2220    -4.4760     1.3060 H     1 <1>   0.0800 
 38 H       12.8920    -3.6420    -0.8730 H     1 <1>   0.0800 
 39 H       12.2030    -5.2570    -0.7620 H     1 <1>   0.0800 
 40 H       12.5150    -4.3180     0.7070 H     1 <1>   0.0800 
@<TRIPOS>BOND
  1   1   2  2   
  2   1   3  2   
  3   1   4  am  
  4   1   5  1   
  5   4   6  1   
  6   4   7  1   
  7   5  21  1   
  8   5  22  1   
  9   5  23  1   
 10   6   8  ar  
 11   6   9  ar  
 12   7  24  1   
 13   7  25  1   
 14   7  26  1   
 15   8  10  ar  
 16   8  27  1   
 17   9  11  ar  
 18   9  28  1   
 19  10  12  ar  
 20  10  29  1   
 21  11  12  ar  
 22  11  30  1   
 23  12  13  1   
 24  13  14  2   
 25  13  15  am  
 26  15  16  1   
 27  15  31  1   
 28  16  17  1   
 29  16  32  1   
 30  16  33  1   
 31  17  18  1   
 32  17  34  1   
 33  17  35  1   
 34  18  19  1   
 35  18  36  1   
 36  18  37  1   
 37  19  20  1   
 38  20  38  1   
 39  20  39  1   
 40  20  40  1   
@<TRIPOS>SUBSTRUCTURE
  1 ****  10 GROUP 4 **** **** 0

# MOE 2024.06 (io_trps.svl 2023.06)
