@<TRIPOS>MOLECULE
NONAME
28 28 1 0 0 
SMALL
USER_CHARGES


@<TRIPOS>ATOM
  1 S        0.0130    -0.2840    -0.5850 S.3   1 <1>  -0.0800 
  2 C        1.1310     1.0580    -0.6090 C.2   1 <1>   0.0960 
  3 C       -1.3080     0.7700    -0.1250 C.2   1 <1>  -0.1400 
  4 S        2.8060     0.5540    -0.9930 S.3   1 <1>  -0.2860 
  5 C        0.5290     2.2450    -0.3200 C.2   1 <1>  -0.0860 
  6 C       -0.8730     2.0410    -0.0300 C.2   1 <1>  -0.1500 
  7 C       -2.6580     0.1050     0.0780 C.3   1 <1>   0.0200 
  8 C        3.9290     1.6900    -0.0700 C.3   1 <1>   0.0700 
  9 C        1.0950     3.5720    -0.3090 C.2   1 <1>   0.8060 
 10 C       -3.7440     1.1090     0.4780 C.3   1 <1>  -0.2400 
 11 C        5.1540     0.8860     0.3620 C.3   1 <1>  -0.2400 
 12 O        2.1310     3.8800    -0.8600 O.2   1 <1>  -0.5700 
 13 O        0.4190     4.5240     0.3460 O.3   1 <1>  -0.4300 
 14 C        0.8720     5.8630     0.4050 C.3   1 <1>   0.0400 
 15 H       -1.4990     2.8750     0.2380 H     1 <1>   0.1500 
 16 H       -2.5660    -0.6440     0.8450 H     1 <1>   0.0800 
 17 H       -2.9460    -0.3870    -0.8340 H     1 <1>   0.0800 
 18 H        3.3870     2.0700     0.7770 H     1 <1>   0.0800 
 19 H        4.1980     2.4890    -0.7380 H     1 <1>   0.0800 
 20 H       -3.4800     1.5950     1.4010 H     1 <1>   0.0800 
 21 H       -4.6820     0.6000     0.6130 H     1 <1>   0.0800 
 22 H       -3.8630     1.8530    -0.2890 H     1 <1>   0.0800 
 23 H        4.8560     0.0720     0.9990 H     1 <1>   0.0800 
 24 H        5.8340     1.5190     0.9030 H     1 <1>   0.0800 
 25 H        5.6590     0.4920    -0.5010 H     1 <1>   0.0800 
 26 H        0.1670     6.4370     0.9790 H     1 <1>   0.0800 
 27 H        0.9400     6.2530    -0.5960 H     1 <1>   0.0800 
 28 H        1.8390     5.8840     0.8790 H     1 <1>   0.0800 
@<TRIPOS>BOND
  1   1   2  1   
  2   1   3  1   
  3   2   4  1   
  4   2   5  2   
  5   3   6  2   
  6   3   7  1   
  7   4   8  1   
  8   5   6  1   
  9   5   9  1   
 10   6  15  1   
 11   7  10  1   
 12   7  16  1   
 13   7  17  1   
 14   8  11  1   
 15   8  18  1   
 16   8  19  1   
 17   9  12  2   
 18   9  13  1   
 19  10  20  1   
 20  10  21  1   
 21  10  22  1   
 22  11  23  1   
 23  11  24  1   
 24  11  25  1   
 25  13  14  1   
 26  14  26  1   
 27  14  27  1   
 28  14  28  1   
@<TRIPOS>SUBSTRUCTURE
  1 ****   5 GROUP 4 **** **** 0

# MOE 2024.06 (io_trps.svl 2023.06)
