@<TRIPOS>MOLECULE
NONAME
47 48 1 0 0 
SMALL
USER_CHARGES


@<TRIPOS>ATOM
  1 O        0.2860     0.5510     0.6720 O.2   1 <1>  -0.5700 
  2 C        0.7570     1.6410     0.4100 C.2   1 <1>   0.7800 
  3 O        2.0180     1.7310    -0.0150 O.3   1 <1>  -0.4300 
  4 N        0.0390     2.8000     0.5280 N.am  1 <1>  -0.6600 
  5 C        2.8170     0.5790    -0.1550 C.3   1 <1>   0.1200 
  6 C        0.5650     4.1460     0.1450 C.3   1 <1>   0.1400 
  7 C       -1.3860     2.8070     0.9700 C.3   1 <1>   0.1400 
  8 C        4.1910     1.0130    -0.6570 C.3   1 <1>  -0.2400 
  9 C       -0.3320     4.7900    -0.9210 C.3   1 <1>   0.1400 
 10 C       -2.2880     3.4680    -0.0860 C.3   1 <1>   0.1400 
 11 N       -1.7600     4.8140    -0.4740 N.am  1 <1>  -0.6600 
 12 C       -2.4060     5.9980    -0.1820 C.2   1 <1>   0.5440 
 13 O       -1.7430     7.0130    -0.0750 O.2   1 <1>  -0.5700 
 14 C       -3.8420     6.0620     0.0160 C.ar  1 <1>   0.0860 
 15 C       -4.3840     6.7150     1.1230 C.ar  1 <1>  -0.1500 
 16 C       -4.7330     5.4850    -0.8910 C.ar  1 <1>  -0.1500 
 17 C       -5.7500     6.7720     1.3260 C.ar  1 <1>  -0.1500 
 18 C       -6.1020     5.5390    -0.6960 C.ar  1 <1>  -0.1500 
 19 C       -6.6210     6.1840     0.4230 C.ar  1 <1>   0.0820 
 20 O       -7.9420     6.2820     0.6930 O.3   1 <1>  -0.3630 
 21 C       -8.9210     5.7710    -0.1820 C.3   1 <1>   0.1200 
 22 C      -10.2970     6.0720     0.4110 C.3   1 <1>  -0.1600 
 23 C      -11.4210     5.5450    -0.4870 C.3   1 <1>  -0.2400 
 24 H        2.3400    -0.0840    -0.8580 H     1 <1>   0.0800 
 25 H        2.8900     0.0970     0.8050 H     1 <1>   0.0800 
 26 H        1.5690     4.0740    -0.2340 H     1 <1>   0.0800 
 27 H        0.5860     4.7780     1.0160 H     1 <1>   0.0800 
 28 H       -1.4630     3.3530     1.8940 H     1 <1>   0.0800 
 29 H       -1.7310     1.8030     1.1520 H     1 <1>   0.0800 
 30 H        4.0990     1.5020    -1.6100 H     1 <1>   0.0800 
 31 H        4.8230     0.1520    -0.7720 H     1 <1>   0.0800 
 32 H        4.6480     1.6830     0.0500 H     1 <1>   0.0800 
 33 H       -0.2580     4.2260    -1.8340 H     1 <1>   0.0800 
 34 H        0.0190     5.7870    -1.1260 H     1 <1>   0.0800 
 35 H       -3.2830     3.5470     0.3140 H     1 <1>   0.0800 
 36 H       -2.3300     2.8400    -0.9580 H     1 <1>   0.0800 
 37 H       -3.7170     7.1830     1.8260 H     1 <1>   0.1500 
 38 H       -4.3380     4.9930    -1.7620 H     1 <1>   0.1500 
 39 H       -6.1530     7.2770     2.1850 H     1 <1>   0.1500 
 40 H       -6.7470     5.0790    -1.4200 H     1 <1>   0.1500 
 41 H       -8.7710     4.7090    -0.2760 H     1 <1>   0.0800 
 42 H       -8.8050     6.2520    -1.1380 H     1 <1>   0.0800 
 43 H      -10.4050     7.1370     0.5270 H     1 <1>   0.0800 
 44 H      -10.3720     5.6120     1.3810 H     1 <1>   0.0800 
 45 H      -11.3760     6.0050    -1.4580 H     1 <1>   0.0800 
 46 H      -12.3770     5.7700    -0.0470 H     1 <1>   0.0800 
 47 H      -11.3420     4.4780    -0.6030 H     1 <1>   0.0800 
@<TRIPOS>BOND
  1   1   2  2   
  2   2   3  1   
  3   2   4  am  
  4   3   5  1   
  5   4   6  1   
  6   4   7  1   
  7   5   8  1   
  8   5  24  1   
  9   5  25  1   
 10   6   9  1   
 11   6  26  1   
 12   6  27  1   
 13   7  10  1   
 14   7  28  1   
 15   7  29  1   
 16   8  30  1   
 17   8  31  1   
 18   8  32  1   
 19   9  11  1   
 20   9  33  1   
 21   9  34  1   
 22  10  11  1   
 23  10  35  1   
 24  10  36  1   
 25  11  12  am  
 26  12  13  2   
 27  12  14  1   
 28  14  15  ar  
 29  14  16  ar  
 30  15  17  ar  
 31  15  37  1   
 32  16  18  ar  
 33  16  38  1   
 34  17  19  ar  
 35  17  39  1   
 36  18  19  ar  
 37  18  40  1   
 38  19  20  1   
 39  20  21  1   
 40  21  22  1   
 41  21  41  1   
 42  21  42  1   
 43  22  23  1   
 44  22  43  1   
 45  22  44  1   
 46  23  45  1   
 47  23  46  1   
 48  23  47  1   
@<TRIPOS>SUBSTRUCTURE
  1 ****  10 GROUP 4 **** **** 0

# MOE 2024.06 (io_trps.svl 2023.06)
