@<TRIPOS>MOLECULE
NONAME
54 57 1 0 0 
SMALL
USER_CHARGES


@<TRIPOS>ATOM
  1 O        1.2660     1.5940     1.2450 O.2   1 <1>  -0.5700 
  2 C        1.5760     2.5890     0.6360 C.2   1 <1>   0.5690 
  3 N        1.4360     2.6400    -0.7080 N.am  1 <1>  -0.4100 
  4 C        2.1410     3.7690     1.4120 C.3   1 <1>  -0.0990 
  5 N        1.7710     3.7420    -1.6010 N.pl3 1 <1>  -0.2200 
  6 C        1.0750     4.8250     1.7440 C.3   1 <1>  -0.2400 
  7 C        0.7580     4.6350    -2.0100 C.ar  1 <1>   0.1000 
  8 C        2.9900     3.7490    -2.2650 C.ar  1 <1>   0.1000 
  9 C        0.9940     6.0200    -2.0500 C.ar  1 <1>   0.3490 
 10 C       -0.4800     4.1510    -2.4150 C.ar  1 <1>  -0.1500 
 11 C        3.7460     4.9300    -2.3240 C.ar  1 <1>  -0.0220 
 12 C        3.4280     2.6140    -2.9440 C.ar  1 <1>  -0.1500 
 13 N        2.1930     6.5940    -1.5480 N.pl3 1 <1>  -0.6530 
 14 C        0.0060     6.8680    -2.5220 C.ar  1 <1>  -0.1500 
 15 C       -1.4630     5.0120    -2.8740 C.ar  1 <1>  -0.1500 
 16 C        3.4160     6.0690    -1.4970 C.cat 1 <1>   0.7310 
 17 C        4.8410     4.9630    -3.1970 C.ar  1 <1>  -0.1500 
 18 C        4.5480     2.6540    -3.7450 C.ar  1 <1>  -0.1500 
 19 C       -1.2200     6.3690    -2.9340 C.ar  1 <1>  -0.1500 
 20 N        4.3190     6.6060    -0.6490 N.pl3 1 <1>  -0.8330 
 21 C        5.2460     3.8410    -3.8900 C.ar  1 <1>  -0.1500 
 22 C        4.1310     7.8660     0.1710 C.3   1 <1>   0.3290 
 23 C        5.6750     5.9650    -0.3940 C.3   1 <1>   0.3290 
 24 C        4.4410     7.6550     1.6790 C.3   1 <1>   0.3430 
 25 C        5.9840     5.7770     1.1150 C.3   1 <1>   0.3430 
 26 N        5.7930     7.0310     1.9360 N.4   1 <1>  -0.9590 
 27 C        5.9790     6.7400     3.3980 C.3   1 <1>   0.2630 
 28 H        1.0440     1.7990    -1.1410 H     1 <1>   0.3700 
 29 H        2.9380     4.2110     0.8480 H     1 <1>   0.0800 
 30 H        2.5560     3.3910     2.3300 H     1 <1>   0.0800 
 31 H        0.6380     5.2240     0.8470 H     1 <1>   0.0800 
 32 H        1.4990     5.6270     2.3200 H     1 <1>   0.0800 
 33 H        0.2880     4.3720     2.3250 H     1 <1>   0.0800 
 34 H       -0.6830     3.0950    -2.3860 H     1 <1>   0.1500 
 35 H        2.8720     1.6960    -2.8660 H     1 <1>   0.1500 
 36 H        2.0320     7.4990    -1.1270 H     1 <1>   0.4500 
 37 H        0.1730     7.9290    -2.5750 H     1 <1>   0.1500 
 38 H       -2.4180     4.6200    -3.1880 H     1 <1>   0.1500 
 39 H        5.3910     5.8790    -3.3360 H     1 <1>   0.1500 
 40 H        4.8720     1.7720    -4.2740 H     1 <1>   0.1500 
 41 H       -1.9840     7.0360    -3.3000 H     1 <1>   0.1500 
 42 H        6.0990     3.8780    -4.5480 H     1 <1>   0.1500 
 43 H        3.1280     8.2440     0.0890 H     1 <1>   0.0800 
 44 H        4.7860     8.6320    -0.2120 H     1 <1>   0.0800 
 45 H        6.4440     6.5750    -0.8390 H     1 <1>   0.0800 
 46 H        5.7440     4.9900    -0.8430 H     1 <1>   0.0800 
 47 H        3.6730     7.0230     2.0940 H     1 <1>   0.0800 
 48 H        4.3820     8.6070     2.1850 H     1 <1>   0.0800 
 49 H        6.9990     5.4260     1.2210 H     1 <1>   0.0800 
 50 H        5.3370     5.0020     1.4930 H     1 <1>   0.0800 
 51 H        6.5260     7.7100     1.6710 H     1 <1>   0.4500 
 52 H        5.2430     6.0300     3.7410 H     1 <1>   0.0800 
 53 H        5.8800     7.6440     3.9780 H     1 <1>   0.0800 
 54 H        6.9600     6.3300     3.5780 H     1 <1>   0.0800 
@<TRIPOS>BOND
  1   1   2  2   
  2   2   3  am  
  3   2   4  1   
  4   3   5  1   
  5   3  28  1   
  6   4   6  1   
  7   4  29  1   
  8   4  30  1   
  9   5   7  1   
 10   5   8  1   
 11   6  31  1   
 12   6  32  1   
 13   6  33  1   
 14   7   9  ar  
 15   7  10  ar  
 16   8  11  ar  
 17   8  12  ar  
 18   9  13  1   
 19   9  14  ar  
 20  10  15  ar  
 21  10  34  1   
 22  11  16  1   
 23  11  17  ar  
 24  12  18  ar  
 25  12  35  1   
 26  13  16  ar  
 27  13  36  1   
 28  14  19  ar  
 29  14  37  1   
 30  15  19  ar  
 31  15  38  1   
 32  16  20  ar  
 33  17  21  ar  
 34  17  39  1   
 35  18  21  ar  
 36  18  40  1   
 37  19  41  1   
 38  20  22  1   
 39  20  23  1   
 40  21  42  1   
 41  22  24  1   
 42  22  43  1   
 43  22  44  1   
 44  23  25  1   
 45  23  45  1   
 46  23  46  1   
 47  24  26  1   
 48  24  47  1   
 49  24  48  1   
 50  25  26  1   
 51  25  49  1   
 52  25  50  1   
 53  26  27  1   
 54  26  51  1   
 55  27  52  1   
 56  27  53  1   
 57  27  54  1   
@<TRIPOS>SUBSTRUCTURE
  1 ****  16 GROUP 4 **** **** 0

# MOE 2024.06 (io_trps.svl 2023.06)
