@<TRIPOS>MOLECULE
NONAME
43 45 1 0 0 
SMALL
USER_CHARGES


@<TRIPOS>ATOM
  1 O        0.0670     1.1160    -1.4980 O.2   1 <1>  -0.5700 
  2 C       -0.0900     1.9800    -0.6580 C.2   1 <1>   0.7160 
  3 N       -1.3460     2.1780    -0.1270 N.am  1 <1>  -0.6600 
  4 C        1.0370     2.7650    -0.2280 C.2   1 <1>  -0.0860 
  5 C       -1.6100     2.9110     1.1500 C.3   1 <1>   0.1400 
  6 C       -2.5600     1.5250    -0.7050 C.3   1 <1>   0.1400 
  7 C        1.2630     4.0950    -0.2350 C.2   1 <1>  -0.0400 
  8 C        2.2180     2.2960     0.3230 C.2   1 <1>   0.1080 
  9 C       -2.7470     3.9290     0.9800 C.3   1 <1>   0.1400 
 10 C       -3.7060     2.5350    -0.8740 C.3   1 <1>   0.1400 
 11 O        2.4280     4.4050     0.2800 O.3   1 <1>  -0.0190 
 12 C        0.3900     5.2210    -0.7550 C.3   1 <1>  -0.0600 
 13 N        2.9960     3.2680     0.6150 N.2   1 <1>  -0.4100 
 14 C        2.5590     0.8380     0.5540 C.3   1 <1>  -0.0590 
 15 N       -3.9670     3.2880     0.3960 N.am  1 <1>  -0.6600 
 16 C       -5.2140     3.4760     0.9560 C.2   1 <1>   0.5690 
 17 O       -5.3310     4.1200     1.9760 O.2   1 <1>  -0.5700 
 18 C       -6.4850     2.8590     0.3130 C.3   1 <1>   0.2610 
 19 O       -6.6670     3.3200    -1.0000 O.3   1 <1>  -0.5600 
 20 C       -7.8120     3.2180     0.9840 C.3   1 <1>  -0.1600 
 21 C       -7.3760     4.5190    -0.9890 C.3   1 <1>   0.1200 
 22 C       -8.2270     4.5000     0.2790 C.3   1 <1>  -0.1600 
 23 H       -0.7280     3.4190     1.4970 H     1 <1>   0.0800 
 24 H       -1.8930     2.2010     1.9080 H     1 <1>   0.0800 
 25 H       -2.8790     0.7320    -0.0510 H     1 <1>   0.0800 
 26 H       -2.3360     1.0910    -1.6640 H     1 <1>   0.0800 
 27 H       -2.4260     4.7220     0.3300 H     1 <1>   0.0800 
 28 H       -2.9690     4.3640     1.9390 H     1 <1>   0.0800 
 29 H       -4.5810     2.0040    -1.2000 H     1 <1>   0.0800 
 30 H       -3.4470     3.2370    -1.6480 H     1 <1>   0.0800 
 31 H        0.9340     5.7870    -1.4910 H     1 <1>   0.0800 
 32 H       -0.5010     4.8310    -1.2120 H     1 <1>   0.0800 
 33 H        0.1170     5.8750     0.0530 H     1 <1>   0.0800 
 34 H        1.8270     0.3860     1.1960 H     1 <1>   0.0800 
 35 H        3.5270     0.7550     1.0150 H     1 <1>   0.0800 
 36 H        2.5760     0.3160    -0.3850 H     1 <1>   0.0800 
 37 H       -6.3660     1.7920     0.2800 H     1 <1>   0.0800 
 38 H       -7.7270     3.3360     2.0500 H     1 <1>   0.0800 
 39 H       -8.5250     2.4400     0.7790 H     1 <1>   0.0800 
 40 H       -7.9750     4.5730    -1.8820 H     1 <1>   0.0800 
 41 H       -6.6660     5.3290    -0.9690 H     1 <1>   0.0800 
 42 H       -7.9940     5.3620     0.8810 H     1 <1>   0.0800 
 43 H       -9.2770     4.5060     0.0470 H     1 <1>   0.0800 
@<TRIPOS>BOND
  1   1   2  2   
  2   2   3  am  
  3   2   4  1   
  4   3   5  1   
  5   3   6  1   
  6   4   7  2   
  7   4   8  1   
  8   5   9  1   
  9   5  23  1   
 10   5  24  1   
 11   6  10  1   
 12   6  25  1   
 13   6  26  1   
 14   7  11  1   
 15   7  12  1   
 16   8  13  2   
 17   8  14  1   
 18   9  15  1   
 19   9  27  1   
 20   9  28  1   
 21  10  15  1   
 22  10  29  1   
 23  10  30  1   
 24  11  13  1   
 25  12  31  1   
 26  12  32  1   
 27  12  33  1   
 28  14  34  1   
 29  14  35  1   
 30  14  36  1   
 31  15  16  am  
 32  16  17  2   
 33  16  18  1   
 34  18  19  1   
 35  18  20  1   
 36  18  37  1   
 37  19  21  1   
 38  20  22  1   
 39  20  38  1   
 40  20  39  1   
 41  21  22  1   
 42  21  40  1   
 43  21  41  1   
 44  22  42  1   
 45  22  43  1   
@<TRIPOS>SUBSTRUCTURE
  1 ****   5 GROUP 4 **** **** 0

# MOE 2024.06 (io_trps.svl 2023.06)
