@<TRIPOS>MOLECULE
NONAME
46 47 1 0 0 
SMALL
USER_CHARGES


@<TRIPOS>ATOM
  1 O       -0.6370    -0.9350     1.8330 O.2   1 <1>  -0.5700 
  2 C       -0.3900    -1.4490     0.7580 C.2   1 <1>   0.5440 
  3 N       -1.2350    -1.2050    -0.2860 N.am  1 <1>  -0.7300 
  4 C        0.7770    -2.2940     0.5910 C.ar  1 <1>   0.0860 
  5 C       -2.4970    -0.4610    -0.2290 C.3   1 <1>   0.2200 
  6 C        0.8350    -3.3660    -0.3170 C.ar  1 <1>   0.0820 
  7 C        1.9230    -2.0510     1.3520 C.ar  1 <1>  -0.1500 
  8 C       -3.6400    -1.4820    -0.2250 C.3   1 <1>  -0.1600 
  9 C       -2.5330     0.4760    -1.4340 C.3   1 <1>  -0.2400 
 10 O       -0.2280    -3.7110    -1.0740 O.3   1 <1>  -0.3630 
 11 C        1.9880    -4.1160    -0.4780 C.ar  1 <1>  -0.1500 
 12 C        3.0690    -2.8070     1.2050 C.ar  1 <1>  -0.1500 
 13 C       -5.0210    -0.8490    -0.0080 C.3   1 <1>  -0.0170 
 14 C       -1.2070    -4.5190    -0.4560 C.3   1 <1>   0.0400 
 15 C        3.1160    -3.8420     0.2840 C.ar  1 <1>   0.0820 
 16 C       -6.0820    -1.9340     0.0720 C.ar  1 <1>  -0.1430 
 17 O        4.2770    -4.5280     0.1910 O.3   1 <1>  -0.3630 
 18 C       -6.7580    -2.3400    -1.0680 C.ar  1 <1>  -0.1500 
 19 C       -6.3800    -2.5310     1.2870 C.ar  1 <1>  -0.1500 
 20 C        4.4430    -5.5800    -0.7340 C.3   1 <1>   0.0400 
 21 C       -7.7220    -3.3310    -0.9950 C.ar  1 <1>  -0.1500 
 22 C       -7.3430    -3.5230     1.3620 C.ar  1 <1>  -0.1500 
 23 C       -8.0150    -3.9230     0.2210 C.ar  1 <1>  -0.1500 
 24 H       -1.0700    -1.7350    -1.1460 H     1 <1>   0.3700 
 25 H       -2.5280     0.1210     0.6790 H     1 <1>   0.0800 
 26 H        1.9070    -1.2480     2.0700 H     1 <1>   0.1500 
 27 H       -3.4670    -2.1790     0.5760 H     1 <1>   0.0800 
 28 H       -3.6440    -2.0300    -1.1510 H     1 <1>   0.0800 
 29 H       -2.5530    -0.0830    -2.3520 H     1 <1>   0.0800 
 30 H       -1.6660     1.1120    -1.4250 H     1 <1>   0.0800 
 31 H       -3.4030     1.1050    -1.3940 H     1 <1>   0.0800 
 32 H        1.9810    -4.9090    -1.2000 H     1 <1>   0.1500 
 33 H        3.9410    -2.6000     1.8000 H     1 <1>   0.1500 
 34 H       -5.2590    -0.1790    -0.8140 H     1 <1>   0.0800 
 35 H       -5.0210    -0.2790     0.9050 H     1 <1>   0.0800 
 36 H       -0.7520    -5.4460    -0.1530 H     1 <1>   0.0800 
 37 H       -1.9900    -4.7080    -1.1680 H     1 <1>   0.0800 
 38 H       -1.6050    -4.0020     0.4000 H     1 <1>   0.0800 
 39 H       -6.5370    -1.8860    -2.0180 H     1 <1>   0.1500 
 40 H       -5.8610    -2.2270     2.1790 H     1 <1>   0.1500 
 41 H        5.4440    -5.9580    -0.6330 H     1 <1>   0.0800 
 42 H        4.2960    -5.1960    -1.7290 H     1 <1>   0.0800 
 43 H        3.7340    -6.3570    -0.5110 H     1 <1>   0.0800 
 44 H       -8.2430    -3.6410    -1.8830 H     1 <1>   0.1500 
 45 H       -7.5690    -3.9810     2.3090 H     1 <1>   0.1500 
 46 H       -8.7640    -4.6930     0.2790 H     1 <1>   0.1500 
@<TRIPOS>BOND
  1   1   2  2   
  2   2   3  am  
  3   2   4  1   
  4   3   5  1   
  5   3  24  1   
  6   4   6  ar  
  7   4   7  ar  
  8   5   8  1   
  9   5   9  1   
 10   5  25  1   
 11   6  10  1   
 12   6  11  ar  
 13   7  12  ar  
 14   7  26  1   
 15   8  13  1   
 16   8  27  1   
 17   8  28  1   
 18   9  29  1   
 19   9  30  1   
 20   9  31  1   
 21  10  14  1   
 22  11  15  ar  
 23  11  32  1   
 24  12  15  ar  
 25  12  33  1   
 26  13  16  1   
 27  13  34  1   
 28  13  35  1   
 29  14  36  1   
 30  14  37  1   
 31  14  38  1   
 32  15  17  1   
 33  16  18  ar  
 34  16  19  ar  
 35  17  20  1   
 36  18  21  ar  
 37  18  39  1   
 38  19  22  ar  
 39  19  40  1   
 40  20  41  1   
 41  20  42  1   
 42  20  43  1   
 43  21  23  ar  
 44  21  44  1   
 45  22  23  ar  
 46  22  45  1   
 47  23  46  1   
@<TRIPOS>SUBSTRUCTURE
  1 ****   3 GROUP 4 **** **** 0

# MOE 2024.06 (io_trps.svl 2023.06)
