@<TRIPOS>MOLECULE
NONAME
46 48 1 0 0 
SMALL
USER_CHARGES


@<TRIPOS>ATOM
  1 O        0.5190     0.6050     0.0610 O.2   1 <1>  -0.5700 
  2 C        1.0170     1.7040     0.0060 C.2   1 <1>   0.5690 
  3 N        0.3550     2.9020     0.0540 N.am  1 <1>  -0.2370 
  4 C        2.5270     1.9170    -0.1180 C.3   1 <1>   0.3500 
  5 C       -1.0490     3.0570     0.1240 C.ar  1 <1>   0.1170 
  6 C        1.2660     3.9260     0.0230 C.2   1 <1>   0.5690 
  7 N        3.3190     1.2260     0.9420 N.pl3 1 <1>  -0.8690 
  8 C        2.6880     3.4300     0.0030 C.3   1 <1>  -0.0990 
  9 C       -1.7110     3.9480    -0.7150 C.ar  1 <1>  -0.1500 
 10 C       -1.8050     2.3220     1.0310 C.ar  1 <1>  -0.1500 
 11 O        1.0180     5.1030    -0.0080 O.2   1 <1>  -0.5700 
 12 C        4.5530     0.7270     0.5520 C.ar  1 <1>   0.1000 
 13 C       -3.0850     4.0980    -0.6490 C.ar  1 <1>  -0.1500 
 14 C       -3.1780     2.4710     1.0970 C.ar  1 <1>  -0.1500 
 15 C        5.6150     1.5750     0.2690 C.ar  1 <1>  -0.1500 
 16 C        4.7420    -0.6430     0.4330 C.ar  1 <1>  -0.1500 
 17 C       -3.8280     3.3610     0.2580 C.ar  1 <1>  -0.1430 
 18 C        6.8350     1.0670    -0.1390 C.ar  1 <1>  -0.1500 
 19 C        5.9620    -1.1530     0.0270 C.ar  1 <1>  -0.1500 
 20 C       -5.3380     3.5250     0.3290 C.3   1 <1>  -0.0170 
 21 C        7.0160    -0.3020    -0.2660 C.ar  1 <1>  -0.1430 
 22 C       -6.0300     2.5440    -0.6190 C.3   1 <1>  -0.2400 
 23 C        8.3570    -0.8630    -0.7120 C.3   1 <1>  -0.0170 
 24 C        9.2570    -1.1270     0.4960 C.3   1 <1>  -0.2400 
 25 H        2.8420     1.5800    -1.0920 H     1 <1>   0.0800 
 26 H        2.7320     0.4890     1.3570 H     1 <1>   0.4000 
 27 H        3.2120     3.8350    -0.8420 H     1 <1>   0.0800 
 28 H        3.1770     3.7100     0.9180 H     1 <1>   0.0800 
 29 H       -1.1520     4.5340    -1.4220 H     1 <1>   0.1500 
 30 H       -1.3200     1.6230     1.6890 H     1 <1>   0.1500 
 31 H       -3.5740     4.7940    -1.3080 H     1 <1>   0.1500 
 32 H       -3.7420     1.8880     1.8040 H     1 <1>   0.1500 
 33 H        5.4860     2.6350     0.3770 H     1 <1>   0.1500 
 34 H        3.9320    -1.3130     0.6560 H     1 <1>   0.1500 
 35 H        7.6470     1.7390    -0.3520 H     1 <1>   0.1500 
 36 H        6.0900    -2.2180    -0.0600 H     1 <1>   0.1500 
 37 H       -5.6060     4.5330     0.0650 H     1 <1>   0.0800 
 38 H       -5.6740     3.3530     1.3370 H     1 <1>   0.0800 
 39 H       -5.7130     2.7200    -1.6310 H     1 <1>   0.0800 
 40 H       -7.0970     2.6640    -0.5630 H     1 <1>   0.0800 
 41 H       -5.7800     1.5320    -0.3520 H     1 <1>   0.0800 
 42 H        8.8390    -0.1660    -1.3760 H     1 <1>   0.0800 
 43 H        8.2040    -1.7790    -1.2560 H     1 <1>   0.0800 
 44 H        9.4310    -0.2130     1.0360 H     1 <1>   0.0800 
 45 H       10.2030    -1.5250     0.1750 H     1 <1>   0.0800 
 46 H        8.7900    -1.8340     1.1590 H     1 <1>   0.0800 
@<TRIPOS>BOND
  1   1   2  2   
  2   2   3  am  
  3   2   4  1   
  4   3   5  1   
  5   3   6  am  
  6   4   7  1   
  7   4   8  1   
  8   4  25  1   
  9   5   9  ar  
 10   5  10  ar  
 11   6   8  1   
 12   6  11  2   
 13   7  12  1   
 14   7  26  1   
 15   8  27  1   
 16   8  28  1   
 17   9  13  ar  
 18   9  29  1   
 19  10  14  ar  
 20  10  30  1   
 21  12  15  ar  
 22  12  16  ar  
 23  13  17  ar  
 24  13  31  1   
 25  14  17  ar  
 26  14  32  1   
 27  15  18  ar  
 28  15  33  1   
 29  16  19  ar  
 30  16  34  1   
 31  17  20  1   
 32  18  21  ar  
 33  18  35  1   
 34  19  21  ar  
 35  19  36  1   
 36  20  22  1   
 37  20  37  1   
 38  20  38  1   
 39  21  23  1   
 40  22  39  1   
 41  22  40  1   
 42  22  41  1   
 43  23  24  1   
 44  23  42  1   
 45  23  43  1   
 46  24  44  1   
 47  24  45  1   
 48  24  46  1   
@<TRIPOS>SUBSTRUCTURE
  1 ****   2 GROUP 4 **** **** 0

# MOE 2024.06 (io_trps.svl 2023.06)
