@<TRIPOS>MOLECULE
NONAME
45 47 1 0 0 
SMALL
USER_CHARGES


@<TRIPOS>ATOM
  1 CL       0.7970    -0.4950     1.2050 Cl    1 <1>  -0.1770 
  2 C        0.6070    -2.1280     0.6210 C.ar  1 <1>   0.1770 
  3 C        0.4680    -3.1610     1.5280 C.ar  1 <1>  -0.1500 
  4 C        0.6000    -2.3640    -0.7400 C.ar  1 <1>  -0.1500 
  5 C        0.3200    -4.4550     1.0600 C.ar  1 <1>  -0.1500 
  6 C        0.4520    -3.6620    -1.2010 C.ar  1 <1>  -0.1500 
  7 C        0.3090    -4.7160    -0.3060 C.ar  1 <1>  -0.1430 
  8 C        0.1670    -6.1470    -0.8260 C.3   1 <1>   0.5020 
  9 N       -1.0600    -6.7250    -0.2450 N.am  1 <1>  -0.7300 
 10 C        1.4170    -6.9590    -0.4860 C.2   1 <1>  -0.1240 
 11 C       -1.0630    -7.7430     0.6310 C.2   1 <1>   0.6900 
 12 C        1.3230    -8.0280     0.3510 C.2   1 <1>  -0.0290 
 13 C        2.5750    -6.4240    -1.1260 C.2   1 <1>   0.7060 
 14 O       -2.0830    -8.0780     1.1870 O.2   1 <1>  -0.5700 
 15 N        0.1050    -8.3780     0.8970 N.am  1 <1>  -0.5390 
 16 C        2.4660    -8.9410     0.7660 C.3   1 <1>  -0.1020 
 17 O        2.5390    -5.9100    -2.2290 O.2   1 <1>  -0.5700 
 18 O        3.7300    -6.4490    -0.4600 O.3   1 <1>  -0.4300 
 19 C        4.8920    -5.8060    -0.9410 C.3   1 <1>   0.2000 
 20 C        6.0990    -6.3410    -0.1530 C.3   1 <1>  -0.0800 
 21 C        4.8140    -4.3010    -0.6510 C.3   1 <1>  -0.1600 
 22 C        6.8750    -5.1020     0.2980 C.3   1 <1>  -0.1600 
 23 C        6.9630    -7.3190    -0.9580 C.3   1 <1>  -0.2400 
 24 C        5.7970    -4.0390     0.4890 C.3   1 <1>  -0.1600 
 25 H        0.4770    -2.9520     2.5820 H     1 <1>   0.1500 
 26 H        0.7140    -1.5440    -1.4260 H     1 <1>   0.1500 
 27 H        0.2160    -5.2630     1.7660 H     1 <1>   0.1500 
 28 H        0.4590    -3.8450    -2.2630 H     1 <1>   0.1500 
 29 H        0.0430    -6.1320    -1.8960 H     1 <1>   0.0800 
 30 H       -1.9070    -6.1660    -0.3090 H     1 <1>   0.3700 
 31 H        0.0080    -9.1580     1.5480 H     1 <1>   0.3700 
 32 H        2.1630    -9.9700     0.6880 H     1 <1>   0.0800 
 33 H        2.7440    -8.7370     1.7850 H     1 <1>   0.0800 
 34 H        3.3310    -8.8120     0.1430 H     1 <1>   0.0800 
 35 H        4.9930    -5.9960    -1.9970 H     1 <1>   0.0800 
 36 H        5.7400    -6.8380     0.7330 H     1 <1>   0.0800 
 37 H        3.8180    -3.9720    -0.4070 H     1 <1>   0.0800 
 38 H        5.1480    -3.7700    -1.5250 H     1 <1>   0.0800 
 39 H        7.5520    -4.7840    -0.4770 H     1 <1>   0.0800 
 40 H        7.4300    -5.2800     1.2020 H     1 <1>   0.0800 
 41 H        7.3420    -6.8480    -1.8480 H     1 <1>   0.0800 
 42 H        6.3810    -8.1770    -1.2430 H     1 <1>   0.0800 
 43 H        7.7960    -7.6530    -0.3640 H     1 <1>   0.0800 
 44 H        5.3020    -4.1950     1.4320 H     1 <1>   0.0800 
 45 H        6.1990    -3.0410     0.4580 H     1 <1>   0.0800 
@<TRIPOS>BOND
  1   1   2  1   
  2   2   3  ar  
  3   2   4  ar  
  4   3   5  ar  
  5   3  25  1   
  6   4   6  ar  
  7   4  26  1   
  8   5   7  ar  
  9   5  27  1   
 10   6   7  ar  
 11   6  28  1   
 12   7   8  1   
 13   8   9  1   
 14   8  10  1   
 15   8  29  1   
 16   9  11  am  
 17   9  30  1   
 18  10  12  2   
 19  10  13  1   
 20  11  14  2   
 21  11  15  am  
 22  12  15  1   
 23  12  16  1   
 24  13  17  2   
 25  13  18  1   
 26  15  31  1   
 27  16  32  1   
 28  16  33  1   
 29  16  34  1   
 30  18  19  1   
 31  19  20  1   
 32  19  21  1   
 33  19  35  1   
 34  20  22  1   
 35  20  23  1   
 36  20  36  1   
 37  21  24  1   
 38  21  37  1   
 39  21  38  1   
 40  22  24  1   
 41  22  39  1   
 42  22  40  1   
 43  23  41  1   
 44  23  42  1   
 45  23  43  1   
 46  24  44  1   
 47  24  45  1   
@<TRIPOS>SUBSTRUCTURE
  1 ****  13 GROUP 4 **** **** 0

# MOE 2024.06 (io_trps.svl 2023.06)
