@<TRIPOS>MOLECULE
NONAME
30 31 1 0 0 
SMALL
USER_CHARGES


@<TRIPOS>ATOM
  1 S        0.1340     0.3680     0.1980 S.o2  1 <1>   0.8600 
  2 O        0.3210     1.2280    -0.9570 O.co2 1 <1>  -0.6500 
  3 O        0.2170     0.9210     1.5370 O.co2 1 <1>  -0.6500 
  4 N        1.0740    -1.0070     0.0680 N.2   1 <1>  -0.4850 
  5 C       -1.5040    -0.3520     0.0410 C.3   1 <1>  -0.0550 
  6 C        2.3650    -1.0030     0.1220 C.2   1 <1>   0.1980 
  7 C       -2.6350     0.6840     0.1210 C.3   1 <1>  -0.1600 
  8 S        3.2860     0.5140     0.3460 S.3   1 <1>  -0.0800 
  9 N        3.1570    -2.0710     0.0240 N.2   1 <1>  -0.5650 
 10 C       -4.0120     0.0240    -0.0180 C.3   1 <1>  -0.1600 
 11 C        4.7860    -0.3790     0.2990 C.ar  1 <1>   0.0400 
 12 C        4.4660    -1.7170     0.1220 C.ar  1 <1>   0.2270 
 13 C       -5.1310     1.0660     0.0630 C.3   1 <1>  -0.2400 
 14 C        6.0710     0.1070     0.4120 C.ar  1 <1>  -0.1500 
 15 C        5.5330    -2.6140     0.0560 C.ar  1 <1>  -0.1500 
 16 C        7.1120    -0.8070     0.3430 C.ar  1 <1>  -0.1500 
 17 C        6.8390    -2.1620     0.1650 C.ar  1 <1>  -0.1500 
 18 H       -1.6380    -1.0770     0.8200 H     1 <1>   0.0800 
 19 H       -1.5660    -0.8660    -0.8990 H     1 <1>   0.0800 
 20 H       -2.4930     1.4100    -0.6620 H     1 <1>   0.0800 
 21 H       -2.5650     1.1980     1.0640 H     1 <1>   0.0800 
 22 H       -4.1430    -0.7010     0.7670 H     1 <1>   0.0800 
 23 H       -4.0710    -0.4890    -0.9630 H     1 <1>   0.0800 
 24 H       -5.0980     1.5770     1.0090 H     1 <1>   0.0800 
 25 H       -6.0890     0.5870    -0.0360 H     1 <1>   0.0800 
 26 H       -5.0250     1.7900    -0.7250 H     1 <1>   0.0800 
 27 H        6.2460     1.1590     0.5480 H     1 <1>   0.1500 
 28 H        5.3080    -3.6540    -0.0810 H     1 <1>   0.1500 
 29 H        8.1310    -0.4700     0.4270 H     1 <1>   0.1500 
 30 H        7.6510    -2.8650     0.1130 H     1 <1>   0.1500 
@<TRIPOS>BOND
  1   1   2  ar  
  2   1   3  ar  
  3   1   4  2   
  4   1   5  1   
  5   4   6  1   
  6   5   7  1   
  7   5  18  1   
  8   5  19  1   
  9   6   8  1   
 10   6   9  2   
 11   7  10  1   
 12   7  20  1   
 13   7  21  1   
 14   8  11  1   
 15   9  12  1   
 16  10  13  1   
 17  10  22  1   
 18  10  23  1   
 19  11  12  ar  
 20  11  14  ar  
 21  12  15  ar  
 22  13  24  1   
 23  13  25  1   
 24  13  26  1   
 25  14  16  ar  
 26  14  27  1   
 27  15  17  ar  
 28  15  28  1   
 29  16  17  ar  
 30  16  29  1   
 31  17  30  1   
@<TRIPOS>SUBSTRUCTURE
  1 ****   6 GROUP 4 **** **** 0

# MOE 2024.06 (io_trps.svl 2023.06)
