@<TRIPOS>MOLECULE
NONAME
36 37 1 0 0 
SMALL
USER_CHARGES


@<TRIPOS>ATOM
  1 CL      -0.9260    -0.7360     1.6290 Cl    1 <1>  -0.1770 
  2 C       -0.2970    -2.1400     0.7970 C.ar  1 <1>   0.1770 
  3 C       -1.1340    -2.9440     0.0410 C.ar  1 <1>   0.1770 
  4 C        1.0480    -2.4380     0.9090 C.ar  1 <1>  -0.1500 
  5 CL      -2.8390    -2.5800    -0.1080 Cl    1 <1>  -0.1770 
  6 C       -0.6290    -4.0550    -0.6080 C.ar  1 <1>  -0.1500 
  7 C        1.5750    -3.5510     0.2580 C.ar  1 <1>   0.1170 
  8 C        0.7200    -4.3520    -0.4960 C.ar  1 <1>  -0.1500 
  9 N        2.9290    -3.9100     0.3410 N.am  1 <1>  -0.5470 
 10 C        4.0330    -3.1600     0.6370 C.2   1 <1>   0.5690 
 11 O        4.0060    -1.9760     0.8600 O.2   1 <1>  -0.5700 
 12 C        5.3740    -3.8590     0.6570 C.3   1 <1>  -0.0990 
 13 C        6.0550    -3.7880    -0.7180 C.3   1 <1>  -0.0990 
 14 C        7.3680    -4.5450    -0.7070 C.2   1 <1>   0.5690 
 15 O        7.3240    -5.7240    -0.9660 O.2   1 <1>  -0.5700 
 16 N        8.5390    -3.9150    -0.3900 N.am  1 <1>  -0.6600 
 17 C        8.7070    -2.4950    -0.0040 C.3   1 <1>   0.1400 
 18 C        9.8250    -4.6400    -0.3180 C.3   1 <1>   0.1400 
 19 C       10.2130    -2.3040     0.1420 C.3   1 <1>  -0.1600 
 20 C       10.7570    -3.7000     0.4360 C.3   1 <1>  -0.1600 
 21 H        1.6720    -1.7990     1.5070 H     1 <1>   0.1500 
 22 H       -1.2860    -4.6750    -1.1930 H     1 <1>   0.1500 
 23 H        1.1100    -5.2160    -1.0040 H     1 <1>   0.1500 
 24 H        3.1300    -4.8790     0.0980 H     1 <1>   0.3700 
 25 H        5.2440    -4.8860     0.9480 H     1 <1>   0.0800 
 26 H        5.9970    -3.3870     1.3940 H     1 <1>   0.0800 
 27 H        6.2110    -2.7650    -1.0030 H     1 <1>   0.0800 
 28 H        5.4180    -4.2350    -1.4600 H     1 <1>   0.0800 
 29 H        8.2150    -2.3220     0.9380 H     1 <1>   0.0800 
 30 H        8.3050    -1.8370    -0.7550 H     1 <1>   0.0800 
 31 H       10.1850    -4.8130    -1.3180 H     1 <1>   0.0800 
 32 H        9.7090    -5.5830     0.1910 H     1 <1>   0.0800 
 33 H       10.4540    -1.5980     0.9160 H     1 <1>   0.0800 
 34 H       10.6110    -1.9480    -0.7920 H     1 <1>   0.0800 
 35 H       11.7800    -3.8170     0.1250 H     1 <1>   0.0800 
 36 H       10.6840    -3.9070     1.4890 H     1 <1>   0.0800 
@<TRIPOS>BOND
  1   1   2  1   
  2   2   3  ar  
  3   2   4  ar  
  4   3   5  1   
  5   3   6  ar  
  6   4   7  ar  
  7   4  21  1   
  8   6   8  ar  
  9   6  22  1   
 10   7   8  ar  
 11   7   9  1   
 12   8  23  1   
 13   9  10  am  
 14   9  24  1   
 15  10  11  2   
 16  10  12  1   
 17  12  13  1   
 18  12  25  1   
 19  12  26  1   
 20  13  14  1   
 21  13  27  1   
 22  13  28  1   
 23  14  15  2   
 24  14  16  am  
 25  16  17  1   
 26  16  18  1   
 27  17  19  1   
 28  17  29  1   
 29  17  30  1   
 30  18  20  1   
 31  18  31  1   
 32  18  32  1   
 33  19  20  1   
 34  19  33  1   
 35  19  34  1   
 36  20  35  1   
 37  20  36  1   
@<TRIPOS>SUBSTRUCTURE
  1 ****  10 GROUP 4 **** **** 0

# MOE 2024.06 (io_trps.svl 2023.06)
