@<TRIPOS>MOLECULE
NONAME
50 51 1 0 0 
SMALL
USER_CHARGES


@<TRIPOS>ATOM
  1 S        1.3150    -0.7880     0.4350 S.o2  1 <1>   1.4470 
  2 O        2.5760    -1.5020     0.3800 O.2   1 <1>  -0.6500 
  3 O        1.0120    -0.0660     1.6510 O.2   1 <1>  -0.6500 
  4 N        1.3710     0.3390    -0.8350 N.am  1 <1>  -0.8490 
  5 C       -0.0380    -1.9110     0.0090 C.ar  1 <1>  -0.0090 
  6 C        1.9610     1.6540    -0.4640 C.3   1 <1>   0.2570 
  7 C        1.8930    -0.1790    -2.1030 C.3   1 <1>   0.1160 
  8 C       -1.3440    -1.4520    -0.1180 C.ar  1 <1>   0.0830 
  9 C        0.1950    -3.2670    -0.1970 C.ar  1 <1>  -0.1500 
 10 C        3.4950     1.7710    -0.3760 C.2   1 <1>   0.5690 
 11 O       -1.6250    -0.1460     0.0610 O.3   1 <1>  -0.3630 
 12 C       -2.3770    -2.3150    -0.4510 C.ar  1 <1>  -0.1500 
 13 C       -0.8300    -4.1410    -0.5240 C.ar  1 <1>  -0.1440 
 14 O        4.0010     2.8090    -0.7310 O.2   1 <1>  -0.5700 
 15 N        4.2550     0.7380     0.0770 N.am  1 <1>  -0.7300 
 16 C       -2.2610     0.2050     1.2690 C.3   1 <1>   0.0400 
 17 C       -2.1210    -3.6580    -0.6500 C.ar  1 <1>  -0.1500 
 18 C       -0.5410    -5.6160    -0.7390 C.3   1 <1>  -0.0970 
 19 C        5.7150     0.7290     0.2160 C.3   1 <1>   0.2200 
 20 C        6.2900    -0.3180    -0.7420 C.3   1 <1>  -0.1600 
 21 C        6.0650     0.4020     1.6710 C.3   1 <1>  -0.1600 
 22 C        7.8080    -0.4640    -0.5600 C.3   1 <1>  -0.1600 
 23 C        7.5820     0.2580     1.8590 C.3   1 <1>  -0.1600 
 24 C        8.1630    -0.7880     0.8980 C.3   1 <1>  -0.1600 
 25 H        1.5500     1.9840     0.4740 H     1 <1>   0.0800 
 26 H        1.6390     2.3710    -1.1970 H     1 <1>   0.0800 
 27 H        1.3250    -1.0410    -2.4080 H     1 <1>   0.0800 
 28 H        2.9270    -0.4630    -2.0060 H     1 <1>   0.0800 
 29 H        1.8060     0.5720    -2.8710 H     1 <1>   0.0800 
 30 H        1.1980    -3.6470    -0.0960 H     1 <1>   0.1500 
 31 H       -3.3760    -1.9320    -0.5560 H     1 <1>   0.1500 
 32 H        3.8030    -0.1550     0.3210 H     1 <1>   0.3700 
 33 H       -2.3760     1.2730     1.2900 H     1 <1>   0.0800 
 34 H       -1.6450    -0.1130     2.0920 H     1 <1>   0.0800 
 35 H       -3.2240    -0.2720     1.3130 H     1 <1>   0.0800 
 36 H       -2.9280    -4.3230    -0.9050 H     1 <1>   0.1500 
 37 H        0.4610    -5.7570    -1.1010 H     1 <1>   0.0800 
 38 H       -1.2220    -6.0320    -1.4600 H     1 <1>   0.0800 
 39 H       -0.6520    -6.1470     0.1890 H     1 <1>   0.0800 
 40 H        6.1130     1.6990    -0.0360 H     1 <1>   0.0800 
 41 H        6.0800    -0.0250    -1.7550 H     1 <1>   0.0800 
 42 H        5.8220    -1.2690    -0.5560 H     1 <1>   0.0800 
 43 H        5.5870    -0.5190     1.9560 H     1 <1>   0.0800 
 44 H        5.6990     1.1880     2.3090 H     1 <1>   0.0800 
 45 H        8.2910     0.4550    -0.8480 H     1 <1>   0.0800 
 46 H        8.1760    -1.2450    -1.2030 H     1 <1>   0.0800 
 47 H        7.7940    -0.0280     2.8750 H     1 <1>   0.0800 
 48 H        8.0550     1.2090     1.6790 H     1 <1>   0.0800 
 49 H        9.2330    -0.8250     1.0090 H     1 <1>   0.0800 
 50 H        7.7720    -1.7590     1.1510 H     1 <1>   0.0800 
@<TRIPOS>BOND
  1   1   2  2   
  2   1   3  2   
  3   1   4  am  
  4   1   5  1   
  5   4   6  1   
  6   4   7  1   
  7   5   8  ar  
  8   5   9  ar  
  9   6  10  1   
 10   6  25  1   
 11   6  26  1   
 12   7  27  1   
 13   7  28  1   
 14   7  29  1   
 15   8  11  1   
 16   8  12  ar  
 17   9  13  ar  
 18   9  30  1   
 19  10  14  2   
 20  10  15  am  
 21  11  16  1   
 22  12  17  ar  
 23  12  31  1   
 24  13  17  ar  
 25  13  18  1   
 26  15  19  1   
 27  15  32  1   
 28  16  33  1   
 29  16  34  1   
 30  16  35  1   
 31  17  36  1   
 32  18  37  1   
 33  18  38  1   
 34  18  39  1   
 35  19  20  1   
 36  19  21  1   
 37  19  40  1   
 38  20  22  1   
 39  20  41  1   
 40  20  42  1   
 41  21  23  1   
 42  21  43  1   
 43  21  44  1   
 44  22  24  1   
 45  22  45  1   
 46  22  46  1   
 47  23  24  1   
 48  23  47  1   
 49  23  48  1   
 50  24  49  1   
 51  24  50  1   
@<TRIPOS>SUBSTRUCTURE
  1 ****   2 GROUP 4 **** **** 0

# MOE 2024.06 (io_trps.svl 2023.06)
