@<TRIPOS>MOLECULE
NONAME
45 46 1 0 0 
SMALL
USER_CHARGES


@<TRIPOS>ATOM
  1 CL      -2.7980     1.1270     0.5410 Cl    1 <1>  -0.1770 
  2 C       -1.1510     1.6540     0.2480 C.ar  1 <1>   0.1770 
  3 C       -0.7440     2.8970     0.7170 C.ar  1 <1>  -0.1440 
  4 C       -0.2870     0.8170    -0.4470 C.ar  1 <1>  -0.1440 
  5 C        0.5600     3.3060     0.4810 C.ar  1 <1>  -0.1500 
  6 C       -1.7040     3.8010     1.4760 C.3   1 <1>  -0.0960 
  7 C        1.0120     1.2450    -0.6710 C.ar  1 <1>  -0.1500 
  8 C       -0.7410    -0.5430    -0.9560 C.3   1 <1>  -0.0960 
  9 C        1.4420     2.4810    -0.2140 C.ar  1 <1>   0.0830 
 10 O        2.7300     2.8090    -0.4830 O.3   1 <1>  -0.3630 
 11 C        3.2780     4.0390    -0.0760 C.3   1 <1>   0.1200 
 12 C        4.7340     4.0670    -0.5480 C.3   1 <1>  -0.1600 
 13 C        5.4390     5.3770    -0.1630 C.3   1 <1>  -0.1600 
 14 C        6.8910     5.3580    -0.6470 C.3   1 <1>   0.3430 
 15 N        7.6130     6.5810    -0.1980 N.4   1 <1>  -0.9590 
 16 C        7.1500     7.8220    -0.9180 C.3   1 <1>   0.3430 
 17 C        9.0990     6.4120    -0.3720 C.3   1 <1>   0.3430 
 18 C        8.0020     9.0490    -0.5400 C.3   1 <1>   0.1200 
 19 C        9.8640     7.7020    -0.0160 C.3   1 <1>   0.1200 
 20 O        9.3580     8.7800    -0.7480 O.3   1 <1>  -0.5600 
 21 H        0.8740     4.2650     0.8440 H     1 <1>   0.1500 
 22 H       -2.5520     4.0350     0.8580 H     1 <1>   0.0800 
 23 H       -1.2290     4.7200     1.7650 H     1 <1>   0.0800 
 24 H       -2.0500     3.3030     2.3650 H     1 <1>   0.0800 
 25 H        1.7080     0.6250    -1.2050 H     1 <1>   0.1500 
 26 H       -1.0610    -1.1550    -0.1320 H     1 <1>   0.0800 
 27 H        0.0560    -1.0490    -1.4690 H     1 <1>   0.0800 
 28 H       -1.5630    -0.4220    -1.6390 H     1 <1>   0.0800 
 29 H        3.2160     4.0970     0.9970 H     1 <1>   0.0800 
 30 H        2.7070     4.8300    -0.5310 H     1 <1>   0.0800 
 31 H        4.7470     3.9480    -1.6180 H     1 <1>   0.0800 
 32 H        5.2500     3.2320    -0.1040 H     1 <1>   0.0800 
 33 H        5.4140     5.4830     0.9080 H     1 <1>   0.0800 
 34 H        4.9060     6.1970    -0.6110 H     1 <1>   0.0800 
 35 H        6.9190     5.2850    -1.7230 H     1 <1>   0.0800 
 36 H        7.3770     4.4840    -0.2410 H     1 <1>   0.0800 
 37 H        7.4340     6.7130     0.8060 H     1 <1>   0.4500 
 38 H        6.1180     8.0250    -0.6830 H     1 <1>   0.0800 
 39 H        7.2240     7.6750    -1.9830 H     1 <1>   0.0800 
 40 H        9.3210     6.1620    -1.3960 H     1 <1>   0.0800 
 41 H        9.4550     5.6060     0.2500 H     1 <1>   0.0800 
 42 H        7.8560     9.3260     0.4900 H     1 <1>   0.0800 
 43 H        7.7380     9.8890    -1.1600 H     1 <1>   0.0800 
 44 H       10.9050     7.5970    -0.2680 H     1 <1>   0.0800 
 45 H        9.7860     7.9260     1.0340 H     1 <1>   0.0800 
@<TRIPOS>BOND
  1   1   2  1   
  2   2   3  ar  
  3   2   4  ar  
  4   3   5  ar  
  5   3   6  1   
  6   4   7  ar  
  7   4   8  1   
  8   5   9  ar  
  9   5  21  1   
 10   6  22  1   
 11   6  23  1   
 12   6  24  1   
 13   7   9  ar  
 14   7  25  1   
 15   8  26  1   
 16   8  27  1   
 17   8  28  1   
 18   9  10  1   
 19  10  11  1   
 20  11  12  1   
 21  11  29  1   
 22  11  30  1   
 23  12  13  1   
 24  12  31  1   
 25  12  32  1   
 26  13  14  1   
 27  13  33  1   
 28  13  34  1   
 29  14  15  1   
 30  14  35  1   
 31  14  36  1   
 32  15  16  1   
 33  15  17  1   
 34  15  37  1   
 35  16  18  1   
 36  16  38  1   
 37  16  39  1   
 38  17  19  1   
 39  17  40  1   
 40  17  41  1   
 41  18  20  1   
 42  18  42  1   
 43  18  43  1   
 44  19  20  1   
 45  19  44  1   
 46  19  45  1   
@<TRIPOS>SUBSTRUCTURE
  1 ****  11 GROUP 4 **** **** 0

# MOE 2024.06 (io_trps.svl 2023.06)
