@<TRIPOS>MOLECULE
NONAME
46 48 1 0 0 
SMALL
USER_CHARGES


@<TRIPOS>ATOM
  1 O       -2.3950     3.5400     0.8780 O.3   1 <1>  -0.5600 
  2 C       -2.5650     4.8180     0.3260 C.3   1 <1>   0.1200 
  3 C       -2.7300     2.4910     0.0100 C.3   1 <1>   0.1200 
  4 C       -4.0180     5.0330    -0.1580 C.3   1 <1>   0.3430 
  5 C       -4.2060     2.5900    -0.4410 C.3   1 <1>   0.3430 
  6 N       -4.8710     3.8250     0.1080 N.4   1 <1>  -0.9590 
  7 C       -6.2830     4.0100    -0.3250 C.3   1 <1>   0.3430 
  8 C       -7.1650     2.9070     0.2540 C.3   1 <1>  -0.1600 
  9 C       -8.6360     3.1530    -0.0820 C.3   1 <1>   0.1200 
 10 O       -9.3670     2.0850     0.4630 O.3   1 <1>  -0.3630 
 11 C      -10.7120     2.0040     0.3270 C.ar  1 <1>   0.0820 
 12 C      -11.3340     0.9020     0.8910 C.ar  1 <1>  -0.1500 
 13 C      -11.4860     2.9520    -0.3380 C.ar  1 <1>  -0.1500 
 14 C      -12.7040     0.7430     0.7950 C.ar  1 <1>  -0.1500 
 15 C      -12.8560     2.7850    -0.4290 C.ar  1 <1>  -0.1500 
 16 C      -13.4900     1.6800     0.1330 C.ar  1 <1>   0.0000 
 17 C      -14.9220     1.5130     0.0310 C.ar  1 <1>   0.0000 
 18 C      -15.7940     2.4680     0.5440 C.ar  1 <1>  -0.1500 
 19 C      -15.4690     0.3900    -0.5840 C.ar  1 <1>  -0.1500 
 20 C      -17.1650     2.3100     0.4470 C.ar  1 <1>  -0.1500 
 21 C      -16.8390     0.2260    -0.6840 C.ar  1 <1>  -0.1500 
 22 C      -17.6900     1.1880    -0.1680 C.ar  1 <1>  -0.1500 
 23 H       -1.8690     4.9380    -0.4870 H     1 <1>   0.0800 
 24 H       -2.3170     5.5370     1.0880 H     1 <1>   0.0800 
 25 H       -2.5630     1.5650     0.5340 H     1 <1>   0.0800 
 26 H       -2.0670     2.5200    -0.8380 H     1 <1>   0.0800 
 27 H       -4.0040     5.2490    -1.2140 H     1 <1>   0.0800 
 28 H       -4.4290     5.8940     0.3430 H     1 <1>   0.0800 
 29 H       -4.7280     1.7090    -0.1060 H     1 <1>   0.0800 
 30 H       -4.2420     2.5970    -1.5180 H     1 <1>   0.0800 
 31 H       -4.8410     3.7040     1.1330 H     1 <1>   0.4500 
 32 H       -6.3440     4.0030    -1.4020 H     1 <1>   0.0800 
 33 H       -6.6420     4.9640     0.0270 H     1 <1>   0.0800 
 34 H       -7.0620     2.8840     1.3250 H     1 <1>   0.0800 
 35 H       -6.8860     1.9530    -0.1560 H     1 <1>   0.0800 
 36 H       -8.8000     3.1630    -1.1460 H     1 <1>   0.0800 
 37 H       -8.9930     4.0670     0.3640 H     1 <1>   0.0800 
 38 H      -10.7390     0.1700     1.4060 H     1 <1>   0.1500 
 39 H      -11.0470     3.8200    -0.7890 H     1 <1>   0.1500 
 40 H      -13.1750    -0.1150     1.2410 H     1 <1>   0.1500 
 41 H      -13.4500     3.5160    -0.9480 H     1 <1>   0.1500 
 42 H      -15.3910     3.3400     1.0280 H     1 <1>   0.1500 
 43 H      -14.8110    -0.3570    -0.9900 H     1 <1>   0.1500 
 44 H      -17.8230     3.0600     0.8500 H     1 <1>   0.1500 
 45 H      -17.2430    -0.6480    -1.1640 H     1 <1>   0.1500 
 46 H      -18.7570     1.0630    -0.2450 H     1 <1>   0.1500 
@<TRIPOS>BOND
  1   1   2  1   
  2   1   3  1   
  3   2   4  1   
  4   2  23  1   
  5   2  24  1   
  6   3   5  1   
  7   3  25  1   
  8   3  26  1   
  9   4   6  1   
 10   4  27  1   
 11   4  28  1   
 12   5   6  1   
 13   5  29  1   
 14   5  30  1   
 15   6   7  1   
 16   6  31  1   
 17   7   8  1   
 18   7  32  1   
 19   7  33  1   
 20   8   9  1   
 21   8  34  1   
 22   8  35  1   
 23   9  10  1   
 24   9  36  1   
 25   9  37  1   
 26  10  11  1   
 27  11  12  ar  
 28  11  13  ar  
 29  12  14  ar  
 30  12  38  1   
 31  13  15  ar  
 32  13  39  1   
 33  14  16  ar  
 34  14  40  1   
 35  15  16  ar  
 36  15  41  1   
 37  16  17  1   
 38  17  18  ar  
 39  17  19  ar  
 40  18  20  ar  
 41  18  42  1   
 42  19  21  ar  
 43  19  43  1   
 44  20  22  ar  
 45  20  44  1   
 46  21  22  ar  
 47  21  45  1   
 48  22  46  1   
@<TRIPOS>SUBSTRUCTURE
  1 ****  11 GROUP 4 **** **** 0

# MOE 2024.06 (io_trps.svl 2023.06)
