@<TRIPOS>MOLECULE
NONAME
35 36 1 0 0 
SMALL
USER_CHARGES


@<TRIPOS>ATOM
  1 O       -1.1110     4.7150    -0.7640 O.2   1 <1>  -0.5700 
  2 C       -0.9920     3.6240    -0.2480 C.2   1 <1>   0.5690 
  3 N       -2.0100     2.6810    -0.2130 N.am  1 <1>  -0.2980 
  4 C        0.3450     3.2990     0.3990 C.3   1 <1>   0.0440 
  5 N       -1.9560     1.4740     0.4640 N.2   1 <1>  -0.5120 
  6 C       -3.3060     2.8170    -0.9440 C.3   1 <1>   0.3000 
  7 C        1.2590     2.5310    -0.5490 C.ar  1 <1>  -0.1440 
  8 C       -3.0040     0.8140     0.2620 C.2   1 <1>   0.3280 
  9 C       -4.0090     1.4850    -0.6310 C.3   1 <1>  -0.0990 
 10 C       -3.0720     2.9570    -2.4550 C.3   1 <1>  -0.2400 
 11 C       -4.1240     3.9940    -0.3950 C.3   1 <1>  -0.2400 
 12 C        1.9920     3.2090    -1.5100 C.ar  1 <1>  -0.1500 
 13 C        1.3590     1.1510    -0.4650 C.ar  1 <1>  -0.1500 
 14 C       -3.3090    -0.5530     0.8300 C.3   1 <1>  -0.1790 
 15 C        2.8240     2.5170    -2.3730 C.ar  1 <1>  -0.1500 
 16 C        2.1910     0.4570    -1.3270 C.ar  1 <1>  -0.1500 
 17 C        2.9250     1.1400    -2.2810 C.ar  1 <1>  -0.1500 
 18 H        0.1860     2.7380     1.3000 H     1 <1>   0.0800 
 19 H        0.8210     4.2200     0.6810 H     1 <1>   0.0800 
 20 H       -4.1750     0.8960    -1.5140 H     1 <1>   0.0800 
 21 H       -4.9390     1.6270    -0.1130 H     1 <1>   0.0800 
 22 H       -2.4440     2.1590    -2.8110 H     1 <1>   0.0800 
 23 H       -2.6000     3.8960    -2.6820 H     1 <1>   0.0800 
 24 H       -4.0080     2.9230    -2.9810 H     1 <1>   0.0800 
 25 H       -4.2310     3.9110     0.6720 H     1 <1>   0.0800 
 26 H       -5.1010     4.0070    -0.8410 H     1 <1>   0.0800 
 27 H       -3.6450     4.9290    -0.6230 H     1 <1>   0.0800 
 28 H        1.9120     4.2800    -1.5920 H     1 <1>   0.1500 
 29 H        0.7840     0.6140     0.2690 H     1 <1>   0.1500 
 30 H       -3.4520    -1.2570     0.0320 H     1 <1>   0.0800 
 31 H       -4.1960    -0.5100     1.4330 H     1 <1>   0.0800 
 32 H       -2.4890    -0.8830     1.4420 H     1 <1>   0.0800 
 33 H        3.3900     3.0500    -3.1160 H     1 <1>   0.1500 
 34 H        2.2640    -0.6140    -1.2550 H     1 <1>   0.1500 
 35 H        3.5720     0.6010    -2.9500 H     1 <1>   0.1500 
@<TRIPOS>BOND
  1   1   2  2   
  2   2   3  am  
  3   2   4  1   
  4   3   5  1   
  5   3   6  1   
  6   4   7  1   
  7   4  18  1   
  8   4  19  1   
  9   5   8  2   
 10   6   9  1   
 11   6  10  1   
 12   6  11  1   
 13   7  12  ar  
 14   7  13  ar  
 15   8   9  1   
 16   8  14  1   
 17   9  20  1   
 18   9  21  1   
 19  10  22  1   
 20  10  23  1   
 21  10  24  1   
 22  11  25  1   
 23  11  26  1   
 24  11  27  1   
 25  12  15  ar  
 26  12  28  1   
 27  13  16  ar  
 28  13  29  1   
 29  14  30  1   
 30  14  31  1   
 31  14  32  1   
 32  15  17  ar  
 33  15  33  1   
 34  16  17  ar  
 35  16  34  1   
 36  17  35  1   
@<TRIPOS>SUBSTRUCTURE
  1 ****   3 GROUP 4 **** **** 0

# MOE 2024.06 (io_trps.svl 2023.06)
