@<TRIPOS>MOLECULE
NONAME
33 33 1 0 0 
SMALL
USER_CHARGES


@<TRIPOS>ATOM
  1 O       -6.3740     5.6170     1.5980 O.3   1 <1>  -0.6800 
  2 C       -6.7000     4.4160     1.0070 C.3   1 <1>   0.4000 
  3 C       -5.4250     3.6540     0.8770 C.1   1 <1>  -0.2000 
  4 C       -7.3370     4.6910    -0.3610 C.3   1 <1>  -0.1600 
  5 C       -4.3810     3.1000     0.7390 C.1   1 <1>  -0.2000 
  6 C       -8.6610     5.4680    -0.2740 C.3   1 <1>  -0.2400 
  7 C       -3.0380     2.5030     0.5200 C.3   1 <1>   0.5430 
  8 N       -2.0840     3.6220     0.3220 N.4   1 <1>  -0.9590 
  9 C       -2.3420     4.3500    -0.9580 C.3   1 <1>   0.3430 
 10 C       -0.6700     3.1680     0.4400 C.3   1 <1>   0.3430 
 11 C       -1.4350     5.5780    -1.0420 C.3   1 <1>  -0.1600 
 12 C        0.2650     4.3780     0.3820 C.3   1 <1>  -0.1600 
 13 C        0.0460     5.2060    -0.8910 C.3   1 <1>  -0.1600 
 14 H       -6.0540     5.4530     2.5030 H     1 <1>   0.4000 
 15 H       -7.3920     3.8970     1.6500 H     1 <1>   0.0800 
 16 H       -7.5270     3.7490    -0.8440 H     1 <1>   0.0800 
 17 H       -6.6410     5.2360    -0.9730 H     1 <1>   0.0800 
 18 H       -9.3760     4.9320     0.3260 H     1 <1>   0.0800 
 19 H       -9.0740     5.6060    -1.2580 H     1 <1>   0.0800 
 20 H       -8.5000     6.4370     0.1650 H     1 <1>   0.0800 
 21 H       -3.0520     1.8580    -0.3440 H     1 <1>   0.0800 
 22 H       -2.7620     1.9230     1.3860 H     1 <1>   0.0800 
 23 H       -2.2740     4.2910     1.0790 H     1 <1>   0.4500 
 24 H       -3.3720     4.6660    -1.0070 H     1 <1>   0.0800 
 25 H       -2.1460     3.7000    -1.7960 H     1 <1>   0.0800 
 26 H       -0.4330     2.4950    -0.3680 H     1 <1>   0.0800 
 27 H       -0.5220     2.6480     1.3730 H     1 <1>   0.0800 
 28 H       -1.7170     6.2820    -0.2780 H     1 <1>   0.0800 
 29 H       -1.5860     6.0620    -1.9920 H     1 <1>   0.0800 
 30 H        1.2850     4.0360     0.4120 H     1 <1>   0.0800 
 31 H        0.1080     4.9940     1.2510 H     1 <1>   0.0800 
 32 H        0.6460     6.1010    -0.8530 H     1 <1>   0.0800 
 33 H        0.3630     4.6370    -1.7500 H     1 <1>   0.0800 
@<TRIPOS>BOND
  1   1   2  1   
  2   1  14  1   
  3   2   3  1   
  4   2   4  1   
  5   2  15  1   
  6   3   5  3   
  7   4   6  1   
  8   4  16  1   
  9   4  17  1   
 10   5   7  1   
 11   6  18  1   
 12   6  19  1   
 13   6  20  1   
 14   7   8  1   
 15   7  21  1   
 16   7  22  1   
 17   8   9  1   
 18   8  10  1   
 19   8  23  1   
 20   9  11  1   
 21   9  24  1   
 22   9  25  1   
 23  10  12  1   
 24  10  26  1   
 25  10  27  1   
 26  11  13  1   
 27  11  28  1   
 28  11  29  1   
 29  12  13  1   
 30  12  30  1   
 31  12  31  1   
 32  13  32  1   
 33  13  33  1   
@<TRIPOS>SUBSTRUCTURE
  1 ****   5 GROUP 4 **** **** 0

# MOE 2024.06 (io_trps.svl 2023.06)
