@<TRIPOS>MOLECULE
NONAME
35 36 1 0 0 
SMALL
USER_CHARGES


@<TRIPOS>ATOM
  1 O        0.7010     0.4040    -0.1940 O.3   1 <1>  -0.3630 
  2 C       -0.5700     0.8780    -0.2240 C.ar  1 <1>   0.0830 
  3 C        1.7880     1.2440     0.1060 C.3   1 <1>   0.1200 
  4 C       -0.9130     2.2050     0.0220 C.ar  1 <1>  -0.1500 
  5 C       -1.5660    -0.0340    -0.5200 C.ar  1 <1>  -0.1500 
  6 C        3.0600     0.3990     0.0640 C.3   1 <1>  -0.1600 
  7 C       -2.2370     2.6140    -0.0270 C.ar  1 <1>  -0.1440 
  8 C       -2.8870     0.3670    -0.5700 C.ar  1 <1>  -0.1500 
  9 C        4.2930     1.2470     0.3920 C.3   1 <1>   0.0960 
 10 C       -3.2330     1.6880    -0.3250 C.ar  1 <1>  -0.1430 
 11 C       -2.5730     4.0730     0.2480 C.3   1 <1>  -0.0970 
 12 N        5.5130     0.4210     0.3460 N.pl3 1 <1>   0.0480 
 13 C       -4.7000     2.0890    -0.3900 C.3   1 <1>  -0.0970 
 14 C        6.1100    -0.2350     1.3670 C.2   1 <1>   0.0360 
 15 C        6.2820     0.1550    -0.7250 C.2   1 <1>  -0.3020 
 16 N        7.1780    -0.8810     1.0250 N.2   1 <1>  -0.5650 
 17 C        7.2880    -0.6370    -0.2940 C.2   1 <1>   0.0770 
 18 H        1.6330     1.6570     1.0880 H     1 <1>   0.0800 
 19 H        1.8220     2.0280    -0.6310 H     1 <1>   0.0800 
 20 H       -0.1580     2.9300     0.2520 H     1 <1>   0.1500 
 21 H       -1.3000    -1.0580    -0.7100 H     1 <1>   0.1500 
 22 H        3.1670    -0.0210    -0.9210 H     1 <1>   0.0800 
 23 H        2.9730    -0.3990     0.7810 H     1 <1>   0.0800 
 24 H       -3.6460    -0.3590    -0.8020 H     1 <1>   0.1500 
 25 H        4.2020     1.6720     1.3760 H     1 <1>   0.0800 
 26 H        4.3950     2.0470    -0.3190 H     1 <1>   0.0800 
 27 H       -1.6860     4.6430     0.4580 H     1 <1>   0.0800 
 28 H       -3.2290     4.1460     1.0960 H     1 <1>   0.0800 
 29 H       -3.0560     4.5070    -0.6090 H     1 <1>   0.0800 
 30 H       -4.8430     2.8400    -1.1460 H     1 <1>   0.0800 
 31 H       -5.0170     2.4800     0.5600 H     1 <1>   0.0800 
 32 H       -5.3200     1.2460    -0.6320 H     1 <1>   0.0800 
 33 H        5.7170    -0.2110     2.3680 H     1 <1>   0.1500 
 34 H        6.0790     0.5300    -1.7120 H     1 <1>   0.1500 
 35 H        8.0980    -1.0510    -0.8710 H     1 <1>   0.1500 
@<TRIPOS>BOND
  1   1   2  1   
  2   1   3  1   
  3   2   4  ar  
  4   2   5  ar  
  5   3   6  1   
  6   3  18  1   
  7   3  19  1   
  8   4   7  ar  
  9   4  20  1   
 10   5   8  ar  
 11   5  21  1   
 12   6   9  1   
 13   6  22  1   
 14   6  23  1   
 15   7  10  ar  
 16   7  11  1   
 17   8  10  ar  
 18   8  24  1   
 19   9  12  1   
 20   9  25  1   
 21   9  26  1   
 22  10  13  1   
 23  11  27  1   
 24  11  28  1   
 25  11  29  1   
 26  12  14  1   
 27  12  15  1   
 28  13  30  1   
 29  13  31  1   
 30  13  32  1   
 31  14  16  2   
 32  14  33  1   
 33  15  17  2   
 34  15  34  1   
 35  16  17  1   
 36  17  35  1   
@<TRIPOS>SUBSTRUCTURE
  1 ****   3 GROUP 4 **** **** 0

# MOE 2024.06 (io_trps.svl 2023.06)
