@<TRIPOS>MOLECULE
NONAME
55 57 1 0 0 
SMALL
USER_CHARGES


@<TRIPOS>ATOM
  1 O       -1.9100     1.9460    -1.3210 O.3   1 <1>  -0.3630 
  2 C       -1.0490     2.3700    -0.3620 C.ar  1 <1>   0.0820 
  3 C       -1.5090     0.8120    -2.0670 C.3   1 <1>   0.0400 
  4 C       -1.3750     2.1140     0.9660 C.ar  1 <1>  -0.1440 
  5 C        0.1160     3.0620    -0.6900 C.ar  1 <1>  -0.1440 
  6 C       -0.5000     2.4920     1.9700 C.ar  1 <1>  -0.1500 
  7 C       -2.6900     1.4470     1.3170 C.3   1 <1>   0.4870 
  8 C        0.9940     3.4270     0.3280 C.ar  1 <1>   0.0820 
  9 C        0.4450     3.4470    -2.1330 C.3   1 <1>  -0.0970 
 10 C        0.6810     3.1360     1.6530 C.ar  1 <1>  -0.1500 
 11 N       -3.7900     2.2810     0.7770 N.4   1 <1>  -0.9590 
 12 O        2.1420     4.0650    -0.0240 O.3   1 <1>  -0.3630 
 13 C       -3.8320     3.6530     1.4020 C.3   1 <1>   0.3430 
 14 C       -5.1310     1.6010     0.8350 C.3   1 <1>   0.3430 
 15 C        3.1410     4.3930     0.9160 C.3   1 <1>   0.0400 
 16 C       -4.9600     4.5280     0.8200 C.3   1 <1>   0.2090 
 17 C       -6.2570     2.4770     0.2500 C.3   1 <1>   0.2090 
 18 N       -6.2750     3.8230     0.8940 N.pl3 1 <1>  -0.8380 
 19 C       -7.3810     4.6160     0.5540 C.ar  1 <1>   0.1000 
 20 C       -7.6190     5.1210    -0.7390 C.ar  1 <1>   0.0820 
 21 C       -8.2850     4.9120     1.5630 C.ar  1 <1>  -0.1500 
 22 O       -6.7190     4.8250    -1.7300 O.3   1 <1>  -0.3620 
 23 C       -8.7490     5.8990    -0.9740 C.ar  1 <1>  -0.1500 
 24 C       -9.4050     5.6860     1.3200 C.ar  1 <1>  -0.1500 
 25 C       -6.8680     5.3460    -3.0330 C.3   1 <1>   0.0400 
 26 C       -9.6370     6.1790     0.0510 C.ar  1 <1>  -0.1500 
 27 H       -0.5950     1.0290    -2.5910 H     1 <1>   0.0800 
 28 H       -2.2840     0.5790    -2.7760 H     1 <1>   0.0800 
 29 H       -1.3580    -0.0160    -1.3970 H     1 <1>   0.0800 
 30 H       -0.7210     2.2920     3.0060 H     1 <1>   0.1500 
 31 H       -2.7860     1.3440     2.3850 H     1 <1>   0.0800 
 32 H       -2.7160     0.4670     0.8680 H     1 <1>   0.0800 
 33 H       -0.4280     3.4280    -2.7590 H     1 <1>   0.0800 
 34 H        1.1810     2.7730    -2.5320 H     1 <1>   0.0800 
 35 H        0.8440     4.4460    -2.1710 H     1 <1>   0.0800 
 36 H        1.3460     3.4090     2.4520 H     1 <1>   0.1500 
 37 H       -3.5340     2.4230    -0.2160 H     1 <1>   0.4500 
 38 H       -2.8890     4.1540     1.2500 H     1 <1>   0.0800 
 39 H       -3.9930     3.5630     2.4630 H     1 <1>   0.0800 
 40 H       -5.3800     1.3810     1.8590 H     1 <1>   0.0800 
 41 H       -5.0950     0.6710     0.2920 H     1 <1>   0.0800 
 42 H        3.9580     4.8510     0.3880 H     1 <1>   0.0800 
 43 H        3.4790     3.4920     1.3970 H     1 <1>   0.0800 
 44 H        2.7360     5.0870     1.6310 H     1 <1>   0.0800 
 45 H       -4.7310     4.7750    -0.2020 H     1 <1>   0.0800 
 46 H       -5.0220     5.4490     1.3750 H     1 <1>   0.0800 
 47 H       -7.2070     1.9970     0.4130 H     1 <1>   0.0800 
 48 H       -6.1180     2.5790    -0.8120 H     1 <1>   0.0800 
 49 H       -8.1040     4.5280     2.5500 H     1 <1>   0.1500 
 50 H       -8.9660     6.2990    -1.9460 H     1 <1>   0.1500 
 51 H      -10.0940     5.9030     2.1180 H     1 <1>   0.1500 
 52 H       -6.0400     5.0060    -3.6280 H     1 <1>   0.0800 
 53 H       -6.8640     6.4210    -2.9830 H     1 <1>   0.0800 
 54 H       -7.7900     4.9830    -3.4520 H     1 <1>   0.0800 
 55 H      -10.5080     6.7820    -0.1400 H     1 <1>   0.1500 
@<TRIPOS>BOND
  1   1   2  1   
  2   1   3  1   
  3   2   4  ar  
  4   2   5  ar  
  5   3  27  1   
  6   3  28  1   
  7   3  29  1   
  8   4   6  ar  
  9   4   7  1   
 10   5   8  ar  
 11   5   9  1   
 12   6  10  ar  
 13   6  30  1   
 14   7  11  1   
 15   7  31  1   
 16   7  32  1   
 17   8  10  ar  
 18   8  12  1   
 19   9  33  1   
 20   9  34  1   
 21   9  35  1   
 22  10  36  1   
 23  11  13  1   
 24  11  14  1   
 25  11  37  1   
 26  12  15  1   
 27  13  16  1   
 28  13  38  1   
 29  13  39  1   
 30  14  17  1   
 31  14  40  1   
 32  14  41  1   
 33  15  42  1   
 34  15  43  1   
 35  15  44  1   
 36  16  18  1   
 37  16  45  1   
 38  16  46  1   
 39  17  18  1   
 40  17  47  1   
 41  17  48  1   
 42  18  19  1   
 43  19  20  ar  
 44  19  21  ar  
 45  20  22  1   
 46  20  23  ar  
 47  21  24  ar  
 48  21  49  1   
 49  22  25  1   
 50  23  26  ar  
 51  23  50  1   
 52  24  26  ar  
 53  24  51  1   
 54  25  52  1   
 55  25  53  1   
 56  25  54  1   
 57  26  55  1   
@<TRIPOS>SUBSTRUCTURE
  1 ****  13 GROUP 4 **** **** 0

# MOE 2024.06 (io_trps.svl 2023.06)
