@<TRIPOS>MOLECULE
NONAME
45 47 1 0 0 
SMALL
USER_CHARGES


@<TRIPOS>ATOM
  1 CL      -0.3480     3.5520    -3.8390 Cl    1 <1>  -0.1770 
  2 C       -0.3870     3.7790    -2.1090 C.ar  1 <1>   0.1770 
  3 C       -1.5110     4.3210    -1.5250 C.ar  1 <1>  -0.1500 
  4 C        0.7110     3.4120    -1.3550 C.ar  1 <1>  -0.1500 
  5 C       -1.5570     4.5070    -0.1480 C.ar  1 <1>   0.1000 
  6 C        0.6730     3.5940     0.0170 C.ar  1 <1>  -0.1500 
  7 N       -2.6930     5.0500     0.4510 N.pl3 1 <1>  -0.8380 
  8 C       -0.4500     4.1380     0.6220 C.ar  1 <1>  -0.1430 
  9 C       -2.9900     6.4990     0.2370 C.3   1 <1>   0.2090 
 10 C       -3.9060     4.1900     0.5750 C.3   1 <1>   0.2090 
 11 C       -0.4680     4.3300     2.1320 C.3   1 <1>  -0.0970 
 12 C       -4.0870     6.7300    -0.8230 C.3   1 <1>   0.1960 
 13 C       -4.9540     4.4990    -0.5130 C.3   1 <1>   0.1960 
 14 N       -5.3030     5.9330    -0.5710 N.am  1 <1>  -0.8490 
 15 S       -6.4930     6.2590    -1.7310 S.o2  1 <1>   1.5010 
 16 O       -6.0950     5.5610    -2.9350 O.2   1 <1>  -0.6500 
 17 O       -6.6710     7.6940    -1.7620 O.2   1 <1>  -0.6500 
 18 C       -7.9530     5.4810    -1.0310 C.2   1 <1>  -0.0630 
 19 C       -8.6570     4.4560    -1.6470 C.2   1 <1>   0.1390 
 20 C       -8.6180     5.6730     0.1350 C.2   1 <1>  -0.3020 
 21 N       -9.6600     4.0380    -0.9360 N.2   1 <1>  -0.7070 
 22 N       -9.6390     4.7990     0.1710 N.pl3 1 <1>   0.3140 
 23 C      -10.6370     4.6450     1.2480 C.3   1 <1>   0.0960 
 24 C      -10.0590     3.8560     2.4300 C.3   1 <1>  -0.2400 
 25 H       -2.3450     4.5950    -2.1390 H     1 <1>   0.1500 
 26 H        1.5760     2.9910    -1.8350 H     1 <1>   0.1500 
 27 H        1.5260     3.3100     0.6090 H     1 <1>   0.1500 
 28 H       -2.0910     7.0080    -0.0630 H     1 <1>   0.0800 
 29 H       -3.3120     6.9260     1.1710 H     1 <1>   0.0800 
 30 H       -4.3470     4.3490     1.5430 H     1 <1>   0.0800 
 31 H       -3.6190     3.1550     0.5100 H     1 <1>   0.0800 
 32 H       -1.2740     3.7610     2.5590 H     1 <1>   0.0800 
 33 H       -0.6220     5.3680     2.3620 H     1 <1>   0.0800 
 34 H        0.4550     4.0100     2.5790 H     1 <1>   0.0800 
 35 H       -3.6900     6.4920    -1.7950 H     1 <1>   0.0800 
 36 H       -4.3380     7.7770    -0.8210 H     1 <1>   0.0800 
 37 H       -5.8370     3.9200    -0.3030 H     1 <1>   0.0800 
 38 H       -4.5670     4.1730    -1.4630 H     1 <1>   0.0800 
 39 H       -8.4030     4.0440    -2.6110 H     1 <1>   0.1500 
 40 H       -8.4120     6.3760     0.9220 H     1 <1>   0.1500 
 41 H      -11.4900     4.1290     0.8450 H     1 <1>   0.0800 
 42 H      -10.9480     5.6230     1.5680 H     1 <1>   0.0800 
 43 H       -9.7550     2.8760     2.1050 H     1 <1>   0.0800 
 44 H      -10.8070     3.7440     3.1940 H     1 <1>   0.0800 
 45 H       -9.2140     4.3710     2.8510 H     1 <1>   0.0800 
@<TRIPOS>BOND
  1   1   2  1   
  2   2   3  ar  
  3   2   4  ar  
  4   3   5  ar  
  5   3  25  1   
  6   4   6  ar  
  7   4  26  1   
  8   5   7  1   
  9   5   8  ar  
 10   6   8  ar  
 11   6  27  1   
 12   7   9  1   
 13   7  10  1   
 14   8  11  1   
 15   9  12  1   
 16   9  28  1   
 17   9  29  1   
 18  10  13  1   
 19  10  30  1   
 20  10  31  1   
 21  11  32  1   
 22  11  33  1   
 23  11  34  1   
 24  12  14  1   
 25  12  35  1   
 26  12  36  1   
 27  13  14  1   
 28  13  37  1   
 29  13  38  1   
 30  14  15  am  
 31  15  16  2   
 32  15  17  2   
 33  15  18  1   
 34  18  19  1   
 35  18  20  2   
 36  19  21  2   
 37  19  39  1   
 38  20  22  1   
 39  20  40  1   
 40  21  22  1   
 41  22  23  1   
 42  23  24  1   
 43  23  41  1   
 44  23  42  1   
 45  24  43  1   
 46  24  44  1   
 47  24  45  1   
@<TRIPOS>SUBSTRUCTURE
  1 ****  13 GROUP 4 **** **** 0

# MOE 2024.06 (io_trps.svl 2023.06)
