@<TRIPOS>MOLECULE
NONAME
39 39 1 0 0 
SMALL
USER_CHARGES


@<TRIPOS>ATOM
  1 O        0.0090     0.4020     1.3220 O.2   1 <1>  -0.5700 
  2 C       -0.0680     1.1500     0.3690 C.2   1 <1>   0.6900 
  3 N       -1.2620     1.5950    -0.1140 N.am  1 <1>  -0.5470 
  4 N        1.0520     1.5880    -0.2570 N.am  1 <1>  -0.7300 
  5 C       -2.5820     1.2540     0.2230 C.ar  1 <1>   0.1170 
  6 C        2.4300     1.2450     0.1360 C.3   1 <1>   0.2200 
  7 C       -3.6120     2.1910     0.0720 C.ar  1 <1>  -0.1430 
  8 C       -2.8900    -0.0230     0.6770 C.ar  1 <1>  -0.1500 
  9 C        3.2360     2.5530     0.2440 C.3   1 <1>  -0.1600 
 10 C        2.9670     0.2550    -0.9110 C.3   1 <1>  -0.1600 
 11 C       -4.9280     1.8270     0.3600 C.ar  1 <1>  -0.1430 
 12 C       -3.2700     3.6050    -0.4060 C.3   1 <1>  -0.0970 
 13 C       -4.1890    -0.3770     0.9730 C.ar  1 <1>  -0.1500 
 14 C        4.2740     2.5240     1.3750 C.3   1 <1>  -0.2400 
 15 C        4.3800    -0.2700    -0.6230 C.3   1 <1>  -0.2400 
 16 C       -5.2040     0.5450     0.8120 C.ar  1 <1>  -0.1500 
 17 C       -6.1010     2.7850     0.1980 C.3   1 <1>  -0.0970 
 18 H       -1.1820     2.3900    -0.7340 H     1 <1>   0.3700 
 19 H        0.9680     2.0590    -1.1520 H     1 <1>   0.3700 
 20 H        2.4060     0.7620     1.1010 H     1 <1>   0.0800 
 21 H       -2.1080    -0.7510     0.7980 H     1 <1>   0.1500 
 22 H        2.5640     3.3670     0.4560 H     1 <1>   0.0800 
 23 H        3.7250     2.7640    -0.6910 H     1 <1>   0.0800 
 24 H        2.9600     0.7150    -1.8830 H     1 <1>   0.0800 
 25 H        2.3010    -0.5910    -0.9390 H     1 <1>   0.0800 
 26 H       -2.3980     3.9710     0.1060 H     1 <1>   0.0800 
 27 H       -4.0570     4.3060    -0.2100 H     1 <1>   0.0800 
 28 H       -3.0810     3.5950    -1.4640 H     1 <1>   0.0800 
 29 H       -4.4100    -1.3690     1.3270 H     1 <1>   0.1500 
 30 H        3.7870     2.3600     2.3210 H     1 <1>   0.0800 
 31 H        4.7920     3.4660     1.4210 H     1 <1>   0.0800 
 32 H        5.0000     1.7470     1.2260 H     1 <1>   0.0800 
 33 H        5.1080     0.5140    -0.7260 H     1 <1>   0.0800 
 34 H        4.6280    -1.0500    -1.3210 H     1 <1>   0.0800 
 35 H        4.4340    -0.6750     0.3730 H     1 <1>   0.0800 
 36 H       -6.2130     0.2540     1.0430 H     1 <1>   0.1500 
 37 H       -6.1050     3.2030    -0.7930 H     1 <1>   0.0800 
 38 H       -6.0280     3.5790     0.9190 H     1 <1>   0.0800 
 39 H       -7.0380     2.2800     0.3480 H     1 <1>   0.0800 
@<TRIPOS>BOND
  1   1   2  2   
  2   2   3  am  
  3   2   4  am  
  4   3   5  1   
  5   3  18  1   
  6   4   6  1   
  7   4  19  1   
  8   5   7  ar  
  9   5   8  ar  
 10   6   9  1   
 11   6  10  1   
 12   6  20  1   
 13   7  11  ar  
 14   7  12  1   
 15   8  13  ar  
 16   8  21  1   
 17   9  14  1   
 18   9  22  1   
 19   9  23  1   
 20  10  15  1   
 21  10  24  1   
 22  10  25  1   
 23  11  16  ar  
 24  11  17  1   
 25  12  26  1   
 26  12  27  1   
 27  12  28  1   
 28  13  16  ar  
 29  13  29  1   
 30  14  30  1   
 31  14  31  1   
 32  14  32  1   
 33  15  33  1   
 34  15  34  1   
 35  15  35  1   
 36  16  36  1   
 37  17  37  1   
 38  17  38  1   
 39  17  39  1   
@<TRIPOS>SUBSTRUCTURE
  1 ****   3 GROUP 4 **** **** 0

# MOE 2024.06 (io_trps.svl 2023.06)
