@<TRIPOS>MOLECULE
NONAME
47 48 1 0 0 
SMALL
USER_CHARGES


@<TRIPOS>ATOM
  1 O       -0.4900    -0.9490     0.5220 O.3   1 <1>  -0.3630 
  2 C       -1.8160    -0.8310     0.2460 C.ar  1 <1>   0.0830 
  3 C        0.4960    -0.4440    -0.3480 C.3   1 <1>   0.1200 
  4 C       -2.7150    -1.3630     1.1660 C.ar  1 <1>  -0.1440 
  5 C       -2.2980    -0.2070    -0.9040 C.ar  1 <1>  -0.1500 
  6 C        1.8660    -0.7450     0.2600 C.3   1 <1>  -0.1600 
  7 C       -4.0760    -1.2650     0.9280 C.ar  1 <1>  -0.1500 
  8 C       -2.2140    -2.0490     2.4290 C.3   1 <1>  -0.0970 
  9 C       -3.6600    -0.1140    -1.1380 C.ar  1 <1>  -0.1430 
 10 C        2.9990    -0.2170    -0.6300 C.3   1 <1>  -0.1600 
 11 C       -4.5460    -0.6450    -0.2160 C.ar  1 <1>  -0.1500 
 12 C       -4.1820     0.5670    -2.3910 C.3   1 <1>  -0.0970 
 13 C        4.3690    -0.5200    -0.0110 C.3   1 <1>  -0.1600 
 14 C        5.5140     0.0070    -0.8830 C.3   1 <1>   0.0210 
 15 C        6.8540    -0.2980    -0.2350 C.2   1 <1>  -0.1810 
 16 C        7.5380     0.5030     0.6790 C.2   1 <1>   0.1080 
 17 C        7.6440    -1.3820    -0.4000 C.2   1 <1>  -0.3320 
 18 N        8.6590    -0.0250     1.0540 N.2   1 <1>  -0.7070 
 19 C        7.0720     1.8430     1.2030 C.3   1 <1>  -0.0590 
 20 N        8.7240    -1.1900     0.3860 N.pl3 1 <1>   0.3000 
 21 C        7.4550    -2.6190    -1.2600 C.3   1 <1>  -0.0600 
 22 H        0.3480     0.6170    -0.4470 H     1 <1>   0.0800 
 23 H        0.3870    -0.9300    -1.3020 H     1 <1>   0.0800 
 24 H       -1.6260     0.2120    -1.6270 H     1 <1>   0.1500 
 25 H        1.9680    -1.8090     0.3790 H     1 <1>   0.0800 
 26 H        1.9250    -0.2820     1.2300 H     1 <1>   0.0800 
 27 H       -4.7790    -1.6720     1.6320 H     1 <1>   0.1500 
 28 H       -1.5930    -2.8860     2.1650 H     1 <1>   0.0800 
 29 H       -3.0320    -2.4020     3.0310 H     1 <1>   0.0800 
 30 H       -1.6320    -1.3570     3.0110 H     1 <1>   0.0800 
 31 H        2.8890     0.8480    -0.7540 H     1 <1>   0.0800 
 32 H        2.9350    -0.6770    -1.6020 H     1 <1>   0.0800 
 33 H       -5.6060    -0.5770    -0.3840 H     1 <1>   0.1500 
 34 H       -3.4650     0.4920    -3.1880 H     1 <1>   0.0800 
 35 H       -4.3700     1.6050    -2.1870 H     1 <1>   0.0800 
 36 H       -5.0970     0.1040    -2.7150 H     1 <1>   0.0800 
 37 H        4.4860    -1.5830     0.1100 H     1 <1>   0.0800 
 38 H        4.4330    -0.0690     0.9640 H     1 <1>   0.0800 
 39 H        5.4170     1.0700    -1.0200 H     1 <1>   0.0800 
 40 H        5.4750    -0.4520    -1.8540 H     1 <1>   0.0800 
 41 H        7.1230     2.5740     0.4190 H     1 <1>   0.0800 
 42 H        7.7060     2.1550     2.0130 H     1 <1>   0.0800 
 43 H        6.0630     1.7680     1.5610 H     1 <1>   0.0800 
 44 H        9.5180    -1.8320     0.4900 H     1 <1>   0.2700 
 45 H        6.5100    -2.5860    -1.7710 H     1 <1>   0.0800 
 46 H        7.4760    -3.5020    -0.6460 H     1 <1>   0.0800 
 47 H        8.2380    -2.6830    -1.9940 H     1 <1>   0.0800 
@<TRIPOS>BOND
  1   1   2  1   
  2   1   3  1   
  3   2   4  ar  
  4   2   5  ar  
  5   3   6  1   
  6   3  22  1   
  7   3  23  1   
  8   4   7  ar  
  9   4   8  1   
 10   5   9  ar  
 11   5  24  1   
 12   6  10  1   
 13   6  25  1   
 14   6  26  1   
 15   7  11  ar  
 16   7  27  1   
 17   8  28  1   
 18   8  29  1   
 19   8  30  1   
 20   9  11  ar  
 21   9  12  1   
 22  10  13  1   
 23  10  31  1   
 24  10  32  1   
 25  11  33  1   
 26  12  34  1   
 27  12  35  1   
 28  12  36  1   
 29  13  14  1   
 30  13  37  1   
 31  13  38  1   
 32  14  15  1   
 33  14  39  1   
 34  14  40  1   
 35  15  16  1   
 36  15  17  2   
 37  16  18  2   
 38  16  19  1   
 39  17  20  1   
 40  17  21  1   
 41  18  20  1   
 42  19  41  1   
 43  19  42  1   
 44  19  43  1   
 45  20  44  1   
 46  21  45  1   
 47  21  46  1   
 48  21  47  1   
@<TRIPOS>SUBSTRUCTURE
  1 ****   6 GROUP 4 **** **** 0

# MOE 2024.06 (io_trps.svl 2023.06)
