@<TRIPOS>MOLECULE
NONAME
44 44 1 0 0 
SMALL
USER_CHARGES


@<TRIPOS>ATOM
  1 O        0.7060    -0.2600     0.1950 O.3   1 <1>  -0.3630 
  2 C       -0.5180    -0.8490     0.1680 C.ar  1 <1>   0.0830 
  3 C        1.8820    -1.0220     0.0790 C.3   1 <1>   0.1200 
  4 C       -1.6140    -0.0090     0.2870 C.ar  1 <1>  -0.1500 
  5 C       -0.7190    -2.2200     0.0300 C.ar  1 <1>  -0.1500 
  6 C        3.0640    -0.0510     0.1460 C.3   1 <1>  -0.1600 
  7 C       -2.9000    -0.5190     0.2700 C.ar  1 <1>  -0.1500 
  8 C       -2.0050    -2.7300     0.0130 C.ar  1 <1>  -0.1500 
  9 C        4.4120    -0.7780     0.0290 C.3   1 <1>  -0.1600 
 10 C       -3.1010    -1.8900     0.1320 C.ar  1 <1>   0.0830 
 11 C        5.5640     0.2230     0.1000 C.3   1 <1>   0.3430 
 12 O       -4.3260    -2.4770     0.1050 O.3   1 <1>  -0.3620 
 13 N        6.8520    -0.5080    -0.0160 N.4   1 <1>  -0.9060 
 14 C       -5.5030    -1.7080     0.2180 C.3   1 <1>   0.0400 
 15 C        8.0750     0.2970     0.0320 C.3   1 <1>   0.5030 
 16 C        9.2370    -0.6810    -0.1070 C.3   1 <1>  -0.2400 
 17 C        8.0880     1.2880    -1.1320 C.3   1 <1>  -0.2400 
 18 C        8.1640     1.0230     1.3740 C.3   1 <1>  -0.2400 
 19 H        1.8580    -1.5390    -0.8640 H     1 <1>   0.0800 
 20 H        1.9100    -1.7250     0.8940 H     1 <1>   0.0800 
 21 H       -1.4510     1.0480     0.3930 H     1 <1>   0.1500 
 22 H        0.1030    -2.9030    -0.0650 H     1 <1>   0.1500 
 23 H        3.0160     0.4780     1.0830 H     1 <1>   0.0800 
 24 H        2.9640     0.6620    -0.6550 H     1 <1>   0.0800 
 25 H       -3.7240     0.1610     0.3640 H     1 <1>   0.1500 
 26 H       -2.1710    -3.7870    -0.0930 H     1 <1>   0.1500 
 27 H        4.4430    -1.3040    -0.9100 H     1 <1>   0.0800 
 28 H        4.4960    -1.4880     0.8340 H     1 <1>   0.0800 
 29 H        5.5210     0.7540     1.0380 H     1 <1>   0.0800 
 30 H        5.4680     0.9380    -0.7020 H     1 <1>   0.0800 
 31 H        6.8650    -1.0280    -0.8980 H     1 <1>   0.4500 
 32 H        6.9140    -1.2010     0.7350 H     1 <1>   0.4500 
 33 H       -6.3430    -2.3770     0.1720 H     1 <1>   0.0800 
 34 H       -5.5440    -1.0110    -0.6000 H     1 <1>   0.0800 
 35 H       -5.4950    -1.1960     1.1640 H     1 <1>   0.0800 
 36 H        9.1930    -1.2070    -1.0440 H     1 <1>   0.0800 
 37 H        9.2460    -1.3920     0.7000 H     1 <1>   0.0800 
 38 H       10.1710    -0.1460    -0.0790 H     1 <1>   0.0800 
 39 H        7.9760     0.7820    -2.0740 H     1 <1>   0.0800 
 40 H        9.0300     1.8100    -1.1510 H     1 <1>   0.0800 
 41 H        7.3180     2.0310    -1.0310 H     1 <1>   0.0800 
 42 H        7.3940     1.7650     1.4770 H     1 <1>   0.0800 
 43 H        8.1060     0.3310     2.1950 H     1 <1>   0.0800 
 44 H        9.1090     1.5350     1.4450 H     1 <1>   0.0800 
@<TRIPOS>BOND
  1   1   2  1   
  2   1   3  1   
  3   2   4  ar  
  4   2   5  ar  
  5   3   6  1   
  6   3  19  1   
  7   3  20  1   
  8   4   7  ar  
  9   4  21  1   
 10   5   8  ar  
 11   5  22  1   
 12   6   9  1   
 13   6  23  1   
 14   6  24  1   
 15   7  10  ar  
 16   7  25  1   
 17   8  10  ar  
 18   8  26  1   
 19   9  11  1   
 20   9  27  1   
 21   9  28  1   
 22  10  12  1   
 23  11  13  1   
 24  11  29  1   
 25  11  30  1   
 26  12  14  1   
 27  13  15  1   
 28  13  31  1   
 29  13  32  1   
 30  14  33  1   
 31  14  34  1   
 32  14  35  1   
 33  15  16  1   
 34  15  17  1   
 35  15  18  1   
 36  16  36  1   
 37  16  37  1   
 38  16  38  1   
 39  17  39  1   
 40  17  40  1   
 41  17  41  1   
 42  18  42  1   
 43  18  43  1   
 44  18  44  1   
@<TRIPOS>SUBSTRUCTURE
  1 ****   3 GROUP 4 **** **** 0

# MOE 2024.06 (io_trps.svl 2023.06)
