@<TRIPOS>MOLECULE
NONAME
46 47 1 0 0 
SMALL
USER_CHARGES


@<TRIPOS>ATOM
  1 S       -0.3320     0.4190    -0.9710 S.o2  1 <1>   1.3330 
  2 O       -0.3880     1.2060    -2.1830 O.2   1 <1>  -0.6500 
  3 O        0.0420    -0.9760    -1.0440 O.2   1 <1>  -0.6500 
  4 N       -1.8510     0.5260    -0.2250 N.am  1 <1>  -0.8490 
  5 C        0.7460     1.2230     0.2190 C.3   1 <1>  -0.0550 
  6 C       -2.7180    -0.6020    -0.5820 C.3   1 <1>   0.1960 
  7 C       -2.5080     1.8120    -0.4810 C.3   1 <1>   0.1960 
  8 C        2.2220     1.2660    -0.2110 C.3   1 <1>  -0.1600 
  9 C       -4.0180    -0.5580     0.2260 C.3   1 <1>  -0.1600 
 10 C       -3.7880     1.9330     0.3480 C.3   1 <1>  -0.1600 
 11 C        3.0890     1.9640     0.8420 C.3   1 <1>  -0.2400 
 12 C       -4.7550     0.7780     0.0420 C.3   1 <1>  -0.0190 
 13 C       -6.0140     0.8460     0.9020 C.2   1 <1>   0.5690 
 14 O       -5.9140     0.8890     2.1050 O.2   1 <1>  -0.5700 
 15 N       -7.2210     0.8550     0.2830 N.am  1 <1>  -0.7300 
 16 C       -8.5250     0.9150     0.9640 C.3   1 <1>   0.2200 
 17 C       -9.3610    -0.2820     0.5280 C.3   1 <1>  -0.1600 
 18 C       -9.3070     2.1050     0.4240 C.3   1 <1>  -0.1600 
 19 C       -9.9670     0.1010    -0.8280 C.3   1 <1>  -0.1600 
 20 C       -9.9300     1.6340    -0.8950 C.3   1 <1>  -0.1600 
 21 H        0.6730     0.7010     1.1540 H     1 <1>   0.0800 
 22 H        0.4050     2.2260     0.3790 H     1 <1>   0.0800 
 23 H       -2.2180    -1.5310    -0.3630 H     1 <1>   0.0800 
 24 H       -2.9310    -0.5770    -1.6390 H     1 <1>   0.0800 
 25 H       -2.7430     1.9010    -1.5300 H     1 <1>   0.0800 
 26 H       -1.8440     2.6190    -0.2190 H     1 <1>   0.0800 
 27 H        2.3050     1.7890    -1.1490 H     1 <1>   0.0800 
 28 H        2.5790     0.2600    -0.3600 H     1 <1>   0.0800 
 29 H       -3.7820    -0.7010     1.2670 H     1 <1>   0.0800 
 30 H       -4.6550    -1.3690    -0.0780 H     1 <1>   0.0800 
 31 H       -4.2670     2.8720     0.1340 H     1 <1>   0.0800 
 32 H       -3.5280     1.9270     1.3930 H     1 <1>   0.0800 
 33 H        2.7640     2.9790     0.9880 H     1 <1>   0.0800 
 34 H        4.1160     1.9790     0.5190 H     1 <1>   0.0800 
 35 H        3.0360     1.4420     1.7810 H     1 <1>   0.0800 
 36 H       -5.0480     0.8570    -0.9900 H     1 <1>   0.0800 
 37 H       -7.2870     0.8130    -0.7320 H     1 <1>   0.3700 
 38 H       -8.3990     0.9580     2.0340 H     1 <1>   0.0800 
 39 H      -10.1570    -0.4150     1.2400 H     1 <1>   0.0800 
 40 H       -8.7840    -1.1890     0.4880 H     1 <1>   0.0800 
 41 H       -8.6910     2.9790     0.3080 H     1 <1>   0.0800 
 42 H      -10.0960     2.3340     1.1190 H     1 <1>   0.0800 
 43 H      -10.9730    -0.2720    -0.9160 H     1 <1>   0.0800 
 44 H       -9.3730    -0.3120    -1.6250 H     1 <1>   0.0800 
 45 H       -9.3170     1.9470    -1.7230 H     1 <1>   0.0800 
 46 H      -10.9170     2.0450    -1.0210 H     1 <1>   0.0800 
@<TRIPOS>BOND
  1   1   2  2   
  2   1   3  2   
  3   1   4  am  
  4   1   5  1   
  5   4   6  1   
  6   4   7  1   
  7   5   8  1   
  8   5  21  1   
  9   5  22  1   
 10   6   9  1   
 11   6  23  1   
 12   6  24  1   
 13   7  10  1   
 14   7  25  1   
 15   7  26  1   
 16   8  11  1   
 17   8  27  1   
 18   8  28  1   
 19   9  12  1   
 20   9  29  1   
 21   9  30  1   
 22  10  12  1   
 23  10  31  1   
 24  10  32  1   
 25  11  33  1   
 26  11  34  1   
 27  11  35  1   
 28  12  13  1   
 29  12  36  1   
 30  13  14  2   
 31  13  15  am  
 32  15  16  1   
 33  15  37  1   
 34  16  17  1   
 35  16  18  1   
 36  16  38  1   
 37  17  19  1   
 38  17  39  1   
 39  17  40  1   
 40  18  20  1   
 41  18  41  1   
 42  18  42  1   
 43  19  20  1   
 44  19  43  1   
 45  19  44  1   
 46  20  45  1   
 47  20  46  1   
@<TRIPOS>SUBSTRUCTURE
  1 ****  12 GROUP 4 **** **** 0

# MOE 2024.06 (io_trps.svl 2023.06)
