@<TRIPOS>MOLECULE
NONAME
48 51 1 0 0 
SMALL
USER_CHARGES


@<TRIPOS>ATOM
  1 O       -0.0770     2.5550     3.7290 O.2   1 <1>  -0.5700 
  2 C        0.3970     3.1670     2.8070 C.2   1 <1>   0.5690 
  3 N        1.7330     3.0680     2.5700 N.am  1 <1>  -0.5470 
  4 C       -0.5110     4.0420     1.9530 C.3   1 <1>  -0.0990 
  5 C        2.5320     3.7010     1.6150 C.ar  1 <1>   0.1170 
  6 C       -1.2120     3.3250     0.7750 C.3   1 <1>   0.0000 
  7 C        3.1260     2.9570     0.6070 C.ar  1 <1>  -0.1500 
  8 C        2.7480     5.0700     1.6640 C.ar  1 <1>  -0.1500 
  9 C       -2.1350     2.1890     1.2770 C.3   1 <1>  -0.1600 
 10 C       -0.1920     2.7230    -0.2190 C.3   1 <1>  -0.1600 
 11 C       -2.0810     4.3550     0.0130 C.3   1 <1>  -0.1600 
 12 C        3.9170     3.5450    -0.3820 C.ar  1 <1>   0.0860 
 13 C        3.5330     5.6820     0.7070 C.ar  1 <1>  -0.1500 
 14 C       -2.8640     1.5160     0.0980 C.3   1 <1>  -0.0800 
 15 C       -0.9100     2.0530    -1.4050 C.3   1 <1>  -0.0800 
 16 C       -2.8090     3.6940    -1.1710 C.3   1 <1>  -0.0800 
 17 C        4.5240     2.7900    -1.4620 C.2   1 <1>   0.4230 
 18 C        4.1060     4.9270    -0.3000 C.ar  1 <1>  -0.1500 
 19 C       -1.8220     0.9310    -0.8740 C.3   1 <1>  -0.1600 
 20 C       -3.7130     2.5660    -0.6410 C.3   1 <1>  -0.1600 
 21 C       -1.7670     3.1010    -2.1370 C.3   1 <1>  -0.1600 
 22 O        5.3070     3.2690    -2.2400 O.2   1 <1>  -0.5700 
 23 C        4.1780     1.3270    -1.6640 C.3   1 <1>  -0.1790 
 24 H        2.1920     2.4060     3.1960 H     1 <1>   0.3700 
 25 H        0.0510     4.8730     1.5740 H     1 <1>   0.0800 
 26 H       -1.2620     4.4500     2.6040 H     1 <1>   0.0800 
 27 H        2.9530     1.8980     0.6020 H     1 <1>   0.1500 
 28 H        2.3050     5.6530     2.4530 H     1 <1>   0.1500 
 29 H       -2.8590     2.5820     1.9690 H     1 <1>   0.0800 
 30 H       -1.5600     1.4460     1.8010 H     1 <1>   0.0800 
 31 H        0.4100     1.9840     0.2770 H     1 <1>   0.0800 
 32 H        0.4610     3.4950    -0.5860 H     1 <1>   0.0800 
 33 H       -1.4630     5.1550    -0.3550 H     1 <1>   0.0800 
 34 H       -2.8080     4.7850     0.6800 H     1 <1>   0.0800 
 35 H        3.7010     6.7450     0.7450 H     1 <1>   0.1500 
 36 H       -3.4990     0.7280     0.4670 H     1 <1>   0.0800 
 37 H       -0.1840     1.6400    -2.0850 H     1 <1>   0.0800 
 38 H       -3.4070     4.4260    -1.6860 H     1 <1>   0.0800 
 39 H        4.7150     5.4160    -1.0430 H     1 <1>   0.1500 
 40 H       -2.3220     0.4490    -1.6960 H     1 <1>   0.0800 
 41 H       -1.2310     0.1880    -0.3690 H     1 <1>   0.0800 
 42 H       -4.4500     2.9730     0.0280 H     1 <1>   0.0800 
 43 H       -4.2350     2.1020    -1.4590 H     1 <1>   0.0800 
 44 H       -2.2660     2.6430    -2.9740 H     1 <1>   0.0800 
 45 H       -1.1380     3.8840    -2.5210 H     1 <1>   0.0800 
 46 H        3.1130     1.2050    -1.7360 H     1 <1>   0.0800 
 47 H        4.5580     0.7430    -0.8460 H     1 <1>   0.0800 
 48 H        4.6250     0.9700    -2.5750 H     1 <1>   0.0800 
@<TRIPOS>BOND
  1   1   2  2   
  2   2   3  am  
  3   2   4  1   
  4   3   5  1   
  5   3  24  1   
  6   4   6  1   
  7   4  25  1   
  8   4  26  1   
  9   5   7  ar  
 10   5   8  ar  
 11   6   9  1   
 12   6  10  1   
 13   6  11  1   
 14   7  12  ar  
 15   7  27  1   
 16   8  13  ar  
 17   8  28  1   
 18   9  14  1   
 19   9  29  1   
 20   9  30  1   
 21  10  15  1   
 22  10  31  1   
 23  10  32  1   
 24  11  16  1   
 25  11  33  1   
 26  11  34  1   
 27  12  17  1   
 28  12  18  ar  
 29  13  18  ar  
 30  13  35  1   
 31  14  19  1   
 32  14  20  1   
 33  14  36  1   
 34  15  19  1   
 35  15  21  1   
 36  15  37  1   
 37  16  20  1   
 38  16  21  1   
 39  16  38  1   
 40  17  22  2   
 41  17  23  1   
 42  18  39  1   
 43  19  40  1   
 44  19  41  1   
 45  20  42  1   
 46  20  43  1   
 47  21  44  1   
 48  21  45  1   
 49  23  46  1   
 50  23  47  1   
 51  23  48  1   
@<TRIPOS>SUBSTRUCTURE
  1 ****  10 GROUP 4 **** **** 0

# MOE 2024.06 (io_trps.svl 2023.06)
