@<TRIPOS>MOLECULE
NONAME
48 50 1 0 0 
SMALL
USER_CHARGES


@<TRIPOS>ATOM
  1 S       -0.5650     0.0550    -1.7400 S.o2  1 <1>   1.4470 
  2 O       -1.5140     1.1220    -1.9800 O.2   1 <1>  -0.6500 
  3 O       -0.2980    -0.9080    -2.7850 O.2   1 <1>  -0.6500 
  4 N        0.9110     0.7930    -1.3440 N.am  1 <1>  -0.8490 
  5 C       -0.9930    -0.8340    -0.2150 C.ar  1 <1>  -0.0090 
  6 C        0.7340     1.9110    -0.4120 C.3   1 <1>   0.1960 
  7 C        1.6370     1.2170    -2.5450 C.3   1 <1>   0.1960 
  8 C       -2.2420    -0.6790     0.3840 C.ar  1 <1>  -0.1500 
  9 C       -0.0740    -1.6940     0.3840 C.ar  1 <1>  -0.1500 
 10 C        2.0980     2.4170     0.0600 C.3   1 <1>  -0.1600 
 11 C        3.0360     1.7080    -2.1650 C.3   1 <1>  -0.1600 
 12 C       -2.5690    -1.3530     1.5500 C.ar  1 <1>  -0.1500 
 13 C       -0.3810    -2.3780     1.5500 C.ar  1 <1>  -0.1500 
 14 C        2.9690     2.8470    -1.1330 C.3   1 <1>  -0.0190 
 15 C       -1.6280    -2.1920     2.1130 C.ar  1 <1>   0.1900 
 16 C        4.3570     3.3050    -0.6940 C.2   1 <1>   0.5690 
 17 F       -1.9260    -2.8290     3.2120 F     1 <1>  -0.1900 
 18 O        4.6990     4.4390    -0.9280 O.2   1 <1>  -0.5700 
 19 N        5.1720     2.4310    -0.0530 N.am  1 <1>  -0.7300 
 20 C        6.5560     2.6990     0.3970 C.3   1 <1>   0.1400 
 21 C        7.4650     1.5110     0.0450 C.3   1 <1>   0.2000 
 22 O        6.8860     0.3140     0.4690 O.3   1 <1>  -0.5600 
 23 C        8.8240     1.5400     0.7270 C.3   1 <1>  -0.1600 
 24 C        7.8630    -0.6590     0.6770 C.3   1 <1>   0.1200 
 25 C        9.2030     0.0700     0.7620 C.3   1 <1>  -0.1600 
 26 H        0.1680     1.5860     0.4450 H     1 <1>   0.0800 
 27 H        0.1910     2.7100    -0.8910 H     1 <1>   0.0800 
 28 H        1.0890     1.9970    -3.0500 H     1 <1>   0.0800 
 29 H        1.7410     0.3860    -3.2250 H     1 <1>   0.0800 
 30 H       -2.9670    -0.0210    -0.0680 H     1 <1>   0.1500 
 31 H        0.8940    -1.8260    -0.0710 H     1 <1>   0.1500 
 32 H        2.5830     1.6340     0.6160 H     1 <1>   0.0800 
 33 H        1.9590     3.2530     0.7220 H     1 <1>   0.0800 
 34 H        3.5430     2.0540    -3.0490 H     1 <1>   0.0800 
 35 H        3.5950     0.8780    -1.7710 H     1 <1>   0.0800 
 36 H       -3.5320    -1.2340     2.0140 H     1 <1>   0.1500 
 37 H        0.3270    -3.0410     2.0130 H     1 <1>   0.1500 
 38 H        2.4920     3.6900    -1.6030 H     1 <1>   0.0800 
 39 H        4.8900     1.4560     0.0890 H     1 <1>   0.3700 
 40 H        6.5530     2.8480     1.4620 H     1 <1>   0.0800 
 41 H        6.9310     3.5950    -0.0670 H     1 <1>   0.0800 
 42 H        7.5900     1.4490    -1.0230 H     1 <1>   0.0800 
 43 H        8.7240     1.9190     1.7290 H     1 <1>   0.0800 
 44 H        9.5340     2.1400     0.1860 H     1 <1>   0.0800 
 45 H        7.8400    -1.3480    -0.1500 H     1 <1>   0.0800 
 46 H        7.6310    -1.1750     1.5930 H     1 <1>   0.0800 
 47 H        9.7390    -0.1900     1.6570 H     1 <1>   0.0800 
 48 H        9.8030    -0.1880    -0.0930 H     1 <1>   0.0800 
@<TRIPOS>BOND
  1   1   2  2   
  2   1   3  2   
  3   1   4  am  
  4   1   5  1   
  5   4   6  1   
  6   4   7  1   
  7   5   8  ar  
  8   5   9  ar  
  9   6  10  1   
 10   6  26  1   
 11   6  27  1   
 12   7  11  1   
 13   7  28  1   
 14   7  29  1   
 15   8  12  ar  
 16   8  30  1   
 17   9  13  ar  
 18   9  31  1   
 19  10  14  1   
 20  10  32  1   
 21  10  33  1   
 22  11  14  1   
 23  11  34  1   
 24  11  35  1   
 25  12  15  ar  
 26  12  36  1   
 27  13  15  ar  
 28  13  37  1   
 29  14  16  1   
 30  14  38  1   
 31  15  17  1   
 32  16  18  2   
 33  16  19  am  
 34  19  20  1   
 35  19  39  1   
 36  20  21  1   
 37  20  40  1   
 38  20  41  1   
 39  21  22  1   
 40  21  23  1   
 41  21  42  1   
 42  22  24  1   
 43  23  25  1   
 44  23  43  1   
 45  23  44  1   
 46  24  25  1   
 47  24  45  1   
 48  24  46  1   
 49  25  47  1   
 50  25  48  1   
@<TRIPOS>SUBSTRUCTURE
  1 ****  10 GROUP 4 **** **** 0

# MOE 2024.06 (io_trps.svl 2023.06)
