@<TRIPOS>MOLECULE
NONAME
31 32 1 0 0 
SMALL
USER_CHARGES


@<TRIPOS>ATOM
  1 BR       0.7800    -1.4950     3.0900 Br    1 <1>  -0.1110 
  2 C        2.0890    -0.8670     1.8280 C.ar  1 <1>   0.1110 
  3 C        1.8860    -1.0990     0.4830 C.ar  1 <1>  -0.1500 
  4 C        3.2030    -0.2010     2.2990 C.ar  1 <1>  -0.1500 
  5 C        2.8320    -0.6440    -0.4190 C.ar  1 <1>  -0.1500 
  6 C        4.1410     0.2490     1.3860 C.ar  1 <1>  -0.1500 
  7 C        3.9680     0.0400     0.0170 C.ar  1 <1>  -0.1430 
  8 C        5.0310     0.5400    -0.9790 C.3   1 <1>   0.7240 
  9 O        4.4980     0.7090    -2.2340 O.3   1 <1>  -0.6800 
 10 N        5.6370     1.8340    -0.5870 N.am  1 <1>  -0.2980 
 11 C        6.2330    -0.3980    -1.0590 C.3   1 <1>  -0.0990 
 12 N        6.9900     1.6950    -0.3390 N.2   1 <1>  -0.5120 
 13 C        4.9160     3.0070    -0.5800 C.2   1 <1>   0.5690 
 14 C        7.3400     0.5140    -0.5940 C.2   1 <1>   0.3280 
 15 O        3.7480     3.0500    -0.8950 O.2   1 <1>  -0.5700 
 16 C        5.5970     4.2900    -0.1680 C.3   1 <1>   0.1010 
 17 C        8.7420    -0.0350    -0.4670 C.3   1 <1>  -0.1790 
 18 C        6.3090     4.8690    -1.3320 C.1   1 <1>   0.3570 
 19 N        6.8560     5.3430    -2.2090 N.1   1 <1>  -0.5570 
 20 H        1.0070    -1.6230     0.1510 H     1 <1>   0.1500 
 21 H        3.3290    -0.0390     3.3540 H     1 <1>   0.1500 
 22 H        2.6730    -0.8300    -1.4680 H     1 <1>   0.1500 
 23 H        5.0120     0.7650     1.7550 H     1 <1>   0.1500 
 24 H        3.8730     1.4620    -2.1530 H     1 <1>   0.4000 
 25 H        6.4070    -0.7420    -2.0620 H     1 <1>   0.0800 
 26 H        6.1230    -1.2310    -0.3910 H     1 <1>   0.0800 
 27 H        6.2950     4.1060     0.6260 H     1 <1>   0.0800 
 28 H        4.8610     4.9910     0.1770 H     1 <1>   0.0800 
 29 H        9.0840    -0.3910    -1.4210 H     1 <1>   0.0800 
 30 H        8.7600    -0.8420     0.2420 H     1 <1>   0.0800 
 31 H        9.4080     0.7390    -0.1280 H     1 <1>   0.0800 
@<TRIPOS>BOND
  1   1   2  1   
  2   2   3  ar  
  3   2   4  ar  
  4   3   5  ar  
  5   3  20  1   
  6   4   6  ar  
  7   4  21  1   
  8   5   7  ar  
  9   5  22  1   
 10   6   7  ar  
 11   6  23  1   
 12   7   8  1   
 13   8   9  1   
 14   8  10  1   
 15   8  11  1   
 16   9  24  1   
 17  10  12  1   
 18  10  13  am  
 19  11  14  1   
 20  11  25  1   
 21  11  26  1   
 22  12  14  2   
 23  13  15  2   
 24  13  16  1   
 25  14  17  1   
 26  16  18  1   
 27  16  27  1   
 28  16  28  1   
 29  17  29  1   
 30  17  30  1   
 31  17  31  1   
 32  18  19  3   
@<TRIPOS>SUBSTRUCTURE
  1 ****   8 GROUP 4 **** **** 0

# MOE 2024.06 (io_trps.svl 2023.06)
