@<TRIPOS>MOLECULE
NONAME
50 53 1 0 0 
SMALL
USER_CHARGES


@<TRIPOS>ATOM
  1 O       -0.8500    -0.5290     0.9460 O.3   1 <1>  -0.3630 
  2 C       -1.9260    -0.6680     0.1490 C.ar  1 <1>   0.0830 
  3 C       -0.9140    -1.5610     1.9260 C.3   1 <1>   0.4000 
  4 C       -2.3330     0.0690    -0.9630 C.ar  1 <1>   0.0830 
  5 C       -2.6730    -1.7240     0.5880 C.ar  1 <1>   0.0830 
  6 O       -2.1100    -2.2870     1.6600 O.3   1 <1>  -0.3630 
  7 O       -1.6860     1.1390    -1.4970 O.3   1 <1>  -0.3630 
  8 C       -3.5110    -0.3110    -1.5960 C.ar  1 <1>  -0.1500 
  9 C       -3.8460    -2.1100    -0.0300 C.ar  1 <1>  -0.1500 
 10 C       -0.4390     1.5620    -0.9900 C.3   1 <1>   0.0400 
 11 C       -4.2730    -1.3850    -1.1370 C.ar  1 <1>  -0.1430 
 12 C       -5.5660    -1.7490    -1.8380 C.3   1 <1>   0.4870 
 13 N       -6.7020    -1.2920    -0.9960 N.4   1 <1>  -0.9590 
 14 C       -8.0090    -1.7830    -1.5090 C.3   1 <1>   0.4860 
 15 C       -6.7330     0.1910    -0.8170 C.3   1 <1>   0.3430 
 16 C       -9.1330    -1.3360    -0.5890 C.ar  1 <1>  -0.1430 
 17 C       -7.7010     0.5610     0.3090 C.3   1 <1>  -0.0170 
 18 C       -8.9990    -0.2320     0.2480 C.ar  1 <1>  -0.1430 
 19 C      -10.3240    -2.0480    -0.5950 C.ar  1 <1>  -0.1500 
 20 C      -10.0590     0.1530     1.0540 C.ar  1 <1>  -0.1500 
 21 C      -11.3780    -1.6760     0.2200 C.ar  1 <1>   0.0830 
 22 C      -11.2530    -0.5470     1.0350 C.ar  1 <1>   0.0830 
 23 O      -12.4900    -2.4510     0.1760 O.3   1 <1>  -0.3620 
 24 O      -12.2560    -0.0860     1.8190 O.3   1 <1>  -0.3620 
 25 C      -12.8960    -3.0680     1.3800 C.3   1 <1>   0.0400 
 26 C      -13.3850     0.4360     1.1520 C.3   1 <1>   0.0400 
 27 H       -0.9640    -1.1260     2.9080 H     1 <1>   0.0800 
 28 H       -0.0640    -2.2130     1.8210 H     1 <1>   0.0800 
 29 H       -3.8140     0.2570    -2.4590 H     1 <1>   0.1500 
 30 H       -4.3860    -2.9550     0.3600 H     1 <1>   0.1500 
 31 H       -0.0980     2.3900    -1.5840 H     1 <1>   0.0800 
 32 H        0.2610     0.7480    -1.0600 H     1 <1>   0.0800 
 33 H       -0.5630     1.8710     0.0330 H     1 <1>   0.0800 
 34 H       -5.6060    -2.8180    -1.9720 H     1 <1>   0.0800 
 35 H       -5.6040    -1.2790    -2.8070 H     1 <1>   0.0800 
 36 H       -6.5780    -1.6970    -0.0590 H     1 <1>   0.4500 
 37 H       -8.0040    -2.8590    -1.5630 H     1 <1>   0.0800 
 38 H       -8.1880    -1.3920    -2.4980 H     1 <1>   0.0800 
 39 H       -7.0560     0.6600    -1.7330 H     1 <1>   0.0800 
 40 H       -5.7520     0.5660    -0.5720 H     1 <1>   0.0800 
 41 H       -7.9150     1.6150     0.2520 H     1 <1>   0.0800 
 42 H       -7.2240     0.3810     1.2560 H     1 <1>   0.0800 
 43 H      -10.4590    -2.9080    -1.2280 H     1 <1>   0.1500 
 44 H       -9.9780     1.0040     1.7060 H     1 <1>   0.1500 
 45 H      -13.6590    -3.7880     1.1470 H     1 <1>   0.0800 
 46 H      -13.2900    -2.3260     2.0490 H     1 <1>   0.0800 
 47 H      -12.0490    -3.5600     1.8240 H     1 <1>   0.0800 
 48 H      -14.0670     0.8150     1.8910 H     1 <1>   0.0800 
 49 H      -13.8570    -0.3450     0.5830 H     1 <1>   0.0800 
 50 H      -13.0670     1.2310     0.5010 H     1 <1>   0.0800 
@<TRIPOS>BOND
  1   1   2  1   
  2   1   3  1   
  3   2   4  ar  
  4   2   5  ar  
  5   3   6  1   
  6   3  27  1   
  7   3  28  1   
  8   4   7  1   
  9   4   8  ar  
 10   5   6  1   
 11   5   9  ar  
 12   7  10  1   
 13   8  11  ar  
 14   8  29  1   
 15   9  11  ar  
 16   9  30  1   
 17  10  31  1   
 18  10  32  1   
 19  10  33  1   
 20  11  12  1   
 21  12  13  1   
 22  12  34  1   
 23  12  35  1   
 24  13  14  1   
 25  13  15  1   
 26  13  36  1   
 27  14  16  1   
 28  14  37  1   
 29  14  38  1   
 30  15  17  1   
 31  15  39  1   
 32  15  40  1   
 33  16  18  ar  
 34  16  19  ar  
 35  17  18  1   
 36  17  41  1   
 37  17  42  1   
 38  18  20  ar  
 39  19  21  ar  
 40  19  43  1   
 41  20  22  ar  
 42  20  44  1   
 43  21  22  ar  
 44  21  23  1   
 45  22  24  1   
 46  23  25  1   
 47  24  26  1   
 48  25  45  1   
 49  25  46  1   
 50  25  47  1   
 51  26  48  1   
 52  26  49  1   
 53  26  50  1   
@<TRIPOS>SUBSTRUCTURE
  1 ****  13 GROUP 4 **** **** 0

# MOE 2024.06 (io_trps.svl 2023.06)
