@<TRIPOS>MOLECULE
NONAME
30 30 1 0 0 
SMALL
USER_CHARGES


@<TRIPOS>ATOM
  1 S        0.5430     0.1080     0.8860 S.o2  1 <1>   1.3330 
  2 O        1.9770    -0.0140     0.7540 O.2   1 <1>  -0.6500 
  3 O       -0.3250    -0.8220     0.2110 O.2   1 <1>  -0.6500 
  4 N        0.1340     1.7020     0.3520 N.am  1 <1>  -0.6930 
  5 C        0.1350     0.1760     2.6170 C.3   1 <1>  -0.1350 
  6 C       -1.1920     2.0980     0.2460 C.ar  1 <1>   0.1990 
  7 C        1.1140     2.3720    -0.5590 C.3   1 <1>   0.2570 
  8 C       -2.0180     1.5850    -0.7460 C.ar  1 <1>  -0.1500 
  9 C       -1.7090     3.0290     1.1350 C.ar  1 <1>  -0.1500 
 10 C        1.2610     1.7000    -1.9300 C.2   1 <1>   0.5690 
 11 C       -3.3470     1.9790    -0.8590 C.ar  1 <1>  -0.1440 
 12 C       -3.0270     3.4330     1.0410 C.ar  1 <1>  -0.1500 
 13 O        0.7500     2.2030    -2.8980 O.2   1 <1>  -0.5700 
 14 N        1.9650     0.5570    -2.0600 N.am  1 <1>  -0.8000 
 15 C       -3.8410     2.9100     0.0510 C.ar  1 <1>  -0.1500 
 16 C       -4.2700     1.4130    -1.9490 C.3   1 <1>   1.1630 
 17 F       -4.8410     2.3740    -2.6650 F     1 <1>  -0.3400 
 18 F       -3.6540     0.6200    -2.8170 F     1 <1>  -0.3400 
 19 F       -5.2630     0.6990    -1.4330 F     1 <1>  -0.3400 
 20 H        0.3630    -0.7620     3.0850 H     1 <1>   0.0800 
 21 H       -0.9110     0.3760     2.7420 H     1 <1>   0.0800 
 22 H        0.6970     0.9490     3.1010 H     1 <1>   0.0800 
 23 H        2.0780     2.4010    -0.0850 H     1 <1>   0.0800 
 24 H        0.8020     3.3880    -0.7210 H     1 <1>   0.0800 
 25 H       -1.6000     0.8660    -1.4330 H     1 <1>   0.1500 
 26 H       -1.0730     3.4360     1.9000 H     1 <1>   0.1500 
 27 H       -3.4220     4.1550     1.7350 H     1 <1>   0.1500 
 28 H        2.0070     0.0800    -2.9610 H     1 <1>   0.3700 
 29 H        2.3250     0.0390    -1.2470 H     1 <1>   0.3700 
 30 H       -4.8670     3.2340    -0.0110 H     1 <1>   0.1500 
@<TRIPOS>BOND
  1   1   2  2   
  2   1   3  2   
  3   1   4  am  
  4   1   5  1   
  5   4   6  1   
  6   4   7  1   
  7   5  20  1   
  8   5  21  1   
  9   5  22  1   
 10   6   8  ar  
 11   6   9  ar  
 12   7  10  1   
 13   7  23  1   
 14   7  24  1   
 15   8  11  ar  
 16   8  25  1   
 17   9  12  ar  
 18   9  26  1   
 19  10  13  2   
 20  10  14  am  
 21  11  15  ar  
 22  11  16  1   
 23  12  15  ar  
 24  12  27  1   
 25  14  28  1   
 26  14  29  1   
 27  15  30  1   
 28  16  17  1   
 29  16  18  1   
 30  16  19  1   
@<TRIPOS>SUBSTRUCTURE
  1 ****   8 GROUP 4 **** **** 0

# MOE 2024.06 (io_trps.svl 2023.06)
