@<TRIPOS>MOLECULE
NONAME
43 45 1 0 0 
SMALL
USER_CHARGES


@<TRIPOS>ATOM
  1 F       -1.1460     0.8810     0.3570 F     1 <1>  -0.1900 
  2 C       -0.6310     2.0760     0.4240 C.ar  1 <1>   0.1900 
  3 C       -0.8530     2.9600    -0.6130 C.ar  1 <1>  -0.1500 
  4 C        0.1180     2.4220     1.5310 C.ar  1 <1>  -0.1500 
  5 C       -0.3010     4.2270    -0.5350 C.ar  1 <1>  -0.1500 
  6 C        0.6630     3.6930     1.5920 C.ar  1 <1>  -0.1500 
  7 C        0.4750     4.6220     0.5620 C.ar  1 <1>   0.0860 
  8 C        1.0670     5.9490     0.6380 C.2   1 <1>   0.5440 
  9 O        1.4490     6.4120     1.6970 O.2   1 <1>  -0.5700 
 10 N        1.2860     6.7140    -0.4840 N.am  1 <1>  -0.6600 
 11 C        1.2120     8.1990    -0.3550 C.3   1 <1>   0.1400 
 12 C        2.3320     6.2680    -1.4440 C.3   1 <1>   0.1400 
 13 C        2.5740     8.7550     0.0990 C.3   1 <1>   0.3430 
 14 C        3.7100     6.8170    -1.0120 C.3   1 <1>   0.3430 
 15 N        3.6990     8.3080    -0.8020 N.4   1 <1>  -0.9590 
 16 C        4.9990     8.7980    -0.3000 C.3   1 <1>   0.5230 
 17 C        4.9430    10.3020    -0.3900 C.2   1 <1>  -0.3320 
 18 N        4.9410    11.1250     0.7000 N.pl3 1 <1>   0.0480 
 19 C        4.8840    11.0560    -1.5230 C.2   1 <1>  -0.1500 
 20 C        4.8630    12.3970     0.2340 C.2   1 <1>  -0.3020 
 21 C        5.0530    10.7650     2.1290 C.3   1 <1>   0.0160 
 22 C        4.8280    12.3910    -1.1220 C.2   1 <1>  -0.1500 
 23 H       -1.4480     2.6570    -1.4560 H     1 <1>   0.1500 
 24 H        0.2660     1.7110     2.3240 H     1 <1>   0.1500 
 25 H       -0.4820     4.9230    -1.3360 H     1 <1>   0.1500 
 26 H        1.2430     3.9750     2.4540 H     1 <1>   0.1500 
 27 H        0.4620     8.4600     0.3740 H     1 <1>   0.0800 
 28 H        0.9240     8.6350    -1.2950 H     1 <1>   0.0800 
 29 H        2.0870     6.6140    -2.4330 H     1 <1>   0.0800 
 30 H        2.3710     5.1910    -1.4710 H     1 <1>   0.0800 
 31 H        2.7550     8.4110     1.1040 H     1 <1>   0.0800 
 32 H        2.5260     9.8330     0.1220 H     1 <1>   0.0800 
 33 H        4.4450     6.5550    -1.7560 H     1 <1>   0.0800 
 34 H        3.9860     6.3300    -0.0900 H     1 <1>   0.0800 
 35 H        3.5630     8.7850    -1.7010 H     1 <1>   0.4500 
 36 H        5.8030     8.4320    -0.9180 H     1 <1>   0.0800 
 37 H        5.1630     8.4770     0.7160 H     1 <1>   0.0800 
 38 H        4.8830    10.7430    -2.5540 H     1 <1>   0.1500 
 39 H        4.8430    13.2530     0.8880 H     1 <1>   0.1500 
 40 H        6.0050    10.2990     2.3070 H     1 <1>   0.0800 
 41 H        4.2590    10.0950     2.4010 H     1 <1>   0.0800 
 42 H        4.9820    11.6560     2.7280 H     1 <1>   0.0800 
 43 H        4.7730    13.2410    -1.7830 H     1 <1>   0.1500 
@<TRIPOS>BOND
  1   1   2  1   
  2   2   3  ar  
  3   2   4  ar  
  4   3   5  ar  
  5   3  23  1   
  6   4   6  ar  
  7   4  24  1   
  8   5   7  ar  
  9   5  25  1   
 10   6   7  ar  
 11   6  26  1   
 12   7   8  1   
 13   8   9  2   
 14   8  10  am  
 15  10  11  1   
 16  10  12  1   
 17  11  13  1   
 18  11  27  1   
 19  11  28  1   
 20  12  14  1   
 21  12  29  1   
 22  12  30  1   
 23  13  15  1   
 24  13  31  1   
 25  13  32  1   
 26  14  15  1   
 27  14  33  1   
 28  14  34  1   
 29  15  16  1   
 30  15  35  1   
 31  16  17  1   
 32  16  36  1   
 33  16  37  1   
 34  17  18  1   
 35  17  19  2   
 36  18  20  1   
 37  18  21  1   
 38  19  22  1   
 39  19  38  1   
 40  20  22  2   
 41  20  39  1   
 42  21  40  1   
 43  21  41  1   
 44  21  42  1   
 45  22  43  1   
@<TRIPOS>SUBSTRUCTURE
  1 ****  10 GROUP 4 **** **** 0

# MOE 2024.06 (io_trps.svl 2023.06)
