@<TRIPOS>MOLECULE
NONAME
35 37 1 0 0 
SMALL
USER_CHARGES


@<TRIPOS>ATOM
  1 O       -0.2880    -0.2390     1.2370 O.2   1 <1>  -0.5700 
  2 C       -1.2050    -0.8750     0.7750 C.2   1 <1>   0.4950 
  3 C       -1.2680    -2.3080     0.5460 C.2   1 <1>   0.1140 
  4 C       -2.4950    -0.1750     0.3510 C.3   1 <1>  -0.0190 
  5 N       -2.5120    -2.7320     0.0260 N.pl3 1 <1>  -0.8380 
  6 C       -0.2210    -3.1520     0.7740 C.2   1 <1>  -0.1780 
  7 C       -3.6360    -0.8270     1.1660 C.3   1 <1>  -0.1600 
  8 C       -2.7350    -0.5460    -1.1320 C.3   1 <1>  -0.1600 
  9 C       -3.6300    -2.3620     0.9530 C.3   1 <1>   0.2090 
 10 C       -2.7610    -2.0880    -1.3020 C.3   1 <1>   0.2090 
 11 C       -0.0740    -4.5760     0.6040 C.ar  1 <1>   0.0280 
 12 C        1.1890    -5.1540     0.3800 C.ar  1 <1>   0.0830 
 13 C       -1.1680    -5.4430     0.6700 C.ar  1 <1>  -0.1500 
 14 O        2.2640    -4.3210     0.3110 O.3   1 <1>  -0.3630 
 15 C        1.3220    -6.5320     0.2270 C.ar  1 <1>  -0.1500 
 16 C       -1.0330    -6.8080     0.5160 C.ar  1 <1>  -0.1500 
 17 C        3.5720    -4.7860     0.0660 C.3   1 <1>   0.0400 
 18 C        0.2150    -7.3570     0.2940 C.ar  1 <1>  -0.1500 
 19 H       -2.4370     0.8880     0.5040 H     1 <1>   0.0800 
 20 H        0.6750    -2.6830     1.1370 H     1 <1>   0.1500 
 21 H       -4.5880    -0.4230     0.8720 H     1 <1>   0.0800 
 22 H       -3.5010    -0.6160     2.2120 H     1 <1>   0.0800 
 23 H       -1.9450    -0.1390    -1.7390 H     1 <1>   0.0800 
 24 H       -3.6610    -0.1270    -1.4820 H     1 <1>   0.0800 
 25 H       -4.5680    -2.6900     0.5380 H     1 <1>   0.0800 
 26 H       -3.4860    -2.8660     1.8950 H     1 <1>   0.0800 
 27 H       -3.7120    -2.4110    -1.6890 H     1 <1>   0.0800 
 28 H       -1.9950    -2.4000    -1.9930 H     1 <1>   0.0800 
 29 H       -2.1460    -5.0410     0.8510 H     1 <1>   0.1500 
 30 H        2.2780    -6.9860     0.0550 H     1 <1>   0.1500 
 31 H       -1.8990    -7.4440     0.5710 H     1 <1>   0.1500 
 32 H        4.2290    -3.9350     0.0520 H     1 <1>   0.0800 
 33 H        3.5920    -5.2800    -0.8890 H     1 <1>   0.0800 
 34 H        3.8580    -5.4560     0.8560 H     1 <1>   0.0800 
 35 H        0.3230    -8.4210     0.1740 H     1 <1>   0.1500 
@<TRIPOS>BOND
  1   1   2  2   
  2   2   3  1   
  3   2   4  1   
  4   3   5  1   
  5   3   6  2   
  6   4   7  1   
  7   4   8  1   
  8   4  19  1   
  9   5   9  1   
 10   5  10  1   
 11   6  11  1   
 12   6  20  1   
 13   7   9  1   
 14   7  21  1   
 15   7  22  1   
 16   8  10  1   
 17   8  23  1   
 18   8  24  1   
 19   9  25  1   
 20   9  26  1   
 21  10  27  1   
 22  10  28  1   
 23  11  12  ar  
 24  11  13  ar  
 25  12  14  1   
 26  12  15  ar  
 27  13  16  ar  
 28  13  29  1   
 29  14  17  1   
 30  15  18  ar  
 31  15  30  1   
 32  16  18  ar  
 33  16  31  1   
 34  17  32  1   
 35  17  33  1   
 36  17  34  1   
 37  18  35  1   
@<TRIPOS>SUBSTRUCTURE
  1 ****   6 GROUP 4 **** **** 0

# MOE 2024.06 (io_trps.svl 2023.06)
