@<TRIPOS>MOLECULE
NONAME
47 49 1 0 0 
SMALL
USER_CHARGES


@<TRIPOS>ATOM
  1 S       -0.3840     0.2690    -0.3560 S.3   1 <1>  -0.2860 
  2 C        1.2260     1.0550    -0.4620 C.2   1 <1>   0.2420 
  3 C       -1.4200     1.3100    -1.4980 C.3   1 <1>   0.1310 
  4 N        1.4370     2.1140    -1.1570 N.2   1 <1>  -0.3380 
  5 N        2.3070     0.6020     0.1670 N.pl3 1 <1>   0.0480 
  6 C       -2.8650     0.8360    -1.5350 C.2   1 <1>   0.5690 
  7 N        2.7250     2.3980    -0.9970 N.2   1 <1>  -0.3380 
  8 C        3.2560     1.4950    -0.2070 C.2   1 <1>   0.1330 
  9 C        2.4020    -0.5800     1.0560 C.3   1 <1>   0.0160 
 10 O       -3.5350     1.1180    -2.4980 O.2   1 <1>  -0.5700 
 11 N       -3.3680     0.1260    -0.4910 N.am  1 <1>  -0.7300 
 12 C        4.6540     1.4790     0.1910 C.ar  1 <1>   0.3630 
 13 C       -4.7380    -0.4010    -0.3870 C.3   1 <1>   0.2200 
 14 N        5.1560     0.3920     0.7940 N.ar  1 <1>  -0.6200 
 15 C        5.4560     2.5960    -0.0640 C.ar  1 <1>  -0.1500 
 16 C       -5.3970     0.2590     0.8290 C.3   1 <1>  -0.1600 
 17 C       -4.6510    -1.9320    -0.3250 C.3   1 <1>  -0.1600 
 18 C        6.4340     0.4220     1.1310 C.ar  1 <1>   0.1600 
 19 C        6.7850     2.6180     0.2930 C.ar  1 <1>  -0.1500 
 20 C       -6.8160    -0.2370     1.1520 C.3   1 <1>  -0.1600 
 21 C       -6.0150    -2.6060    -0.5410 C.3   1 <1>  -0.1600 
 22 C        7.2810     1.4920     0.9090 C.ar  1 <1>  -0.1500 
 23 C       -6.8200    -1.6480     1.7580 C.3   1 <1>  -0.1600 
 24 C       -6.8540    -2.7920     0.7330 C.3   1 <1>  -0.1600 
 25 H       -0.9800     1.2430    -2.4750 H     1 <1>   0.0800 
 26 H       -1.3690     2.3230    -1.1450 H     1 <1>   0.0800 
 27 H        1.4300    -1.0000     1.2340 H     1 <1>   0.0800 
 28 H        2.8350    -0.2850     1.9940 H     1 <1>   0.0800 
 29 H        3.0290    -1.3210     0.5920 H     1 <1>   0.0800 
 30 H       -2.7430    -0.1260     0.2760 H     1 <1>   0.3700 
 31 H       -5.2880    -0.1210    -1.2720 H     1 <1>   0.0800 
 32 H        5.0260     3.4540    -0.5490 H     1 <1>   0.1500 
 33 H       -5.4540     1.3160     0.6310 H     1 <1>   0.0800 
 34 H       -4.7730     0.1240     1.6950 H     1 <1>   0.0800 
 35 H       -4.2130    -2.2540     0.6020 H     1 <1>   0.0800 
 36 H       -4.0070    -2.2520    -1.1260 H     1 <1>   0.0800 
 37 H        6.8320    -0.4550     1.6130 H     1 <1>   0.1500 
 38 H        7.4060     3.4760     0.0980 H     1 <1>   0.1500 
 39 H       -7.4460    -0.1930     0.2800 H     1 <1>   0.0800 
 40 H       -7.2350     0.4350     1.8810 H     1 <1>   0.0800 
 41 H       -5.8530    -3.5790    -0.9720 H     1 <1>   0.0800 
 42 H       -6.5800    -2.0420    -1.2630 H     1 <1>   0.0800 
 43 H        8.3110     1.4410     1.2120 H     1 <1>   0.1500 
 44 H       -7.6880    -1.7490     2.3870 H     1 <1>   0.0800 
 45 H       -5.9630    -1.7660     2.3980 H     1 <1>   0.0800 
 46 H       -6.5300    -3.6900     1.2310 H     1 <1>   0.0800 
 47 H       -7.8750    -2.9550     0.4320 H     1 <1>   0.0800 
@<TRIPOS>BOND
  1   1   2  1   
  2   1   3  1   
  3   2   4  2   
  4   2   5  1   
  5   3   6  1   
  6   3  25  1   
  7   3  26  1   
  8   4   7  1   
  9   5   8  1   
 10   5   9  1   
 11   6  10  2   
 12   6  11  am  
 13   7   8  2   
 14   8  12  1   
 15   9  27  1   
 16   9  28  1   
 17   9  29  1   
 18  11  13  1   
 19  11  30  1   
 20  12  14  ar  
 21  12  15  ar  
 22  13  16  1   
 23  13  17  1   
 24  13  31  1   
 25  14  18  ar  
 26  15  19  ar  
 27  15  32  1   
 28  16  20  1   
 29  16  33  1   
 30  16  34  1   
 31  17  21  1   
 32  17  35  1   
 33  17  36  1   
 34  18  22  ar  
 35  18  37  1   
 36  19  22  ar  
 37  19  38  1   
 38  20  23  1   
 39  20  39  1   
 40  20  40  1   
 41  21  24  1   
 42  21  41  1   
 43  21  42  1   
 44  22  43  1   
 45  23  24  1   
 46  23  44  1   
 47  23  45  1   
 48  24  46  1   
 49  24  47  1   
@<TRIPOS>SUBSTRUCTURE
  1 ****   1 GROUP 4 **** **** 0

# MOE 2024.06 (io_trps.svl 2023.06)
