@<TRIPOS>MOLECULE
NONAME
34 37 1 0 0 
SMALL
USER_CHARGES


@<TRIPOS>ATOM
  1 CL      -0.0690    -0.0750    -0.2810 Cl    1 <1>  -0.1770 
  2 C        1.2920    -1.1600    -0.1450 C.ar  1 <1>   0.1770 
  3 C        2.5690    -0.6620    -0.2250 C.ar  1 <1>  -0.1500 
  4 C        1.0400    -2.5230     0.0440 C.ar  1 <1>  -0.1500 
  5 C        3.6440    -1.5540    -0.1120 C.ar  1 <1>  -0.1520 
  6 C        2.0940    -3.3990     0.1520 C.ar  1 <1>  -0.1500 
  7 N        5.0060    -1.3480    -0.1520 N.pl3 1 <1>   0.0480 
  8 C        3.4060    -2.9120     0.0710 C.ar  1 <1>   0.0000 
  9 C        5.6380    -2.5650     0.0080 C.2   1 <1>  -0.2370 
 10 C        5.6150    -0.0410    -0.4480 C.3   1 <1>   0.0960 
 11 C        4.6700    -3.5180     0.1290 C.2   1 <1>  -0.1810 
 12 C        7.0570    -2.8530     0.0390 C.2   1 <1>   0.4740 
 13 C        6.9360     0.1450     0.2880 C.3   1 <1>   0.2000 
 14 C        4.9420    -5.0010     0.2800 C.3   1 <1>   0.0210 
 15 N        8.0590    -2.0930    -0.1230 N.2   1 <1>  -0.6960 
 16 C        7.3860    -4.3180     0.3250 C.3   1 <1>  -0.0990 
 17 O        7.2610     1.4960     0.2310 O.3   1 <1>  -0.6800 
 18 C        8.0910    -0.6460    -0.3360 C.3   1 <1>   0.0860 
 19 C        6.3520    -5.3110    -0.2400 C.3   1 <1>  -0.1600 
 20 H        2.7280     0.3890    -0.3700 H     1 <1>   0.1500 
 21 H        0.0220    -2.8620     0.1010 H     1 <1>   0.1500 
 22 H        1.9320    -4.4520     0.2970 H     1 <1>   0.1500 
 23 H        4.9360     0.7260    -0.1280 H     1 <1>   0.0800 
 24 H        5.7600     0.0330    -1.5100 H     1 <1>   0.0800 
 25 H        6.8270    -0.1030     1.3300 H     1 <1>   0.0800 
 26 H        4.2180    -5.5680    -0.2770 H     1 <1>   0.0800 
 27 H        4.8610    -5.2680     1.3200 H     1 <1>   0.0800 
 28 H        7.4460    -4.4380     1.3920 H     1 <1>   0.0800 
 29 H        8.3550    -4.5490    -0.0820 H     1 <1>   0.0800 
 30 H        7.5520     1.7500    -0.6660 H     1 <1>   0.4000 
 31 H        9.0000    -0.2910     0.1180 H     1 <1>   0.0800 
 32 H        8.1530    -0.4580    -1.3940 H     1 <1>   0.0800 
 33 H        6.3510    -5.2340    -1.3130 H     1 <1>   0.0800 
 34 H        6.6240    -6.3180     0.0230 H     1 <1>   0.0800 
@<TRIPOS>BOND
  1   1   2  1   
  2   2   3  ar  
  3   2   4  ar  
  4   3   5  ar  
  5   3  20  1   
  6   4   6  ar  
  7   4  21  1   
  8   5   7  1   
  9   5   8  ar  
 10   6   8  ar  
 11   6  22  1   
 12   7   9  1   
 13   7  10  1   
 14   8  11  1   
 15   9  11  2   
 16   9  12  1   
 17  10  13  1   
 18  10  23  1   
 19  10  24  1   
 20  11  14  1   
 21  12  15  2   
 22  12  16  1   
 23  13  17  1   
 24  13  18  1   
 25  13  25  1   
 26  14  19  1   
 27  14  26  1   
 28  14  27  1   
 29  15  18  1   
 30  16  19  1   
 31  16  28  1   
 32  16  29  1   
 33  17  30  1   
 34  18  31  1   
 35  18  32  1   
 36  19  33  1   
 37  19  34  1   
@<TRIPOS>SUBSTRUCTURE
  1 ****   7 GROUP 4 **** **** 0

# MOE 2024.06 (io_trps.svl 2023.06)
