@<TRIPOS>MOLECULE
NONAME
44 46 1 0 0 
SMALL
USER_CHARGES


@<TRIPOS>ATOM
  1 CL      -1.9280     3.4100    -2.6010 Cl    1 <1>  -0.1770 
  2 C       -0.9750     3.4450    -1.1320 C.ar  1 <1>   0.1770 
  3 C        0.1680     4.2250    -1.0640 C.ar  1 <1>   0.1770 
  4 C       -1.3870     2.6960    -0.0390 C.ar  1 <1>  -0.1440 
  5 CL       0.6770     5.1780    -2.4370 Cl    1 <1>  -0.1770 
  6 C        0.9200     4.2660     0.0950 C.ar  1 <1>  -0.1500 
  7 C       -0.6270     2.7370     1.1250 C.ar  1 <1>  -0.1500 
  8 C       -2.6410     1.8440    -0.1160 C.3   1 <1>   0.4870 
  9 C        0.5180     3.5180     1.1900 C.ar  1 <1>  -0.1500 
 10 N       -3.8340     2.7250    -0.2150 N.4   1 <1>  -0.9590 
 11 C       -3.9970     3.6240     0.9890 C.3   1 <1>   0.3430 
 12 C       -5.0950     1.9400    -0.4710 C.3   1 <1>   0.3430 
 13 C       -5.2260     4.5460     0.8680 C.3   1 <1>   0.2090 
 14 C       -6.3330     2.8490    -0.6040 C.3   1 <1>   0.2090 
 15 N       -6.4600     3.7580     0.5740 N.pl3 1 <1>  -0.8380 
 16 C       -7.6430     4.5110     0.5950 C.ar  1 <1>   0.1000 
 17 C       -7.9480     5.5200    -0.3390 C.ar  1 <1>   0.0830 
 18 C       -8.5560     4.2340     1.6020 C.ar  1 <1>  -0.1500 
 19 O       -7.0390     5.7870    -1.3300 O.3   1 <1>  -0.3620 
 20 C       -9.1510     6.2120    -0.2320 C.ar  1 <1>  -0.1500 
 21 C       -9.7480     4.9270     1.7000 C.ar  1 <1>  -0.1500 
 22 C       -7.2770     6.7970    -2.2880 C.3   1 <1>   0.0400 
 23 C      -10.0460     5.9160     0.7820 C.ar  1 <1>  -0.1500 
 24 H        1.8070     4.8740     0.1370 H     1 <1>   0.1500 
 25 H       -0.9090     2.1620     1.9920 H     1 <1>   0.1500 
 26 H       -2.7150     1.2180     0.7580 H     1 <1>   0.0800 
 27 H       -2.5820     1.2080    -0.9860 H     1 <1>   0.0800 
 28 H        1.1040     3.5440     2.0960 H     1 <1>   0.1500 
 29 H       -3.6890     3.3390    -1.0300 H     1 <1>   0.4500 
 30 H       -3.1180     4.2340     1.1160 H     1 <1>   0.0800 
 31 H       -4.1170     3.0240     1.8750 H     1 <1>   0.0800 
 32 H       -5.2700     1.2580     0.3450 H     1 <1>   0.0800 
 33 H       -4.9920     1.3610    -1.3740 H     1 <1>   0.0800 
 34 H       -5.0570     5.2710     0.0910 H     1 <1>   0.0800 
 35 H       -5.3640     5.0820     1.7910 H     1 <1>   0.0800 
 36 H       -7.2180     2.2410    -0.6740 H     1 <1>   0.0800 
 37 H       -6.2600     3.4270    -1.5090 H     1 <1>   0.0800 
 38 H       -8.3240     3.4650     2.3150 H     1 <1>   0.1500 
 39 H       -9.4200     6.9870    -0.9240 H     1 <1>   0.1500 
 40 H      -10.4430     4.6960     2.4890 H     1 <1>   0.1500 
 41 H       -6.4350     6.8330    -2.9560 H     1 <1>   0.0800 
 42 H       -7.3820     7.7410    -1.7830 H     1 <1>   0.0800 
 43 H       -8.1690     6.5540    -2.8390 H     1 <1>   0.0800 
 44 H      -10.9740     6.4560     0.8570 H     1 <1>   0.1500 
@<TRIPOS>BOND
  1   1   2  1   
  2   2   3  ar  
  3   2   4  ar  
  4   3   5  1   
  5   3   6  ar  
  6   4   7  ar  
  7   4   8  1   
  8   6   9  ar  
  9   6  24  1   
 10   7   9  ar  
 11   7  25  1   
 12   8  10  1   
 13   8  26  1   
 14   8  27  1   
 15   9  28  1   
 16  10  11  1   
 17  10  12  1   
 18  10  29  1   
 19  11  13  1   
 20  11  30  1   
 21  11  31  1   
 22  12  14  1   
 23  12  32  1   
 24  12  33  1   
 25  13  15  1   
 26  13  34  1   
 27  13  35  1   
 28  14  15  1   
 29  14  36  1   
 30  14  37  1   
 31  15  16  1   
 32  16  17  ar  
 33  16  18  ar  
 34  17  19  1   
 35  17  20  ar  
 36  18  21  ar  
 37  18  38  1   
 38  19  22  1   
 39  20  23  ar  
 40  20  39  1   
 41  21  23  ar  
 42  21  40  1   
 43  22  41  1   
 44  22  42  1   
 45  22  43  1   
 46  23  44  1   
@<TRIPOS>SUBSTRUCTURE
  1 ****  13 GROUP 4 **** **** 0

# MOE 2024.06 (io_trps.svl 2023.06)
