@<TRIPOS>MOLECULE
NONAME
37 39 1 0 0 
SMALL
USER_CHARGES


@<TRIPOS>ATOM
  1 S        1.0200     0.3140    -0.6710 S.3   1 <1>  -0.3710 
  2 C        2.0540    -1.0530    -0.1730 C.2   1 <1>   0.6510 
  3 C        1.6820     1.4840     0.5730 C.3   1 <1>   0.1310 
  4 N        1.8300    -2.1890    -0.7140 N.2   1 <1>  -0.5030 
  5 N        2.9430    -0.5980     0.8160 N.am  1 <1>  -0.4200 
  6 C        2.7640     0.6800     1.2630 C.2   1 <1>   0.5690 
  7 N        2.4580    -3.3550    -0.3150 N.pl3 1 <1>  -0.4870 
  8 C        4.2240    -1.2810     1.1150 C.3   1 <1>   0.2840 
  9 O        3.4130     1.1830     2.1520 O.2   1 <1>  -0.5700 
 10 C        2.5530    -4.3360    -1.4300 C.3   1 <1>   0.1100 
 11 C        1.8040    -3.9930     0.8640 C.3   1 <1>   0.1100 
 12 C        5.2830    -0.8360     0.1160 C.ar  1 <1>  -0.1440 
 13 C        3.2480    -5.6250    -0.9630 C.3   1 <1>   0.1200 
 14 C        2.5240    -5.2960     1.2470 C.3   1 <1>   0.1200 
 15 C        6.1280     0.2210     0.4200 C.ar  1 <1>  -0.1500 
 16 C        5.4090    -1.4760    -1.1070 C.ar  1 <1>  -0.1500 
 17 O        2.5940    -6.1640     0.1510 O.3   1 <1>  -0.5600 
 18 C        7.0920     0.6280    -0.4860 C.ar  1 <1>  -0.1500 
 19 C        6.3720    -1.0700    -2.0140 C.ar  1 <1>  -0.1500 
 20 C        7.2150    -0.0170    -1.7040 C.ar  1 <1>  -0.1500 
 21 H        2.0830     2.3380     0.0600 H     1 <1>   0.0800 
 22 H        0.8890     1.7540     1.2460 H     1 <1>   0.0800 
 23 H        4.5420    -1.0240     2.1100 H     1 <1>   0.0800 
 24 H        4.1180    -2.3460     1.0900 H     1 <1>   0.0800 
 25 H        1.5650    -4.5690    -1.7880 H     1 <1>   0.0800 
 26 H        3.1070    -3.8980    -2.2400 H     1 <1>   0.0800 
 27 H        1.8220    -3.3140     1.6960 H     1 <1>   0.0800 
 28 H        0.7760    -4.2080     0.6290 H     1 <1>   0.0800 
 29 H        4.2730    -5.4280    -0.6990 H     1 <1>   0.0800 
 30 H        3.2260    -6.3630    -1.7440 H     1 <1>   0.0800 
 31 H        1.9880    -5.8010     2.0300 H     1 <1>   0.0800 
 32 H        3.5250    -5.0910     1.5860 H     1 <1>   0.0800 
 33 H        6.0370     0.7350     1.3620 H     1 <1>   0.1500 
 34 H        4.7540    -2.2910    -1.3590 H     1 <1>   0.1500 
 35 H        7.7450     1.4490    -0.2440 H     1 <1>   0.1500 
 36 H        6.4630    -1.5710    -2.9620 H     1 <1>   0.1500 
 37 H        7.9640     0.2990    -2.4080 H     1 <1>   0.1500 
@<TRIPOS>BOND
  1   1   2  1   
  2   1   3  1   
  3   2   4  2   
  4   2   5  1   
  5   3   6  1   
  6   3  21  1   
  7   3  22  1   
  8   4   7  1   
  9   5   6  am  
 10   5   8  1   
 11   6   9  2   
 12   7  10  1   
 13   7  11  1   
 14   8  12  1   
 15   8  23  1   
 16   8  24  1   
 17  10  13  1   
 18  10  25  1   
 19  10  26  1   
 20  11  14  1   
 21  11  27  1   
 22  11  28  1   
 23  12  15  ar  
 24  12  16  ar  
 25  13  17  1   
 26  13  29  1   
 27  13  30  1   
 28  14  17  1   
 29  14  31  1   
 30  14  32  1   
 31  15  18  ar  
 32  15  33  1   
 33  16  19  ar  
 34  16  34  1   
 35  18  20  ar  
 36  18  35  1   
 37  19  20  ar  
 38  19  36  1   
 39  20  37  1   
@<TRIPOS>SUBSTRUCTURE
  1 ****   8 GROUP 4 **** **** 0

# MOE 2024.06 (io_trps.svl 2023.06)
