@<TRIPOS>MOLECULE
NONAME
33 34 1 0 0 
SMALL
USER_CHARGES


@<TRIPOS>ATOM
  1 S       -3.5260     3.1660    -0.9520 S.3   1 <1>  -0.2980 
  2 C       -3.1550     1.4840    -0.4510 C.2   1 <1>   0.4180 
  3 C       -4.0470     3.9950     0.6140 C.3   1 <1>   0.0700 
  4 N       -4.1390     0.5610    -0.2420 N.pl3 1 <1>  -0.7640 
  5 C       -1.9530     0.9180    -0.2330 C.2   1 <1>   0.2000 
  6 C       -4.6230     5.3610     0.2490 C.3   1 <1>  -0.2400 
  7 C       -3.5270    -0.5790     0.1090 C.cat 1 <1>   0.7830 
  8 C       -5.5900     0.7490    -0.4760 C.3   1 <1>   0.3540 
  9 N       -2.2060    -0.3810     0.1260 N.pl3 1 <1>  -0.7000 
 10 C       -4.1710    -1.8330     0.4100 C.ar  1 <1>   0.0170 
 11 C       -5.9000     0.4530    -1.9390 C.3   1 <1>  -0.2400 
 12 C       -4.1380    -2.8930    -0.4990 C.ar  1 <1>  -0.1500 
 13 C       -4.8480    -2.0260     1.6150 C.ar  1 <1>  -0.1500 
 14 C       -4.7590    -4.0950    -0.2150 C.ar  1 <1>  -0.1500 
 15 C       -5.4690    -3.2280     1.8990 C.ar  1 <1>  -0.1500 
 16 C       -5.4260    -4.2640     0.9840 C.ar  1 <1>  -0.1500 
 17 H       -3.1750     4.0890     1.2380 H     1 <1>   0.0800 
 18 H       -4.7820     3.3720     1.0920 H     1 <1>   0.0800 
 19 H       -0.9690     1.3540    -0.3110 H     1 <1>   0.1500 
 20 H       -3.8800     5.9580    -0.2490 H     1 <1>   0.0800 
 21 H       -4.9370     5.8780     1.1380 H     1 <1>   0.0800 
 22 H       -5.4730     5.2490    -0.4000 H     1 <1>   0.0800 
 23 H       -5.8780     1.7590    -0.2390 H     1 <1>   0.0800 
 24 H       -6.1570     0.0860     0.1560 H     1 <1>   0.0800 
 25 H       -1.5180    -1.1010     0.3630 H     1 <1>   0.4500 
 26 H       -5.3570     1.1210    -2.5830 H     1 <1>   0.0800 
 27 H       -6.9510     0.5940    -2.1200 H     1 <1>   0.0800 
 28 H       -5.6510    -0.5650    -2.1820 H     1 <1>   0.0800 
 29 H       -3.6260    -2.7800    -1.4400 H     1 <1>   0.1500 
 30 H       -4.8900    -1.2330     2.3420 H     1 <1>   0.1500 
 31 H       -4.7270    -4.9040    -0.9260 H     1 <1>   0.1500 
 32 H       -5.9890    -3.3640     2.8340 H     1 <1>   0.1500 
 33 H       -5.9100    -5.2010     1.2060 H     1 <1>   0.1500 
@<TRIPOS>BOND
  1   1   2  1   
  2   1   3  1   
  3   2   4  1   
  4   2   5  2   
  5   3   6  1   
  6   3  17  1   
  7   3  18  1   
  8   4   7  ar  
  9   4   8  1   
 10   5   9  1   
 11   5  19  1   
 12   6  20  1   
 13   6  21  1   
 14   6  22  1   
 15   7   9  ar  
 16   7  10  1   
 17   8  11  1   
 18   8  23  1   
 19   8  24  1   
 20   9  25  1   
 21  10  12  ar  
 22  10  13  ar  
 23  11  26  1   
 24  11  27  1   
 25  11  28  1   
 26  12  14  ar  
 27  12  29  1   
 28  13  15  ar  
 29  13  30  1   
 30  14  16  ar  
 31  14  31  1   
 32  15  16  ar  
 33  15  32  1   
 34  16  33  1   
@<TRIPOS>SUBSTRUCTURE
  1 ****   4 GROUP 4 **** **** 0

# MOE 2024.06 (io_trps.svl 2023.06)
