@<TRIPOS>MOLECULE
NONAME
36 37 1 0 0 
SMALL
USER_CHARGES


@<TRIPOS>ATOM
  1 O       -0.6300    -0.0240     0.0050 O.2   1 <1>  -0.5700 
  2 C       -1.6090    -0.7430     0.0050 C.2   1 <1>   0.7060 
  3 O       -2.8140    -0.1770     0.0040 O.3   1 <1>  -0.2330 
  4 C       -1.5340    -2.1650     0.0050 C.2   1 <1>  -0.1360 
  5 C       -3.9700    -0.8840     0.0040 C.ar  1 <1>   0.0820 
  6 C       -2.6410    -2.9450     0.0040 C.2   1 <1>  -0.1670 
  7 C       -3.9250    -2.2910     0.0040 C.ar  1 <1>   0.0280 
  8 C       -5.1790    -0.1900     0.0030 C.ar  1 <1>  -0.1440 
  9 C       -2.5910    -4.4770     0.0040 C.3   1 <1>  -0.0220 
 10 C       -5.1470    -2.9700     0.0030 C.ar  1 <1>  -0.1500 
 11 C       -6.3730    -0.8990     0.0020 C.ar  1 <1>   0.0830 
 12 C       -5.2270     1.3390     0.0030 C.3   1 <1>  -0.0960 
 13 C       -1.1830    -5.0840     0.0060 C.3   1 <1>  -0.2400 
 14 C       -6.3470    -2.2930     0.0020 C.ar  1 <1>  -0.1500 
 15 O       -7.5320    -0.1930     0.0010 O.3   1 <1>  -0.3630 
 16 C       -8.7970    -0.8140     0.0000 C.3   1 <1>   0.1200 
 17 C       -9.8650     0.2790    -0.0010 C.3   1 <1>  -0.1600 
 18 C      -11.2770    -0.3180    -0.0020 C.3   1 <1>  -0.2400 
 19 H       -0.5330    -2.5490     0.0060 H     1 <1>   0.1500 
 20 H       -3.1110    -4.8390    -0.8660 H     1 <1>   0.0800 
 21 H       -3.1120    -4.8390     0.8750 H     1 <1>   0.0800 
 22 H       -5.1710    -4.0430     0.0030 H     1 <1>   0.1500 
 23 H       -4.2510     1.7860     0.0110 H     1 <1>   0.0800 
 24 H       -5.7600     1.6820     0.8720 H     1 <1>   0.0800 
 25 H       -5.7460     1.6830    -0.8730 H     1 <1>   0.0800 
 26 H       -0.6400    -4.7790    -0.8720 H     1 <1>   0.0800 
 27 H       -1.2500    -6.1570     0.0060 H     1 <1>   0.0800 
 28 H       -0.6420    -4.7790     0.8840 H     1 <1>   0.0800 
 29 H       -7.2560    -2.8630     0.0010 H     1 <1>   0.1500 
 30 H       -8.8770    -1.4230     0.8840 H     1 <1>   0.0800 
 31 H       -8.8750    -1.4230    -0.8840 H     1 <1>   0.0800 
 32 H       -9.7400     0.8950    -0.8750 H     1 <1>   0.0800 
 33 H       -9.7410     0.8950     0.8740 H     1 <1>   0.0800 
 34 H      -11.4280    -0.9250    -0.8770 H     1 <1>   0.0800 
 35 H      -12.0090     0.4700    -0.0020 H     1 <1>   0.0800 
 36 H      -11.4300    -0.9250     0.8740 H     1 <1>   0.0800 
@<TRIPOS>BOND
  1   1   2  2   
  2   2   3  1   
  3   2   4  1   
  4   3   5  1   
  5   4   6  2   
  6   4  19  1   
  7   5   7  ar  
  8   5   8  ar  
  9   6   7  1   
 10   6   9  1   
 11   7  10  ar  
 12   8  11  ar  
 13   8  12  1   
 14   9  13  1   
 15   9  20  1   
 16   9  21  1   
 17  10  14  ar  
 18  10  22  1   
 19  11  14  ar  
 20  11  15  1   
 21  12  23  1   
 22  12  24  1   
 23  12  25  1   
 24  13  26  1   
 25  13  27  1   
 26  13  28  1   
 27  14  29  1   
 28  15  16  1   
 29  16  17  1   
 30  16  30  1   
 31  16  31  1   
 32  17  18  1   
 33  17  32  1   
 34  17  33  1   
 35  18  34  1   
 36  18  35  1   
 37  18  36  1   
@<TRIPOS>SUBSTRUCTURE
  1 ****   5 GROUP 4 **** **** 0

# MOE 2024.06 (io_trps.svl 2023.06)
