@<TRIPOS>MOLECULE
NONAME
42 44 1 0 0 
SMALL
USER_CHARGES


@<TRIPOS>ATOM
  1 CL      -0.3480     1.9640     2.3810 Cl    1 <1>  -0.1770 
  2 C       -0.9810     2.7310     0.9430 C.ar  1 <1>   0.1770 
  3 C       -0.1220     3.1720    -0.0520 C.ar  1 <1>  -0.1440 
  4 C       -2.3550     2.8810     0.8400 C.ar  1 <1>  -0.1500 
  5 C       -0.7030     3.7740    -1.1580 C.ar  1 <1>   0.1900 
  6 C        1.3860     3.0050     0.0590 C.3   1 <1>   0.2140 
  7 C       -2.9040     3.4870    -0.2800 C.ar  1 <1>  -0.1500 
  8 F        0.0590     4.2130    -2.1240 F     1 <1>  -0.1900 
  9 C       -2.0710     3.9390    -1.2900 C.ar  1 <1>  -0.1500 
 10 S        1.8240     1.3100    -0.5260 S.3   1 <1>  -0.2860 
 11 C        3.5970     1.2550    -0.2960 C.2   1 <1>   0.2420 
 12 N        4.2610     2.2670     0.1710 N.2   1 <1>  -0.5650 
 13 N        4.3200     0.1530    -0.5910 N.pl3 1 <1>   0.0480 
 14 C        5.5120     1.7900     0.1850 C.2   1 <1>   0.2900 
 15 C        5.5900     0.5110    -0.2620 C.2   1 <1>  -0.2370 
 16 C        3.8560    -1.1450    -1.1290 C.3   1 <1>   0.0960 
 17 N        6.6550     2.4730     0.6020 N.am  1 <1>  -0.4230 
 18 C        6.8330    -0.1670    -0.3030 C.2   1 <1>   0.7150 
 19 C        3.6450    -2.1380     0.0110 C.3   1 <1>   0.1200 
 20 C        7.8710     1.8200     0.5490 C.2   1 <1>   0.6900 
 21 C        6.5220     3.8740     1.0790 C.3   1 <1>   0.0600 
 22 O        6.9650    -1.3190    -0.6620 O.2   1 <1>  -0.5700 
 23 N        7.9240     0.5330     0.1020 N.am  1 <1>  -0.4900 
 24 O        3.1290    -3.3100    -0.5310 O.3   1 <1>  -0.5600 
 25 O        8.9100     2.3490     0.8910 O.2   1 <1>  -0.5700 
 26 C        2.9190    -4.3190     0.4040 C.3   1 <1>   0.0400 
 27 H       -2.9870     2.5240     1.6330 H     1 <1>   0.1500 
 28 H        1.7310     3.0920     1.0730 H     1 <1>   0.0800 
 29 H        1.9230     3.7010    -0.5610 H     1 <1>   0.0800 
 30 H       -3.9710     3.6040    -0.3640 H     1 <1>   0.1500 
 31 H       -2.4720     4.4120    -2.1690 H     1 <1>   0.1500 
 32 H        4.5930    -1.5270    -1.8110 H     1 <1>   0.0800 
 33 H        2.9320    -1.0000    -1.6580 H     1 <1>   0.0800 
 34 H        2.9350    -1.7510     0.7230 H     1 <1>   0.0800 
 35 H        4.5820    -2.3630     0.4910 H     1 <1>   0.0800 
 36 H        5.8660     3.9000     1.9310 H     1 <1>   0.0800 
 37 H        6.1020     4.4790     0.2950 H     1 <1>   0.0800 
 38 H        7.4790     4.2770     1.3600 H     1 <1>   0.0800 
 39 H        8.8280     0.0770     0.0790 H     1 <1>   0.3700 
 40 H        2.5210    -5.1750    -0.1120 H     1 <1>   0.0800 
 41 H        2.2120    -3.9790     1.1410 H     1 <1>   0.0800 
 42 H        3.8570    -4.5770     0.8650 H     1 <1>   0.0800 
@<TRIPOS>BOND
  1   1   2  1   
  2   2   3  ar  
  3   2   4  ar  
  4   3   5  ar  
  5   3   6  1   
  6   4   7  ar  
  7   4  27  1   
  8   5   8  1   
  9   5   9  ar  
 10   6  10  1   
 11   6  28  1   
 12   6  29  1   
 13   7   9  ar  
 14   7  30  1   
 15   9  31  1   
 16  10  11  1   
 17  11  12  2   
 18  11  13  1   
 19  12  14  1   
 20  13  15  1   
 21  13  16  1   
 22  14  15  2   
 23  14  17  1   
 24  15  18  1   
 25  16  19  1   
 26  16  32  1   
 27  16  33  1   
 28  17  20  am  
 29  17  21  1   
 30  18  22  2   
 31  18  23  am  
 32  19  24  1   
 33  19  34  1   
 34  19  35  1   
 35  20  23  am  
 36  20  25  2   
 37  21  36  1   
 38  21  37  1   
 39  21  38  1   
 40  23  39  1   
 41  24  26  1   
 42  26  40  1   
 43  26  41  1   
 44  26  42  1   
@<TRIPOS>SUBSTRUCTURE
  1 ****  11 GROUP 4 **** **** 0

# MOE 2024.06 (io_trps.svl 2023.06)
