@<TRIPOS>MOLECULE
NONAME
41 42 1 0 0 
SMALL
USER_CHARGES


@<TRIPOS>ATOM
  1 S        0.1630    -0.1060     2.0440 S.3   1 <1>  -0.0800 
  2 C        0.8580    -0.9990     0.7090 C.2   1 <1>  -0.1400 
  3 C       -1.2170    -1.1650     2.0860 C.2   1 <1>  -0.1100 
  4 C        0.0570    -2.0220     0.3430 C.2   1 <1>  -0.1810 
  5 C        2.2100    -0.4910     0.2390 C.3   1 <1>  -0.0600 
  6 C       -1.1670    -2.1130     1.1200 C.2   1 <1>  -0.0860 
  7 C        0.4070    -3.0240    -0.7550 C.3   1 <1>   0.0210 
  8 C       -2.2340    -3.0710     0.9150 C.2   1 <1>   0.7160 
  9 C        0.7480    -4.3920    -0.1590 C.3   1 <1>  -0.2400 
 10 O       -2.8640    -3.5170     1.8560 O.2   1 <1>  -0.5700 
 11 N       -2.7250    -3.3500    -0.3370 N.am  1 <1>  -0.6600 
 12 C       -3.2600    -2.2220    -1.1530 C.3   1 <1>   0.1400 
 13 C       -3.2300    -4.7040    -0.6960 C.3   1 <1>   0.1400 
 14 C       -4.5320    -1.6290    -0.5050 C.3   1 <1>   0.3430 
 15 C       -4.6590    -4.9650    -0.1890 C.3   1 <1>  -0.1600 
 16 N       -5.2730    -2.6370     0.3310 N.4   1 <1>  -0.9590 
 17 C       -5.6740    -3.8460    -0.4360 C.3   1 <1>   0.3430 
 18 C       -6.4100    -2.0260     1.0780 C.3   1 <1>   0.2630 
 19 H       -1.9570    -0.9740     2.8430 H     1 <1>   0.1500 
 20 H        2.1140     0.5190    -0.1160 H     1 <1>   0.0800 
 21 H        2.6080    -1.0980    -0.5510 H     1 <1>   0.0800 
 22 H        2.9040    -0.5040     1.0600 H     1 <1>   0.0800 
 23 H        1.2570    -2.6780    -1.3120 H     1 <1>   0.0800 
 24 H       -0.3990    -3.1150    -1.4580 H     1 <1>   0.0800 
 25 H        1.5720    -4.2960     0.5260 H     1 <1>   0.0800 
 26 H        1.0280    -5.0760    -0.9400 H     1 <1>   0.0800 
 27 H       -0.0910    -4.8010     0.3730 H     1 <1>   0.0800 
 28 H       -3.4880    -2.5680    -2.1460 H     1 <1>   0.0800 
 29 H       -2.5130    -1.4500    -1.2470 H     1 <1>   0.0800 
 30 H       -2.5690    -5.4450    -0.2750 H     1 <1>   0.0800 
 31 H       -3.1940    -4.8180    -1.7670 H     1 <1>   0.0800 
 32 H       -5.1750    -1.2310    -1.2730 H     1 <1>   0.0800 
 33 H       -4.2320    -0.8080     0.1250 H     1 <1>   0.0800 
 34 H       -4.6280    -5.1900     0.8630 H     1 <1>   0.0800 
 35 H       -5.0180    -5.8560    -0.6730 H     1 <1>   0.0800 
 36 H       -4.5720    -2.9860     1.0240 H     1 <1>   0.4500 
 37 H       -6.6430    -4.1820    -0.1030 H     1 <1>   0.0800 
 38 H       -5.7390    -3.6220    -1.4890 H     1 <1>   0.0800 
 39 H       -7.1570    -1.6600     0.3930 H     1 <1>   0.0800 
 40 H       -6.0600    -1.2060     1.6840 H     1 <1>   0.0800 
 41 H       -6.8640    -2.7580     1.7270 H     1 <1>   0.0800 
@<TRIPOS>BOND
  1   1   2  1   
  2   1   3  1   
  3   2   4  2   
  4   2   5  1   
  5   3   6  2   
  6   3  19  1   
  7   4   6  1   
  8   4   7  1   
  9   5  20  1   
 10   5  21  1   
 11   5  22  1   
 12   6   8  1   
 13   7   9  1   
 14   7  23  1   
 15   7  24  1   
 16   8  10  2   
 17   8  11  am  
 18   9  25  1   
 19   9  26  1   
 20   9  27  1   
 21  11  12  1   
 22  11  13  1   
 23  12  14  1   
 24  12  28  1   
 25  12  29  1   
 26  13  15  1   
 27  13  30  1   
 28  13  31  1   
 29  14  16  1   
 30  14  32  1   
 31  14  33  1   
 32  15  17  1   
 33  15  34  1   
 34  15  35  1   
 35  16  17  1   
 36  16  18  1   
 37  16  36  1   
 38  17  37  1   
 39  17  38  1   
 40  18  39  1   
 41  18  40  1   
 42  18  41  1   
@<TRIPOS>SUBSTRUCTURE
  1 ****   8 GROUP 4 **** **** 0

# MOE 2024.06 (io_trps.svl 2023.06)
