@<TRIPOS>MOLECULE
NONAME
41 42 1 0 0 
SMALL
USER_CHARGES


@<TRIPOS>ATOM
  1 N       -0.0990     0.0800    -0.1100 N.4   1 <1>  -0.9590 
  2 C       -1.1690    -0.8950     0.3270 C.3   1 <1>   0.3430 
  3 C       -0.4410     0.7390    -1.4050 C.3   1 <1>   0.3430 
  4 C        1.2090    -0.6510    -0.2290 C.3   1 <1>   0.3430 
  5 C       -2.5370    -0.2840     0.7570 C.3   1 <1>   0.3430 
  6 C       -1.2290     2.0340    -1.1990 C.3   1 <1>  -0.1600 
  7 C        2.4100     0.3100    -0.2550 C.3   1 <1>  -0.0800 
  8 N       -3.1300     0.7690    -0.1560 N.4   1 <1>  -0.9590 
  9 C       -2.3430     2.0370    -0.1500 C.3   1 <1>   0.3430 
 10 C        3.7030    -0.5120    -0.4350 C.3   1 <1>  -0.0220 
 11 C        2.5070     1.1930     1.0110 C.3   1 <1>  -0.1600 
 12 C       -4.5360     1.0670     0.2870 C.3   1 <1>   0.2630 
 13 C        4.9330     0.3520    -0.2420 C.2   1 <1>  -0.2880 
 14 C        3.6640     2.2010     0.9070 C.3   1 <1>  -0.0220 
 15 C        4.9120     1.5520     0.3410 C.2   1 <1>  -0.2880 
 16 H        0.0630     0.7960     0.6120 H     1 <1>   0.4500 
 17 H       -0.7980    -1.4710     1.1600 H     1 <1>   0.0800 
 18 H       -1.3500    -1.5950    -0.4720 H     1 <1>   0.0800 
 19 H       -1.0100     0.0570    -2.0170 H     1 <1>   0.0800 
 20 H        0.4590     0.9780    -1.9510 H     1 <1>   0.0800 
 21 H        1.2150    -1.2560    -1.1230 H     1 <1>   0.0800 
 22 H        1.3330    -1.3120     0.6150 H     1 <1>   0.0800 
 23 H       -2.4220     0.1360     1.7430 H     1 <1>   0.0800 
 24 H       -3.2390    -1.0970     0.8510 H     1 <1>   0.0800 
 25 H       -1.6550     2.3140    -2.1470 H     1 <1>   0.0800 
 26 H       -0.5360     2.8180    -0.9490 H     1 <1>   0.0800 
 27 H        2.3360     0.9550    -1.1130 H     1 <1>   0.0800 
 28 H       -3.2050     0.4170    -1.1230 H     1 <1>   0.4500 
 29 H       -2.9950     2.8720    -0.3570 H     1 <1>   0.0800 
 30 H       -1.9240     2.1950     0.8300 H     1 <1>   0.0800 
 31 H        3.7270    -0.9350    -1.4250 H     1 <1>   0.0800 
 32 H        3.7480    -1.3200     0.2760 H     1 <1>   0.0800 
 33 H        2.6860     0.5640     1.8680 H     1 <1>   0.0800 
 34 H        1.6040     1.7460     1.1850 H     1 <1>   0.0800 
 35 H       -4.5440     1.4570     1.2930 H     1 <1>   0.0800 
 36 H       -5.1390     0.1730     0.2610 H     1 <1>   0.0800 
 37 H       -4.9890     1.7980    -0.3650 H     1 <1>   0.0800 
 38 H        5.8390    -0.0970    -0.6180 H     1 <1>   0.1500 
 39 H        3.8800     2.5970     1.8850 H     1 <1>   0.0800 
 40 H        3.3870     3.0240     0.2710 H     1 <1>   0.0800 
 41 H        5.7960     2.1590     0.4560 H     1 <1>   0.1500 
@<TRIPOS>BOND
  1   1   2  1   
  2   1   3  1   
  3   1   4  1   
  4   1  16  1   
  5   2   5  1   
  6   2  17  1   
  7   2  18  1   
  8   3   6  1   
  9   3  19  1   
 10   3  20  1   
 11   4   7  1   
 12   4  21  1   
 13   4  22  1   
 14   5   8  1   
 15   5  23  1   
 16   5  24  1   
 17   6   9  1   
 18   6  25  1   
 19   6  26  1   
 20   7  10  1   
 21   7  11  1   
 22   7  27  1   
 23   8   9  1   
 24   8  12  1   
 25   8  28  1   
 26   9  29  1   
 27   9  30  1   
 28  10  13  1   
 29  10  31  1   
 30  10  32  1   
 31  11  14  1   
 32  11  33  1   
 33  11  34  1   
 34  12  35  1   
 35  12  36  1   
 36  12  37  1   
 37  13  15  2   
 38  13  38  1   
 39  14  15  1   
 40  14  39  1   
 41  14  40  1   
 42  15  41  1   
@<TRIPOS>SUBSTRUCTURE
  1 ****   1 GROUP 4 **** **** 0

# MOE 2024.06 (io_trps.svl 2023.06)
