@<TRIPOS>MOLECULE
NONAME
43 45 1 0 0 
SMALL
USER_CHARGES


@<TRIPOS>ATOM
  1 CL       1.8410    -0.2390     1.8950 Cl    1 <1>  -0.1770 
  2 C        2.6270    -0.5730     0.3690 C.ar  1 <1>   0.1770 
  3 C        2.9050     0.4540    -0.5240 C.ar  1 <1>  -0.1440 
  4 C        2.9720    -1.8840     0.0930 C.ar  1 <1>  -0.1500 
  5 C        3.5500     0.1380    -1.7110 C.ar  1 <1>  -0.1500 
  6 C        2.5230     1.9000    -0.2380 C.3   1 <1>   0.2540 
  7 C        3.6110    -2.1840    -1.0970 C.ar  1 <1>  -0.1500 
  8 C        3.9000    -1.1720    -1.9960 C.ar  1 <1>  -0.1500 
  9 N        3.7130     2.6890     0.1420 N.3   1 <1>  -0.8100 
 10 C        3.3850     4.1300     0.2580 C.3   1 <1>   0.1100 
 11 C        4.3290     2.1950     1.4020 C.3   1 <1>   0.1100 
 12 C        4.6150     4.9860     0.6510 C.3   1 <1>   0.3430 
 13 C        5.5610     3.0300     1.8280 C.3   1 <1>   0.3430 
 14 N        5.8320     4.1260     0.8430 N.4   1 <1>  -0.9590 
 15 C        7.0830     4.8810     1.1050 C.3   1 <1>   0.4860 
 16 C        7.3170     5.8640    -0.0280 C.ar  1 <1>  -0.1430 
 17 C        7.6840     5.4110    -1.2880 C.ar  1 <1>  -0.1500 
 18 C        7.1610     7.2290     0.1840 C.ar  1 <1>  -0.1500 
 19 C        7.8780     6.3210    -2.3110 C.ar  1 <1>   0.1770 
 20 C        7.3600     8.1320    -0.8490 C.ar  1 <1>  -0.1500 
 21 CL       8.3290     5.7380    -3.8900 Cl    1 <1>  -0.1770 
 22 C        7.7190     7.6780    -2.1060 C.ar  1 <1>  -0.1500 
 23 H        2.7410    -2.6590     0.8010 H     1 <1>   0.1500 
 24 H        3.7820     0.9150    -2.4200 H     1 <1>   0.1500 
 25 H        1.7750     1.9590     0.5330 H     1 <1>   0.0800 
 26 H        2.0950     2.3160    -1.1340 H     1 <1>   0.0800 
 27 H        3.8830    -3.2010    -1.3230 H     1 <1>   0.1500 
 28 H        4.3980    -1.4050    -2.9230 H     1 <1>   0.1500 
 29 H        2.6090     4.2720     0.9920 H     1 <1>   0.0800 
 30 H        3.0050     4.4860    -0.6850 H     1 <1>   0.0800 
 31 H        4.6470     1.1740     1.2730 H     1 <1>   0.0800 
 32 H        3.6010     2.2060     2.1970 H     1 <1>   0.0800 
 33 H        4.3970     5.5280     1.5560 H     1 <1>   0.0800 
 34 H        4.7950     5.7080    -0.1280 H     1 <1>   0.0800 
 35 H        6.4140     2.3760     1.8970 H     1 <1>   0.0800 
 36 H        5.3840     3.4460     2.8060 H     1 <1>   0.0800 
 37 H        5.9150     3.6370    -0.0610 H     1 <1>   0.4500 
 38 H        7.9190     4.2030     1.1660 H     1 <1>   0.0800 
 39 H        7.0060     5.4130     2.0390 H     1 <1>   0.0800 
 40 H        7.8270     4.3660    -1.4980 H     1 <1>   0.1500 
 41 H        6.8860     7.6100     1.1540 H     1 <1>   0.1500 
 42 H        7.2390     9.1890    -0.6770 H     1 <1>   0.1500 
 43 H        7.8790     8.3650    -2.9190 H     1 <1>   0.1500 
@<TRIPOS>BOND
  1   1   2  1   
  2   2   3  ar  
  3   2   4  ar  
  4   3   5  ar  
  5   3   6  1   
  6   4   7  ar  
  7   4  23  1   
  8   5   8  ar  
  9   5  24  1   
 10   6   9  1   
 11   6  25  1   
 12   6  26  1   
 13   7   8  ar  
 14   7  27  1   
 15   8  28  1   
 16   9  10  1   
 17   9  11  1   
 18  10  12  1   
 19  10  29  1   
 20  10  30  1   
 21  11  13  1   
 22  11  31  1   
 23  11  32  1   
 24  12  14  1   
 25  12  33  1   
 26  12  34  1   
 27  13  14  1   
 28  13  35  1   
 29  13  36  1   
 30  14  15  1   
 31  14  37  1   
 32  15  16  1   
 33  15  38  1   
 34  15  39  1   
 35  16  17  ar  
 36  16  18  ar  
 37  17  19  ar  
 38  17  40  1   
 39  18  20  ar  
 40  18  41  1   
 41  19  21  1   
 42  19  22  ar  
 43  20  22  ar  
 44  20  42  1   
 45  22  43  1   
@<TRIPOS>SUBSTRUCTURE
  1 ****   9 GROUP 4 **** **** 0

# MOE 2024.06 (io_trps.svl 2023.06)
