@<TRIPOS>MOLECULE
NONAME
39 40 1 0 0 
SMALL
USER_CHARGES


@<TRIPOS>ATOM
  1 CL       0.0700    -1.0850     3.0060 Cl    1 <1>  -0.1770 
  2 C       -0.8990    -1.1470     1.5520 C.ar  1 <1>   0.1770 
  3 C       -0.7540    -2.1980     0.6580 C.ar  1 <1>  -0.1440 
  4 C       -1.7980    -0.1210     1.3210 C.ar  1 <1>  -0.1500 
  5 C       -1.5280    -2.2000    -0.4940 C.ar  1 <1>  -0.1500 
  6 C        0.2280    -3.3270     0.9160 C.3   1 <1>   0.2840 
  7 C       -2.5690    -0.1380     0.1710 C.ar  1 <1>  -0.1500 
  8 C       -2.4310    -1.1770    -0.7340 C.ar  1 <1>  -0.1500 
  9 N        1.5750    -2.8730     0.5300 N.am  1 <1>  -0.7300 
 10 C        2.3730    -3.4840    -0.3790 C.2   1 <1>   0.5690 
 11 O        2.0490    -4.5130    -0.9200 O.2   1 <1>  -0.5700 
 12 C        3.7210    -2.8600    -0.7250 C.3   1 <1>  -0.0190 
 13 C        4.6850    -2.8920     0.4770 C.3   1 <1>  -0.1600 
 14 C        3.5730    -1.4220    -1.2620 C.3   1 <1>  -0.1600 
 15 C        6.0310    -2.2490     0.1330 C.3   1 <1>   0.1400 
 16 C        4.9350    -0.7980    -1.5760 C.3   1 <1>   0.1400 
 17 N        5.7990    -0.8650    -0.3650 N.am  1 <1>  -0.6600 
 18 C        6.3010     0.2770     0.2070 C.2   1 <1>   0.5690 
 19 O        6.0770     1.3750    -0.2400 O.2   1 <1>  -0.5700 
 20 C        7.1670     0.2040     1.4440 C.3   1 <1>  -0.1790 
 21 H       -1.8890     0.6800     2.0320 H     1 <1>   0.1500 
 22 H       -1.4280    -2.9990    -1.2100 H     1 <1>   0.1500 
 23 H       -0.0490    -4.1970     0.3440 H     1 <1>   0.0800 
 24 H        0.2250    -3.6000     1.9570 H     1 <1>   0.0800 
 25 H       -3.2720     0.6550    -0.0190 H     1 <1>   0.1500 
 26 H       -3.0270    -1.1890    -1.6310 H     1 <1>   0.1500 
 27 H        1.8610    -1.9840     0.9430 H     1 <1>   0.3700 
 28 H        4.1530    -3.4580    -1.5090 H     1 <1>   0.0800 
 29 H        4.8470    -3.9130     0.7770 H     1 <1>   0.0800 
 30 H        4.2560    -2.3690     1.3130 H     1 <1>   0.0800 
 31 H        3.0740    -0.7990    -0.5410 H     1 <1>   0.0800 
 32 H        2.9740    -1.4320    -2.1560 H     1 <1>   0.0800 
 33 H        6.5220    -2.8180    -0.6380 H     1 <1>   0.0800 
 34 H        6.6640    -2.2550     1.0010 H     1 <1>   0.0800 
 35 H        4.7990     0.2220    -1.8940 H     1 <1>   0.0800 
 36 H        5.4120    -1.3330    -2.3790 H     1 <1>   0.0800 
 37 H        6.6190    -0.2520     2.2460 H     1 <1>   0.0800 
 38 H        7.4540     1.1950     1.7430 H     1 <1>   0.0800 
 39 H        8.0540    -0.3620     1.2350 H     1 <1>   0.0800 
@<TRIPOS>BOND
  1   1   2  1   
  2   2   3  ar  
  3   2   4  ar  
  4   3   5  ar  
  5   3   6  1   
  6   4   7  ar  
  7   4  21  1   
  8   5   8  ar  
  9   5  22  1   
 10   6   9  1   
 11   6  23  1   
 12   6  24  1   
 13   7   8  ar  
 14   7  25  1   
 15   8  26  1   
 16   9  10  am  
 17   9  27  1   
 18  10  11  2   
 19  10  12  1   
 20  12  13  1   
 21  12  14  1   
 22  12  28  1   
 23  13  15  1   
 24  13  29  1   
 25  13  30  1   
 26  14  16  1   
 27  14  31  1   
 28  14  32  1   
 29  15  17  1   
 30  15  33  1   
 31  15  34  1   
 32  16  17  1   
 33  16  35  1   
 34  16  36  1   
 35  17  18  am  
 36  18  19  2   
 37  18  20  1   
 38  20  37  1   
 39  20  38  1   
 40  20  39  1   
@<TRIPOS>SUBSTRUCTURE
  1 ****   9 GROUP 4 **** **** 0

# MOE 2024.06 (io_trps.svl 2023.06)
