@<TRIPOS>MOLECULE
NONAME
47 50 1 0 0 
SMALL
USER_CHARGES


@<TRIPOS>ATOM
  1 O       -0.0180     0.7320     0.0440 O.2   1 <1>  -0.5700 
  2 C       -0.5160    -0.2820     0.4740 C.2   1 <1>   0.5690 
  3 N       -0.5740    -1.4370    -0.2410 N.am  1 <1>  -0.5790 
  4 C       -1.1450    -0.2520     1.8710 C.3   1 <1>   0.1710 
  5 C       -0.0460    -1.6330    -1.5970 C.3   1 <1>   0.0490 
  6 N       -2.6280    -0.4410     1.8800 N.3   1 <1>  -0.8100 
  7 C       -0.8330    -2.4800    -2.5410 C.3   1 <1>  -0.2000 
  8 C        0.4540    -2.9900    -1.9650 C.3   1 <1>  -0.2000 
  9 C       -3.1590    -0.4180     3.2640 C.3   1 <1>   0.1100 
 10 C       -3.2910     0.6080     1.0560 C.3   1 <1>   0.1100 
 11 C       -4.6950    -0.6270     3.3100 C.3   1 <1>   0.3430 
 12 C       -4.8350     0.5640     1.1470 C.3   1 <1>   0.3430 
 13 N       -5.2900    -0.6300     1.9340 N.4   1 <1>  -0.9590 
 14 C       -6.7580    -0.8510     1.9040 C.3   1 <1>   0.4860 
 15 C       -7.1820    -1.0450     0.4610 C.ar  1 <1>  -0.1440 
 16 C       -7.8180    -0.0080    -0.2160 C.ar  1 <1>  -0.1500 
 17 C       -6.9240    -2.2530    -0.1910 C.ar  1 <1>  -0.1500 
 18 C       -8.1600    -0.2090    -1.5380 C.ar  1 <1>   0.0820 
 19 C       -7.2820    -2.4330    -1.5220 C.ar  1 <1>  -0.1500 
 20 O       -8.7580     0.6450    -2.3730 O.3   1 <1>  -0.3620 
 21 C       -7.8990    -1.3860    -2.1740 C.ar  1 <1>   0.0820 
 22 C       -8.9010    -0.0370    -3.6200 C.3   1 <1>   0.4000 
 23 O       -8.3230    -1.3280    -3.4390 O.3   1 <1>  -0.3620 
 24 H       -1.0680    -2.2370     0.1530 H     1 <1>   0.3700 
 25 H       -0.8960     0.6920     2.3260 H     1 <1>   0.0800 
 26 H       -0.6820    -1.0270     2.4550 H     1 <1>   0.0800 
 27 H        0.4730    -0.7690    -1.9850 H     1 <1>   0.1000 
 28 H       -0.8500    -2.2110    -3.5830 H     1 <1>   0.1000 
 29 H       -1.7610    -2.9120    -2.2100 H     1 <1>   0.1000 
 30 H        0.4260    -3.7750    -1.2300 H     1 <1>   0.1000 
 31 H        1.3070    -3.0650    -2.6160 H     1 <1>   0.1000 
 32 H       -2.9200     0.5240     3.7290 H     1 <1>   0.0800 
 33 H       -2.6870    -1.1920     3.8450 H     1 <1>   0.0800 
 34 H       -3.0120     0.4810     0.0230 H     1 <1>   0.0800 
 35 H       -2.9520     1.5860     1.3560 H     1 <1>   0.0800 
 36 H       -5.1370     0.1550     3.9050 H     1 <1>   0.0800 
 37 H       -4.9020    -1.5650     3.7980 H     1 <1>   0.0800 
 38 H       -5.2380     0.5290     0.1470 H     1 <1>   0.0800 
 39 H       -5.1900     1.4690     1.6110 H     1 <1>   0.0800 
 40 H       -4.8330    -1.4150     1.4480 H     1 <1>   0.4500 
 41 H       -7.2730    -0.0050     2.3290 H     1 <1>   0.0800 
 42 H       -7.0150    -1.7310     2.4720 H     1 <1>   0.0800 
 43 H       -8.0500     0.9360     0.2450 H     1 <1>   0.1500 
 44 H       -6.4450    -3.0670     0.3250 H     1 <1>   0.1500 
 45 H       -7.0930    -3.3550    -2.0430 H     1 <1>   0.1500 
 46 H       -8.3680     0.4950    -4.3880 H     1 <1>   0.0800 
 47 H       -9.9450    -0.1390    -3.8580 H     1 <1>   0.0800 
@<TRIPOS>BOND
  1   1   2  2   
  2   2   3  am  
  3   2   4  1   
  4   3   5  1   
  5   3  24  1   
  6   4   6  1   
  7   4  25  1   
  8   4  26  1   
  9   5   7  1   
 10   5   8  1   
 11   5  27  1   
 12   6   9  1   
 13   6  10  1   
 14   7   8  1   
 15   7  28  1   
 16   7  29  1   
 17   8  30  1   
 18   8  31  1   
 19   9  11  1   
 20   9  32  1   
 21   9  33  1   
 22  10  12  1   
 23  10  34  1   
 24  10  35  1   
 25  11  13  1   
 26  11  36  1   
 27  11  37  1   
 28  12  13  1   
 29  12  38  1   
 30  12  39  1   
 31  13  14  1   
 32  13  40  1   
 33  14  15  1   
 34  14  41  1   
 35  14  42  1   
 36  15  16  ar  
 37  15  17  ar  
 38  16  18  ar  
 39  16  43  1   
 40  17  19  ar  
 41  17  44  1   
 42  18  20  1   
 43  18  21  ar  
 44  19  21  ar  
 45  19  45  1   
 46  20  22  1   
 47  21  23  1   
 48  22  23  1   
 49  22  46  1   
 50  22  47  1   
@<TRIPOS>SUBSTRUCTURE
  1 ****  12 GROUP 4 **** **** 0

# MOE 2024.06 (io_trps.svl 2023.06)
