@<TRIPOS>MOLECULE
NONAME
49 51 1 0 0 
SMALL
USER_CHARGES


@<TRIPOS>ATOM
  1 O        8.0720     0.7610    -1.0520 O.3   1 <1>  -0.5600 
  2 C        9.0140    -0.2760    -1.0860 C.3   1 <1>   0.2000 
  3 C        7.1840     0.8160     0.0370 C.3   1 <1>   0.2000 
  4 C        8.3090    -1.6590    -1.0860 C.3   1 <1>   0.3430 
  5 C       10.0200    -0.0920     0.0580 C.3   1 <1>  -0.2400 
  6 C        6.7790    -0.5930     0.5430 C.3   1 <1>   0.3430 
  7 C        5.9680     1.6010    -0.4550 C.3   1 <1>  -0.2400 
  8 N        6.9070    -1.6080    -0.5470 N.4   1 <1>  -0.9590 
  9 C        6.2930    -2.9460    -0.2760 C.3   1 <1>   0.3430 
 10 C        4.7610    -2.9200    -0.4920 C.3   1 <1>   0.2000 
 11 O        4.4330    -1.8880    -1.3730 O.3   1 <1>  -0.6800 
 12 C        3.9490    -2.7400     0.8040 C.3   1 <1>   0.1200 
 13 O        2.6680    -2.3080     0.4640 O.3   1 <1>  -0.5600 
 14 C        1.7650    -2.2220     1.5240 C.3   1 <1>   0.2630 
 15 C        0.4660    -1.6350     0.9980 C.ar  1 <1>  -0.1430 
 16 C       -0.1720    -2.2310    -0.0870 C.ar  1 <1>  -0.1500 
 17 C       -0.0930    -0.5040     1.5960 C.ar  1 <1>  -0.1500 
 18 C       -1.3500    -1.6750    -0.5410 C.ar  1 <1>   0.0830 
 19 C       -1.2810     0.0410     1.1260 C.ar  1 <1>  -0.1500 
 20 O       -2.1190    -2.0770    -1.5580 O.3   1 <1>  -0.3630 
 21 C       -1.8910    -0.5700     0.0490 C.ar  1 <1>   0.0830 
 22 C       -3.2170    -1.1690    -1.6220 C.3   1 <1>   0.4000 
 23 O       -3.0250    -0.2260    -0.5690 O.3   1 <1>  -0.3620 
 24 H        9.5500    -0.1700    -2.0150 H     1 <1>   0.0800 
 25 H        7.6610     1.3660     0.8310 H     1 <1>   0.0800 
 26 H        8.9040    -2.3440    -0.5060 H     1 <1>   0.0800 
 27 H        8.2870    -2.0310    -2.0970 H     1 <1>   0.0800 
 28 H        9.5740    -0.2490     1.0220 H     1 <1>   0.0800 
 29 H       10.4370     0.8990     0.0170 H     1 <1>   0.0800 
 30 H       10.8280    -0.7930    -0.0530 H     1 <1>   0.0800 
 31 H        5.7640    -0.5520     0.9000 H     1 <1>   0.0800 
 32 H        7.4120    -0.8650     1.3690 H     1 <1>   0.0800 
 33 H        5.4850     1.0860    -1.2660 H     1 <1>   0.0800 
 34 H        6.2760     2.5750    -0.7930 H     1 <1>   0.0800 
 35 H        5.2570     1.7320     0.3410 H     1 <1>   0.0800 
 36 H        6.3100    -1.2230    -1.3090 H     1 <1>   0.4500 
 37 H        6.5310    -3.2860     0.7180 H     1 <1>   0.0800 
 38 H        6.7010    -3.6630    -0.9690 H     1 <1>   0.0800 
 39 H        4.4540    -3.8460    -0.9480 H     1 <1>   0.0800 
 40 H        3.4590    -1.7340    -1.2840 H     1 <1>   0.4000 
 41 H        4.3960    -2.0010     1.4450 H     1 <1>   0.0800 
 42 H        3.8770    -3.6750     1.3330 H     1 <1>   0.0800 
 43 H        2.1840    -1.5920     2.2900 H     1 <1>   0.0800 
 44 H        1.5920    -3.2100     1.9160 H     1 <1>   0.0800 
 45 H        0.2330    -3.1000    -0.5720 H     1 <1>   0.1500 
 46 H        0.3950    -0.0380     2.4350 H     1 <1>   0.1500 
 47 H       -1.7240     0.9110     1.5760 H     1 <1>   0.1500 
 48 H       -4.1370    -1.7040    -1.4650 H     1 <1>   0.0800 
 49 H       -3.2070    -0.6600    -2.5690 H     1 <1>   0.0800 
@<TRIPOS>BOND
  1   1   2  1   
  2   1   3  1   
  3   2   4  1   
  4   2   5  1   
  5   2  24  1   
  6   3   6  1   
  7   3   7  1   
  8   3  25  1   
  9   4   8  1   
 10   4  26  1   
 11   4  27  1   
 12   5  28  1   
 13   5  29  1   
 14   5  30  1   
 15   6   8  1   
 16   6  31  1   
 17   6  32  1   
 18   7  33  1   
 19   7  34  1   
 20   7  35  1   
 21   8   9  1   
 22   8  36  1   
 23   9  10  1   
 24   9  37  1   
 25   9  38  1   
 26  10  11  1   
 27  10  12  1   
 28  10  39  1   
 29  11  40  1   
 30  12  13  1   
 31  12  41  1   
 32  12  42  1   
 33  13  14  1   
 34  14  15  1   
 35  14  43  1   
 36  14  44  1   
 37  15  16  ar  
 38  15  17  ar  
 39  16  18  ar  
 40  16  45  1   
 41  17  19  ar  
 42  17  46  1   
 43  18  20  1   
 44  18  21  ar  
 45  19  21  ar  
 46  19  47  1   
 47  20  22  1   
 48  21  23  1   
 49  22  23  1   
 50  22  48  1   
 51  22  49  1   
@<TRIPOS>SUBSTRUCTURE
  1 ****  13 GROUP 4 **** **** 0

# MOE 2024.06 (io_trps.svl 2023.06)
