@<TRIPOS>MOLECULE
NONAME
40 41 1 0 0 
SMALL
USER_CHARGES


@<TRIPOS>ATOM
  1 CL       0.2070    -0.0920     1.3090 Cl    1 <1>  -0.1770 
  2 C        0.4610     1.4890     0.6140 C.ar  1 <1>   0.1770 
  3 C        1.7520     1.9490     0.4400 C.ar  1 <1>  -0.1500 
  4 C       -0.6360     2.2490     0.2500 C.ar  1 <1>  -0.1500 
  5 C        1.9510     3.2100    -0.1150 C.ar  1 <1>   0.0830 
  6 C       -0.4360     3.5030    -0.3010 C.ar  1 <1>  -0.1500 
  7 O        3.1740     3.7540    -0.3280 O.3   1 <1>  -0.3630 
  8 C        0.8530     3.9760    -0.4810 C.ar  1 <1>  -0.1500 
  9 C        4.3550     3.0600     0.0080 C.3   1 <1>   0.1200 
 10 C        5.5420     3.9460    -0.3580 C.3   1 <1>   0.1200 
 11 O        6.7240     3.2760    -0.0280 O.3   1 <1>  -0.5600 
 12 C        7.8810     3.9860    -0.3210 C.3   1 <1>   0.1200 
 13 C        9.0720     3.1030     0.0680 C.3   1 <1>   0.3430 
 14 N       10.3930     3.7500    -0.2180 N.4   1 <1>  -0.9590 
 15 C       11.5340     2.7790    -0.1060 C.3   1 <1>   0.3430 
 16 C       10.6760     4.9730     0.6130 C.3   1 <1>   0.3430 
 17 C       12.8840     3.4580    -0.4370 C.3   1 <1>   0.1200 
 18 C       12.0890     5.5370     0.3300 C.3   1 <1>   0.1200 
 19 O       12.7170     4.8250    -0.7020 O.3   1 <1>  -0.5600 
 20 H        2.5650     1.3180     0.7390 H     1 <1>   0.1500 
 21 H       -1.6280     1.8620     0.3990 H     1 <1>   0.1500 
 22 H       -1.2790     4.1080    -0.5900 H     1 <1>   0.1500 
 23 H        1.0160     4.9500    -0.9090 H     1 <1>   0.1500 
 24 H        4.3820     2.1430    -0.5540 H     1 <1>   0.0800 
 25 H        4.3440     2.8640     1.0660 H     1 <1>   0.0800 
 26 H        5.4970     4.8670     0.1980 H     1 <1>   0.0800 
 27 H        5.5380     4.1430    -1.4160 H     1 <1>   0.0800 
 28 H        7.8680     4.8980     0.2500 H     1 <1>   0.0800 
 29 H        7.8920     4.1980    -1.3760 H     1 <1>   0.0800 
 30 H        8.9980     2.1830    -0.4890 H     1 <1>   0.0800 
 31 H        9.0040     2.8690     1.1180 H     1 <1>   0.0800 
 32 H       10.4250     4.0720    -1.1990 H     1 <1>   0.4500 
 33 H       11.3840     1.9500    -0.7790 H     1 <1>   0.0800 
 34 H       11.5800     2.3790     0.8940 H     1 <1>   0.0800 
 35 H       10.6000     4.7350     1.6610 H     1 <1>   0.0800 
 36 H        9.9490     5.7400     0.4010 H     1 <1>   0.0800 
 37 H       13.3210     3.0070    -1.3110 H     1 <1>   0.0800 
 38 H       13.5780     3.3460     0.3790 H     1 <1>   0.0800 
 39 H       12.7060     5.4830     1.2120 H     1 <1>   0.0800 
 40 H       12.0250     6.5680     0.0280 H     1 <1>   0.0800 
@<TRIPOS>BOND
  1   1   2  1   
  2   2   3  ar  
  3   2   4  ar  
  4   3   5  ar  
  5   3  20  1   
  6   4   6  ar  
  7   4  21  1   
  8   5   7  1   
  9   5   8  ar  
 10   6   8  ar  
 11   6  22  1   
 12   7   9  1   
 13   8  23  1   
 14   9  10  1   
 15   9  24  1   
 16   9  25  1   
 17  10  11  1   
 18  10  26  1   
 19  10  27  1   
 20  11  12  1   
 21  12  13  1   
 22  12  28  1   
 23  12  29  1   
 24  13  14  1   
 25  13  30  1   
 26  13  31  1   
 27  14  15  1   
 28  14  16  1   
 29  14  32  1   
 30  15  17  1   
 31  15  33  1   
 32  15  34  1   
 33  16  18  1   
 34  16  35  1   
 35  16  36  1   
 36  17  19  1   
 37  17  37  1   
 38  17  38  1   
 39  18  19  1   
 40  18  39  1   
 41  18  40  1   
@<TRIPOS>SUBSTRUCTURE
  1 ****  10 GROUP 4 **** **** 0

# MOE 2024.06 (io_trps.svl 2023.06)
