@<TRIPOS>MOLECULE
NONAME
26 26 1 0 0 
SMALL
USER_CHARGES


@<TRIPOS>ATOM
  1 BR       0.0340    -0.9120    -0.0930 Br    1 <1>  -0.1110 
  2 C       -1.2800     0.5080    -0.0390 C.ar  1 <1>   0.1110 
  3 C       -0.9750     1.8780     0.0000 C.ar  1 <1>   0.0820 
  4 C       -2.5880     0.0580    -0.0420 C.ar  1 <1>  -0.1500 
  5 O        0.2480     2.4790     0.0090 O.3   1 <1>  -0.3630 
  6 C       -2.0390     2.7680     0.0350 C.ar  1 <1>  -0.1500 
  7 C       -3.6290     0.9700    -0.0060 C.ar  1 <1>  -0.1500 
  8 C        1.4770     1.7990    -0.0120 C.3   1 <1>   0.1200 
  9 C       -3.3520     2.3250     0.0320 C.ar  1 <1>  -0.1500 
 10 C        2.5930     2.8430     0.0170 C.3   1 <1>  -0.1600 
 11 C        3.9760     2.1760     0.0030 C.3   1 <1>  -0.1600 
 12 C        5.0900     3.2230     0.0270 C.3   1 <1>   0.0700 
 13 S        6.6770     2.3530    -0.0020 S.3   1 <1>  -0.4100 
 14 H       -2.7920    -0.9970    -0.0720 H     1 <1>   0.1500 
 15 H       -1.8320     3.8230     0.0650 H     1 <1>   0.1500 
 16 H       -4.6490     0.6270    -0.0090 H     1 <1>   0.1500 
 17 H        1.5290     1.2190    -0.9170 H     1 <1>   0.0800 
 18 H        1.5310     1.1670     0.8560 H     1 <1>   0.0800 
 19 H       -4.1580     3.0380     0.0600 H     1 <1>   0.1500 
 20 H        2.4900     3.4380     0.9080 H     1 <1>   0.0800 
 21 H        2.4940     3.4830    -0.8420 H     1 <1>   0.0800 
 22 H        4.0770     1.5760    -0.8850 H     1 <1>   0.0800 
 23 H        4.0740     1.5330     0.8610 H     1 <1>   0.0800 
 24 H        5.0650     3.8180     0.9230 H     1 <1>   0.0800 
 25 H        5.0600     3.8580    -0.8420 H     1 <1>   0.0800 
 26 H        6.6370     1.6290     1.1550 H     1 <1>   0.1800 
@<TRIPOS>BOND
  1   1   2  1   
  2   2   3  ar  
  3   2   4  ar  
  4   3   5  1   
  5   3   6  ar  
  6   4   7  ar  
  7   4  14  1   
  8   5   8  1   
  9   6   9  ar  
 10   6  15  1   
 11   7   9  ar  
 12   7  16  1   
 13   8  10  1   
 14   8  17  1   
 15   8  18  1   
 16   9  19  1   
 17  10  11  1   
 18  10  20  1   
 19  10  21  1   
 20  11  12  1   
 21  11  22  1   
 22  11  23  1   
 23  12  13  1   
 24  12  24  1   
 25  12  25  1   
 26  13  26  1   
@<TRIPOS>SUBSTRUCTURE
  1 ****   5 GROUP 4 **** **** 0

# MOE 2024.06 (io_trps.svl 2023.06)
