@<TRIPOS>MOLECULE
NONAME
41 42 1 0 0 
SMALL
USER_CHARGES


@<TRIPOS>ATOM
  1 O       -0.5770    -0.6540    -1.2220 O.3   1 <1>  -0.5600 
  2 C       -1.7190    -1.3940    -0.8720 C.3   1 <1>   0.3380 
  3 C        0.5420    -1.4400    -1.5070 C.3   1 <1>   0.1200 
  4 C       -2.7120    -0.4000    -0.2960 C.2   1 <1>  -0.2880 
  5 C       -1.3760    -2.5130     0.1480 C.3   1 <1>   0.0580 
  6 C        1.0560    -2.2020    -0.2380 C.3   1 <1>   0.0000 
  7 C       -3.9710    -0.2280    -0.7140 C.2   1 <1>  -0.2880 
  8 C       -1.2230    -3.8710    -0.5620 C.2   1 <1>  -0.2760 
  9 C       -0.0570    -2.1470     0.8620 C.3   1 <1>  -0.0800 
 10 C        1.3050    -3.6950    -0.6270 C.3   1 <1>   0.0580 
 11 C        2.3470    -1.4830     0.2260 C.3   1 <1>   0.1200 
 12 C       -4.9420     0.7760    -0.1240 C.3   1 <1>  -0.1020 
 13 C       -0.0320    -4.3880    -0.8920 C.2   1 <1>  -0.2880 
 14 C       -2.5360    -4.5810    -0.8520 C.3   1 <1>  -0.1020 
 15 C        0.1380    -3.0090     2.1310 C.3   1 <1>  -0.2400 
 16 C        2.2530    -3.9030    -1.8210 C.3   1 <1>  -0.2400 
 17 O        3.0290    -2.2000     1.1970 O.3   1 <1>  -0.6800 
 18 H       -2.1220    -1.8250    -1.7720 H     1 <1>   0.0800 
 19 H        0.2470    -2.1190    -2.2870 H     1 <1>   0.0800 
 20 H        1.2980    -0.7890    -1.9090 H     1 <1>   0.0800 
 21 H       -2.2800     0.1730     0.5050 H     1 <1>   0.1500 
 22 H       -2.1700    -2.5860     0.8690 H     1 <1>   0.0800 
 23 H       -4.4010    -0.8000    -1.5200 H     1 <1>   0.1500 
 24 H       -0.1440    -1.1290     1.2060 H     1 <1>   0.0800 
 25 H        1.7590    -4.2020     0.2060 H     1 <1>   0.0800 
 26 H        2.1110    -0.5130     0.6300 H     1 <1>   0.0800 
 27 H        3.0260    -1.3490    -0.5980 H     1 <1>   0.0800 
 28 H       -5.8070     0.2690     0.2650 H     1 <1>   0.0800 
 29 H       -5.2580     1.4700    -0.8830 H     1 <1>   0.0800 
 30 H       -4.4780     1.3290     0.6740 H     1 <1>   0.0800 
 31 H        0.0770    -5.3480    -1.3660 H     1 <1>   0.1500 
 32 H       -3.1620    -3.9760    -1.4820 H     1 <1>   0.0800 
 33 H       -3.0580    -4.7820     0.0670 H     1 <1>   0.0800 
 34 H       -2.3570    -5.5170    -1.3500 H     1 <1>   0.0800 
 35 H        0.2340    -4.0540     1.8960 H     1 <1>   0.0800 
 36 H       -0.7190    -2.9010     2.7720 H     1 <1>   0.0800 
 37 H        0.9940    -2.6950     2.6960 H     1 <1>   0.0800 
 38 H        1.8370    -3.5260    -2.7370 H     1 <1>   0.0800 
 39 H        2.4400    -4.9540    -1.9520 H     1 <1>   0.0800 
 40 H        3.1980    -3.4240    -1.6410 H     1 <1>   0.0800 
 41 H        2.4230    -2.4220     1.9290 H     1 <1>   0.4000 
@<TRIPOS>BOND
  1   1   2  1   
  2   1   3  1   
  3   2   4  1   
  4   2   5  1   
  5   2  18  1   
  6   3   6  1   
  7   3  19  1   
  8   3  20  1   
  9   4   7  2   
 10   4  21  1   
 11   5   8  1   
 12   5   9  1   
 13   5  22  1   
 14   6   9  1   
 15   6  10  1   
 16   6  11  1   
 17   7  12  1   
 18   7  23  1   
 19   8  13  2   
 20   8  14  1   
 21   9  15  1   
 22   9  24  1   
 23  10  13  1   
 24  10  16  1   
 25  10  25  1   
 26  11  17  1   
 27  11  26  1   
 28  11  27  1   
 29  12  28  1   
 30  12  29  1   
 31  12  30  1   
 32  13  31  1   
 33  14  32  1   
 34  14  33  1   
 35  14  34  1   
 36  15  35  1   
 37  15  36  1   
 38  15  37  1   
 39  16  38  1   
 40  16  39  1   
 41  16  40  1   
 42  17  41  1   
@<TRIPOS>SUBSTRUCTURE
  1 ****   5 GROUP 4 **** **** 0

# MOE 2024.06 (io_trps.svl 2023.06)
