@<TRIPOS>MOLECULE
NONAME
47 49 1 0 0 
SMALL
USER_CHARGES


@<TRIPOS>ATOM
  1 CL       0.6240    -0.0840    -0.4910 Cl    1 <1>  -0.1770 
  2 C        2.0600    -1.0230    -0.1590 C.ar  1 <1>   0.1770 
  3 C        1.9940    -2.0720     0.7380 C.ar  1 <1>  -0.1500 
  4 C        3.2440    -0.7020    -0.7990 C.ar  1 <1>  -0.1500 
  5 C        3.1350    -2.8110     0.9960 C.ar  1 <1>  -0.1500 
  6 C        4.3790    -1.4480    -0.5350 C.ar  1 <1>  -0.1500 
  7 C        4.3380    -2.5120     0.3650 C.ar  1 <1>   0.1000 
  8 N        5.4670    -3.2810     0.6400 N.pl3 1 <1>  -0.8380 
  9 C        5.4790    -4.7190     0.2400 C.3   1 <1>   0.2090 
 10 C        6.7910    -2.6400     0.9100 C.3   1 <1>   0.2090 
 11 C        6.5260    -4.9860    -0.8630 C.3   1 <1>   0.3430 
 12 C        7.8140    -2.9620    -0.2000 C.3   1 <1>   0.3430 
 13 N        7.8870    -4.4390    -0.5150 N.4   1 <1>  -0.9590 
 14 C        8.8930    -4.7290    -1.5730 C.3   1 <1>   0.4860 
 15 C       10.2540    -4.2900    -1.0710 C.ar  1 <1>  -0.1430 
 16 C       10.8910    -5.0010    -0.0650 C.ar  1 <1>  -0.1500 
 17 C       10.8680    -3.1690    -1.6080 C.ar  1 <1>  -0.1500 
 18 C       12.1220    -4.5910     0.4190 C.ar  1 <1>  -0.1430 
 19 C       12.0980    -2.7540    -1.1330 C.ar  1 <1>  -0.1500 
 20 C       12.7320    -3.4600    -0.1140 C.ar  1 <1>   0.0830 
 21 C       12.8070    -5.3830     1.5260 C.3   1 <1>  -0.0970 
 22 O       13.9380    -3.0960     0.3950 O.3   1 <1>  -0.3630 
 23 C       14.6910    -2.0350    -0.1510 C.3   1 <1>   0.0400 
 24 H        1.0630    -2.3000     1.2250 H     1 <1>   0.1500 
 25 H        3.2660     0.1200    -1.4910 H     1 <1>   0.1500 
 26 H        3.0980    -3.6230     1.7000 H     1 <1>   0.1500 
 27 H        5.2950    -1.2020    -1.0340 H     1 <1>   0.1500 
 28 H        4.5050    -5.0020    -0.1230 H     1 <1>   0.0800 
 29 H        5.6940    -5.3240     1.1030 H     1 <1>   0.0800 
 30 H        7.1630    -2.9930     1.8560 H     1 <1>   0.0800 
 31 H        6.6700    -1.5730     0.9930 H     1 <1>   0.0800 
 32 H        6.1750    -4.5250    -1.7710 H     1 <1>   0.0800 
 33 H        6.5880    -6.0480    -1.0350 H     1 <1>   0.0800 
 34 H        8.7830    -2.6040     0.1090 H     1 <1>   0.0800 
 35 H        7.5300    -2.4200    -1.0850 H     1 <1>   0.0800 
 36 H        8.2160    -4.9000     0.3410 H     1 <1>   0.4500 
 37 H        8.6460    -4.2020    -2.4800 H     1 <1>   0.0800 
 38 H        8.9170    -5.7860    -1.7850 H     1 <1>   0.0800 
 39 H       10.4390    -5.8850     0.3510 H     1 <1>   0.1500 
 40 H       10.4030    -2.6060    -2.4000 H     1 <1>   0.1500 
 41 H       12.5520    -1.8820    -1.5650 H     1 <1>   0.1500 
 42 H       12.2190    -6.2290     1.8300 H     1 <1>   0.0800 
 43 H       12.9680    -4.7510     2.3800 H     1 <1>   0.0800 
 44 H       13.7610    -5.7370     1.1800 H     1 <1>   0.0800 
 45 H       15.6180    -1.9720     0.3910 H     1 <1>   0.0800 
 46 H       14.1400    -1.1190    -0.0360 H     1 <1>   0.0800 
 47 H       14.8880    -2.2430    -1.1870 H     1 <1>   0.0800 
@<TRIPOS>BOND
  1   1   2  1   
  2   2   3  ar  
  3   2   4  ar  
  4   3   5  ar  
  5   3  24  1   
  6   4   6  ar  
  7   4  25  1   
  8   5   7  ar  
  9   5  26  1   
 10   6   7  ar  
 11   6  27  1   
 12   7   8  1   
 13   8   9  1   
 14   8  10  1   
 15   9  11  1   
 16   9  28  1   
 17   9  29  1   
 18  10  12  1   
 19  10  30  1   
 20  10  31  1   
 21  11  13  1   
 22  11  32  1   
 23  11  33  1   
 24  12  13  1   
 25  12  34  1   
 26  12  35  1   
 27  13  14  1   
 28  13  36  1   
 29  14  15  1   
 30  14  37  1   
 31  14  38  1   
 32  15  16  ar  
 33  15  17  ar  
 34  16  18  ar  
 35  16  39  1   
 36  17  19  ar  
 37  17  40  1   
 38  18  20  ar  
 39  18  21  1   
 40  19  20  ar  
 41  19  41  1   
 42  20  22  1   
 43  21  42  1   
 44  21  43  1   
 45  21  44  1   
 46  22  23  1   
 47  23  45  1   
 48  23  46  1   
 49  23  47  1   
@<TRIPOS>SUBSTRUCTURE
  1 ****  12 GROUP 4 **** **** 0

# MOE 2024.06 (io_trps.svl 2023.06)
