@<TRIPOS>MOLECULE
NONAME
44 45 1 0 0 
SMALL
USER_CHARGES


@<TRIPOS>ATOM
  1 CL       1.9680    -2.1300    -3.7360 Cl    1 <1>  -0.1770 
  2 C        2.0340    -2.6590    -2.0730 C.ar  1 <1>   0.1770 
  3 C        3.2480    -2.6850    -1.4200 C.ar  1 <1>  -0.1500 
  4 C        0.8670    -3.0420    -1.4410 C.ar  1 <1>  -0.1500 
  5 C        3.3150    -3.1040    -0.0970 C.ar  1 <1>   0.1000 
  6 C        0.9260    -3.4610    -0.1230 C.ar  1 <1>  -0.1500 
  7 N        4.5380    -3.1300     0.5710 N.pl3 1 <1>  -0.8380 
  8 C        2.1380    -3.4940     0.5500 C.ar  1 <1>  -0.1430 
  9 C        5.5540    -4.1490     0.1660 C.3   1 <1>   0.2090 
 10 C        5.1210    -1.8340     1.0270 C.3   1 <1>   0.2090 
 11 C        2.1780    -3.9600     1.9980 C.3   1 <1>  -0.0960 
 12 C        6.6750    -3.5610    -0.7160 C.3   1 <1>   0.1960 
 13 C        6.2360    -1.3340     0.0880 C.3   1 <1>   0.1960 
 14 N        7.2880    -2.3480    -0.1360 N.am  1 <1>  -0.8490 
 15 S        8.5550    -1.7720    -1.1000 S.o2  1 <1>   1.3330 
 16 O        7.9930    -0.8180    -2.0290 O.2   1 <1>  -0.6500 
 17 O        9.2870    -2.9150    -1.5980 O.2   1 <1>  -0.6500 
 18 C        9.5960    -0.9150     0.0860 C.3   1 <1>  -0.0550 
 19 C       10.8530    -0.2850    -0.5370 C.3   1 <1>  -0.1600 
 20 C       11.6990     0.4320     0.5210 C.3   1 <1>  -0.1600 
 21 C       12.9480     1.0560    -0.1080 C.3   1 <1>  -0.2400 
 22 H        4.1340    -2.3790    -1.9380 H     1 <1>   0.1500 
 23 H       -0.0660    -3.0120    -1.9720 H     1 <1>   0.1500 
 24 H        0.0200    -3.7610     0.3750 H     1 <1>   0.1500 
 25 H        5.0660    -4.9480    -0.3650 H     1 <1>   0.0800 
 26 H        5.9940    -4.5680     1.0530 H     1 <1>   0.0800 
 27 H        5.5230    -1.9630     2.0160 H     1 <1>   0.0800 
 28 H        4.3420    -1.0920     1.0810 H     1 <1>   0.0800 
 29 H        2.5540    -3.1700     2.6220 H     1 <1>   0.0800 
 30 H        2.8330    -4.8080     2.0870 H     1 <1>   0.0800 
 31 H        1.2010    -4.2410     2.3470 H     1 <1>   0.0800 
 32 H        6.2770    -3.3350    -1.6910 H     1 <1>   0.0800 
 33 H        7.4270    -4.3210    -0.8410 H     1 <1>   0.0800 
 34 H        6.6730    -0.4500     0.5190 H     1 <1>   0.0800 
 35 H        5.7910    -1.0510    -0.8510 H     1 <1>   0.0800 
 36 H        9.8980    -1.6120     0.8440 H     1 <1>   0.0800 
 37 H        9.0240    -0.1430     0.5610 H     1 <1>   0.0800 
 38 H       10.5560     0.4150    -1.3000 H     1 <1>   0.0800 
 39 H       11.4390    -1.0580    -1.0070 H     1 <1>   0.0800 
 40 H       12.0010    -0.2680     1.2820 H     1 <1>   0.0800 
 41 H       11.1170     1.2070     0.9910 H     1 <1>   0.0800 
 42 H       13.5590     0.2970    -0.5650 H     1 <1>   0.0800 
 43 H       13.5310     1.5540     0.6460 H     1 <1>   0.0800 
 44 H       12.6720     1.7770    -0.8580 H     1 <1>   0.0800 
@<TRIPOS>BOND
  1   1   2  1   
  2   2   3  ar  
  3   2   4  ar  
  4   3   5  ar  
  5   3  22  1   
  6   4   6  ar  
  7   4  23  1   
  8   5   7  1   
  9   5   8  ar  
 10   6   8  ar  
 11   6  24  1   
 12   7   9  1   
 13   7  10  1   
 14   8  11  1   
 15   9  12  1   
 16   9  25  1   
 17   9  26  1   
 18  10  13  1   
 19  10  27  1   
 20  10  28  1   
 21  11  29  1   
 22  11  30  1   
 23  11  31  1   
 24  12  14  1   
 25  12  32  1   
 26  12  33  1   
 27  13  14  1   
 28  13  34  1   
 29  13  35  1   
 30  14  15  am  
 31  15  16  2   
 32  15  17  2   
 33  15  18  1   
 34  18  19  1   
 35  18  36  1   
 36  18  37  1   
 37  19  20  1   
 38  19  38  1   
 39  19  39  1   
 40  20  21  1   
 41  20  40  1   
 42  20  41  1   
 43  21  42  1   
 44  21  43  1   
 45  21  44  1   
@<TRIPOS>SUBSTRUCTURE
  1 ****  13 GROUP 4 **** **** 0

# MOE 2024.06 (io_trps.svl 2023.06)
