@<TRIPOS>MOLECULE
NONAME
59 61 1 0 0 
SMALL
USER_CHARGES


@<TRIPOS>ATOM
  1 O       -2.2180     1.1750    -0.6300 O.3   1 <1>  -0.3630 
  2 C       -2.9930     0.0610    -0.5260 C.ar  1 <1>   0.0820 
  3 C       -2.1440     1.9660     0.5340 C.3   1 <1>   0.0400 
  4 C       -2.5160    -1.0660     0.1530 C.ar  1 <1>   0.0820 
  5 C       -4.2840     0.0330    -1.0670 C.ar  1 <1>   0.0820 
  6 O       -1.2680    -1.1330     0.6820 O.3   1 <1>  -0.3630 
  7 C       -3.3300    -2.1720     0.3280 C.ar  1 <1>  -0.1500 
  8 O       -4.8530     1.0540    -1.7640 O.3   1 <1>  -0.3630 
  9 C       -5.0780    -1.0870    -0.8850 C.ar  1 <1>  -0.1500 
 10 C       -0.1890    -1.0880    -0.2260 C.3   1 <1>   0.0400 
 11 C       -4.6170    -2.1900    -0.1840 C.ar  1 <1>  -0.1430 
 12 C       -4.0910     1.7400    -2.7340 C.3   1 <1>   0.0400 
 13 C       -5.5200    -3.3960     0.0240 C.3   1 <1>   0.2530 
 14 N       -6.7630    -2.9890     0.7080 N.3   1 <1>  -0.8100 
 15 C       -7.7470    -4.0910     0.7860 C.3   1 <1>   0.1100 
 16 C       -6.5110    -2.4130     2.0530 C.3   1 <1>   0.1100 
 17 C       -9.0710    -3.6440     1.4570 C.3   1 <1>   0.3430 
 18 C       -7.8150    -1.9460     2.7430 C.3   1 <1>   0.3430 
 19 N       -9.0100    -2.2030     1.8750 N.4   1 <1>  -0.9590 
 20 C      -10.2660    -1.6450     2.4130 C.3   1 <1>   0.4810 
 21 C      -11.2820    -1.6450     1.2970 C.2   1 <1>  -0.2880 
 22 C      -11.6380    -0.5620     0.5850 C.2   1 <1>  -0.1780 
 23 C      -12.6000    -0.4900    -0.4930 C.ar  1 <1>   0.0280 
 24 C      -12.5850     0.5930    -1.3680 C.ar  1 <1>  -0.1500 
 25 C      -13.5640    -1.4750    -0.7010 C.ar  1 <1>  -0.1500 
 26 C      -13.4880     0.6890    -2.4120 C.ar  1 <1>  -0.1500 
 27 C      -14.4690    -1.3860    -1.7440 C.ar  1 <1>  -0.1500 
 28 C      -14.4320    -0.3020    -2.6020 C.ar  1 <1>  -0.1500 
 29 H       -1.7110     1.3840     1.3280 H     1 <1>   0.0800 
 30 H       -1.5260     2.8190     0.3230 H     1 <1>   0.0800 
 31 H       -3.1370     2.2840     0.7990 H     1 <1>   0.0800 
 32 H       -2.9390    -3.0150     0.8700 H     1 <1>   0.1500 
 33 H       -6.0720    -1.0870    -1.2960 H     1 <1>   0.1500 
 34 H       -0.1070    -0.0980    -0.6350 H     1 <1>   0.0800 
 35 H        0.7100    -1.3360     0.3080 H     1 <1>   0.0800 
 36 H       -0.3610    -1.8040    -1.0100 H     1 <1>   0.0800 
 37 H       -4.7680     2.1830    -3.4410 H     1 <1>   0.0800 
 38 H       -3.4420     1.0410    -3.2330 H     1 <1>   0.0800 
 39 H       -3.5180     2.5080    -2.2490 H     1 <1>   0.0800 
 40 H       -5.0100    -4.1500     0.6000 H     1 <1>   0.0800 
 41 H       -5.7590    -3.8130    -0.9400 H     1 <1>   0.0800 
 42 H       -7.9670    -4.4450    -0.2070 H     1 <1>   0.0800 
 43 H       -7.3310    -4.9170     1.3390 H     1 <1>   0.0800 
 44 H       -6.0150    -3.1370     2.6770 H     1 <1>   0.0800 
 45 H       -5.8550    -1.5620     1.9680 H     1 <1>   0.0800 
 46 H       -9.2660    -4.2700     2.3110 H     1 <1>   0.0800 
 47 H       -9.8750    -3.7870     0.7540 H     1 <1>   0.0800 
 48 H       -7.7340    -0.8920     2.9530 H     1 <1>   0.0800 
 49 H       -7.9210    -2.4620     3.6830 H     1 <1>   0.0800 
 50 H       -8.7910    -1.7080     0.9960 H     1 <1>   0.4500 
 51 H      -10.6200    -2.2230     3.2510 H     1 <1>   0.0800 
 52 H      -10.1000    -0.6310     2.7380 H     1 <1>   0.0800 
 53 H      -11.7070    -2.6160     1.1180 H     1 <1>   0.1500 
 54 H      -11.1800     0.3910     0.7960 H     1 <1>   0.1500 
 55 H      -11.8570     1.3740    -1.2380 H     1 <1>   0.1500 
 56 H      -13.6220    -2.3200    -0.0430 H     1 <1>   0.1500 
 57 H      -13.4560     1.5350    -3.0770 H     1 <1>   0.1500 
 58 H      -15.2060    -2.1570    -1.8870 H     1 <1>   0.1500 
 59 H      -15.1360    -0.2310    -3.4140 H     1 <1>   0.1500 
@<TRIPOS>BOND
  1   1   2  1   
  2   1   3  1   
  3   2   4  ar  
  4   2   5  ar  
  5   3  29  1   
  6   3  30  1   
  7   3  31  1   
  8   4   6  1   
  9   4   7  ar  
 10   5   8  1   
 11   5   9  ar  
 12   6  10  1   
 13   7  11  ar  
 14   7  32  1   
 15   8  12  1   
 16   9  11  ar  
 17   9  33  1   
 18  10  34  1   
 19  10  35  1   
 20  10  36  1   
 21  11  13  1   
 22  12  37  1   
 23  12  38  1   
 24  12  39  1   
 25  13  14  1   
 26  13  40  1   
 27  13  41  1   
 28  14  15  1   
 29  14  16  1   
 30  15  17  1   
 31  15  42  1   
 32  15  43  1   
 33  16  18  1   
 34  16  44  1   
 35  16  45  1   
 36  17  19  1   
 37  17  46  1   
 38  17  47  1   
 39  18  19  1   
 40  18  48  1   
 41  18  49  1   
 42  19  20  1   
 43  19  50  1   
 44  20  21  1   
 45  20  51  1   
 46  20  52  1   
 47  21  22  2   
 48  21  53  1   
 49  22  23  1   
 50  22  54  1   
 51  23  24  ar  
 52  23  25  ar  
 53  24  26  ar  
 54  24  55  1   
 55  25  27  ar  
 56  25  56  1   
 57  26  28  ar  
 58  26  57  1   
 59  27  28  ar  
 60  27  58  1   
 61  28  59  1   
@<TRIPOS>SUBSTRUCTURE
  1 ****  14 GROUP 4 **** **** 0

# MOE 2024.06 (io_trps.svl 2023.06)
