@<TRIPOS>MOLECULE
NONAME
39 41 1 0 0 
SMALL
USER_CHARGES


@<TRIPOS>ATOM
  1 BR      -2.3380     0.9530    -2.0750 Br    1 <1>  -0.1110 
  2 C       -1.1860     2.2240    -1.1950 C.ar  1 <1>   0.1110 
  3 C       -1.4590     2.6100     0.1090 C.ar  1 <1>  -0.1440 
  4 C       -0.1120     2.7210    -1.9080 C.ar  1 <1>  -0.1500 
  5 C       -0.6060     3.5250     0.7100 C.ar  1 <1>  -0.1500 
  6 C       -2.6510     2.0500     0.8590 C.3   1 <1>   0.4870 
  7 C        0.7250     3.6360    -1.2940 C.ar  1 <1>  -0.1500 
  8 C        0.4770     4.0350     0.0100 C.ar  1 <1>  -0.1500 
  9 N       -3.9000     2.6220     0.2900 N.4   1 <1>  -0.9590 
 10 C       -3.9540     4.1250     0.4140 C.3   1 <1>   0.3430 
 11 C       -5.1310     1.9860     0.8810 C.3   1 <1>   0.3430 
 12 C       -5.2500     4.7170    -0.1760 C.3   1 <1>   0.2090 
 13 C       -6.4320     2.5660     0.2910 C.3   1 <1>   0.2090 
 14 N       -6.4630     4.0560     0.3910 N.pl3 1 <1>  -0.8380 
 15 C       -7.6480     4.6190    -0.0260 C.ar  1 <1>   0.4100 
 16 N       -7.9520     4.4580    -1.3070 N.ar  1 <1>  -0.6200 
 17 C       -8.4470     5.3100     0.8790 C.ar  1 <1>  -0.1500 
 18 C       -9.0930     5.0050    -1.6960 C.ar  1 <1>   0.1600 
 19 C       -9.6290     5.8730     0.4600 C.ar  1 <1>  -0.1500 
 20 C       -9.9530     5.7100    -0.8720 C.ar  1 <1>  -0.1500 
 21 H        0.0700     2.3990    -2.9190 H     1 <1>   0.1500 
 22 H       -0.7650     3.8520     1.7250 H     1 <1>   0.1500 
 23 H       -2.5730     2.2950     1.9060 H     1 <1>   0.0800 
 24 H       -2.6570     0.9760     0.7610 H     1 <1>   0.0800 
 25 H        1.5700     4.0370    -1.8290 H     1 <1>   0.1500 
 26 H        1.1380     4.7440     0.4810 H     1 <1>   0.1500 
 27 H       -3.8920     2.4080    -0.7180 H     1 <1>   0.4500 
 28 H       -3.1100     4.5670    -0.0900 H     1 <1>   0.0800 
 29 H       -3.9010     4.4050     1.4530 H     1 <1>   0.0800 
 30 H       -5.1470     2.1490     1.9460 H     1 <1>   0.0800 
 31 H       -5.1150     0.9220     0.7080 H     1 <1>   0.0800 
 32 H       -5.2450     4.6040    -1.2470 H     1 <1>   0.0800 
 33 H       -5.2900     5.7720     0.0400 H     1 <1>   0.0800 
 34 H       -7.2770     2.1610     0.8210 H     1 <1>   0.0800 
 35 H       -6.5240     2.2720    -0.7420 H     1 <1>   0.0800 
 36 H       -8.1260     5.3930     1.8990 H     1 <1>   0.1500 
 37 H       -9.3590     4.8870    -2.7330 H     1 <1>   0.1500 
 38 H      -10.2720     6.4140     1.1340 H     1 <1>   0.1500 
 39 H      -10.8630     6.1240    -1.2670 H     1 <1>   0.1500 
@<TRIPOS>BOND
  1   1   2  1   
  2   2   3  ar  
  3   2   4  ar  
  4   3   5  ar  
  5   3   6  1   
  6   4   7  ar  
  7   4  21  1   
  8   5   8  ar  
  9   5  22  1   
 10   6   9  1   
 11   6  23  1   
 12   6  24  1   
 13   7   8  ar  
 14   7  25  1   
 15   8  26  1   
 16   9  10  1   
 17   9  11  1   
 18   9  27  1   
 19  10  12  1   
 20  10  28  1   
 21  10  29  1   
 22  11  13  1   
 23  11  30  1   
 24  11  31  1   
 25  12  14  1   
 26  12  32  1   
 27  12  33  1   
 28  13  14  1   
 29  13  34  1   
 30  13  35  1   
 31  14  15  1   
 32  15  16  ar  
 33  15  17  ar  
 34  16  18  ar  
 35  17  19  ar  
 36  17  36  1   
 37  18  20  ar  
 38  18  37  1   
 39  19  20  ar  
 40  19  38  1   
 41  20  39  1   
@<TRIPOS>SUBSTRUCTURE
  1 ****  10 GROUP 4 **** **** 0

# MOE 2024.06 (io_trps.svl 2023.06)
