@<TRIPOS>MOLECULE
NONAME
35 36 1 0 0 
SMALL
USER_CHARGES


@<TRIPOS>ATOM
  1 BR      -0.0220     0.0540    -0.8340 Br    1 <1>  -0.1110 
  2 C       -1.7330    -0.7760    -0.5420 C.ar  1 <1>   0.1110 
  3 C       -1.8540    -2.1480    -0.6750 C.ar  1 <1>   0.1600 
  4 C       -2.8110     0.0080    -0.2060 C.ar  1 <1>  -0.1500 
  5 N       -2.9960    -2.7950    -0.4860 N.ar  1 <1>  -0.6200 
  6 C       -4.0230    -0.6430    -0.0130 C.ar  1 <1>   0.0860 
  7 C       -4.0310    -2.0350    -0.1520 C.ar  1 <1>   0.1600 
  8 C       -5.2260     0.0860     0.3210 C.2   1 <1>   0.5440 
  9 O       -5.1620     1.0520     1.0480 O.2   1 <1>  -0.5700 
 10 N       -6.4270    -0.2940    -0.2260 N.am  1 <1>  -0.4940 
 11 C       -7.7060     0.0730     0.1380 C.2   1 <1>   0.4420 
 12 S       -8.9830    -0.4160    -0.9260 S.3   1 <1>  -0.0800 
 13 N       -8.1460     0.7100     1.1610 N.2   1 <1>  -0.3380 
 14 C      -10.0920     0.3390     0.1690 C.2   1 <1>   0.1980 
 15 N       -9.5060     0.8570     1.1720 N.2   1 <1>  -0.3380 
 16 C      -11.5780     0.2860    -0.1750 C.3   1 <1>   0.1000 
 17 C      -12.2710     1.6140     0.2160 C.3   1 <1>  -0.1600 
 18 C      -12.1820    -0.9590     0.5130 C.3   1 <1>  -0.1600 
 19 C      -13.4190     2.0220    -0.7210 C.3   1 <1>  -0.2400 
 20 C      -13.6540    -1.2390     0.1880 C.3   1 <1>  -0.2400 
 21 H       -0.9860    -2.7260    -0.9430 H     1 <1>   0.1500 
 22 H       -2.7220     1.0760    -0.0970 H     1 <1>   0.1500 
 23 H       -4.9550    -2.5560     0.0310 H     1 <1>   0.1500 
 24 H       -6.3790    -0.8930    -1.0440 H     1 <1>   0.3700 
 25 H      -11.6550     0.1650    -1.2420 H     1 <1>   0.0800 
 26 H      -11.5440     2.4080     0.1830 H     1 <1>   0.0800 
 27 H      -12.6220     1.5560     1.2320 H     1 <1>   0.0800 
 28 H      -12.0730    -0.8590     1.5800 H     1 <1>   0.0800 
 29 H      -11.6080    -1.8200     0.2160 H     1 <1>   0.0800 
 30 H      -13.0580     2.1350    -1.7280 H     1 <1>   0.0800 
 31 H      -13.8270     2.9650    -0.4030 H     1 <1>   0.0800 
 32 H      -14.2130     1.2990    -0.7210 H     1 <1>   0.0800 
 33 H      -14.2900    -0.4990     0.6410 H     1 <1>   0.0800 
 34 H      -13.9370    -2.2000     0.5810 H     1 <1>   0.0800 
 35 H      -13.8160    -1.2460    -0.8760 H     1 <1>   0.0800 
@<TRIPOS>BOND
  1   1   2  1   
  2   2   3  ar  
  3   2   4  ar  
  4   3   5  ar  
  5   3  21  1   
  6   4   6  ar  
  7   4  22  1   
  8   5   7  ar  
  9   6   7  ar  
 10   6   8  1   
 11   7  23  1   
 12   8   9  2   
 13   8  10  am  
 14  10  11  1   
 15  10  24  1   
 16  11  12  1   
 17  11  13  2   
 18  12  14  1   
 19  13  15  1   
 20  14  15  2   
 21  14  16  1   
 22  16  17  1   
 23  16  18  1   
 24  16  25  1   
 25  17  19  1   
 26  17  26  1   
 27  17  27  1   
 28  18  20  1   
 29  18  28  1   
 30  18  29  1   
 31  19  30  1   
 32  19  31  1   
 33  19  32  1   
 34  20  33  1   
 35  20  34  1   
 36  20  35  1   
@<TRIPOS>SUBSTRUCTURE
  1 ****  11 GROUP 4 **** **** 0

# MOE 2024.06 (io_trps.svl 2023.06)
