@<TRIPOS>MOLECULE
NONAME
30 31 1 0 0 
SMALL
USER_CHARGES


@<TRIPOS>ATOM
  1 O       -0.2760    -0.5110     0.1240 O.3   1 <1>  -0.1650 
  2 C       -1.4790    -1.0500    -0.1110 C.ar  1 <1>   0.7020 
  3 C        0.9050    -1.1720     0.0030 C.ar  1 <1>   0.3920 
  4 N       -1.5590    -2.2410    -0.6570 N.ar  1 <1>  -0.6200 
  5 N       -2.4870    -0.3020     0.2470 N.ar  1 <1>  -0.6200 
  6 N        1.8230    -0.5710    -0.7460 N.ar  1 <1>  -0.3100 
  7 C        1.1150    -2.3650     0.6820 C.ar  1 <1>  -0.1500 
  8 C       -2.7850    -2.6490    -0.8390 C.ar  1 <1>   0.7020 
  9 C       -3.6510    -0.8340     0.0120 C.ar  1 <1>   0.7200 
 10 N        3.0100    -1.1220    -0.8740 N.ar  1 <1>  -0.3100 
 11 C        2.3460    -2.9400     0.5520 C.ar  1 <1>  -0.1500 
 12 O       -2.9000    -3.8640    -1.3970 O.3   1 <1>  -0.3630 
 13 N       -3.8770    -2.0000    -0.5300 N.ar  1 <1>  -0.6200 
 14 N       -4.7040    -0.0740     0.3750 N.pl3 1 <1>  -0.8690 
 15 C        3.2860    -2.2860    -0.2390 C.ar  1 <1>   0.1390 
 16 C       -4.1530    -4.4560    -1.6760 C.3   1 <1>   0.0400 
 17 C       -6.1290    -0.3640     0.1440 C.3   1 <1>   0.2090 
 18 O        4.4260    -2.7940    -0.3610 O.3   1 <1>  -0.8290 
 19 C       -6.9380     0.3230     1.2360 C.3   1 <1>  -0.2400 
 20 H        0.3470    -2.8110     1.2810 H     1 <1>   0.1500 
 21 H        2.6290    -3.8600     1.0230 H     1 <1>   0.1500 
 22 H       -4.4670     0.8560     0.7160 H     1 <1>   0.4000 
 23 H       -3.9790    -5.4190    -2.1200 H     1 <1>   0.0800 
 24 H       -4.6920    -3.8250    -2.3600 H     1 <1>   0.0800 
 25 H       -4.6990    -4.5670    -0.7550 H     1 <1>   0.0800 
 26 H       -6.3010    -1.4270     0.1730 H     1 <1>   0.0800 
 27 H       -6.4180     0.0080    -0.8250 H     1 <1>   0.0800 
 28 H       -6.6430    -0.0460     2.2020 H     1 <1>   0.0800 
 29 H       -7.9830     0.1140     1.0960 H     1 <1>   0.0800 
 30 H       -6.7940     1.3880     1.1970 H     1 <1>   0.0800 
@<TRIPOS>BOND
  1   1   2  1   
  2   1   3  1   
  3   2   4  ar  
  4   2   5  ar  
  5   3   6  ar  
  6   3   7  ar  
  7   4   8  ar  
  8   5   9  ar  
  9   6  10  ar  
 10   7  11  ar  
 11   7  20  1   
 12   8  12  1   
 13   8  13  ar  
 14   9  13  ar  
 15   9  14  1   
 16  10  15  ar  
 17  11  15  ar  
 18  11  21  1   
 19  12  16  1   
 20  14  17  1   
 21  14  22  1   
 22  15  18  1   
 23  16  23  1   
 24  16  24  1   
 25  16  25  1   
 26  17  19  1   
 27  17  26  1   
 28  17  27  1   
 29  19  28  1   
 30  19  29  1   
 31  19  30  1   
@<TRIPOS>SUBSTRUCTURE
  1 ****   2 GROUP 4 **** **** 0

# MOE 2024.06 (io_trps.svl 2023.06)
