@<TRIPOS>MOLECULE
NONAME
37 38 1 0 0 
SMALL
USER_CHARGES


@<TRIPOS>ATOM
  1 O       -2.2620     1.1580    -2.5790 O.2   1 <1>  -0.5700 
  2 C       -2.1410     0.8720    -1.4150 C.2   1 <1>   0.5690 
  3 N       -1.0280     0.2380    -1.0030 N.am  1 <1>  -0.8000 
  4 C       -3.2270     1.2130    -0.3940 C.3   1 <1>  -0.0190 
  5 C       -4.1150    -0.0070    -0.0940 C.3   1 <1>  -0.1600 
  6 C       -4.1140     2.3960    -0.8290 C.3   1 <1>  -0.1600 
  7 C       -5.2220     0.3430     0.9020 C.3   1 <1>   0.1100 
  8 C       -5.2280     2.6650     0.1850 C.3   1 <1>   0.1100 
  9 N       -6.0330     1.4510     0.3700 N.3   1 <1>  -0.8100 
 10 C       -7.2260     1.7200     1.2300 C.3   1 <1>   0.1710 
 11 C       -8.3270     0.6620     1.1120 C.2   1 <1>   0.5690 
 12 O       -9.1470     0.5650     1.9930 O.2   1 <1>  -0.5700 
 13 N       -8.3050    -0.1200    -0.0020 N.am  1 <1>  -0.5470 
 14 C       -9.0500    -1.1940    -0.4320 C.ar  1 <1>   0.4270 
 15 N       -8.5120    -1.8180    -1.4680 N.ar  1 <1>  -0.6200 
 16 C      -10.2510    -1.5850     0.1580 C.ar  1 <1>  -0.1500 
 17 C       -9.1810    -2.8620    -1.9300 C.ar  1 <1>   0.1600 
 18 C      -10.9370    -2.6730    -0.3320 C.ar  1 <1>  -0.1500 
 19 C      -10.3760    -3.3250    -1.4100 C.ar  1 <1>  -0.1500 
 20 H       -0.3110     0.0060    -1.6920 H     1 <1>   0.3700 
 21 H       -0.8520    -0.0510    -0.0430 H     1 <1>   0.3700 
 22 H       -2.7320     1.4980     0.5170 H     1 <1>   0.0800 
 23 H       -3.5170    -0.8060     0.3050 H     1 <1>   0.0800 
 24 H       -4.5660    -0.3600    -1.0070 H     1 <1>   0.0800 
 25 H       -4.5640     2.1820    -1.7830 H     1 <1>   0.0800 
 26 H       -3.5100     3.2780    -0.9440 H     1 <1>   0.0800 
 27 H       -4.7920     0.6240     1.8500 H     1 <1>   0.0800 
 28 H       -5.8370    -0.5280     1.0570 H     1 <1>   0.0800 
 29 H       -5.8530     3.4590    -0.1900 H     1 <1>   0.0800 
 30 H       -4.8070     2.9770     1.1270 H     1 <1>   0.0800 
 31 H       -7.6660     2.6570     0.9420 H     1 <1>   0.0800 
 32 H       -6.9260     1.7980     2.2600 H     1 <1>   0.0800 
 33 H       -7.4960     0.0660    -0.6000 H     1 <1>   0.3700 
 34 H      -10.6460    -1.0400     0.9930 H     1 <1>   0.1500 
 35 H       -8.7520    -3.3770    -2.7720 H     1 <1>   0.1500 
 36 H      -11.8660    -2.9980     0.1050 H     1 <1>   0.1500 
 37 H      -10.8600    -4.1830    -1.8420 H     1 <1>   0.1500 
@<TRIPOS>BOND
  1   1   2  2   
  2   2   3  am  
  3   2   4  1   
  4   3  20  1   
  5   3  21  1   
  6   4   5  1   
  7   4   6  1   
  8   4  22  1   
  9   5   7  1   
 10   5  23  1   
 11   5  24  1   
 12   6   8  1   
 13   6  25  1   
 14   6  26  1   
 15   7   9  1   
 16   7  27  1   
 17   7  28  1   
 18   8   9  1   
 19   8  29  1   
 20   8  30  1   
 21   9  10  1   
 22  10  11  1   
 23  10  31  1   
 24  10  32  1   
 25  11  12  2   
 26  11  13  am  
 27  13  14  1   
 28  13  33  1   
 29  14  15  ar  
 30  14  16  ar  
 31  15  17  ar  
 32  16  18  ar  
 33  16  34  1   
 34  17  19  ar  
 35  17  35  1   
 36  18  19  ar  
 37  18  36  1   
 38  19  37  1   
@<TRIPOS>SUBSTRUCTURE
  1 ****   9 GROUP 4 **** **** 0

# MOE 2024.06 (io_trps.svl 2023.06)
