@<TRIPOS>MOLECULE
NONAME
47 49 1 0 0 
SMALL
USER_CHARGES


@<TRIPOS>ATOM
  1 O       -0.4160    -0.1170     1.3060 O.2   1 <1>  -0.5700 
  2 C       -0.4980    -1.1880     0.7330 C.2   1 <1>   0.5440 
  3 N        0.6590    -1.9050     0.5020 N.am  1 <1>  -0.6600 
  4 C       -1.8020    -1.6760     0.3270 C.ar  1 <1>   0.0860 
  5 C        2.0150    -1.2970     0.6680 C.3   1 <1>   0.1400 
  6 C        0.6990    -3.3880     0.3250 C.3   1 <1>   0.1400 
  7 C       -2.0250    -2.2280    -0.9360 C.ar  1 <1>  -0.1500 
  8 C       -2.8960    -1.6020     1.1880 C.ar  1 <1>  -0.1500 
  9 C        2.8290    -2.0680     1.7180 C.3   1 <1>   0.1200 
 10 C        1.6030    -4.0390     1.3870 C.3   1 <1>   0.1200 
 11 C       -3.2680    -2.7010    -1.3090 C.ar  1 <1>  -0.1500 
 12 C       -4.1410    -2.0730     0.8180 C.ar  1 <1>  -0.1500 
 13 O        2.8650    -3.4340     1.4090 O.3   1 <1>  -0.5600 
 14 C       -4.3500    -2.6390    -0.4350 C.ar  1 <1>   0.1170 
 15 N       -5.6300    -3.0980    -0.7580 N.am  1 <1>  -0.5470 
 16 C       -6.0900    -3.9330    -1.7420 C.2   1 <1>   0.5690 
 17 O       -5.3780    -4.4690    -2.5540 O.2   1 <1>  -0.5700 
 18 C       -7.5850    -4.2080    -1.8080 C.3   1 <1>   0.0440 
 19 C       -8.3480    -3.5780    -0.6460 C.ar  1 <1>  -0.1430 
 20 C       -8.4980    -4.2670     0.5470 C.ar  1 <1>  -0.1500 
 21 C       -8.8690    -2.2990    -0.7610 C.ar  1 <1>  -0.1500 
 22 C       -9.1570    -3.6820     1.6130 C.ar  1 <1>  -0.1500 
 23 C       -9.5280    -1.7150     0.3060 C.ar  1 <1>  -0.1500 
 24 C       -9.6750    -2.4030     1.4990 C.ar  1 <1>  -0.1430 
 25 C      -10.3990    -1.7610     2.6690 C.3   1 <1>  -0.0970 
 26 H        1.9390    -0.2650     0.9630 H     1 <1>   0.0800 
 27 H        2.5320    -1.3310    -0.2740 H     1 <1>   0.0800 
 28 H        1.0830    -3.6170    -0.6540 H     1 <1>   0.0800 
 29 H       -0.2860    -3.8090     0.4060 H     1 <1>   0.0800 
 30 H       -1.2090    -2.2780    -1.6340 H     1 <1>   0.1500 
 31 H       -2.7560    -1.1630     2.1610 H     1 <1>   0.1500 
 32 H        2.3960    -1.9430     2.6950 H     1 <1>   0.0800 
 33 H        3.8420    -1.7080     1.7390 H     1 <1>   0.0800 
 34 H        1.7440    -5.0820     1.1670 H     1 <1>   0.0800 
 35 H        1.1620    -3.9480     2.3650 H     1 <1>   0.0800 
 36 H       -3.3970    -3.1160    -2.2920 H     1 <1>   0.1500 
 37 H       -4.9610    -2.0010     1.5100 H     1 <1>   0.1500 
 38 H       -6.3730    -2.7840    -0.1270 H     1 <1>   0.3700 
 39 H       -7.7350    -5.2720    -1.8080 H     1 <1>   0.0800 
 40 H       -7.9580    -3.8290    -2.7410 H     1 <1>   0.0800 
 41 H       -8.1010    -5.2630     0.6550 H     1 <1>   0.1500 
 42 H       -8.7650    -1.7470    -1.6800 H     1 <1>   0.1500 
 43 H       -9.2660    -4.2280     2.5340 H     1 <1>   0.1500 
 44 H       -9.9280    -0.7210     0.2040 H     1 <1>   0.1500 
 45 H      -10.8700    -2.5120     3.2780 H     1 <1>   0.0800 
 46 H      -11.1590    -1.0870     2.3170 H     1 <1>   0.0800 
 47 H       -9.6990    -1.2120     3.2730 H     1 <1>   0.0800 
@<TRIPOS>BOND
  1   1   2  2   
  2   2   3  am  
  3   2   4  1   
  4   3   5  1   
  5   3   6  1   
  6   4   7  ar  
  7   4   8  ar  
  8   5   9  1   
  9   5  26  1   
 10   5  27  1   
 11   6  10  1   
 12   6  28  1   
 13   6  29  1   
 14   7  11  ar  
 15   7  30  1   
 16   8  12  ar  
 17   8  31  1   
 18   9  13  1   
 19   9  32  1   
 20   9  33  1   
 21  10  13  1   
 22  10  34  1   
 23  10  35  1   
 24  11  14  ar  
 25  11  36  1   
 26  12  14  ar  
 27  12  37  1   
 28  14  15  1   
 29  15  16  am  
 30  15  38  1   
 31  16  17  2   
 32  16  18  1   
 33  18  19  1   
 34  18  39  1   
 35  18  40  1   
 36  19  20  ar  
 37  19  21  ar  
 38  20  22  ar  
 39  20  41  1   
 40  21  23  ar  
 41  21  42  1   
 42  22  24  ar  
 43  22  43  1   
 44  23  24  ar  
 45  23  44  1   
 46  24  25  1   
 47  25  45  1   
 48  25  46  1   
 49  25  47  1   
@<TRIPOS>SUBSTRUCTURE
  1 ****  14 GROUP 4 **** **** 0

# MOE 2024.06 (io_trps.svl 2023.06)
