@<TRIPOS>MOLECULE
NONAME
48 50 1 0 0 
SMALL
USER_CHARGES


@<TRIPOS>ATOM
  1 O        0.5920     0.4770    -1.0400 O.3   1 <1>  -0.3630 
  2 C        1.7500     0.8430    -0.4330 C.ar  1 <1>   0.0830 
  3 C       -0.6450     1.0260    -0.6440 C.3   1 <1>   0.0400 
  4 C        2.9150     0.2850    -0.9280 C.ar  1 <1>  -0.1500 
  5 C        1.8170     1.7310     0.6370 C.ar  1 <1>  -0.1500 
  6 C        4.1530     0.5840    -0.3750 C.ar  1 <1>   0.1000 
  7 C        3.0440     2.0440     1.1940 C.ar  1 <1>  -0.1500 
  8 N        5.3000    -0.0220    -0.8900 N.pl3 1 <1>  -0.8380 
  9 C        4.2010     1.4750     0.6930 C.ar  1 <1>  -0.1500 
 10 C        6.5850     0.7310    -1.0120 C.3   1 <1>   0.2090 
 11 C        5.4090    -1.5090    -0.8100 C.3   1 <1>   0.2090 
 12 C        7.6130     0.2590     0.0380 C.3   1 <1>   0.3430 
 13 C        6.4480    -1.9310     0.2490 C.3   1 <1>   0.3430 
 14 N        7.7780    -1.2440     0.0650 N.4   1 <1>  -0.9590 
 15 C        8.7670    -1.6730     1.0900 C.3   1 <1>   0.4860 
 16 C       10.1140    -1.0700     0.7440 C.ar  1 <1>  -0.1430 
 17 C       10.8720    -1.5890    -0.2980 C.ar  1 <1>  -0.1500 
 18 C       10.5970     0.0130     1.4650 C.ar  1 <1>  -0.1500 
 19 C       12.0920    -1.0230    -0.6250 C.ar  1 <1>  -0.1500 
 20 C       11.8160     0.5780     1.1360 C.ar  1 <1>  -0.1500 
 21 C       12.5690     0.0700     0.0910 C.ar  1 <1>   0.0830 
 22 O       13.7480     0.6860    -0.1650 O.3   1 <1>  -0.3620 
 23 C       14.6380     0.2020    -1.1470 C.3   1 <1>   0.0400 
 24 H       -1.4110     0.6070    -1.2720 H     1 <1>   0.0800 
 25 H       -0.6100     2.0930    -0.7730 H     1 <1>   0.0800 
 26 H       -0.8300     0.7650     0.3830 H     1 <1>   0.0800 
 27 H        2.8530    -0.3860    -1.7630 H     1 <1>   0.1500 
 28 H        0.9330     2.1830     1.0450 H     1 <1>   0.1500 
 29 H        3.0940     2.7330     2.0200 H     1 <1>   0.1500 
 30 H        5.1400     1.7280     1.1440 H     1 <1>   0.1500 
 31 H        6.4030     1.7860    -0.8950 H     1 <1>   0.0800 
 32 H        6.9840     0.5840    -2.0000 H     1 <1>   0.0800 
 33 H        5.6860    -1.8960    -1.7750 H     1 <1>   0.0800 
 34 H        4.4520    -1.9310    -0.5520 H     1 <1>   0.0800 
 35 H        7.2830     0.6000     1.0050 H     1 <1>   0.0800 
 36 H        8.5610     0.7290    -0.1700 H     1 <1>   0.0800 
 37 H        6.5750    -3.0000     0.2050 H     1 <1>   0.0800 
 38 H        6.0470    -1.6860     1.2190 H     1 <1>   0.0800 
 39 H        8.1580    -1.5110    -0.8510 H     1 <1>   0.4500 
 40 H        8.8510    -2.7470     1.1020 H     1 <1>   0.0800 
 41 H        8.4570    -1.3430     2.0690 H     1 <1>   0.0800 
 42 H       10.5300    -2.4390    -0.8630 H     1 <1>   0.1500 
 43 H       10.0420     0.4290     2.2890 H     1 <1>   0.1500 
 44 H       12.6600    -1.4420    -1.4350 H     1 <1>   0.1500 
 45 H       12.1990     1.4180     1.6880 H     1 <1>   0.1500 
 46 H       15.5100     0.8320    -1.1450 H     1 <1>   0.0800 
 47 H       14.1580     0.2480    -2.1080 H     1 <1>   0.0800 
 48 H       14.9160    -0.8070    -0.9000 H     1 <1>   0.0800 
@<TRIPOS>BOND
  1   1   2  1   
  2   1   3  1   
  3   2   4  ar  
  4   2   5  ar  
  5   3  24  1   
  6   3  25  1   
  7   3  26  1   
  8   4   6  ar  
  9   4  27  1   
 10   5   7  ar  
 11   5  28  1   
 12   6   8  1   
 13   6   9  ar  
 14   7   9  ar  
 15   7  29  1   
 16   8  10  1   
 17   8  11  1   
 18   9  30  1   
 19  10  12  1   
 20  10  31  1   
 21  10  32  1   
 22  11  13  1   
 23  11  33  1   
 24  11  34  1   
 25  12  14  1   
 26  12  35  1   
 27  12  36  1   
 28  13  14  1   
 29  13  37  1   
 30  13  38  1   
 31  14  15  1   
 32  14  39  1   
 33  15  16  1   
 34  15  40  1   
 35  15  41  1   
 36  16  17  ar  
 37  16  18  ar  
 38  17  19  ar  
 39  17  42  1   
 40  18  20  ar  
 41  18  43  1   
 42  19  21  ar  
 43  19  44  1   
 44  20  21  ar  
 45  20  45  1   
 46  21  22  1   
 47  22  23  1   
 48  23  46  1   
 49  23  47  1   
 50  23  48  1   
@<TRIPOS>SUBSTRUCTURE
  1 ****  12 GROUP 4 **** **** 0

# MOE 2024.06 (io_trps.svl 2023.06)
