@<TRIPOS>MOLECULE
NONAME
38 39 1 0 0 
SMALL
USER_CHARGES


@<TRIPOS>ATOM
  1 CL      -1.2790    -0.3800    -0.9440 Cl    1 <1>  -0.1770 
  2 C       -1.4490     1.3110    -0.5280 C.ar  1 <1>   0.1770 
  3 C       -0.3380     2.1070    -0.3080 C.ar  1 <1>   0.1900 
  4 C       -2.7160     1.8510    -0.4180 C.ar  1 <1>  -0.1500 
  5 F        0.8640     1.5990    -0.4120 F     1 <1>  -0.1900 
  6 C       -0.4690     3.4420     0.0230 C.ar  1 <1>  -0.1500 
  7 C       -2.8790     3.1940    -0.0880 C.ar  1 <1>   0.1170 
  8 C       -1.7430     3.9760     0.1330 C.ar  1 <1>  -0.1500 
  9 N       -4.1830     3.7010     0.0210 N.am  1 <1>  -0.5470 
 10 C       -4.6670     4.9780    -0.0900 C.2   1 <1>   0.5690 
 11 O       -3.9710     5.9300    -0.3410 O.2   1 <1>  -0.5700 
 12 C       -6.1560     5.2150     0.1140 C.3   1 <1>   0.1310 
 13 S       -7.1440     3.6700    -0.2100 S.3   1 <1>  -0.2860 
 14 C       -8.8180     4.1850     0.2000 C.2   1 <1>   0.2430 
 15 N       -9.0840     5.3540     0.6580 N.2   1 <1>  -0.3380 
 16 N       -9.8910     3.4010     0.0570 N.pl3 1 <1>   0.0480 
 17 N      -10.4050     5.3800     0.8360 N.2   1 <1>  -0.3380 
 18 C      -10.8690     4.2290     0.4770 C.2   1 <1>   0.0060 
 19 C       -9.9060     2.0050    -0.4710 C.3   1 <1>   0.1760 
 20 C      -12.3510     3.9070     0.5430 C.3   1 <1>  -0.0600 
 21 C      -10.4430     1.9750    -1.9060 C.3   1 <1>  -0.2400 
 22 C      -10.6850     1.0470     0.4390 C.3   1 <1>  -0.2400 
 23 H       -3.5700     1.2240    -0.5930 H     1 <1>   0.1500 
 24 H        0.4050     4.0460     0.1910 H     1 <1>   0.1500 
 25 H       -1.8490     5.0140     0.3960 H     1 <1>   0.1500 
 26 H       -4.9140     2.9970     0.1350 H     1 <1>   0.3700 
 27 H       -6.5130     5.9680    -0.5640 H     1 <1>   0.0800 
 28 H       -6.3510     5.5160     1.1260 H     1 <1>   0.0800 
 29 H       -8.8900     1.6550    -0.4950 H     1 <1>   0.0800 
 30 H      -12.5430     3.2200     1.3460 H     1 <1>   0.0800 
 31 H      -12.6940     3.4890    -0.3840 H     1 <1>   0.0800 
 32 H      -12.9070     4.8080     0.7320 H     1 <1>   0.0800 
 33 H      -11.4720     2.2810    -1.9450 H     1 <1>   0.0800 
 34 H      -10.3730     0.9780    -2.3030 H     1 <1>   0.0800 
 35 H       -9.8580     2.6260    -2.5330 H     1 <1>   0.0800 
 36 H      -10.3560     1.1480     1.4590 H     1 <1>   0.0800 
 37 H      -10.5070     0.0330     0.1290 H     1 <1>   0.0800 
 38 H      -11.7430     1.2230     0.3840 H     1 <1>   0.0800 
@<TRIPOS>BOND
  1   1   2  1   
  2   2   3  ar  
  3   2   4  ar  
  4   3   5  1   
  5   3   6  ar  
  6   4   7  ar  
  7   4  23  1   
  8   6   8  ar  
  9   6  24  1   
 10   7   8  ar  
 11   7   9  1   
 12   8  25  1   
 13   9  10  am  
 14   9  26  1   
 15  10  11  2   
 16  10  12  1   
 17  12  13  1   
 18  12  27  1   
 19  12  28  1   
 20  13  14  1   
 21  14  15  2   
 22  14  16  1   
 23  15  17  1   
 24  16  18  1   
 25  16  19  1   
 26  17  18  2   
 27  18  20  1   
 28  19  21  1   
 29  19  22  1   
 30  19  29  1   
 31  20  30  1   
 32  20  31  1   
 33  20  32  1   
 34  21  33  1   
 35  21  34  1   
 36  21  35  1   
 37  22  36  1   
 38  22  37  1   
 39  22  38  1   
@<TRIPOS>SUBSTRUCTURE
  1 ****  13 GROUP 4 **** **** 0

# MOE 2024.06 (io_trps.svl 2023.06)
