@<TRIPOS>MOLECULE
NONAME
50 52 1 0 0 
SMALL
USER_CHARGES


@<TRIPOS>ATOM
  1 O        0.7970     0.8260    -2.8730 O.2   1 <1>  -0.5700 
  2 C        0.4720     1.5420    -1.9530 C.2   1 <1>   0.5690 
  3 N        1.3550     1.8520    -0.9440 N.am  1 <1>  -0.6600 
  4 C       -0.9440     2.1100    -1.9840 C.3   1 <1>   0.1810 
  5 C        1.0600     2.7570     0.2160 C.3   1 <1>   0.1400 
  6 C        2.7290     1.2600    -0.8950 C.3   1 <1>   0.1400 
  7 O       -1.6640     1.7720    -0.8080 O.3   1 <1>  -0.3620 
  8 C        2.1590     3.8180     0.4050 C.3   1 <1>   0.2090 
  9 C        3.8070     2.3420    -0.7100 C.3   1 <1>   0.2090 
 10 C       -2.7810     2.4590    -0.4550 C.ar  1 <1>   0.0820 
 11 N        3.5160     3.1960     0.4780 N.pl3 1 <1>  -0.8380 
 12 C       -3.1330     2.5050     0.8940 C.ar  1 <1>  -0.1440 
 13 C       -3.5600     3.1120    -1.4050 C.ar  1 <1>  -0.1500 
 14 C        4.5570     3.9770     0.9400 C.ar  1 <1>   0.4100 
 15 C       -4.2550     3.2360     1.2790 C.ar  1 <1>  -0.1440 
 16 C       -2.2950     1.7700     1.9410 C.3   1 <1>  -0.0970 
 17 C       -4.6760     3.8310    -1.0200 C.ar  1 <1>  -0.1440 
 18 N        4.5110     5.2770     0.6710 N.ar  1 <1>  -0.6200 
 19 C        5.5980     3.3800     1.6460 C.ar  1 <1>  -0.1500 
 20 C       -5.0140     3.8890     0.3200 C.ar  1 <1>  -0.1500 
 21 C       -4.6850     3.3440     2.7360 C.3   1 <1>  -0.0970 
 22 C       -5.5330     4.5450    -2.0500 C.3   1 <1>  -0.0970 
 23 C        5.5290     5.9940     1.1160 C.ar  1 <1>   0.1600 
 24 C        6.6510     4.1380     2.1020 C.ar  1 <1>  -0.1500 
 25 C        6.6060     5.4880     1.8220 C.ar  1 <1>  -0.1500 
 26 H       -1.4750     1.7070    -2.8260 H     1 <1>   0.0800 
 27 H       -0.8940     3.1800    -2.0620 H     1 <1>   0.0800 
 28 H        0.9940     2.1640     1.1110 H     1 <1>   0.0800 
 29 H        0.1210     3.2620     0.0880 H     1 <1>   0.0800 
 30 H        2.9370     0.7110    -1.7970 H     1 <1>   0.0800 
 31 H        2.7820     0.5700    -0.0720 H     1 <1>   0.0800 
 32 H        1.9720     4.3700     1.3090 H     1 <1>   0.0800 
 33 H        2.1290     4.5120    -0.4180 H     1 <1>   0.0800 
 34 H        3.8440     2.9600    -1.5910 H     1 <1>   0.0800 
 35 H        4.7670     1.8720    -0.5940 H     1 <1>   0.0800 
 36 H       -3.3140     3.0600    -2.4470 H     1 <1>   0.1500 
 37 H       -1.6700     1.0170     1.4970 H     1 <1>   0.0800 
 38 H       -2.9290     1.2730     2.6510 H     1 <1>   0.0800 
 39 H       -1.6680     2.4710     2.4610 H     1 <1>   0.0800 
 40 H        5.5570     2.3240     1.8290 H     1 <1>   0.1500 
 41 H       -5.8840     4.4470     0.6160 H     1 <1>   0.1500 
 42 H       -3.8550     3.6500     3.3470 H     1 <1>   0.0800 
 43 H       -5.0460     2.3930     3.0820 H     1 <1>   0.0800 
 44 H       -5.4710     4.0680     2.8550 H     1 <1>   0.0800 
 45 H       -4.9810     4.7110    -2.9580 H     1 <1>   0.0800 
 46 H       -5.8560     5.4970    -1.6700 H     1 <1>   0.0800 
 47 H       -6.3990     3.9490    -2.2770 H     1 <1>   0.0800 
 48 H        5.5050     7.0490     0.9040 H     1 <1>   0.1500 
 49 H        7.4680     3.7020     2.6510 H     1 <1>   0.1500 
 50 H        7.3950     6.1400     2.1480 H     1 <1>   0.1500 
@<TRIPOS>BOND
  1   1   2  2   
  2   2   3  am  
  3   2   4  1   
  4   3   5  1   
  5   3   6  1   
  6   4   7  1   
  7   4  26  1   
  8   4  27  1   
  9   5   8  1   
 10   5  28  1   
 11   5  29  1   
 12   6   9  1   
 13   6  30  1   
 14   6  31  1   
 15   7  10  1   
 16   8  11  1   
 17   8  32  1   
 18   8  33  1   
 19   9  11  1   
 20   9  34  1   
 21   9  35  1   
 22  10  12  ar  
 23  10  13  ar  
 24  11  14  1   
 25  12  15  ar  
 26  12  16  1   
 27  13  17  ar  
 28  13  36  1   
 29  14  18  ar  
 30  14  19  ar  
 31  15  20  ar  
 32  15  21  1   
 33  16  37  1   
 34  16  38  1   
 35  16  39  1   
 36  17  20  ar  
 37  17  22  1   
 38  18  23  ar  
 39  19  24  ar  
 40  19  40  1   
 41  20  41  1   
 42  21  42  1   
 43  21  43  1   
 44  21  44  1   
 45  22  45  1   
 46  22  46  1   
 47  22  47  1   
 48  23  25  ar  
 49  23  48  1   
 50  24  25  ar  
 51  24  49  1   
 52  25  50  1   
@<TRIPOS>SUBSTRUCTURE
  1 ****   5 GROUP 4 **** **** 0

# MOE 2024.06 (io_trps.svl 2023.06)
