@<TRIPOS>MOLECULE
NONAME
25 26 1 0 0 
SMALL
USER_CHARGES


@<TRIPOS>ATOM
  1 O       -1.5360     0.4670     0.3950 O.co2 1 <1>  -0.9000 
  2 C       -2.3010    -0.5170     0.3160 C.2   1 <1>   1.0320 
  3 O       -1.7780    -1.6500     0.3070 O.co2 1 <1>  -0.9000 
  4 C       -3.7490    -0.3300     0.2400 C.2   1 <1>  -0.0920 
  5 O       -4.5840    -1.3720     0.3350 O.3   1 <1>  -0.2800 
  6 C       -4.5040     0.8030     0.0830 C.2   1 <1>  -0.1810 
  7 C       -5.8160    -0.9340     0.2500 C.2   1 <1>  -0.0400 
  8 C       -5.8450     0.4000     0.1080 C.2   1 <1>  -0.1810 
  9 C       -4.0230     2.2320    -0.0970 C.3   1 <1>  -0.0590 
 10 C       -7.0060    -1.8630     0.3150 C.3   1 <1>   0.0200 
 11 C       -7.1350     1.1860     0.0070 C.3   1 <1>   0.3810 
 12 C       -8.2710    -1.1120    -0.1500 C.3   1 <1>  -0.1600 
 13 O       -7.0380     2.2320     0.8910 O.3   1 <1>  -0.6800 
 14 C       -8.3420     0.3220     0.4230 C.3   1 <1>  -0.1600 
 15 H       -3.0340     2.2430    -0.5200 H     1 <1>   0.0800 
 16 H       -3.9910     2.7290     0.8540 H     1 <1>   0.0800 
 17 H       -4.6780     2.7670    -0.7580 H     1 <1>   0.0800 
 18 H       -7.1190    -2.2000     1.3300 H     1 <1>   0.0800 
 19 H       -6.8290    -2.7180    -0.3120 H     1 <1>   0.0800 
 20 H       -7.2590     1.5830    -0.9860 H     1 <1>   0.0800 
 21 H       -9.1440    -1.6700     0.1400 H     1 <1>   0.0800 
 22 H       -8.2580    -1.0530    -1.2250 H     1 <1>   0.0800 
 23 H       -6.2400     2.0500     1.4270 H     1 <1>   0.4000 
 24 H       -9.2450     0.8020     0.0910 H     1 <1>   0.0800 
 25 H       -8.3700     0.2520     1.4970 H     1 <1>   0.0800 
@<TRIPOS>BOND
  1   1   2  ar  
  2   2   3  ar  
  3   2   4  1   
  4   4   5  1   
  5   4   6  2   
  6   5   7  1   
  7   6   8  1   
  8   6   9  1   
  9   7   8  2   
 10   7  10  1   
 11   8  11  1   
 12   9  15  1   
 13   9  16  1   
 14   9  17  1   
 15  10  12  1   
 16  10  18  1   
 17  10  19  1   
 18  11  13  1   
 19  11  14  1   
 20  11  20  1   
 21  12  14  1   
 22  12  21  1   
 23  12  22  1   
 24  13  23  1   
 25  14  24  1   
 26  14  25  1   
@<TRIPOS>SUBSTRUCTURE
  1 ****   8 GROUP 4 **** **** 0

# MOE 2024.06 (io_trps.svl 2023.06)
