@<TRIPOS>MOLECULE
NONAME
43 44 1 0 0 
SMALL
USER_CHARGES


@<TRIPOS>ATOM
  1 O       -0.1700     0.3540    -0.7120 O.2   1 <1>  -0.5700 
  2 C        0.8290     0.9430    -0.3360 C.2   1 <1>   0.6340 
  3 O        1.9050     0.2100    -0.0200 O.3   1 <1>  -0.4300 
  4 C        0.9280     2.3860    -0.2150 C.ar  1 <1>   0.0860 
  5 C        1.9060    -1.2020    -0.1050 C.3   1 <1>   0.0400 
  6 C       -0.2070     3.2240    -0.2020 C.ar  1 <1>   0.1170 
  7 C        2.1870     2.9890    -0.1080 C.ar  1 <1>  -0.1500 
  8 N       -1.4950     2.6670    -0.2960 N.am  1 <1>  -0.5470 
  9 C       -0.0390     4.6020    -0.1120 C.ar  1 <1>  -0.1500 
 10 C        2.3450     4.3610     0.0010 C.ar  1 <1>   0.0820 
 11 C       -2.7470     3.0800     0.1130 C.2   1 <1>   0.7160 
 12 C        1.2160     5.1820    -0.0020 C.ar  1 <1>   0.0820 
 13 O        3.5690     4.9590     0.1100 O.3   1 <1>  -0.3630 
 14 O       -2.8570     4.1520     0.6840 O.2   1 <1>  -0.5700 
 15 C       -3.8900     2.2070    -0.1330 C.2   1 <1>   0.2030 
 16 O        1.3940     6.5260     0.1060 O.3   1 <1>  -0.3620 
 17 C        4.7580     4.2090     0.2210 C.3   1 <1>   0.0400 
 18 N       -5.1640     2.5590    -0.1250 N.2   1 <1>  -0.7070 
 19 C       -3.7860     0.8370    -0.4250 C.2   1 <1>  -0.1500 
 20 C        0.3090     7.4130     0.2700 C.3   1 <1>   0.0400 
 21 N       -5.8590     1.4510    -0.3990 N.pl3 1 <1>   0.3140 
 22 C       -5.0470     0.3960    -0.5880 C.2   1 <1>  -0.3020 
 23 C       -7.3350     1.4490    -0.4750 C.3   1 <1>   0.0960 
 24 C       -7.9550     0.8440     0.7900 C.3   1 <1>  -0.2400 
 25 H        2.8730    -1.5610     0.1970 H     1 <1>   0.0800 
 26 H        1.7030    -1.4910    -1.1220 H     1 <1>   0.0800 
 27 H        1.1450    -1.5910     0.5500 H     1 <1>   0.0800 
 28 H        3.0530     2.3560    -0.1170 H     1 <1>   0.1500 
 29 H       -1.4890     1.7010    -0.6440 H     1 <1>   0.3700 
 30 H       -0.9090     5.2250    -0.1370 H     1 <1>   0.1500 
 31 H        5.5750     4.8990     0.3390 H     1 <1>   0.0800 
 32 H        4.8950     3.6350    -0.6780 H     1 <1>   0.0800 
 33 H        4.6910     3.5720     1.0850 H     1 <1>   0.0800 
 34 H       -2.8800     0.2610    -0.4970 H     1 <1>   0.1500 
 35 H        0.7060     8.4020     0.4110 H     1 <1>   0.0800 
 36 H       -0.2560     7.1180     1.1370 H     1 <1>   0.0800 
 37 H       -0.3010     7.3860    -0.6150 H     1 <1>   0.0800 
 38 H       -5.4090    -0.5890    -0.8200 H     1 <1>   0.1500 
 39 H       -7.6310     0.8900    -1.3430 H     1 <1>   0.0800 
 40 H       -7.6640     2.4660    -0.5940 H     1 <1>   0.0800 
 41 H       -7.6450    -0.1790     0.9100 H     1 <1>   0.0800 
 42 H       -9.0270     0.8720     0.7200 H     1 <1>   0.0800 
 43 H       -7.6540     1.4120     1.6540 H     1 <1>   0.0800 
@<TRIPOS>BOND
  1   1   2  2   
  2   2   3  1   
  3   2   4  1   
  4   3   5  1   
  5   4   6  ar  
  6   4   7  ar  
  7   5  25  1   
  8   5  26  1   
  9   5  27  1   
 10   6   8  1   
 11   6   9  ar  
 12   7  10  ar  
 13   7  28  1   
 14   8  11  am  
 15   8  29  1   
 16   9  12  ar  
 17   9  30  1   
 18  10  12  ar  
 19  10  13  1   
 20  11  14  2   
 21  11  15  1   
 22  12  16  1   
 23  13  17  1   
 24  15  18  2   
 25  15  19  1   
 26  16  20  1   
 27  17  31  1   
 28  17  32  1   
 29  17  33  1   
 30  18  21  1   
 31  19  22  2   
 32  19  34  1   
 33  20  35  1   
 34  20  36  1   
 35  20  37  1   
 36  21  22  1   
 37  21  23  1   
 38  22  38  1   
 39  23  24  1   
 40  23  39  1   
 41  23  40  1   
 42  24  41  1   
 43  24  42  1   
 44  24  43  1   
@<TRIPOS>SUBSTRUCTURE
  1 ****   8 GROUP 4 **** **** 0

# MOE 2024.06 (io_trps.svl 2023.06)
