@<TRIPOS>MOLECULE
NONAME
31 32 1 0 0 
SMALL
USER_CHARGES


@<TRIPOS>ATOM
  1 O       -0.2170     0.8460     0.8970 O.2   1 <1>  -0.5700 
  2 C       -0.1550     1.8770     0.2660 C.2   1 <1>   0.4950 
  3 C        1.1140     2.4610    -0.0730 C.2   1 <1>  -0.1360 
  4 C       -1.4990     2.5410    -0.1600 C.3   1 <1>   0.3410 
  5 C        2.3370     1.9690     0.2460 C.2   1 <1>  -0.1780 
  6 O       -1.3140     3.7140    -0.8770 O.3   1 <1>  -0.6800 
  7 C       -2.3050     1.6200    -1.0830 C.3   1 <1>  -0.2400 
  8 C       -2.3360     2.9340     1.0610 C.3   1 <1>  -0.2400 
  9 C        3.6410     2.4980    -0.0590 C.ar  1 <1>   0.0280 
 10 C        4.7780     1.8100     0.3800 C.ar  1 <1>  -0.1500 
 11 C        3.8300     3.6860    -0.7840 C.ar  1 <1>  -0.1500 
 12 C        6.0280     2.3140     0.0900 C.ar  1 <1>   0.0830 
 13 C        5.0950     4.1820    -1.0690 C.ar  1 <1>  -0.1500 
 14 O        7.2230     1.8090     0.4170 O.3   1 <1>  -0.3630 
 15 C        6.1860     3.4700    -0.6170 C.ar  1 <1>   0.0830 
 16 C        8.2030     2.7000    -0.1150 C.3   1 <1>   0.4000 
 17 O        7.4830     3.7450    -0.7660 O.3   1 <1>  -0.3630 
 18 H        1.0480     3.3720    -0.6320 H     1 <1>   0.1500 
 19 H        2.3660     1.0510     0.8100 H     1 <1>   0.1500 
 20 H       -2.1850     4.0830    -1.1150 H     1 <1>   0.4000 
 21 H       -2.5220     0.6980    -0.5730 H     1 <1>   0.0800 
 22 H       -1.7310     1.3850    -1.9620 H     1 <1>   0.0800 
 23 H       -3.2350     2.0730    -1.3720 H     1 <1>   0.0800 
 24 H       -1.7850     3.6170     1.6820 H     1 <1>   0.0800 
 25 H       -2.5550     2.0580     1.6460 H     1 <1>   0.0800 
 26 H       -3.2670     3.3850     0.7680 H     1 <1>   0.0800 
 27 H        4.6920     0.8970     0.9390 H     1 <1>   0.1500 
 28 H        2.9790     4.2380    -1.1350 H     1 <1>   0.1500 
 29 H        5.2350     5.0910    -1.6250 H     1 <1>   0.1500 
 30 H        8.7900     3.1110     0.6870 H     1 <1>   0.0800 
 31 H        8.8130     2.1800    -0.8320 H     1 <1>   0.0800 
@<TRIPOS>BOND
  1   1   2  2   
  2   2   3  1   
  3   2   4  1   
  4   3   5  2   
  5   3  18  1   
  6   4   6  1   
  7   4   7  1   
  8   4   8  1   
  9   5   9  1   
 10   5  19  1   
 11   6  20  1   
 12   7  21  1   
 13   7  22  1   
 14   7  23  1   
 15   8  24  1   
 16   8  25  1   
 17   8  26  1   
 18   9  10  ar  
 19   9  11  ar  
 20  10  12  ar  
 21  10  27  1   
 22  11  13  ar  
 23  11  28  1   
 24  12  14  1   
 25  12  15  ar  
 26  13  15  ar  
 27  13  29  1   
 28  14  16  1   
 29  15  17  1   
 30  16  17  1   
 31  16  30  1   
 32  16  31  1   
@<TRIPOS>SUBSTRUCTURE
  1 ****   9 GROUP 4 **** **** 0

# MOE 2024.06 (io_trps.svl 2023.06)
