@<TRIPOS>MOLECULE
NONAME
41 43 1 0 0 
SMALL
USER_CHARGES


@<TRIPOS>ATOM
  1 O        2.3510    -2.7920     2.0450 O.2   1 <1>  -0.5700 
  2 C        3.0620    -3.6030     1.4730 C.2   1 <1>   0.6900 
  3 N        2.7940    -4.1690     0.2580 N.am  1 <1>  -0.4770 
  4 N        4.2240    -4.0940     1.9570 N.am  1 <1>  -0.5470 
  5 C        3.8410    -5.0440    -0.0280 C.ar  1 <1>   0.1170 
  6 C        1.6550    -3.8040    -0.5980 C.3   1 <1>   0.1400 
  7 C        4.7290    -4.9950     1.0350 C.ar  1 <1>   0.1170 
  8 C        4.0910    -5.8710    -1.1150 C.ar  1 <1>  -0.1500 
  9 C        0.3850    -4.4520    -0.0400 C.3   1 <1>  -0.1600 
 10 C        5.8810    -5.7660     1.0420 C.ar  1 <1>  -0.1500 
 11 C        5.2410    -6.6430    -1.1130 C.ar  1 <1>  -0.1500 
 12 C       -0.8560    -3.9120    -0.7450 C.3   1 <1>   0.3430 
 13 C        6.1300    -6.5920    -0.0410 C.ar  1 <1>  -0.1500 
 14 N       -2.0860    -4.3320    -0.0170 N.4   1 <1>  -0.9590 
 15 C       -2.3360    -5.8030    -0.1070 C.3   1 <1>   0.3430 
 16 C       -3.2660    -3.5460    -0.4830 C.3   1 <1>   0.3430 
 17 C       -3.5330    -6.1770     0.7690 C.3   1 <1>  -0.1600 
 18 C       -4.4820    -3.8740     0.3870 C.3   1 <1>  -0.1600 
 19 C       -4.7870    -5.3770     0.3930 C.3   1 <1>  -0.1600 
 20 H        4.6270    -3.7970     2.8430 H     1 <1>   0.3700 
 21 H        1.8430    -4.1250    -1.6080 H     1 <1>   0.0800 
 22 H        1.5620    -2.7300    -0.5910 H     1 <1>   0.0800 
 23 H        3.4060    -5.9100    -1.9410 H     1 <1>   0.1500 
 24 H        0.3160    -4.2200     1.0090 H     1 <1>   0.0800 
 25 H        0.4620    -5.5170    -0.1650 H     1 <1>   0.0800 
 26 H        6.5610    -5.7170     1.8740 H     1 <1>   0.1500 
 27 H        5.4540    -7.2910    -1.9460 H     1 <1>   0.1500 
 28 H       -0.8860    -4.2600    -1.7660 H     1 <1>   0.0800 
 29 H       -0.8030    -2.8350    -0.7560 H     1 <1>   0.0800 
 30 H        7.0190    -7.2000    -0.0590 H     1 <1>   0.1500 
 31 H       -1.9520    -4.1080     0.9790 H     1 <1>   0.4500 
 32 H       -1.4700    -6.3510     0.2280 H     1 <1>   0.0800 
 33 H       -2.5390    -6.0780    -1.1290 H     1 <1>   0.0800 
 34 H       -3.4840    -3.7880    -1.5110 H     1 <1>   0.0800 
 35 H       -3.0570    -2.4900    -0.4190 H     1 <1>   0.0800 
 36 H       -3.2860    -6.0080     1.8030 H     1 <1>   0.0800 
 37 H       -3.7360    -7.2280     0.6570 H     1 <1>   0.0800 
 38 H       -5.3370    -3.3400     0.0110 H     1 <1>   0.0800 
 39 H       -4.3060    -3.5300     1.3910 H     1 <1>   0.0800 
 40 H       -5.5790    -5.5870     1.0930 H     1 <1>   0.0800 
 41 H       -5.1270    -5.6790    -0.5840 H     1 <1>   0.0800 
@<TRIPOS>BOND
  1   1   2  2   
  2   2   3  am  
  3   2   4  am  
  4   3   5  1   
  5   3   6  1   
  6   4   7  1   
  7   4  20  1   
  8   5   7  ar  
  9   5   8  ar  
 10   6   9  1   
 11   6  21  1   
 12   6  22  1   
 13   7  10  ar  
 14   8  11  ar  
 15   8  23  1   
 16   9  12  1   
 17   9  24  1   
 18   9  25  1   
 19  10  13  ar  
 20  10  26  1   
 21  11  13  ar  
 22  11  27  1   
 23  12  14  1   
 24  12  28  1   
 25  12  29  1   
 26  13  30  1   
 27  14  15  1   
 28  14  16  1   
 29  14  31  1   
 30  15  17  1   
 31  15  32  1   
 32  15  33  1   
 33  16  18  1   
 34  16  34  1   
 35  16  35  1   
 36  17  19  1   
 37  17  36  1   
 38  17  37  1   
 39  18  19  1   
 40  18  38  1   
 41  18  39  1   
 42  19  40  1   
 43  19  41  1   
@<TRIPOS>SUBSTRUCTURE
  1 ****   9 GROUP 4 **** **** 0

# MOE 2024.06 (io_trps.svl 2023.06)
