@<TRIPOS>MOLECULE
NONAME
37 38 1 0 0 
SMALL
USER_CHARGES


@<TRIPOS>ATOM
  1 CL      -1.9230    -3.0030    -3.0270 Cl    1 <1>  -0.1770 
  2 C       -2.9680    -2.2720    -1.8290 C.ar  1 <1>   0.1770 
  3 C       -3.3500    -2.9870    -0.7020 C.ar  1 <1>  -0.1440 
  4 C       -3.3950    -0.9740    -2.0400 C.ar  1 <1>  -0.1500 
  5 C       -4.1800    -2.3740     0.2240 C.ar  1 <1>  -0.1500 
  6 C       -2.8730    -4.4150    -0.4780 C.3   1 <1>  -0.0960 
  7 C       -4.2260    -0.3740    -1.1110 C.ar  1 <1>  -0.1500 
  8 C       -4.6290    -1.0700     0.0190 C.ar  1 <1>   0.0830 
  9 O       -5.4630    -0.4120     0.8620 O.3   1 <1>  -0.3630 
 10 C       -6.1370    -1.0600     1.9350 C.3   1 <1>   0.2610 
 11 C       -7.0450    -2.2220     1.4740 C.2   1 <1>   0.5690 
 12 C       -6.8980     0.0150     2.7200 C.3   1 <1>  -0.2400 
 13 O       -6.9240    -3.2590     2.0890 O.2   1 <1>  -0.5700 
 14 N       -7.9420    -2.1290     0.4310 N.am  1 <1>  -0.6600 
 15 C       -8.6560    -3.3350    -0.0870 C.3   1 <1>   0.1400 
 16 C       -8.1710    -0.9390    -0.4420 C.3   1 <1>   0.1400 
 17 C       -8.3040    -3.5610    -1.5680 C.3   1 <1>   0.1200 
 18 C       -7.8290    -1.2850    -1.9010 C.3   1 <1>   0.1200 
 19 O       -8.5570    -2.4060    -2.3200 O.3   1 <1>  -0.5600 
 20 H       -3.0780    -0.4450    -2.9210 H     1 <1>   0.1500 
 21 H       -4.4670    -2.9260     1.1000 H     1 <1>   0.1500 
 22 H       -1.8000    -4.4360    -0.4090 H     1 <1>   0.0800 
 23 H       -3.1800    -5.0380    -1.2990 H     1 <1>   0.0800 
 24 H       -3.2820    -4.8220     0.4290 H     1 <1>   0.0800 
 25 H       -4.5660     0.6350    -1.2580 H     1 <1>   0.1500 
 26 H       -5.3770    -1.4650     2.5790 H     1 <1>   0.0800 
 27 H       -7.6630     0.4630     2.1140 H     1 <1>   0.0800 
 28 H       -6.2170     0.7740     3.0590 H     1 <1>   0.0800 
 29 H       -7.3650    -0.4330     3.5790 H     1 <1>   0.0800 
 30 H       -9.7170    -3.1900     0.0090 H     1 <1>   0.0800 
 31 H       -8.3910    -4.2130     0.4760 H     1 <1>   0.0800 
 32 H       -7.5890    -0.0950    -0.1310 H     1 <1>   0.0800 
 33 H       -9.2070    -0.6550    -0.3860 H     1 <1>   0.0800 
 34 H       -8.9020    -4.3560    -1.9750 H     1 <1>   0.0800 
 35 H       -7.2640    -3.8200    -1.6720 H     1 <1>   0.0800 
 36 H       -6.7790    -1.4960    -2.0060 H     1 <1>   0.0800 
 37 H       -8.0850    -0.4670    -2.5490 H     1 <1>   0.0800 
@<TRIPOS>BOND
  1   1   2  1   
  2   2   3  ar  
  3   2   4  ar  
  4   3   5  ar  
  5   3   6  1   
  6   4   7  ar  
  7   4  20  1   
  8   5   8  ar  
  9   5  21  1   
 10   6  22  1   
 11   6  23  1   
 12   6  24  1   
 13   7   8  ar  
 14   7  25  1   
 15   8   9  1   
 16   9  10  1   
 17  10  11  1   
 18  10  12  1   
 19  10  26  1   
 20  11  13  2   
 21  11  14  am  
 22  12  27  1   
 23  12  28  1   
 24  12  29  1   
 25  14  15  1   
 26  14  16  1   
 27  15  17  1   
 28  15  30  1   
 29  15  31  1   
 30  16  18  1   
 31  16  32  1   
 32  16  33  1   
 33  17  19  1   
 34  17  34  1   
 35  17  35  1   
 36  18  19  1   
 37  18  36  1   
 38  18  37  1   
@<TRIPOS>SUBSTRUCTURE
  1 ****   8 GROUP 4 **** **** 0

# MOE 2024.06 (io_trps.svl 2023.06)
