@<TRIPOS>MOLECULE
Structure1887
41 42 1 0 0 
SMALL
USER_CHARGES


@<TRIPOS>ATOM
  1 CL       1.3190     0.5970     0.4760 Cl    1 <1>  -0.1770 
  2 C        1.4050    -1.1490     0.5100 C.ar  1 <1>   0.1770 
  3 C        2.5070    -1.7840    -0.0070 C.ar  1 <1>  -0.1500 
  4 C        0.3360    -1.8550     1.0700 C.ar  1 <1>  -0.1500 
  5 C        2.5540    -3.1810     0.0330 C.ar  1 <1>   0.0000 
  6 C        0.3720    -3.2300     1.1120 C.ar  1 <1>  -0.1500 
  7 C        1.4900    -3.8890     0.5900 C.ar  1 <1>  -0.1520 
  8 C        3.5020    -4.1400    -0.3900 C.2   1 <1>  -0.1810 
  9 N        1.7800    -5.2270     0.5050 N.pl3 1 <1>   0.0330 
 10 C        3.0000    -5.3610    -0.0870 C.2   1 <1>  -0.3020 
 11 C        4.8210    -3.7740    -1.0590 C.3   1 <1>   0.0210 
 12 C        5.8280    -4.9260    -1.1930 C.3   1 <1>   0.1140 
 13 N        7.1810    -4.3260    -1.4570 N.am  1 <1>  -0.7300 
 14 C        5.4390    -5.9070    -2.3160 C.2   1 <1>   0.9060 
 15 C        8.1590    -4.1100    -0.5580 C.2   1 <1>   0.7800 
 16 O        4.9730    -7.0210    -2.0410 O.co2 1 <1>  -0.9000 
 17 O        5.6760    -5.5700    -3.4880 O.co2 1 <1>  -0.9000 
 18 O        7.9670    -4.1410     0.6410 O.2   1 <1>  -0.5700 
 19 O        9.3580    -3.8420    -1.0730 O.3   1 <1>  -0.4300 
 20 C       10.5510    -3.5890    -0.3650 C.3   1 <1>   0.2800 
 21 C       10.4070    -2.3180     0.4810 C.3   1 <1>  -0.2400 
 22 C       11.6120    -3.3600    -1.4420 C.3   1 <1>  -0.2400 
 23 C       10.9390    -4.8120     0.4750 C.3   1 <1>  -0.2400 
 24 H        3.3220    -1.2330    -0.4350 H     1 <1>   0.1500 
 25 H       -0.5020    -1.3070     1.4600 H     1 <1>   0.1500 
 26 H       -0.4370    -3.7970     1.5360 H     1 <1>   0.1500 
 27 H        1.1800    -5.9960     0.8130 H     1 <1>   0.2700 
 28 H        3.4370    -6.3300    -0.2670 H     1 <1>   0.1500 
 29 H        5.2750    -3.0020    -0.4650 H     1 <1>   0.0800 
 30 H        4.6170    -3.3730    -2.0360 H     1 <1>   0.0800 
 31 H        5.8650    -5.4750    -0.2700 H     1 <1>   0.0800 
 32 H        7.4330    -4.4140    -2.4470 H     1 <1>   0.3700 
 33 H       11.3560    -2.0520     0.9070 H     1 <1>   0.0800 
 34 H        9.7180    -2.4690     1.2910 H     1 <1>   0.0800 
 35 H       10.0630    -1.5020    -0.1290 H     1 <1>   0.0800 
 36 H       11.3420    -2.5220    -2.0580 H     1 <1>   0.0800 
 37 H       11.7060    -4.2340    -2.0620 H     1 <1>   0.0800 
 38 H       12.5670    -3.1590    -0.9910 H     1 <1>   0.0800 
 39 H       10.9550    -5.6950    -0.1380 H     1 <1>   0.0800 
 40 H       10.2490    -4.9590     1.2850 H     1 <1>   0.0800 
 41 H       11.9160    -4.6710     0.9000 H     1 <1>   0.0800 
@<TRIPOS>BOND
  1   1   2  1   
  2   2   3  ar  
  3   2   4  ar  
  4   3   5  ar  
  5   3  24  1   
  6   4   6  ar  
  7   4  25  1   
  8   5   7  ar  
  9   5   8  1   
 10   6   7  ar  
 11   6  26  1   
 12   7   9  1   
 13   8  10  2   
 14   8  11  1   
 15   9  10  1   
 16   9  27  1   
 17  10  28  1   
 18  11  12  1   
 19  11  29  1   
 20  11  30  1   
 21  12  13  1   
 22  12  14  1   
 23  12  31  1   
 24  13  15  am  
 25  13  32  1   
 26  14  16  ar  
 27  14  17  ar  
 28  15  18  2   
 29  15  19  1   
 30  19  20  1   
 31  20  21  1   
 32  20  22  1   
 33  20  23  1   
 34  21  33  1   
 35  21  34  1   
 36  21  35  1   
 37  22  36  1   
 38  22  37  1   
 39  22  38  1   
 40  23  39  1   
 41  23  40  1   
 42  23  41  1   
@<TRIPOS>SUBSTRUCTURE
  1 ****  11 GROUP 4 **** **** 0

# MOE 2024.06 (io_trps.svl 2023.06)
