@<TRIPOS>MOLECULE
NONAME
37 40 1 0 0 
SMALL
USER_CHARGES


@<TRIPOS>ATOM
  1 CL       0.1750    -0.4750     1.4700 Cl    1 <1>  -0.1770 
  2 C        1.5130     0.4610     0.8380 C.ar  1 <1>   0.1770 
  3 C        1.3370     1.8050     0.5190 C.ar  1 <1>   0.0820 
  4 C        2.7360    -0.1550     0.6850 C.ar  1 <1>  -0.1500 
  5 O        0.1370     2.4130     0.6570 O.3   1 <1>  -0.2330 
  6 C        2.4190     2.5350     0.0670 C.ar  1 <1>  -0.1500 
  7 C        3.8420     0.5590     0.2070 C.ar  1 <1>   0.0280 
  8 C       -0.8810     2.1720    -0.1650 C.2   1 <1>   0.7200 
  9 C        3.6530     1.9210    -0.0850 C.ar  1 <1>   0.0830 
 10 C        5.1520    -0.0020     0.0060 C.2   1 <1>  -0.1670 
 11 O       -0.7880     1.4530    -1.1270 O.2   1 <1>  -0.5700 
 12 C       -2.1850     2.8730     0.1930 C.3   1 <1>  -0.1000 
 13 O        4.6810     2.6770    -0.5210 O.3   1 <1>  -0.2330 
 14 C        6.1570     0.8110    -0.4090 C.2   1 <1>  -0.1240 
 15 C        5.3680    -1.4930     0.2710 C.3   1 <1>  -0.0220 
 16 C       -3.1250     3.3790    -0.8640 C.3   1 <1>  -0.2000 
 17 C       -2.3510     4.3500    -0.0260 C.3   1 <1>  -0.2000 
 18 C        5.9150     2.2000    -0.6890 C.2   1 <1>   0.7060 
 19 C        7.5890     0.3130    -0.6140 C.3   1 <1>  -0.0220 
 20 C        6.7000    -2.0140    -0.2830 C.3   1 <1>  -0.1600 
 21 O        6.7680     2.9750    -1.0760 O.2   1 <1>  -0.5700 
 22 C        7.8390    -1.0480     0.0440 C.3   1 <1>  -0.1600 
 23 H        2.8160    -1.1920     0.9470 H     1 <1>   0.1500 
 24 H        2.3080     3.5780    -0.1720 H     1 <1>   0.1500 
 25 H       -2.6260     2.4480     1.0750 H     1 <1>   0.1000 
 26 H        4.5790    -2.0660    -0.1820 H     1 <1>   0.0800 
 27 H        5.3370    -1.6600     1.3340 H     1 <1>   0.0800 
 28 H       -4.1840     3.2770    -0.7010 H     1 <1>   0.1000 
 29 H       -2.8530     3.2480    -1.8980 H     1 <1>   0.1000 
 30 H       -1.5540     4.9050    -0.4930 H     1 <1>   0.1000 
 31 H       -2.8750     4.9270     0.7160 H     1 <1>   0.1000 
 32 H        8.2870     1.0250    -0.2060 H     1 <1>   0.0800 
 33 H        7.7770     0.2420    -1.6720 H     1 <1>   0.0800 
 34 H        6.6230    -2.1200    -1.3520 H     1 <1>   0.0800 
 35 H        6.9080    -2.9840     0.1320 H     1 <1>   0.0800 
 36 H        7.9050    -0.9220     1.1120 H     1 <1>   0.0800 
 37 H        8.7760    -1.4490    -0.3020 H     1 <1>   0.0800 
@<TRIPOS>BOND
  1   1   2  1   
  2   2   3  ar  
  3   2   4  ar  
  4   3   5  1   
  5   3   6  ar  
  6   4   7  ar  
  7   4  23  1   
  8   5   8  1   
  9   6   9  ar  
 10   6  24  1   
 11   7   9  ar  
 12   7  10  1   
 13   8  11  2   
 14   8  12  1   
 15   9  13  1   
 16  10  14  2   
 17  10  15  1   
 18  12  16  1   
 19  12  17  1   
 20  12  25  1   
 21  13  18  1   
 22  14  18  1   
 23  14  19  1   
 24  15  20  1   
 25  15  26  1   
 26  15  27  1   
 27  16  17  1   
 28  16  28  1   
 29  16  29  1   
 30  17  30  1   
 31  17  31  1   
 32  18  21  2   
 33  19  22  1   
 34  19  32  1   
 35  19  33  1   
 36  20  22  1   
 37  20  34  1   
 38  20  35  1   
 39  22  36  1   
 40  22  37  1   
@<TRIPOS>SUBSTRUCTURE
  1 ****   9 GROUP 4 **** **** 0

# MOE 2024.06 (io_trps.svl 2023.06)
