@<TRIPOS>MOLECULE
22251
36 36 1 0 0 
SMALL
USER_CHARGES


@<TRIPOS>ATOM
  1 O        0.7640    -0.7470     2.5090 O.2   1 <1>  -0.5700 
  2 C        0.3270    -1.5550     1.7270 C.2   1 <1>   0.5690 
  3 N        1.1330    -2.0150     0.7370 N.am  1 <1>  -0.7300 
  4 C       -1.1060    -2.0490     1.9130 C.3   1 <1>   0.1810 
  5 C        0.8240    -2.9720    -0.3320 C.3   1 <1>   0.2200 
  6 O       -1.8840    -1.8510     0.7410 O.3   1 <1>  -0.3630 
  7 C        1.9590    -3.9860    -0.4030 C.3   1 <1>  -0.2400 
  8 C        0.6870    -2.1990    -1.6390 C.3   1 <1>  -0.2400 
  9 C       -3.1610    -2.3060     0.6650 C.ar  1 <1>   0.0820 
 10 C       -3.7990    -2.1650    -0.5580 C.ar  1 <1>  -0.1500 
 11 C       -3.8410    -2.8930     1.7280 C.ar  1 <1>  -0.1500 
 12 C       -5.0990    -2.6060    -0.7310 C.ar  1 <1>  -0.1500 
 13 C       -5.1410    -3.3350     1.5550 C.ar  1 <1>  -0.1500 
 14 C       -5.7780    -3.1970     0.3320 C.ar  1 <1>   0.0820 
 15 O       -7.0530    -3.6600     0.2540 O.3   1 <1>  -0.3630 
 16 C       -7.7940    -3.5560    -0.9390 C.3   1 <1>   0.1200 
 17 C       -9.1740    -4.1580    -0.6910 C.3   1 <1>  -0.2400 
 18 H        2.0590    -1.5900     0.6900 H     1 <1>   0.3700 
 19 H       -1.5680    -1.5060     2.7160 H     1 <1>   0.0800 
 20 H       -1.0910    -3.0980     2.1390 H     1 <1>   0.0800 
 21 H       -0.0990    -3.4860    -0.1200 H     1 <1>   0.0800 
 22 H        2.8920    -3.5010    -0.6260 H     1 <1>   0.0800 
 23 H        1.7570    -4.7080    -1.1740 H     1 <1>   0.0800 
 24 H        2.0450    -4.5090     0.5330 H     1 <1>   0.0800 
 25 H        1.5990    -1.6800    -1.8730 H     1 <1>   0.0800 
 26 H       -0.1160    -1.4880    -1.5600 H     1 <1>   0.0800 
 27 H        0.4600    -2.8760    -2.4420 H     1 <1>   0.0800 
 28 H       -3.2680    -1.7060    -1.3730 H     1 <1>   0.1500 
 29 H       -3.3850    -3.0130     2.6920 H     1 <1>   0.1500 
 30 H       -5.5610    -2.4810    -1.6910 H     1 <1>   0.1500 
 31 H       -5.6750    -3.7900     2.3690 H     1 <1>   0.1500 
 32 H       -7.2760    -4.0980    -1.7110 H     1 <1>   0.0800 
 33 H       -7.8750    -2.5150    -1.2010 H     1 <1>   0.0800 
 34 H       -9.0810    -5.1920    -0.4140 H     1 <1>   0.0800 
 35 H       -9.7660    -4.0930    -1.5860 H     1 <1>   0.0800 
 36 H       -9.6760    -3.6190     0.0930 H     1 <1>   0.0800 
@<TRIPOS>BOND
  1   1   2  2   
  2   2   3  am  
  3   2   4  1   
  4   3   5  1   
  5   3  18  1   
  6   4   6  1   
  7   4  19  1   
  8   4  20  1   
  9   5   7  1   
 10   5   8  1   
 11   5  21  1   
 12   6   9  1   
 13   7  22  1   
 14   7  23  1   
 15   7  24  1   
 16   8  25  1   
 17   8  26  1   
 18   8  27  1   
 19   9  10  ar  
 20   9  11  ar  
 21  10  12  ar  
 22  10  28  1   
 23  11  13  ar  
 24  11  29  1   
 25  12  14  ar  
 26  12  30  1   
 27  13  14  ar  
 28  13  31  1   
 29  14  15  1   
 30  15  16  1   
 31  16  17  1   
 32  16  32  1   
 33  16  33  1   
 34  17  34  1   
 35  17  35  1   
 36  17  36  1   
@<TRIPOS>SUBSTRUCTURE
  1 ****   9 GROUP 4 **** **** 0

# MOE 2024.06 (io_trps.svl 2023.06)
