@<TRIPOS>MOLECULE
NONAME
49 51 1 0 0 
SMALL
USER_CHARGES


@<TRIPOS>ATOM
  1 O       -0.8330    -2.0870    -1.5360 O.2   1 <1>  -0.5700 
  2 C       -1.2400    -2.9020    -0.7270 C.2   1 <1>   0.5440 
  3 N       -2.4670    -2.6720    -0.1090 N.am  1 <1>  -0.4690 
  4 C       -0.4450    -4.0840    -0.4480 C.ar  1 <1>   0.0860 
  5 C       -3.0720    -1.4010    -0.0820 C.2   1 <1>  -0.0290 
  6 C       -3.2790    -3.8260     0.3800 C.3   1 <1>   0.1400 
  7 C       -0.0780    -4.4320     0.8520 C.ar  1 <1>  -0.1500 
  8 C       -0.0140    -4.9120    -1.4840 C.ar  1 <1>  -0.1500 
  9 C       -4.3190    -1.1380    -0.5110 C.2   1 <1>  -0.2880 
 10 C       -2.2070    -0.2620     0.4720 C.3   1 <1>  -0.0220 
 11 C       -3.7930    -4.6750    -0.7900 C.3   1 <1>  -0.1600 
 12 C        0.6670    -5.5680     1.1100 C.ar  1 <1>  -0.1500 
 13 C        0.7310    -6.0500    -1.2330 C.ar  1 <1>  -0.1500 
 14 C       -4.9050     0.2570    -0.5100 C.3   1 <1>   0.5610 
 15 C       -2.9760     1.0740     0.4920 C.3   1 <1>   0.4230 
 16 C       -4.7080    -5.8010    -0.2930 C.3   1 <1>  -0.1600 
 17 C        1.0700    -6.3820     0.0660 C.ar  1 <1>  -0.1500 
 18 N       -3.7560     1.1430    -0.7680 N.4   1 <1>  -0.9590 
 19 C       -5.3390     0.6210     0.9060 C.3   1 <1>  -0.1600 
 20 C       -4.0520     1.1080     1.5870 C.3   1 <1>  -0.1600 
 21 C       -5.2170    -6.6490    -1.4620 C.3   1 <1>  -0.2400 
 22 C       -4.1320     2.5290    -1.1770 C.3   1 <1>   0.2630 
 23 H       -4.1140    -3.4540     0.9480 H     1 <1>   0.0800 
 24 H       -2.6910    -4.4360     1.0420 H     1 <1>   0.0800 
 25 H       -0.3780    -3.8010     1.6700 H     1 <1>   0.1500 
 26 H       -0.2680    -4.6520    -2.4970 H     1 <1>   0.1500 
 27 H       -4.9920    -1.8840    -0.8920 H     1 <1>   0.1500 
 28 H       -1.3320    -0.1280    -0.1350 H     1 <1>   0.0800 
 29 H       -1.8680    -0.5070     1.4630 H     1 <1>   0.0800 
 30 H       -2.9610    -5.1110    -1.3140 H     1 <1>   0.0800 
 31 H       -4.3360    -4.0530    -1.4780 H     1 <1>   0.0800 
 32 H        0.9370    -5.8220     2.1210 H     1 <1>   0.1500 
 33 H        1.0500    -6.6760    -2.0490 H     1 <1>   0.1500 
 34 H       -5.6830     0.3670    -1.2490 H     1 <1>   0.0800 
 35 H       -2.2870     1.8980     0.5890 H     1 <1>   0.0800 
 36 H       -5.5510    -5.3830     0.2320 H     1 <1>   0.0800 
 37 H       -4.1670    -6.4340     0.3900 H     1 <1>   0.0800 
 38 H        1.6490    -7.2670     0.2640 H     1 <1>   0.1500 
 39 H       -3.1990     0.6780    -1.5000 H     1 <1>   0.4500 
 40 H       -5.7690    -0.2270     1.4120 H     1 <1>   0.0800 
 41 H       -6.0720     1.4070     0.8720 H     1 <1>   0.0800 
 42 H       -4.1750     2.1150     1.9460 H     1 <1>   0.0800 
 43 H       -3.7840     0.4850     2.4230 H     1 <1>   0.0800 
 44 H       -5.7820    -6.0450    -2.1500 H     1 <1>   0.0800 
 45 H       -5.8540    -7.4350    -1.0960 H     1 <1>   0.0800 
 46 H       -4.3930    -7.0970    -1.9890 H     1 <1>   0.0800 
 47 H       -4.7180     3.0030    -0.4060 H     1 <1>   0.0800 
 48 H       -4.7100     2.5060    -2.0870 H     1 <1>   0.0800 
 49 H       -3.2460     3.1190    -1.3490 H     1 <1>   0.0800 
@<TRIPOS>BOND
  1   1   2  2   
  2   2   3  am  
  3   2   4  1   
  4   3   5  1   
  5   3   6  1   
  6   4   7  ar  
  7   4   8  ar  
  8   5   9  2   
  9   5  10  1   
 10   6  11  1   
 11   6  23  1   
 12   6  24  1   
 13   7  12  ar  
 14   7  25  1   
 15   8  13  ar  
 16   8  26  1   
 17   9  14  1   
 18   9  27  1   
 19  10  15  1   
 20  10  28  1   
 21  10  29  1   
 22  11  16  1   
 23  11  30  1   
 24  11  31  1   
 25  12  17  ar  
 26  12  32  1   
 27  13  17  ar  
 28  13  33  1   
 29  14  18  1   
 30  14  19  1   
 31  14  34  1   
 32  15  18  1   
 33  15  20  1   
 34  15  35  1   
 35  16  21  1   
 36  16  36  1   
 37  16  37  1   
 38  17  38  1   
 39  18  22  1   
 40  18  39  1   
 41  19  20  1   
 42  19  40  1   
 43  19  41  1   
 44  20  42  1   
 45  20  43  1   
 46  21  44  1   
 47  21  45  1   
 48  21  46  1   
 49  22  47  1   
 50  22  48  1   
 51  22  49  1   
@<TRIPOS>SUBSTRUCTURE
  1 ****   3 GROUP 4 **** **** 0

# MOE 2024.06 (io_trps.svl 2023.06)
