@<TRIPOS>MOLECULE
NONAME
35 36 1 0 0 
SMALL
USER_CHARGES


@<TRIPOS>ATOM
  1 O       -0.7440    -0.8610     0.8420 O.3   1 <1>  -0.5320 
  2 C       -1.9810    -0.5180     0.4560 C.ar  1 <1>   0.0830 
  3 C       -2.7220    -1.4090    -0.3010 C.ar  1 <1>  -0.1500 
  4 C       -2.5040     0.7130     0.8130 C.ar  1 <1>  -0.1500 
  5 C       -4.0110    -1.0810    -0.7140 C.ar  1 <1>  -0.1430 
  6 C       -3.7820     1.0490     0.4070 C.ar  1 <1>  -0.1500 
  7 C       -4.5250     0.1580    -0.3490 C.ar  1 <1>  -0.1500 
  8 C       -4.8920    -2.0200    -1.5570 C.3   1 <1>   0.5330 
  9 N       -6.1700    -2.3640    -0.8330 N.pl3 1 <1>  -0.4870 
 10 C       -4.1890    -3.2340    -2.0890 C.1   1 <1>   0.3570 
 11 N       -7.3010    -1.6310    -1.0740 N.2   1 <1>  -0.5030 
 12 C       -6.3300    -3.2590     0.3510 C.3   1 <1>   0.2700 
 13 N       -3.6370    -4.1460    -2.4960 N.1   1 <1>  -0.5570 
 14 C       -8.1690    -1.8860    -0.2000 C.2   1 <1>   0.3280 
 15 C       -7.7340    -2.8780     0.8460 C.3   1 <1>  -0.0990 
 16 C       -6.3030    -4.7280    -0.0870 C.3   1 <1>  -0.2400 
 17 C       -5.2760    -2.9980     1.4310 C.3   1 <1>  -0.2400 
 18 C       -9.5520    -1.2830    -0.1260 C.3   1 <1>  -0.1790 
 19 H       -0.2990    -0.1700     1.3610 H     1 <1>   0.4500 
 20 H       -2.2640    -2.3510    -0.5480 H     1 <1>   0.1500 
 21 H       -1.9280     1.4050     1.4000 H     1 <1>   0.1500 
 22 H       -4.2020     2.0020     0.6780 H     1 <1>   0.1500 
 23 H       -5.5230     0.4320    -0.6530 H     1 <1>   0.1500 
 24 H       -5.1810    -1.4580    -2.4260 H     1 <1>   0.0800 
 25 H       -7.7080    -2.4070     1.8110 H     1 <1>   0.0800 
 26 H       -8.4010    -3.7190     0.8740 H     1 <1>   0.0800 
 27 H       -6.9750    -4.8840    -0.9130 H     1 <1>   0.0800 
 28 H       -6.6060    -5.3620     0.7260 H     1 <1>   0.0800 
 29 H       -5.3140    -5.0280    -0.3790 H     1 <1>   0.0800 
 30 H       -5.2580    -1.9560     1.6970 H     1 <1>   0.0800 
 31 H       -4.3010    -3.2940     1.0910 H     1 <1>   0.0800 
 32 H       -5.5030    -3.5700     2.3130 H     1 <1>   0.0800 
 33 H      -10.2930    -2.0580    -0.1900 H     1 <1>   0.0800 
 34 H       -9.6930    -0.5980    -0.9430 H     1 <1>   0.0800 
 35 H       -9.6700    -0.7510     0.7990 H     1 <1>   0.0800 
@<TRIPOS>BOND
  1   1   2  1   
  2   1  19  1   
  3   2   3  ar  
  4   2   4  ar  
  5   3   5  ar  
  6   3  20  1   
  7   4   6  ar  
  8   4  21  1   
  9   5   7  ar  
 10   5   8  1   
 11   6   7  ar  
 12   6  22  1   
 13   7  23  1   
 14   8   9  1   
 15   8  10  1   
 16   8  24  1   
 17   9  11  1   
 18   9  12  1   
 19  10  13  3   
 20  11  14  2   
 21  12  15  1   
 22  12  16  1   
 23  12  17  1   
 24  14  15  1   
 25  14  18  1   
 26  15  25  1   
 27  15  26  1   
 28  16  27  1   
 29  16  28  1   
 30  16  29  1   
 31  17  30  1   
 32  17  31  1   
 33  17  32  1   
 34  18  33  1   
 35  18  34  1   
 36  18  35  1   
@<TRIPOS>SUBSTRUCTURE
  1 ****   5 GROUP 4 **** **** 0

# MOE 2024.06 (io_trps.svl 2023.06)
