@<TRIPOS>MOLECULE
NONAME
43 44 1 0 0 
SMALL
USER_CHARGES


@<TRIPOS>ATOM
  1 O       -0.7230    -0.9660    -1.5030 O.2   1 <1>  -0.5700 
  2 C       -0.7210    -1.7980    -0.6160 C.2   1 <1>   0.7800 
  3 O        0.4220    -2.3950    -0.2740 O.3   1 <1>  -0.4300 
  4 N       -1.8570    -2.1610     0.0560 N.am  1 <1>  -0.6600 
  5 C        1.6300    -2.0680    -0.9220 C.3   1 <1>   0.1200 
  6 C       -1.8950    -3.2280     1.1020 C.3   1 <1>   0.1400 
  7 C       -3.1910    -1.5770    -0.2740 C.3   1 <1>   0.1400 
  8 C        2.7390    -2.9170    -0.3100 C.3   1 <1>  -0.2400 
  9 C       -2.8960    -4.3290     0.7190 C.3   1 <1>   0.1400 
 10 C       -4.1930    -2.6800    -0.6510 C.3   1 <1>   0.1400 
 11 N       -4.2360    -3.7440     0.4010 N.am  1 <1>  -0.6600 
 12 C       -5.3700    -4.0740     1.1130 C.2   1 <1>   0.5440 
 13 O       -5.2780    -4.8480     2.0470 O.2   1 <1>  -0.5700 
 14 C       -6.6630    -3.5050     0.7820 C.ar  1 <1>   0.0860 
 15 C       -7.4410    -3.9770    -0.2810 C.ar  1 <1>  -0.1440 
 16 C       -7.1530    -2.4370     1.5290 C.ar  1 <1>  -0.1500 
 17 C       -8.6530    -3.3750    -0.5800 C.ar  1 <1>  -0.1500 
 18 C       -6.9710    -5.1630    -1.1140 C.3   1 <1>  -0.0970 
 19 C       -8.3630    -1.8410     1.2270 C.ar  1 <1>  -0.1500 
 20 C       -9.1200    -2.3060     0.1670 C.ar  1 <1>  -0.1440 
 21 C      -10.4490    -1.6580    -0.1740 C.3   1 <1>  -0.0970 
 22 H        1.8210    -1.0180    -0.7770 H     1 <1>   0.0800 
 23 H        1.5200    -2.2740    -1.9730 H     1 <1>   0.0800 
 24 H       -2.1950    -2.7930     2.0390 H     1 <1>   0.0800 
 25 H       -0.9240    -3.6680     1.2400 H     1 <1>   0.0800 
 26 H       -3.1080    -0.8800    -1.0900 H     1 <1>   0.0800 
 27 H       -3.5600    -1.0400     0.5820 H     1 <1>   0.0800 
 28 H        2.8290    -2.7080     0.7410 H     1 <1>   0.0800 
 29 H        3.6750    -2.6870    -0.7860 H     1 <1>   0.0800 
 30 H        2.5290    -3.9620    -0.4540 H     1 <1>   0.0800 
 31 H       -2.9690    -5.0360     1.5280 H     1 <1>   0.0800 
 32 H       -2.5300    -4.8570    -0.1430 H     1 <1>   0.0800 
 33 H       -3.8920    -3.1230    -1.5850 H     1 <1>   0.0800 
 34 H       -5.1620    -2.2380    -0.7960 H     1 <1>   0.0800 
 35 H       -6.5720    -2.0760     2.3590 H     1 <1>   0.1500 
 36 H       -9.2450    -3.7400    -1.4010 H     1 <1>   0.1500 
 37 H       -6.0860    -4.9010    -1.6660 H     1 <1>   0.0800 
 38 H       -7.7290    -5.4730    -1.8100 H     1 <1>   0.0800 
 39 H       -6.7440    -5.9950    -0.4710 H     1 <1>   0.0800 
 40 H       -8.7140    -1.0150     1.8220 H     1 <1>   0.1500 
 41 H      -11.1470    -2.3970    -0.5240 H     1 <1>   0.0800 
 42 H      -10.3080    -0.9210    -0.9450 H     1 <1>   0.0800 
 43 H      -10.8700    -1.1790     0.6910 H     1 <1>   0.0800 
@<TRIPOS>BOND
  1   1   2  2   
  2   2   3  1   
  3   2   4  am  
  4   3   5  1   
  5   4   6  1   
  6   4   7  1   
  7   5   8  1   
  8   5  22  1   
  9   5  23  1   
 10   6   9  1   
 11   6  24  1   
 12   6  25  1   
 13   7  10  1   
 14   7  26  1   
 15   7  27  1   
 16   8  28  1   
 17   8  29  1   
 18   8  30  1   
 19   9  11  1   
 20   9  31  1   
 21   9  32  1   
 22  10  11  1   
 23  10  33  1   
 24  10  34  1   
 25  11  12  am  
 26  12  13  2   
 27  12  14  1   
 28  14  15  ar  
 29  14  16  ar  
 30  15  17  ar  
 31  15  18  1   
 32  16  19  ar  
 33  16  35  1   
 34  17  20  ar  
 35  17  36  1   
 36  18  37  1   
 37  18  38  1   
 38  18  39  1   
 39  19  20  ar  
 40  19  40  1   
 41  20  21  1   
 42  21  41  1   
 43  21  42  1   
 44  21  43  1   
@<TRIPOS>SUBSTRUCTURE
  1 ****  10 GROUP 4 **** **** 0

# MOE 2024.06 (io_trps.svl 2023.06)
