@<TRIPOS>MOLECULE
NONAME
33 34 1 0 0 
SMALL
USER_CHARGES


@<TRIPOS>ATOM
  1 O       -6.3880     3.0870    -0.1770 O.3   1 <1>  -0.3630 
  2 C       -7.6480     2.6570     0.0850 C.ar  1 <1>   0.0830 
  3 C       -6.0190     4.4320     0.0230 C.3   1 <1>   0.1200 
  4 C       -7.9060     1.3150    -0.1340 C.ar  1 <1>  -0.1500 
  5 C       -8.6670     3.4830     0.5530 C.ar  1 <1>  -0.1500 
  6 C       -4.5480     4.5770    -0.3510 C.3   1 <1>   0.0960 
  7 C       -9.1620     0.7850     0.1060 C.ar  1 <1>   0.0830 
  8 C       -9.9250     2.9590     0.7950 C.ar  1 <1>  -0.1500 
  9 N       -4.1200     5.9690    -0.1330 N.pl3 1 <1>   0.0480 
 10 O       -9.3220    -0.5400    -0.1370 O.3   1 <1>  -0.3630 
 11 C      -10.1770     1.6150     0.5740 C.ar  1 <1>  -0.1500 
 12 C       -3.5640     6.5010     0.9790 C.2   1 <1>   0.0360 
 13 C       -4.2280     7.0020    -0.9870 C.2   1 <1>  -0.3020 
 14 C      -10.5580    -1.1800     0.0730 C.3   1 <1>   0.1200 
 15 N       -3.3190     7.7670     0.8900 N.2   1 <1>  -0.5650 
 16 C       -3.7350     8.0860    -0.3490 C.2   1 <1>   0.0770 
 17 C      -10.3950    -2.6520    -0.2940 C.3   1 <1>  -0.2400 
 18 H       -6.1740     4.6740     1.0600 H     1 <1>   0.0800 
 19 H       -6.6340     5.0490    -0.6100 H     1 <1>   0.0800 
 20 H       -7.1240     0.6740    -0.4950 H     1 <1>   0.1500 
 21 H       -8.5050     4.5280     0.7350 H     1 <1>   0.1500 
 22 H       -4.4030     4.3280    -1.3860 H     1 <1>   0.0800 
 23 H       -3.9470     3.9290     0.2610 H     1 <1>   0.0800 
 24 H      -10.7120     3.5980     1.1570 H     1 <1>   0.1500 
 25 H      -11.1620     1.2370     0.7710 H     1 <1>   0.1500 
 26 H       -3.3520     5.9080     1.8520 H     1 <1>   0.1500 
 27 H       -4.6370     6.9180    -1.9780 H     1 <1>   0.1500 
 28 H      -11.2960    -0.7110    -0.5550 H     1 <1>   0.0800 
 29 H      -10.8250    -1.0740     1.1100 H     1 <1>   0.0800 
 30 H       -3.6570     9.0940    -0.7210 H     1 <1>   0.1500 
 31 H      -10.1110    -2.7450    -1.3270 H     1 <1>   0.0800 
 32 H      -11.3240    -3.1710    -0.1440 H     1 <1>   0.0800 
 33 H       -9.6430    -3.1060     0.3270 H     1 <1>   0.0800 
@<TRIPOS>BOND
  1   1   2  1   
  2   1   3  1   
  3   2   4  ar  
  4   2   5  ar  
  5   3   6  1   
  6   3  18  1   
  7   3  19  1   
  8   4   7  ar  
  9   4  20  1   
 10   5   8  ar  
 11   5  21  1   
 12   6   9  1   
 13   6  22  1   
 14   6  23  1   
 15   7  10  1   
 16   7  11  ar  
 17   8  11  ar  
 18   8  24  1   
 19   9  12  1   
 20   9  13  1   
 21  10  14  1   
 22  11  25  1   
 23  12  15  2   
 24  12  26  1   
 25  13  16  2   
 26  13  27  1   
 27  14  17  1   
 28  14  28  1   
 29  14  29  1   
 30  15  16  1   
 31  16  30  1   
 32  17  31  1   
 33  17  32  1   
 34  17  33  1   
@<TRIPOS>SUBSTRUCTURE
  1 ****   1 GROUP 4 **** **** 0

# MOE 2024.06 (io_trps.svl 2023.06)
