@<TRIPOS>MOLECULE
NONAME
42 43 1 0 0 
SMALL
USER_CHARGES


@<TRIPOS>ATOM
  1 S        0.9230    -0.4670     1.0610 S.o2  1 <1>   1.4470 
  2 O        1.3360    -0.3340     2.4410 O.2   1 <1>  -0.6500 
  3 O        0.6850     0.7160     0.2690 O.2   1 <1>  -0.6500 
  4 N        2.1430    -1.3010     0.2650 N.am  1 <1>  -0.9140 
  5 C       -0.4880    -1.6050     0.9590 C.ar  1 <1>  -0.0090 
  6 C        3.4950    -0.8860     0.6320 C.3   1 <1>   0.1960 
  7 C       -1.4720    -1.4680    -0.0080 C.ar  1 <1>  -0.1500 
  8 C       -0.6030    -2.6660     1.8450 C.ar  1 <1>  -0.1500 
  9 C        3.8550     0.4590    -0.0230 C.3   1 <1>   0.2000 
 10 C       -2.5670    -2.3320    -0.1250 C.ar  1 <1>   0.0860 
 11 C       -1.6640    -3.5460     1.7700 C.ar  1 <1>  -0.1500 
 12 O        3.5590     0.4050    -1.3820 O.3   1 <1>  -0.5600 
 13 C        5.3330     0.8200     0.0210 C.3   1 <1>  -0.1600 
 14 C       -2.6480    -3.3930     0.7950 C.ar  1 <1>   0.0830 
 15 C       -3.5430    -2.0830    -1.1800 C.2   1 <1>   0.5440 
 16 C        4.2450     1.4160    -2.0450 C.3   1 <1>   0.1200 
 17 C        5.5160     1.6640    -1.2330 C.3   1 <1>  -0.1600 
 18 O       -3.6870    -4.2640     0.7180 O.3   1 <1>  -0.3630 
 19 O       -3.2500    -1.3890    -2.1360 O.2   1 <1>  -0.5700 
 20 N       -4.8110    -2.5930    -1.1330 N.am  1 <1>  -0.7300 
 21 C       -3.7980    -5.4170     1.5270 C.3   1 <1>   0.0400 
 22 C       -5.8820    -2.4000    -2.1410 C.3   1 <1>   0.0600 
 23 H        2.0590    -0.9780    -0.7060 H     1 <1>   0.4200 
 24 H        4.1850    -1.6310     0.2740 H     1 <1>   0.0800 
 25 H        3.6090    -0.8290     1.7010 H     1 <1>   0.0800 
 26 H       -1.3890    -0.6490    -0.7040 H     1 <1>   0.1500 
 27 H        0.1510    -2.8000     2.6040 H     1 <1>   0.1500 
 28 H        3.2720     1.2570     0.4080 H     1 <1>   0.0800 
 29 H       -1.7010    -4.3450     2.4850 H     1 <1>   0.1500 
 30 H        5.9340    -0.0700    -0.0430 H     1 <1>   0.0800 
 31 H        5.5830     1.3560     0.9200 H     1 <1>   0.0800 
 32 H        3.6160     2.2900    -2.0620 H     1 <1>   0.0800 
 33 H        4.4550     1.0910    -3.0490 H     1 <1>   0.0800 
 34 H        6.3880     1.3610    -1.7850 H     1 <1>   0.0800 
 35 H        5.5980     2.7100    -0.9950 H     1 <1>   0.0800 
 36 H       -4.9940    -3.2760    -0.3880 H     1 <1>   0.3700 
 37 H       -4.6820    -5.9510     1.2300 H     1 <1>   0.0800 
 38 H       -3.8840    -5.1160     2.5570 H     1 <1>   0.0800 
 39 H       -2.9310    -6.0360     1.3760 H     1 <1>   0.0800 
 40 H       -5.5840    -1.6640    -2.8690 H     1 <1>   0.0800 
 41 H       -6.7810    -2.0640    -1.6560 H     1 <1>   0.0800 
 42 H       -6.0750    -3.3300    -2.6480 H     1 <1>   0.0800 
@<TRIPOS>BOND
  1   1   2  2   
  2   1   3  2   
  3   1   4  am  
  4   1   5  1   
  5   4   6  1   
  6   4  23  1   
  7   5   7  ar  
  8   5   8  ar  
  9   6   9  1   
 10   6  24  1   
 11   6  25  1   
 12   7  10  ar  
 13   7  26  1   
 14   8  11  ar  
 15   8  27  1   
 16   9  12  1   
 17   9  13  1   
 18   9  28  1   
 19  10  14  ar  
 20  10  15  1   
 21  11  14  ar  
 22  11  29  1   
 23  12  16  1   
 24  13  17  1   
 25  13  30  1   
 26  13  31  1   
 27  14  18  1   
 28  15  19  2   
 29  15  20  am  
 30  16  17  1   
 31  16  32  1   
 32  16  33  1   
 33  17  34  1   
 34  17  35  1   
 35  18  21  1   
 36  20  22  1   
 37  20  36  1   
 38  21  37  1   
 39  21  38  1   
 40  21  39  1   
 41  22  40  1   
 42  22  41  1   
 43  22  42  1   
@<TRIPOS>SUBSTRUCTURE
  1 ****   5 GROUP 4 **** **** 0

# MOE 2024.06 (io_trps.svl 2023.06)
