@<TRIPOS>MOLECULE
NONAME
40 42 1 0 0 
SMALL
USER_CHARGES


@<TRIPOS>ATOM
  1 O      -11.8590    -0.0950     0.3890 O.3   1 <1>  -0.3630 
  2 C      -13.0890    -0.6710     0.3970 C.ar  1 <1>   0.0830 
  3 C      -10.7990    -0.8610    -0.1430 C.3   1 <1>   0.2000 
  4 C      -13.2390    -2.0460     0.2020 C.ar  1 <1>   0.0820 
  5 C      -14.2030     0.1250     0.5980 C.ar  1 <1>  -0.1500 
  6 C      -10.9030    -2.3070     0.3780 C.3   1 <1>   0.1200 
  7 C       -9.4970    -0.1550     0.2610 C.3   1 <1>   0.3430 
  8 O      -12.1570    -2.8480     0.0280 O.3   1 <1>  -0.3630 
  9 C      -14.5030    -2.6090     0.1890 C.ar  1 <1>  -0.1500 
 10 C      -15.4660    -0.4440     0.5900 C.ar  1 <1>  -0.1500 
 11 N       -8.2770    -0.7200    -0.4070 N.4   1 <1>  -0.9060 
 12 C      -15.6160    -1.8070     0.3830 C.ar  1 <1>  -0.1500 
 13 C       -7.0510     0.0340    -0.0190 C.3   1 <1>   0.3430 
 14 C       -5.8150    -0.5390    -0.7100 C.3   1 <1>  -0.0170 
 15 C       -4.6080     0.2610    -0.2660 C.ar  1 <1>  -0.1430 
 16 C       -3.8890    -0.1230     0.8560 C.ar  1 <1>  -0.1500 
 17 C       -4.2210     1.3920    -0.9690 C.ar  1 <1>  -0.1500 
 18 C       -2.8000     0.6200     1.2740 C.ar  1 <1>  -0.1500 
 19 C       -3.1310     2.1350    -0.5500 C.ar  1 <1>  -0.1500 
 20 C       -2.4210     1.7500     0.5720 C.ar  1 <1>  -0.1500 
 21 H      -10.9100    -0.8470    -1.2130 H     1 <1>   0.0800 
 22 H      -14.0850     1.1820     0.7560 H     1 <1>   0.1500 
 23 H      -10.8200    -2.3360     1.4510 H     1 <1>   0.0800 
 24 H      -10.1510    -2.9400    -0.0560 H     1 <1>   0.0800 
 25 H       -9.3890    -0.2230     1.3320 H     1 <1>   0.0800 
 26 H       -9.5920     0.8870     0.0000 H     1 <1>   0.0800 
 27 H      -14.6120    -3.6670     0.0310 H     1 <1>   0.1500 
 28 H      -16.3350     0.1730     0.7440 H     1 <1>   0.1500 
 29 H       -8.3860    -0.6700    -1.4300 H     1 <1>   0.4500 
 30 H       -8.1520    -1.7100    -0.1610 H     1 <1>   0.4500 
 31 H      -16.6000    -2.2440     0.3750 H     1 <1>   0.1500 
 32 H       -6.9070    -0.0170     1.0490 H     1 <1>   0.0800 
 33 H       -7.1520     1.0730    -0.2910 H     1 <1>   0.0800 
 34 H       -5.9130    -0.4700    -1.7800 H     1 <1>   0.0800 
 35 H       -5.6750    -1.5720    -0.4420 H     1 <1>   0.0800 
 36 H       -4.1600    -1.0020     1.4160 H     1 <1>   0.1500 
 37 H       -4.7540     1.7080    -1.8490 H     1 <1>   0.1500 
 38 H       -2.2410     0.3200     2.1450 H     1 <1>   0.1500 
 39 H       -2.8310     3.0120    -1.0980 H     1 <1>   0.1500 
 40 H       -1.5730     2.3280     0.8970 H     1 <1>   0.1500 
@<TRIPOS>BOND
  1   1   2  1   
  2   1   3  1   
  3   2   4  ar  
  4   2   5  ar  
  5   3   6  1   
  6   3   7  1   
  7   3  21  1   
  8   4   8  1   
  9   4   9  ar  
 10   5  10  ar  
 11   5  22  1   
 12   6   8  1   
 13   6  23  1   
 14   6  24  1   
 15   7  11  1   
 16   7  25  1   
 17   7  26  1   
 18   9  12  ar  
 19   9  27  1   
 20  10  12  ar  
 21  10  28  1   
 22  11  13  1   
 23  11  29  1   
 24  11  30  1   
 25  12  31  1   
 26  13  14  1   
 27  13  32  1   
 28  13  33  1   
 29  14  15  1   
 30  14  34  1   
 31  14  35  1   
 32  15  16  ar  
 33  15  17  ar  
 34  16  18  ar  
 35  16  36  1   
 36  17  19  ar  
 37  17  37  1   
 38  18  20  ar  
 39  18  38  1   
 40  19  20  ar  
 41  19  39  1   
 42  20  40  1   
@<TRIPOS>SUBSTRUCTURE
  1 ****   7 GROUP 4 **** **** 0

# MOE 2024.06 (io_trps.svl 2023.06)
