@<TRIPOS>MOLECULE
NONAME
45 47 1 0 0 
SMALL
USER_CHARGES


@<TRIPOS>ATOM
  1 O        0.0720    -0.4910     0.6430 O.2   1 <1>  -0.5700 
  2 C       -0.3610    -1.6150     0.6790 C.2   1 <1>   0.5690 
  3 N        0.3660    -2.7740     0.5860 N.am  1 <1>  -0.2370 
  4 C       -1.8400    -1.8950     0.8500 C.3   1 <1>  -0.0190 
  5 C        1.7680    -2.8400     0.4070 C.ar  1 <1>   0.1170 
  6 C       -0.4680    -3.8570     0.6930 C.2   1 <1>   0.5690 
  7 C       -1.9140    -3.4360     0.8520 C.3   1 <1>  -0.0190 
  8 C       -2.6920    -1.1980    -0.2250 C.3   1 <1>  -0.0220 
  9 C        2.5500    -3.6920     1.1790 C.ar  1 <1>  -0.1500 
 10 C        2.4040    -2.0540    -0.5480 C.ar  1 <1>  -0.1500 
 11 O       -0.1420    -5.0180     0.6800 O.2   1 <1>  -0.5700 
 12 C       -2.8200    -4.0500    -0.2290 C.3   1 <1>  -0.0220 
 13 C       -4.0360    -1.8960    -0.3880 C.2   1 <1>  -0.2760 
 14 C        3.9210    -3.7570     1.0020 C.ar  1 <1>  -0.1500 
 15 C        3.7740    -2.1170    -0.7250 C.ar  1 <1>  -0.1500 
 16 C       -4.0960    -3.2350    -0.3900 C.2   1 <1>  -0.2760 
 17 C       -5.1900    -0.9170    -0.5660 C.3   1 <1>  -0.1020 
 18 C        4.5490    -2.9700     0.0480 C.ar  1 <1>  -0.1430 
 19 C       -5.3330    -4.1060    -0.5710 C.3   1 <1>  -0.1020 
 20 C        6.0630    -3.0530    -0.1330 C.3   1 <1>   0.0630 
 21 C        6.7240    -1.7040     0.1670 C.3   1 <1>  -0.2400 
 22 C        6.4190    -3.5320    -1.5440 C.3   1 <1>  -0.2400 
 23 H       -2.1450    -1.5330     1.8150 H     1 <1>   0.0800 
 24 H       -2.2600    -3.7640     1.8150 H     1 <1>   0.0800 
 25 H       -2.1850    -1.2140    -1.1750 H     1 <1>   0.0800 
 26 H       -2.8200    -0.1670     0.0570 H     1 <1>   0.0800 
 27 H        2.0860    -4.3150     1.9220 H     1 <1>   0.1500 
 28 H        1.8260    -1.3820    -1.1570 H     1 <1>   0.1500 
 29 H       -3.0400    -5.0670     0.0480 H     1 <1>   0.0800 
 30 H       -2.3110    -4.0760    -1.1770 H     1 <1>   0.0800 
 31 H        4.4970    -4.4280     1.6150 H     1 <1>   0.1500 
 32 H        4.2360    -1.4950    -1.4710 H     1 <1>   0.1500 
 33 H       -5.0110    -0.2930    -1.4230 H     1 <1>   0.0800 
 34 H       -5.2760    -0.2900     0.3040 H     1 <1>   0.0800 
 35 H       -6.1310    -1.4090    -0.7090 H     1 <1>   0.0800 
 36 H       -5.4750    -4.7260     0.2970 H     1 <1>   0.0800 
 37 H       -5.2100    -4.7410    -1.4300 H     1 <1>   0.0800 
 38 H       -6.2260    -3.5310    -0.7130 H     1 <1>   0.0800 
 39 H        6.4560    -3.7720     0.5650 H     1 <1>   0.0800 
 40 H        6.4050    -0.9560    -0.5350 H     1 <1>   0.0800 
 41 H        7.7940    -1.7930     0.1110 H     1 <1>   0.0800 
 42 H        6.4580    -1.3800     1.1570 H     1 <1>   0.0800 
 43 H        6.0930    -2.8230    -2.2840 H     1 <1>   0.0800 
 44 H        5.9410    -4.4760    -1.7400 H     1 <1>   0.0800 
 45 H        7.4820    -3.6610    -1.6370 H     1 <1>   0.0800 
@<TRIPOS>BOND
  1   1   2  2   
  2   2   3  am  
  3   2   4  1   
  4   3   5  1   
  5   3   6  am  
  6   4   7  1   
  7   4   8  1   
  8   4  23  1   
  9   5   9  ar  
 10   5  10  ar  
 11   6   7  1   
 12   6  11  2   
 13   7  12  1   
 14   7  24  1   
 15   8  13  1   
 16   8  25  1   
 17   8  26  1   
 18   9  14  ar  
 19   9  27  1   
 20  10  15  ar  
 21  10  28  1   
 22  12  16  1   
 23  12  29  1   
 24  12  30  1   
 25  13  16  2   
 26  13  17  1   
 27  14  18  ar  
 28  14  31  1   
 29  15  18  ar  
 30  15  32  1   
 31  16  19  1   
 32  17  33  1   
 33  17  34  1   
 34  17  35  1   
 35  18  20  1   
 36  19  36  1   
 37  19  37  1   
 38  19  38  1   
 39  20  21  1   
 40  20  22  1   
 41  20  39  1   
 42  21  40  1   
 43  21  41  1   
 44  21  42  1   
 45  22  43  1   
 46  22  44  1   
 47  22  45  1   
@<TRIPOS>SUBSTRUCTURE
  1 ****   3 GROUP 4 **** **** 0

# MOE 2024.06 (io_trps.svl 2023.06)
