@<TRIPOS>MOLECULE
NONAME
42 43 1 0 0 
SMALL
USER_CHARGES


@<TRIPOS>ATOM
  1 S       -0.7340     0.2380    -1.4190 S.o2  1 <1>   1.4470 
  2 O        0.3910    -0.6560    -1.5970 O.2   1 <1>  -0.6500 
  3 O       -1.2520     0.9350    -2.5780 O.2   1 <1>  -0.6500 
  4 N       -0.2710     1.4440    -0.3190 N.am  1 <1>  -0.8490 
  5 C       -2.0840    -0.6440    -0.5610 C.ar  1 <1>  -0.0090 
  6 C        1.0390     1.9950    -0.6810 C.3   1 <1>   0.1960 
  7 C       -1.3090     2.4730    -0.1830 C.3   1 <1>   0.1960 
  8 C       -1.9030    -1.3400     0.6370 C.ar  1 <1>  -0.1440 
  9 C       -3.3620    -0.6190    -1.1070 C.ar  1 <1>  -0.1500 
 10 C        1.6280     2.9310     0.3840 C.3   1 <1>  -0.1600 
 11 C       -1.2290     3.1330     1.1960 C.3   1 <1>  -0.1600 
 12 C       -2.9770    -1.9750     1.2390 C.ar  1 <1>  -0.1500 
 13 C       -0.5420    -1.4320     1.3190 C.3   1 <1>  -0.0970 
 14 C       -4.4620    -1.2470    -0.5220 C.ar  1 <1>   0.0860 
 15 C        0.9580     4.3120     0.4220 C.3   1 <1>  -0.1600 
 16 C       -0.3160     4.3670     1.2760 C.3   1 <1>  -0.1600 
 17 C       -4.2340    -1.9290     0.6700 C.ar  1 <1>  -0.1500 
 18 C       -5.7780    -1.1820    -1.1350 C.2   1 <1>   0.6340 
 19 O       -6.0120    -0.5400    -2.1370 O.2   1 <1>  -0.5700 
 20 O       -6.7760    -1.8610    -0.5580 O.3   1 <1>  -0.4300 
 21 C       -8.0870    -1.8530    -1.0890 C.3   1 <1>   0.0400 
 22 H        0.9740     2.5030    -1.6300 H     1 <1>   0.0800 
 23 H        1.7360     1.1820    -0.8000 H     1 <1>   0.0800 
 24 H       -2.2790     2.0090    -0.2530 H     1 <1>   0.0800 
 25 H       -1.2440     3.1990    -0.9770 H     1 <1>   0.0800 
 26 H       -3.5190    -0.0880    -2.0330 H     1 <1>   0.1500 
 27 H        2.6620     3.0800     0.1300 H     1 <1>   0.0800 
 28 H        1.6050     2.4580     1.3500 H     1 <1>   0.0800 
 29 H       -0.9140     2.3960     1.9150 H     1 <1>   0.0800 
 30 H       -2.2190     3.4420     1.4820 H     1 <1>   0.0800 
 31 H       -2.8420    -2.5150     2.1610 H     1 <1>   0.1500 
 32 H        0.1700    -1.9120     0.6710 H     1 <1>   0.0800 
 33 H       -0.5990    -2.0050     2.2260 H     1 <1>   0.0800 
 34 H       -0.1790    -0.4520     1.5710 H     1 <1>   0.0800 
 35 H        0.7330     4.6260    -0.5830 H     1 <1>   0.0800 
 36 H        1.6560     5.0260     0.8230 H     1 <1>   0.0800 
 37 H       -0.0380     4.5080     2.3070 H     1 <1>   0.0800 
 38 H       -0.8760     5.2370     0.9800 H     1 <1>   0.0800 
 39 H       -5.0490    -2.4320     1.1620 H     1 <1>   0.1500 
 40 H       -8.7120    -2.4640    -0.4640 H     1 <1>   0.0800 
 41 H       -8.0590    -2.2510    -2.0890 H     1 <1>   0.0800 
 42 H       -8.4500    -0.8400    -1.1020 H     1 <1>   0.0800 
@<TRIPOS>BOND
  1   1   2  2   
  2   1   3  2   
  3   1   4  am  
  4   1   5  1   
  5   4   6  1   
  6   4   7  1   
  7   5   8  ar  
  8   5   9  ar  
  9   6  10  1   
 10   6  22  1   
 11   6  23  1   
 12   7  11  1   
 13   7  24  1   
 14   7  25  1   
 15   8  12  ar  
 16   8  13  1   
 17   9  14  ar  
 18   9  26  1   
 19  10  15  1   
 20  10  27  1   
 21  10  28  1   
 22  11  16  1   
 23  11  29  1   
 24  11  30  1   
 25  12  17  ar  
 26  12  31  1   
 27  13  32  1   
 28  13  33  1   
 29  13  34  1   
 30  14  17  ar  
 31  14  18  1   
 32  15  16  1   
 33  15  35  1   
 34  15  36  1   
 35  16  37  1   
 36  16  38  1   
 37  17  39  1   
 38  18  19  2   
 39  18  20  1   
 40  20  21  1   
 41  21  40  1   
 42  21  41  1   
 43  21  42  1   
@<TRIPOS>SUBSTRUCTURE
  1 ****   5 GROUP 4 **** **** 0

# MOE 2024.06 (io_trps.svl 2023.06)
