@<TRIPOS>MOLECULE
NONAME
49 51 1 0 0 
SMALL
USER_CHARGES


@<TRIPOS>ATOM
  1 S        0.2780    -0.2330    -0.4000 S.3   1 <1>  -0.0800 
  2 C        0.3050     1.5070    -0.1360 C.2   1 <1>   0.1040 
  3 C       -1.4510    -0.2920    -0.1340 C.2   1 <1>  -0.1400 
  4 N        1.5180     2.1850    -0.1470 N.am  1 <1>  -0.4940 
  5 C       -0.9530     1.9780     0.1210 C.2   1 <1>  -0.0860 
  6 C       -1.9380     0.9250     0.1400 C.2   1 <1>  -0.1810 
  7 C       -2.1980    -1.6040    -0.2220 C.3   1 <1>   0.0200 
  8 C        2.7350     1.7960    -0.6530 C.2   1 <1>   0.5690 
  9 C       -1.2660     3.3610     0.3340 C.2   1 <1>   0.7160 
 10 C       -3.4190     1.1300     0.4300 C.3   1 <1>   0.0210 
 11 C       -3.7120    -1.3170    -0.2990 C.3   1 <1>  -0.0800 
 12 O        2.8700     0.9440    -1.4970 O.2   1 <1>  -0.5700 
 13 C        4.0230     2.4490    -0.1240 C.3   1 <1>   0.4040 
 14 O       -1.8800     3.7620     1.2980 O.2   1 <1>  -0.5700 
 15 N       -0.8550     4.2980    -0.5470 N.am  1 <1>  -0.8000 
 16 C       -4.1260    -0.2150     0.7010 C.3   1 <1>  -0.1600 
 17 C       -4.5210    -2.5990    -0.0610 C.3   1 <1>  -0.2400 
 18 N        5.2120     1.5140    -0.1650 N.4   1 <1>  -0.9590 
 19 C        5.0330     0.3500     0.7550 C.3   1 <1>   0.3430 
 20 C        6.5100     2.2170     0.0360 C.3   1 <1>   0.3430 
 21 C        6.1680    -0.6520     0.5420 C.3   1 <1>  -0.1600 
 22 C        7.6650     1.2390    -0.1890 C.3   1 <1>  -0.1600 
 23 C        7.5460     0.0010     0.7090 C.3   1 <1>  -0.1600 
 24 H        1.4700     3.1020     0.3030 H     1 <1>   0.3700 
 25 H       -1.9670    -2.1900     0.6490 H     1 <1>   0.0800 
 26 H       -1.8840    -2.1480    -1.0960 H     1 <1>   0.0800 
 27 H       -3.8740     1.6150    -0.4150 H     1 <1>   0.0800 
 28 H       -3.5450     1.7650     1.2900 H     1 <1>   0.0800 
 29 H       -3.9310    -0.9610    -1.2920 H     1 <1>   0.0800 
 30 H        3.8600     2.7820     0.8860 H     1 <1>   0.0800 
 31 H        4.2270     3.3100    -0.7360 H     1 <1>   0.0800 
 32 H       -1.2340     5.2380    -0.4210 H     1 <1>   0.3700 
 33 H       -0.6540     4.0350    -1.5120 H     1 <1>   0.3700 
 34 H       -5.1900    -0.0630     0.6630 H     1 <1>   0.0800 
 35 H       -3.8770    -0.5390     1.6970 H     1 <1>   0.0800 
 36 H       -4.3440    -2.9810     0.9290 H     1 <1>   0.0800 
 37 H       -4.2440    -3.3530    -0.7760 H     1 <1>   0.0800 
 38 H       -5.5730    -2.4010    -0.1690 H     1 <1>   0.0800 
 39 H        5.2040     1.1050    -1.1160 H     1 <1>   0.4500 
 40 H        4.0900    -0.1370     0.5590 H     1 <1>   0.0800 
 41 H        5.0380     0.6860     1.7800 H     1 <1>   0.0800 
 42 H        6.5620     2.6080     1.0400 H     1 <1>   0.0800 
 43 H        6.5990     3.0400    -0.6560 H     1 <1>   0.0800 
 44 H        6.0810    -1.0820    -0.4410 H     1 <1>   0.0800 
 45 H        6.0650    -1.4550     1.2510 H     1 <1>   0.0800 
 46 H        8.5950     1.7400     0.0180 H     1 <1>   0.0800 
 47 H        7.6840     0.9420    -1.2230 H     1 <1>   0.0800 
 48 H        8.3180    -0.7080     0.4570 H     1 <1>   0.0800 
 49 H        7.6880     0.2860     1.7380 H     1 <1>   0.0800 
@<TRIPOS>BOND
  1   1   2  1   
  2   1   3  1   
  3   2   4  1   
  4   2   5  2   
  5   3   6  2   
  6   3   7  1   
  7   4   8  am  
  8   4  24  1   
  9   5   6  1   
 10   5   9  1   
 11   6  10  1   
 12   7  11  1   
 13   7  25  1   
 14   7  26  1   
 15   8  12  2   
 16   8  13  1   
 17   9  14  2   
 18   9  15  am  
 19  10  16  1   
 20  10  27  1   
 21  10  28  1   
 22  11  16  1   
 23  11  17  1   
 24  11  29  1   
 25  13  18  1   
 26  13  30  1   
 27  13  31  1   
 28  15  32  1   
 29  15  33  1   
 30  16  34  1   
 31  16  35  1   
 32  17  36  1   
 33  17  37  1   
 34  17  38  1   
 35  18  19  1   
 36  18  20  1   
 37  18  39  1   
 38  19  21  1   
 39  19  40  1   
 40  19  41  1   
 41  20  22  1   
 42  20  42  1   
 43  20  43  1   
 44  21  23  1   
 45  21  44  1   
 46  21  45  1   
 47  22  23  1   
 48  22  46  1   
 49  22  47  1   
 50  23  48  1   
 51  23  49  1   
@<TRIPOS>SUBSTRUCTURE
  1 ****   2 GROUP 4 **** **** 0

# MOE 2024.06 (io_trps.svl 2023.06)
