@<TRIPOS>MOLECULE
NONAME
42 43 1 0 0 
SMALL
USER_CHARGES


@<TRIPOS>ATOM
  1 O        6.2370    -3.1700    -0.4360 O.3   1 <1>  -0.3630 
  2 C        6.4810    -4.3980     0.1150 C.ar  1 <1>   0.0820 
  3 C        7.1260    -2.0960    -0.2070 C.3   1 <1>   0.1200 
  4 C        7.7540    -4.9830     0.2060 C.ar  1 <1>   0.0820 
  5 C        5.3670    -5.0870     0.5840 C.ar  1 <1>  -0.1440 
  6 C        6.3400    -0.7950    -0.3420 C.3   1 <1>  -0.2400 
  7 O        8.8320    -4.3290    -0.3140 O.3   1 <1>  -0.3630 
  8 C        7.8810    -6.2350     0.8040 C.ar  1 <1>  -0.1500 
  9 C        5.5130    -6.3350     1.1700 C.ar  1 <1>  -0.1500 
 10 C        3.9910    -4.4750     0.4530 C.3   1 <1>   0.4860 
 11 C       10.1330    -4.8770    -0.2860 C.3   1 <1>   0.0400 
 12 C        6.7680    -6.9020     1.2830 C.ar  1 <1>  -0.1500 
 13 N        3.7370    -4.3020    -0.9900 N.4   1 <1>  -0.9060 
 14 C        2.4820    -3.5890    -1.3040 C.3   1 <1>   0.4860 
 15 C        1.3270    -4.3680    -0.7060 C.ar  1 <1>  -0.1430 
 16 C        0.6910    -3.9040     0.4370 C.ar  1 <1>  -0.1500 
 17 C        0.9040    -5.5550    -1.2890 C.ar  1 <1>  -0.1500 
 18 C       -0.3470    -4.6250     0.9980 C.ar  1 <1>  -0.1500 
 19 C       -0.1350    -6.2750    -0.7260 C.ar  1 <1>  -0.1500 
 20 C       -0.7590    -5.8120     0.4190 C.ar  1 <1>  -0.1500 
 21 H        7.9120    -2.1400    -0.9410 H     1 <1>   0.0800 
 22 H        7.5430    -2.1910     0.7820 H     1 <1>   0.0800 
 23 H        5.9280    -0.7070    -1.3310 H     1 <1>   0.0800 
 24 H        7.0000     0.0380    -0.1760 H     1 <1>   0.0800 
 25 H        5.5540    -0.7530     0.3900 H     1 <1>   0.0800 
 26 H        8.8360    -6.7140     0.9050 H     1 <1>   0.1500 
 27 H        4.6620    -6.8780     1.5470 H     1 <1>   0.1500 
 28 H        3.9750    -3.5200     0.9540 H     1 <1>   0.0800 
 29 H        3.2460    -5.1170     0.8960 H     1 <1>   0.0800 
 30 H       10.8000    -4.1800    -0.7610 H     1 <1>   0.0800 
 31 H       10.1340    -5.8070    -0.8260 H     1 <1>   0.0800 
 32 H       10.4300    -5.0230     0.7380 H     1 <1>   0.0800 
 33 H        6.8830    -7.8700     1.7440 H     1 <1>   0.1500 
 34 H        3.7430    -5.2300    -1.4220 H     1 <1>   0.4500 
 35 H        4.5630    -3.7940    -1.3470 H     1 <1>   0.4500 
 36 H        2.3530    -3.5130    -2.3720 H     1 <1>   0.0800 
 37 H        2.5050    -2.5940    -0.8910 H     1 <1>   0.0800 
 38 H        0.9880    -2.9790     0.9040 H     1 <1>   0.1500 
 39 H        1.3660    -5.9340    -2.1850 H     1 <1>   0.1500 
 40 H       -0.8430    -4.2650     1.8850 H     1 <1>   0.1500 
 41 H       -0.4660    -7.1960    -1.1770 H     1 <1>   0.1500 
 42 H       -1.5690    -6.3720     0.8550 H     1 <1>   0.1500 
@<TRIPOS>BOND
  1   1   2  1   
  2   1   3  1   
  3   2   4  ar  
  4   2   5  ar  
  5   3   6  1   
  6   3  21  1   
  7   3  22  1   
  8   4   7  1   
  9   4   8  ar  
 10   5   9  ar  
 11   5  10  1   
 12   6  23  1   
 13   6  24  1   
 14   6  25  1   
 15   7  11  1   
 16   8  12  ar  
 17   8  26  1   
 18   9  12  ar  
 19   9  27  1   
 20  10  13  1   
 21  10  28  1   
 22  10  29  1   
 23  11  30  1   
 24  11  31  1   
 25  11  32  1   
 26  12  33  1   
 27  13  14  1   
 28  13  34  1   
 29  13  35  1   
 30  14  15  1   
 31  14  36  1   
 32  14  37  1   
 33  15  16  ar  
 34  15  17  ar  
 35  16  18  ar  
 36  16  38  1   
 37  17  19  ar  
 38  17  39  1   
 39  18  20  ar  
 40  18  40  1   
 41  19  20  ar  
 42  19  41  1   
 43  20  42  1   
@<TRIPOS>SUBSTRUCTURE
  1 ****  10 GROUP 4 **** **** 0

# MOE 2024.06 (io_trps.svl 2023.06)
