@<TRIPOS>MOLECULE
NONAME
49 52 1 0 0 
SMALL
USER_CHARGES


@<TRIPOS>ATOM
  1 S        0.0840    -0.1340    -1.4460 S.3   1 <1>  -0.0800 
  2 C       -1.0930    -1.3770    -1.0010 C.2   1 <1>  -0.0450 
  3 C        1.4330    -1.2270    -1.2310 C.2   1 <1>  -0.1100 
  4 C       -2.4960    -1.0450    -0.9930 C.2   1 <1>   0.7150 
  5 C       -0.4200    -2.5250    -0.7200 C.2   1 <1>  -0.1500 
  6 C        0.9980    -2.4400    -0.8490 C.2   1 <1>  -0.1500 
  7 O       -2.8910     0.0690    -1.2840 O.2   1 <1>  -0.5700 
  8 N       -3.3860    -2.0230    -0.6450 N.am  1 <1>  -0.5470 
  9 C       -4.7830    -2.1060    -0.5180 C.ar  1 <1>   0.1170 
 10 C       -5.2880    -3.3530    -0.1220 C.ar  1 <1>   0.1000 
 11 C       -5.6580    -1.0560    -0.7550 C.ar  1 <1>  -0.1500 
 12 N       -4.4010    -4.4230     0.1200 N.pl3 1 <1>  -0.8380 
 13 C       -6.6590    -3.5080     0.0240 C.ar  1 <1>  -0.1500 
 14 C       -7.0220    -1.2320    -0.6040 C.ar  1 <1>  -0.1500 
 15 C       -4.3740    -4.8990     1.5370 C.3   1 <1>   0.2090 
 16 C       -4.5480    -5.5760    -0.8190 C.3   1 <1>   0.2090 
 17 C       -7.5360    -2.4620    -0.2120 C.ar  1 <1>   0.1000 
 18 C       -3.3250    -6.0110     1.7230 C.3   1 <1>   0.1200 
 19 C       -3.4910    -6.6580    -0.5290 C.3   1 <1>   0.1200 
 20 N       -8.9050    -2.6700    -0.0510 N.pl3 1 <1>  -0.8380 
 21 O       -3.5350    -7.0570     0.8140 O.3   1 <1>  -0.5600 
 22 C       -9.7180    -2.5850    -1.3010 C.3   1 <1>   0.2090 
 23 C       -9.5440    -1.9050     1.0610 C.3   1 <1>   0.2090 
 24 C      -11.1890    -2.9460    -1.0250 C.3   1 <1>   0.1200 
 25 C      -11.0230    -2.2990     1.2200 C.3   1 <1>   0.1200 
 26 O      -11.7160    -2.1590     0.0090 O.3   1 <1>  -0.5600 
 27 H        2.4200    -0.8400    -1.4160 H     1 <1>   0.1500 
 28 H       -0.8780    -3.4500    -0.4190 H     1 <1>   0.1500 
 29 H        1.6280    -3.2900    -0.6510 H     1 <1>   0.1500 
 30 H       -2.9830    -2.9320    -0.4130 H     1 <1>   0.3700 
 31 H       -5.2850    -0.0950    -1.0590 H     1 <1>   0.1500 
 32 H       -7.0670    -4.4520     0.3260 H     1 <1>   0.1500 
 33 H       -7.6900    -0.4130    -0.7900 H     1 <1>   0.1500 
 34 H       -5.3420    -5.2780     1.8160 H     1 <1>   0.0800 
 35 H       -4.1400    -4.0720     2.1850 H     1 <1>   0.0800 
 36 H       -4.4370    -5.2270    -1.8310 H     1 <1>   0.0800 
 37 H       -5.5290    -6.0070    -0.7210 H     1 <1>   0.0800 
 38 H       -3.3910    -6.4200     2.7150 H     1 <1>   0.0800 
 39 H       -2.3340    -5.6200     1.5740 H     1 <1>   0.0800 
 40 H       -2.5050    -6.2870    -0.7460 H     1 <1>   0.0800 
 41 H       -3.6750    -7.5270    -1.1350 H     1 <1>   0.0800 
 42 H       -9.3130    -3.2620    -2.0320 H     1 <1>   0.0800 
 43 H       -9.6680    -1.5880    -1.7020 H     1 <1>   0.0800 
 44 H       -9.4790    -0.8490     0.8620 H     1 <1>   0.0800 
 45 H       -9.0170    -2.1070     1.9770 H     1 <1>   0.0800 
 46 H      -11.2720    -3.9820    -0.7460 H     1 <1>   0.0800 
 47 H      -11.7840    -2.7740    -1.9040 H     1 <1>   0.0800 
 48 H      -11.5000    -1.6660     1.9470 H     1 <1>   0.0800 
 49 H      -11.1030    -3.3220     1.5460 H     1 <1>   0.0800 
@<TRIPOS>BOND
  1   1   2  1   
  2   1   3  1   
  3   2   4  1   
  4   2   5  2   
  5   3   6  2   
  6   3  27  1   
  7   4   7  2   
  8   4   8  am  
  9   5   6  1   
 10   5  28  1   
 11   6  29  1   
 12   8   9  1   
 13   8  30  1   
 14   9  10  ar  
 15   9  11  ar  
 16  10  12  1   
 17  10  13  ar  
 18  11  14  ar  
 19  11  31  1   
 20  12  15  1   
 21  12  16  1   
 22  13  17  ar  
 23  13  32  1   
 24  14  17  ar  
 25  14  33  1   
 26  15  18  1   
 27  15  34  1   
 28  15  35  1   
 29  16  19  1   
 30  16  36  1   
 31  16  37  1   
 32  17  20  1   
 33  18  21  1   
 34  18  38  1   
 35  18  39  1   
 36  19  21  1   
 37  19  40  1   
 38  19  41  1   
 39  20  22  1   
 40  20  23  1   
 41  22  24  1   
 42  22  42  1   
 43  22  43  1   
 44  23  25  1   
 45  23  44  1   
 46  23  45  1   
 47  24  26  1   
 48  24  46  1   
 49  24  47  1   
 50  25  26  1   
 51  25  48  1   
 52  25  49  1   
@<TRIPOS>SUBSTRUCTURE
  1 ****  10 GROUP 4 **** **** 0

# MOE 2024.06 (io_trps.svl 2023.06)
