@<TRIPOS>MOLECULE
NONAME
40 41 1 0 0 
SMALL
USER_CHARGES


@<TRIPOS>ATOM
  1 O       -1.2170     1.5000     1.6410 O.2   1 <1>  -0.5700 
  2 C       -1.0140     2.3440     0.7880 C.2   1 <1>   0.7060 
  3 O        0.1710     2.9570     0.8220 O.3   1 <1>  -0.2330 
  4 C       -1.9640     2.7120    -0.2330 C.2   1 <1>   0.0290 
  5 C        0.5490     3.9210    -0.0510 C.ar  1 <1>   0.0830 
  6 C       -3.2550     2.0570    -0.2880 C.2   1 <1>   0.6160 
  7 C       -1.6060     3.6790    -1.1260 C.2   1 <1>  -0.1780 
  8 C        1.8100     4.5060     0.0660 C.ar  1 <1>   0.0830 
  9 C       -0.3350     4.3130    -1.0600 C.ar  1 <1>   0.0280 
 10 O       -4.1010     2.4360    -1.0770 O.2   1 <1>  -0.5700 
 11 N       -3.6180     1.0230     0.5280 N.am  1 <1>  -0.7300 
 12 O        2.6160     4.0730     1.0740 O.3   1 <1>  -0.3630 
 13 C        2.1870     5.4940    -0.8360 C.ar  1 <1>  -0.1500 
 14 C        0.0700     5.3060    -1.9520 C.ar  1 <1>  -0.1500 
 15 C       -4.7220     0.0410     0.3150 C.3   1 <1>   0.1400 
 16 C        3.9060     4.6080     1.2720 C.3   1 <1>   0.0400 
 17 C        1.3150     5.8890    -1.8410 C.ar  1 <1>  -0.1500 
 18 C       -6.0730     0.5560     0.8520 C.3   1 <1>   0.3430 
 19 N       -6.5140     1.7860     0.1260 N.4   1 <1>  -0.9590 
 20 C       -7.2920     2.7130     0.9960 C.3   1 <1>   0.2630 
 21 C       -7.2390     1.4750    -1.1420 C.3   1 <1>   0.2630 
 22 H       -2.2720     3.9950    -1.9120 H     1 <1>   0.1500 
 23 H       -2.9050     0.7390     1.2250 H     1 <1>   0.3700 
 24 H        3.1480     5.9680    -0.7800 H     1 <1>   0.1500 
 25 H       -0.5980     5.6200    -2.7350 H     1 <1>   0.1500 
 26 H       -4.4690    -0.8740     0.8230 H     1 <1>   0.0800 
 27 H       -4.8080    -0.1820    -0.7350 H     1 <1>   0.0800 
 28 H        4.3440     4.1130     2.1200 H     1 <1>   0.0800 
 29 H        3.8210     5.6620     1.4690 H     1 <1>   0.0800 
 30 H        4.5000     4.4230     0.3950 H     1 <1>   0.0800 
 31 H        1.6170     6.6550    -2.5360 H     1 <1>   0.1500 
 32 H       -5.9540     0.7730     1.9010 H     1 <1>   0.0800 
 33 H       -6.8210    -0.2140     0.7560 H     1 <1>   0.0800 
 34 H       -5.6280     2.2620    -0.1630 H     1 <1>   0.4500 
 35 H       -8.2120     2.2480     1.3130 H     1 <1>   0.0800 
 36 H       -7.5290     3.6170     0.4580 H     1 <1>   0.0800 
 37 H       -6.7170     2.9760     1.8690 H     1 <1>   0.0800 
 38 H       -8.1520     0.9420    -0.9340 H     1 <1>   0.0800 
 39 H       -6.6190     0.8720    -1.7860 H     1 <1>   0.0800 
 40 H       -7.4800     2.3870    -1.6640 H     1 <1>   0.0800 
@<TRIPOS>BOND
  1   1   2  2   
  2   2   3  1   
  3   2   4  1   
  4   3   5  1   
  5   4   6  1   
  6   4   7  2   
  7   5   8  ar  
  8   5   9  ar  
  9   6  10  2   
 10   6  11  am  
 11   7   9  1   
 12   7  22  1   
 13   8  12  1   
 14   8  13  ar  
 15   9  14  ar  
 16  11  15  1   
 17  11  23  1   
 18  12  16  1   
 19  13  17  ar  
 20  13  24  1   
 21  14  17  ar  
 22  14  25  1   
 23  15  18  1   
 24  15  26  1   
 25  15  27  1   
 26  16  28  1   
 27  16  29  1   
 28  16  30  1   
 29  17  31  1   
 30  18  19  1   
 31  18  32  1   
 32  18  33  1   
 33  19  20  1   
 34  19  21  1   
 35  19  34  1   
 36  20  35  1   
 37  20  36  1   
 38  20  37  1   
 39  21  38  1   
 40  21  39  1   
 41  21  40  1   
@<TRIPOS>SUBSTRUCTURE
  1 ****   4 GROUP 4 **** **** 0

# MOE 2024.06 (io_trps.svl 2023.06)
