@<TRIPOS>MOLECULE
NONAME
49 50 1 0 0 
SMALL
USER_CHARGES


@<TRIPOS>ATOM
  1 S       -1.0290     1.2100    -0.1760 S.o2  1 <1>   1.4470 
  2 O       -1.7580     1.8480    -1.2520 O.2   1 <1>  -0.6500 
  3 O       -1.6750     0.1170     0.5210 O.2   1 <1>  -0.6500 
  4 N       -0.7150     2.3990     0.9900 N.am  1 <1>  -0.8490 
  5 C        0.6200     0.6890    -0.7250 C.ar  1 <1>  -0.0090 
  6 C       -1.8950     2.6620     1.8650 C.3   1 <1>   0.2570 
  7 C       -0.1540     3.6200     0.3990 C.3   1 <1>   0.1960 
  8 C        0.9790     0.7260    -2.0680 C.ar  1 <1>  -0.1500 
  9 C        1.5660     0.2420     0.1900 C.ar  1 <1>  -0.1500 
 10 C       -3.0890     3.3940     1.2120 C.2   1 <1>   0.5690 
 11 C        0.4860     4.4990     1.4710 C.3   1 <1>  -0.2400 
 12 C        2.2400     0.3320    -2.4840 C.ar  1 <1>  -0.1500 
 13 C        2.8290    -0.1530    -0.2180 C.ar  1 <1>  -0.1500 
 14 O       -3.0780     4.6020     1.2610 O.2   1 <1>  -0.5700 
 15 N       -4.1360     2.7420     0.5930 N.am  1 <1>  -0.6600 
 16 C        3.1670    -0.1080    -1.5580 C.ar  1 <1>  -0.1500 
 17 C       -4.4120     1.2720     0.6600 C.3   1 <1>   0.1400 
 18 C       -4.9650     3.4780    -0.4140 C.3   1 <1>   0.1400 
 19 C       -5.9190     0.9780     0.7750 C.3   1 <1>   0.3430 
 20 C       -6.4610     3.1510    -0.2700 C.3   1 <1>   0.3430 
 21 N       -6.7170     1.6660    -0.2990 N.4   1 <1>  -0.9590 
 22 C       -8.1600     1.3350    -0.1790 C.3   1 <1>   0.3430 
 23 C       -8.8830     1.7080    -1.4680 C.3   1 <1>  -0.2400 
 24 H       -1.5730     3.2650     2.6940 H     1 <1>   0.0800 
 25 H       -2.2260     1.7390     2.3000 H     1 <1>   0.0800 
 26 H       -0.9090     4.1710    -0.1390 H     1 <1>   0.0800 
 27 H        0.6150     3.3530    -0.3060 H     1 <1>   0.0800 
 28 H        0.2660     1.0660    -2.8000 H     1 <1>   0.1500 
 29 H        1.3110     0.2040     1.2350 H     1 <1>   0.1500 
 30 H       -0.2590     4.9500     2.1000 H     1 <1>   0.0800 
 31 H        1.0340     5.2930     0.9970 H     1 <1>   0.0800 
 32 H        1.1710     3.9230     2.0680 H     1 <1>   0.0800 
 33 H        2.4990     0.3680    -3.5290 H     1 <1>   0.1500 
 34 H        3.5470    -0.4960     0.5080 H     1 <1>   0.1500 
 35 H        4.1480    -0.4160    -1.8780 H     1 <1>   0.1500 
 36 H       -3.9200     0.8310     1.5070 H     1 <1>   0.0800 
 37 H       -4.0310     0.8000    -0.2280 H     1 <1>   0.0800 
 38 H       -4.6280     3.2130    -1.4010 H     1 <1>   0.0800 
 39 H       -4.8370     4.5420    -0.3100 H     1 <1>   0.0800 
 40 H       -6.2580     1.3070     1.7430 H     1 <1>   0.0800 
 41 H       -6.0700    -0.0880     0.7160 H     1 <1>   0.0800 
 42 H       -6.9980     3.6340    -1.0690 H     1 <1>   0.0800 
 43 H       -6.8120     3.5640     0.6610 H     1 <1>   0.0800 
 44 H       -6.3810     1.3120    -1.2050 H     1 <1>   0.4500 
 45 H       -8.5960     1.8580     0.6570 H     1 <1>   0.0800 
 46 H       -8.2770     0.2750    -0.0110 H     1 <1>   0.0800 
 47 H       -8.8790     2.7710    -1.6300 H     1 <1>   0.0800 
 48 H       -9.9090     1.3950    -1.3980 H     1 <1>   0.0800 
 49 H       -8.4430     1.2090    -2.3130 H     1 <1>   0.0800 
@<TRIPOS>BOND
  1   1   2  2   
  2   1   3  2   
  3   1   4  am  
  4   1   5  1   
  5   4   6  1   
  6   4   7  1   
  7   5   8  ar  
  8   5   9  ar  
  9   6  10  1   
 10   6  24  1   
 11   6  25  1   
 12   7  11  1   
 13   7  26  1   
 14   7  27  1   
 15   8  12  ar  
 16   8  28  1   
 17   9  13  ar  
 18   9  29  1   
 19  10  14  2   
 20  10  15  am  
 21  11  30  1   
 22  11  31  1   
 23  11  32  1   
 24  12  16  ar  
 25  12  33  1   
 26  13  16  ar  
 27  13  34  1   
 28  15  17  1   
 29  15  18  1   
 30  16  35  1   
 31  17  19  1   
 32  17  36  1   
 33  17  37  1   
 34  18  20  1   
 35  18  38  1   
 36  18  39  1   
 37  19  21  1   
 38  19  40  1   
 39  19  41  1   
 40  20  21  1   
 41  20  42  1   
 42  20  43  1   
 43  21  22  1   
 44  21  44  1   
 45  22  23  1   
 46  22  45  1   
 47  22  46  1   
 48  23  47  1   
 49  23  48  1   
 50  23  49  1   
@<TRIPOS>SUBSTRUCTURE
  1 ****   2 GROUP 4 **** **** 0

# MOE 2024.06 (io_trps.svl 2023.06)
