@<TRIPOS>MOLECULE
NONAME
47 49 1 0 0 
SMALL
USER_CHARGES


@<TRIPOS>ATOM
  1 F        0.8510    -2.0040    -2.7960 F     1 <1>  -0.1900 
  2 C        1.9250    -2.2700    -2.1060 C.ar  1 <1>   0.1900 
  3 C        1.8120    -2.4830    -0.7460 C.ar  1 <1>  -0.1500 
  4 C        3.1420    -2.3290    -2.7570 C.ar  1 <1>  -0.1500 
  5 C        2.9560    -2.7650    -0.0200 C.ar  1 <1>  -0.1500 
  6 C        4.2760    -2.6140    -2.0160 C.ar  1 <1>  -0.1500 
  7 C        4.2050    -2.8410    -0.6420 C.ar  1 <1>   0.0280 
  8 C        5.4070    -3.1390     0.1040 C.2   1 <1>  -0.1670 
  9 C        6.4890    -2.3420     0.1260 C.2   1 <1>  -0.2880 
 10 C        5.4100    -4.4520     0.8770 C.3   1 <1>  -0.0220 
 11 C        7.7850    -2.6220     0.8560 C.3   1 <1>   0.4810 
 12 C        6.5880    -4.5380     1.8550 C.3   1 <1>   0.3430 
 13 N        7.8430    -4.0710     1.1980 N.4   1 <1>  -0.9590 
 14 C        9.0590    -4.4050     1.9860 C.3   1 <1>   0.4860 
 15 C       10.2760    -4.0660     1.1510 C.ar  1 <1>  -0.1430 
 16 C       11.0290    -2.9380     1.4360 C.ar  1 <1>  -0.1500 
 17 C       10.6420    -4.8730     0.0860 C.ar  1 <1>  -0.1500 
 18 C       12.1260    -2.6060     0.6580 C.ar  1 <1>   0.0830 
 19 C       11.7380    -4.5530    -0.6990 C.ar  1 <1>   0.0830 
 20 O       12.7870    -1.4770     1.0110 O.3   1 <1>  -0.3620 
 21 C       12.4850    -3.4150    -0.4150 C.ar  1 <1>  -0.1500 
 22 O       12.0070    -5.4010    -1.7210 O.3   1 <1>  -0.3630 
 23 C       13.9720    -1.0790     0.3550 C.3   1 <1>   0.0400 
 24 C       13.1410    -5.2300    -2.5440 C.3   1 <1>   0.0400 
 25 H        0.8480    -2.4240    -0.2730 H     1 <1>   0.1500 
 26 H        3.1920    -2.1560    -3.8170 H     1 <1>   0.1500 
 27 H        2.8750    -2.9180     1.0400 H     1 <1>   0.1500 
 28 H        5.2290    -2.6640    -2.5120 H     1 <1>   0.1500 
 29 H        6.5110    -1.4000    -0.3970 H     1 <1>   0.1500 
 30 H        5.4560    -5.2710     0.1810 H     1 <1>   0.0800 
 31 H        4.5000    -4.5610     1.4390 H     1 <1>   0.0800 
 32 H        7.8380    -2.0180     1.7480 H     1 <1>   0.0800 
 33 H        8.6190    -2.3660     0.2200 H     1 <1>   0.0800 
 34 H        6.6950    -5.5570     2.1910 H     1 <1>   0.0800 
 35 H        6.3810    -3.9170     2.7110 H     1 <1>   0.0800 
 36 H        7.9250    -4.5510     0.2940 H     1 <1>   0.4500 
 37 H        9.0730    -5.4560     2.2220 H     1 <1>   0.0800 
 38 H        9.0750    -3.8450     2.9070 H     1 <1>   0.0800 
 39 H       10.7870    -2.2930     2.2630 H     1 <1>   0.1500 
 40 H       10.0930    -5.7650    -0.1600 H     1 <1>   0.1500 
 41 H       13.3310    -3.1620    -1.0200 H     1 <1>   0.1500 
 42 H       14.3310    -0.1830     0.8290 H     1 <1>   0.0800 
 43 H       13.7510    -0.8810    -0.6780 H     1 <1>   0.0800 
 44 H       14.7050    -1.8610     0.4520 H     1 <1>   0.0800 
 45 H       13.1620    -6.0360    -3.2560 H     1 <1>   0.0800 
 46 H       14.0260    -5.2610    -1.9320 H     1 <1>   0.0800 
 47 H       13.0610    -4.2900    -3.0600 H     1 <1>   0.0800 
@<TRIPOS>BOND
  1   1   2  1   
  2   2   3  ar  
  3   2   4  ar  
  4   3   5  ar  
  5   3  25  1   
  6   4   6  ar  
  7   4  26  1   
  8   5   7  ar  
  9   5  27  1   
 10   6   7  ar  
 11   6  28  1   
 12   7   8  1   
 13   8   9  2   
 14   8  10  1   
 15   9  11  1   
 16   9  29  1   
 17  10  12  1   
 18  10  30  1   
 19  10  31  1   
 20  11  13  1   
 21  11  32  1   
 22  11  33  1   
 23  12  13  1   
 24  12  34  1   
 25  12  35  1   
 26  13  14  1   
 27  13  36  1   
 28  14  15  1   
 29  14  37  1   
 30  14  38  1   
 31  15  16  ar  
 32  15  17  ar  
 33  16  18  ar  
 34  16  39  1   
 35  17  19  ar  
 36  17  40  1   
 37  18  20  1   
 38  18  21  ar  
 39  19  21  ar  
 40  19  22  1   
 41  20  23  1   
 42  21  41  1   
 43  22  24  1   
 44  23  42  1   
 45  23  43  1   
 46  23  44  1   
 47  24  45  1   
 48  24  46  1   
 49  24  47  1   
@<TRIPOS>SUBSTRUCTURE
  1 ****  11 GROUP 4 **** **** 0

# MOE 2024.06 (io_trps.svl 2023.06)
