@<TRIPOS>MOLECULE
NONAME
44 45 1 0 0 
SMALL
USER_CHARGES


@<TRIPOS>ATOM
  1 O       -3.0530    -1.3590    -1.4360 O.2   1 <1>  -0.5700 
  2 C       -2.3590    -1.6310    -0.4900 C.2   1 <1>   0.6590 
  3 O       -1.8330    -0.6850     0.2870 O.3   1 <1>  -0.4300 
  4 C       -2.0170    -3.0470    -0.0780 C.3   1 <1>   0.0420 
  5 C       -2.0090     0.7040     0.0700 C.3   1 <1>   0.1200 
  6 C       -0.6080    -3.2730    -0.5920 C.2   1 <1>   0.5690 
  7 C       -3.0480    -4.1260    -0.5130 C.3   1 <1>  -0.0800 
  8 C       -2.1320     2.2220    -0.0690 C.3   1 <1>  -0.2400 
  9 O       -0.4460    -3.7120    -1.7050 O.2   1 <1>  -0.5700 
 10 N        0.4310    -2.9480     0.2400 N.am  1 <1>  -0.5470 
 11 C       -4.4470    -3.8380     0.0760 C.3   1 <1>  -0.1600 
 12 C       -2.5900    -5.5410    -0.0950 C.3   1 <1>  -0.1600 
 13 C        1.8170    -3.1040     0.0820 C.ar  1 <1>   0.1170 
 14 C       -5.4660    -4.9110    -0.3260 C.3   1 <1>  -0.1600 
 15 C       -3.6120    -6.6130    -0.4960 C.3   1 <1>  -0.1600 
 16 C        2.3820    -4.0520    -0.7670 C.ar  1 <1>  -0.1500 
 17 C        2.6680    -2.2900     0.8210 C.ar  1 <1>  -0.1500 
 18 C       -4.9950    -6.3090     0.0890 C.3   1 <1>  -0.1600 
 19 C        3.7550    -4.1780    -0.8760 C.ar  1 <1>  -0.1500 
 20 C        4.0420    -2.4130     0.7150 C.ar  1 <1>  -0.1500 
 21 C        4.5880    -3.3590    -0.1350 C.ar  1 <1>  -0.1500 
 22 H       -1.9820    -3.0630     0.9940 H     1 <1>   0.0800 
 23 H       -3.0840     0.6230     0.0690 H     1 <1>   0.0800 
 24 H       -1.6400     0.6460    -0.9420 H     1 <1>   0.0800 
 25 H       -3.1240    -4.1030    -1.5890 H     1 <1>   0.0800 
 26 H       -2.5880     2.6430     0.8100 H     1 <1>   0.0800 
 27 H       -2.7340     2.4800    -0.9230 H     1 <1>   0.0800 
 28 H       -1.1590     2.6660    -0.1920 H     1 <1>   0.0800 
 29 H        0.1690    -2.4360     1.0810 H     1 <1>   0.3700 
 30 H       -4.8100    -2.8860    -0.2690 H     1 <1>   0.0800 
 31 H       -4.3880    -3.7990     1.1500 H     1 <1>   0.0800 
 32 H       -2.4460    -5.5770     0.9710 H     1 <1>   0.0800 
 33 H       -1.6510    -5.7820    -0.5630 H     1 <1>   0.0800 
 34 H       -5.6070    -4.8850    -1.3940 H     1 <1>   0.0800 
 35 H       -6.4150    -4.6990     0.1350 H     1 <1>   0.0800 
 36 H       -3.2780    -7.5760    -0.1510 H     1 <1>   0.0800 
 37 H       -3.6800    -6.6530    -1.5700 H     1 <1>   0.0800 
 38 H        1.7510    -4.6990    -1.3470 H     1 <1>   0.1500 
 39 H        2.2570    -1.5490     1.4820 H     1 <1>   0.1500 
 40 H       -5.7020    -7.0450    -0.2550 H     1 <1>   0.0800 
 41 H       -4.9520    -6.3690     1.1630 H     1 <1>   0.0800 
 42 H        4.1750    -4.9140    -1.5390 H     1 <1>   0.1500 
 43 H        4.6880    -1.7750     1.2920 H     1 <1>   0.1500 
 44 H        5.6570    -3.4570    -0.2200 H     1 <1>   0.1500 
@<TRIPOS>BOND
  1   1   2  2   
  2   2   3  1   
  3   2   4  1   
  4   3   5  1   
  5   4   6  1   
  6   4   7  1   
  7   4  22  1   
  8   5   8  1   
  9   5  23  1   
 10   5  24  1   
 11   6   9  2   
 12   6  10  am  
 13   7  11  1   
 14   7  12  1   
 15   7  25  1   
 16   8  26  1   
 17   8  27  1   
 18   8  28  1   
 19  10  13  1   
 20  10  29  1   
 21  11  14  1   
 22  11  30  1   
 23  11  31  1   
 24  12  15  1   
 25  12  32  1   
 26  12  33  1   
 27  13  16  ar  
 28  13  17  ar  
 29  14  18  1   
 30  14  34  1   
 31  14  35  1   
 32  15  18  1   
 33  15  36  1   
 34  15  37  1   
 35  16  19  ar  
 36  16  38  1   
 37  17  20  ar  
 38  17  39  1   
 39  18  40  1   
 40  18  41  1   
 41  19  21  ar  
 42  19  42  1   
 43  20  21  ar  
 44  20  43  1   
 45  21  44  1   
@<TRIPOS>SUBSTRUCTURE
  1 ****   6 GROUP 4 **** **** 0

# MOE 2024.06 (io_trps.svl 2023.06)
