@<TRIPOS>MOLECULE
NONAME
57 59 1 0 0 
SMALL
USER_CHARGES


@<TRIPOS>ATOM
  1 S       -0.1140     0.4690     0.4360 S.o2  1 <1>   1.4470 
  2 O        0.0550     0.8720     1.8160 O.2   1 <1>  -0.6500 
  3 O       -0.2500     1.4880    -0.5830 O.2   1 <1>  -0.6500 
  4 N        1.2570    -0.4480     0.0400 N.am  1 <1>  -0.8490 
  5 C       -1.4750    -0.7210     0.2820 C.ar  1 <1>  -0.0090 
  6 C        1.5630    -1.4450     1.0710 C.3   1 <1>   0.1960 
  7 C        2.4050     0.4140    -0.2370 C.3   1 <1>   0.1960 
  8 C       -2.3860    -0.9160     1.3150 C.ar  1 <1>  -0.1500 
  9 C       -1.6400    -1.4710    -0.8780 C.ar  1 <1>  -0.1500 
 10 C        2.7110    -2.3430     0.6080 C.3   1 <1>  -0.1600 
 11 C        3.5920    -0.4200    -0.7300 C.3   1 <1>  -0.1600 
 12 C       -3.4170    -1.8310     1.1960 C.ar  1 <1>  -0.1500 
 13 C       -2.6690    -2.3880    -1.0070 C.ar  1 <1>  -0.1500 
 14 C        3.9690    -1.5180     0.2800 C.3   1 <1>  -0.0190 
 15 C       -3.5680    -2.5740     0.0380 C.ar  1 <1>   0.0820 
 16 C        5.1170    -2.3930    -0.2410 C.2   1 <1>   0.5690 
 17 O       -4.6010    -3.4490     0.0020 O.3   1 <1>  -0.3630 
 18 O        4.8530    -3.2920    -1.0010 O.2   1 <1>  -0.5700 
 19 N        6.4230    -2.1650     0.1280 N.am  1 <1>  -0.6600 
 20 C       -4.8570    -4.2410    -1.1350 C.3   1 <1>   0.1200 
 21 C        7.4730    -3.1930    -0.1620 C.3   1 <1>   0.1400 
 22 C        6.9720    -0.8650     0.6200 C.3   1 <1>   0.1400 
 23 C       -6.0830    -5.1010    -0.8460 C.3   1 <1>  -0.2400 
 24 C        8.5110    -2.6390    -1.1520 C.3   1 <1>   0.3430 
 25 C        8.0480    -0.3280    -0.3500 C.3   1 <1>   0.3430 
 26 N        9.1150    -1.3470    -0.6600 N.4   1 <1>  -0.9590 
 27 C       10.0990    -0.8130    -1.6510 C.3   1 <1>   0.2630 
 28 H        0.6960    -2.0580     1.2550 H     1 <1>   0.0800 
 29 H        1.8300    -0.9540     1.9940 H     1 <1>   0.0800 
 30 H        2.6730     0.9620     0.6520 H     1 <1>   0.0800 
 31 H        2.1470     1.1270    -1.0040 H     1 <1>   0.0800 
 32 H       -2.2860    -0.3460     2.2240 H     1 <1>   0.1500 
 33 H       -0.9460    -1.3320    -1.6910 H     1 <1>   0.1500 
 34 H        2.3870    -2.8900    -0.2610 H     1 <1>   0.0800 
 35 H        2.9370    -3.0600     1.3780 H     1 <1>   0.0800 
 36 H        4.4290     0.2290    -0.9070 H     1 <1>   0.0800 
 37 H        3.3240    -0.8720    -1.6700 H     1 <1>   0.0800 
 38 H       -4.1150    -1.9740     2.0020 H     1 <1>   0.1500 
 39 H       -2.7530    -2.9440    -1.9220 H     1 <1>   0.1500 
 40 H        4.2800    -1.0540     1.1970 H     1 <1>   0.0800 
 41 H       -3.9950    -4.8580    -1.3210 H     1 <1>   0.0800 
 42 H       -5.0380    -3.5880    -1.9710 H     1 <1>   0.0800 
 43 H        7.0350    -4.0850    -0.5760 H     1 <1>   0.0800 
 44 H        7.9580    -3.4760     0.7560 H     1 <1>   0.0800 
 45 H        7.4000    -1.0080     1.5980 H     1 <1>   0.0800 
 46 H        6.1950    -0.1280     0.7090 H     1 <1>   0.0800 
 47 H       -5.8980    -5.7380     0.0010 H     1 <1>   0.0800 
 48 H       -6.3050    -5.7190    -1.6970 H     1 <1>   0.0800 
 49 H       -6.9340    -4.4760    -0.6450 H     1 <1>   0.0800 
 50 H        8.0210    -2.4780    -2.0990 H     1 <1>   0.0800 
 51 H        9.2840    -3.3750    -1.3000 H     1 <1>   0.0800 
 52 H        8.4980     0.5540     0.0770 H     1 <1>   0.0800 
 53 H        7.5580    -0.0350    -1.2650 H     1 <1>   0.0800 
 54 H        9.6130    -1.5560     0.2180 H     1 <1>   0.4500 
 55 H        9.6070    -0.5880    -2.5840 H     1 <1>   0.0800 
 56 H       10.8750    -1.5380    -1.8380 H     1 <1>   0.0800 
 57 H       10.5570     0.0890    -1.2770 H     1 <1>   0.0800 
@<TRIPOS>BOND
  1   1   2  2   
  2   1   3  2   
  3   1   4  am  
  4   1   5  1   
  5   4   6  1   
  6   4   7  1   
  7   5   8  ar  
  8   5   9  ar  
  9   6  10  1   
 10   6  28  1   
 11   6  29  1   
 12   7  11  1   
 13   7  30  1   
 14   7  31  1   
 15   8  12  ar  
 16   8  32  1   
 17   9  13  ar  
 18   9  33  1   
 19  10  14  1   
 20  10  34  1   
 21  10  35  1   
 22  11  14  1   
 23  11  36  1   
 24  11  37  1   
 25  12  15  ar  
 26  12  38  1   
 27  13  15  ar  
 28  13  39  1   
 29  14  16  1   
 30  14  40  1   
 31  15  17  1   
 32  16  18  2   
 33  16  19  am  
 34  17  20  1   
 35  19  21  1   
 36  19  22  1   
 37  20  23  1   
 38  20  41  1   
 39  20  42  1   
 40  21  24  1   
 41  21  43  1   
 42  21  44  1   
 43  22  25  1   
 44  22  45  1   
 45  22  46  1   
 46  23  47  1   
 47  23  48  1   
 48  23  49  1   
 49  24  26  1   
 50  24  50  1   
 51  24  51  1   
 52  25  26  1   
 53  25  52  1   
 54  25  53  1   
 55  26  27  1   
 56  26  54  1   
 57  27  55  1   
 58  27  56  1   
 59  27  57  1   
@<TRIPOS>SUBSTRUCTURE
  1 ****   6 GROUP 4 **** **** 0

# MOE 2024.06 (io_trps.svl 2023.06)
