@<TRIPOS>MOLECULE
NONAME
21 21 1 0 0 
SMALL
USER_CHARGES


@<TRIPOS>ATOM
  1 O       -3.5020     2.0980     1.9860 O.co2 1 <1>  -0.9000 
  2 C       -4.0130     1.8700     0.8980 C.2   1 <1>   0.9060 
  3 O       -3.3690     1.8190    -0.1580 O.co2 1 <1>  -0.9000 
  4 C       -5.4100     1.3280     0.8720 C.3   1 <1>  -0.1860 
  5 C       -5.2250    -0.1820     0.8210 C.3   1 <1>   0.5610 
  6 C       -6.3190     1.8650    -0.2600 C.3   1 <1>  -0.1600 
  7 N       -4.4650    -0.5630    -0.3630 N.4   1 <1>  -0.8530 
  8 C       -6.5600    -0.8690     0.6360 C.2   1 <1>  -0.2880 
  9 C       -7.7160     1.2210    -0.2030 C.3   1 <1>  -0.0220 
 10 C       -7.6580    -0.2530     0.1800 C.2   1 <1>  -0.2880 
 11 H       -5.8630     1.5770     1.8140 H     1 <1>   0.0800 
 12 H       -4.7260    -0.5080     1.7210 H     1 <1>   0.0800 
 13 H       -6.4100     2.9340    -0.1720 H     1 <1>   0.0800 
 14 H       -5.8690     1.6640    -1.2170 H     1 <1>   0.0800 
 15 H       -5.0930    -0.5340    -1.1640 H     1 <1>   0.4500 
 16 H       -3.9860    -1.4520    -0.2630 H     1 <1>   0.4500 
 17 H       -3.7640     0.2060    -0.4980 H     1 <1>   0.4500 
 18 H       -6.5430    -1.9110     0.9080 H     1 <1>   0.1500 
 19 H       -8.1980     1.3350    -1.1590 H     1 <1>   0.0800 
 20 H       -8.3140     1.7380     0.5280 H     1 <1>   0.0800 
 21 H       -8.6060    -0.7540     0.0620 H     1 <1>   0.1500 
@<TRIPOS>BOND
  1   1   2  ar  
  2   2   3  ar  
  3   2   4  1   
  4   4   5  1   
  5   4   6  1   
  6   4  11  1   
  7   5   7  1   
  8   5   8  1   
  9   5  12  1   
 10   6   9  1   
 11   6  13  1   
 12   6  14  1   
 13   7  15  1   
 14   7  16  1   
 15   7  17  1   
 16   8  10  2   
 17   8  18  1   
 18   9  10  1   
 19   9  19  1   
 20   9  20  1   
 21  10  21  1   
@<TRIPOS>SUBSTRUCTURE
  1 ****   4 GROUP 4 **** **** 0

# MOE 2024.06 (io_trps.svl 2023.06)
