@<TRIPOS>MOLECULE
NONAME
49 51 1 0 0 
SMALL
USER_CHARGES


@<TRIPOS>ATOM
  1 S        0.9910    -0.8120     1.6810 S.o2  1 <1>   1.4470 
  2 O        1.9360    -1.5720     2.4730 O.2   1 <1>  -0.6500 
  3 O        0.2840     0.2840     2.3100 O.2   1 <1>  -0.6500 
  4 N        1.8890    -0.1460     0.4080 N.am  1 <1>  -0.8490 
  5 C       -0.1790    -1.9350     0.8480 C.ar  1 <1>  -0.0090 
  6 C        2.7540     0.9470     0.8860 C.3   1 <1>   0.1960 
  7 C        2.7170    -1.1540    -0.2820 C.3   1 <1>   0.1960 
  8 C       -1.1680    -1.4970    -0.0380 C.ar  1 <1>  -0.1440 
  9 C       -0.0790    -3.3040     1.0840 C.ar  1 <1>  -0.1500 
 10 C        3.5400     1.6250    -0.2550 C.3   1 <1>   0.2090 
 11 C        3.4770    -0.5610    -1.4850 C.3   1 <1>   0.2090 
 12 C       -2.0070    -2.4140    -0.6550 C.ar  1 <1>  -0.1500 
 13 C       -1.3650    -0.0190    -0.3560 C.3   1 <1>  -0.0960 
 14 C       -0.9160    -4.2200     0.4710 C.ar  1 <1>  -0.1440 
 15 N        4.2740     0.6480    -1.1180 N.pl3 1 <1>  -0.8380 
 16 C       -1.8820    -3.7660    -0.4050 C.ar  1 <1>  -0.1500 
 17 C       -0.7750    -5.7050     0.7540 C.3   1 <1>  -0.0970 
 18 C        5.6380     0.4810    -0.9030 C.ar  1 <1>   0.1000 
 19 C        6.1340    -0.1280     0.2430 C.ar  1 <1>  -0.1500 
 20 C        6.5360     0.9320    -1.8600 C.ar  1 <1>  -0.1500 
 21 C        7.4950    -0.2870     0.4340 C.ar  1 <1>   0.0820 
 22 C        7.8990     0.7790    -1.6820 C.ar  1 <1>  -0.1500 
 23 O        7.8840    -0.8950     1.5850 O.3   1 <1>  -0.3620 
 24 C        8.3840     0.1700    -0.5370 C.ar  1 <1>  -0.1500 
 25 C        9.2480    -1.1040     1.8750 C.3   1 <1>   0.0400 
 26 H        3.4500     0.5690     1.6160 H     1 <1>   0.0800 
 27 H        2.1520     1.6970     1.3700 H     1 <1>   0.0800 
 28 H        2.0910    -1.9520    -0.6410 H     1 <1>   0.0800 
 29 H        3.4320    -1.5790     0.4030 H     1 <1>   0.0800 
 30 H        0.6740    -3.6620     1.7650 H     1 <1>   0.1500 
 31 H        4.2390     2.3270     0.1640 H     1 <1>   0.0800 
 32 H        2.8520     2.1780    -0.8700 H     1 <1>   0.0800 
 33 H        2.7690    -0.2910    -2.2490 H     1 <1>   0.0800 
 34 H        4.1330    -1.3090    -1.8950 H     1 <1>   0.0800 
 35 H       -2.7700    -2.0800    -1.3370 H     1 <1>   0.1500 
 36 H       -1.6230     0.5220     0.5370 H     1 <1>   0.0800 
 37 H       -2.1570     0.1220    -1.0690 H     1 <1>   0.0800 
 38 H       -0.4670     0.4010    -0.7730 H     1 <1>   0.0800 
 39 H       -2.5420    -4.4620    -0.8940 H     1 <1>   0.1500 
 40 H       -0.3330    -5.8660     1.7210 H     1 <1>   0.0800 
 41 H       -0.1520    -6.1620     0.0070 H     1 <1>   0.0800 
 42 H       -1.7400    -6.1810     0.7410 H     1 <1>   0.0800 
 43 H        5.4590    -0.4840     0.9960 H     1 <1>   0.1500 
 44 H        6.1500     1.4030    -2.7450 H     1 <1>   0.1500 
 45 H        8.5810     1.1340    -2.4340 H     1 <1>   0.1500 
 46 H        9.4450     0.0620    -0.4210 H     1 <1>   0.1500 
 47 H        9.3150    -1.5950     2.8290 H     1 <1>   0.0800 
 48 H        9.7450    -0.1510     1.9200 H     1 <1>   0.0800 
 49 H        9.6770    -1.7280     1.1120 H     1 <1>   0.0800 
@<TRIPOS>BOND
  1   1   2  2   
  2   1   3  2   
  3   1   4  am  
  4   1   5  1   
  5   4   6  1   
  6   4   7  1   
  7   5   8  ar  
  8   5   9  ar  
  9   6  10  1   
 10   6  26  1   
 11   6  27  1   
 12   7  11  1   
 13   7  28  1   
 14   7  29  1   
 15   8  12  ar  
 16   8  13  1   
 17   9  14  ar  
 18   9  30  1   
 19  10  15  1   
 20  10  31  1   
 21  10  32  1   
 22  11  15  1   
 23  11  33  1   
 24  11  34  1   
 25  12  16  ar  
 26  12  35  1   
 27  13  36  1   
 28  13  37  1   
 29  13  38  1   
 30  14  16  ar  
 31  14  17  1   
 32  15  18  1   
 33  16  39  1   
 34  17  40  1   
 35  17  41  1   
 36  17  42  1   
 37  18  19  ar  
 38  18  20  ar  
 39  19  21  ar  
 40  19  43  1   
 41  20  22  ar  
 42  20  44  1   
 43  21  23  1   
 44  21  24  ar  
 45  22  24  ar  
 46  22  45  1   
 47  23  25  1   
 48  24  46  1   
 49  25  47  1   
 50  25  48  1   
 51  25  49  1   
@<TRIPOS>SUBSTRUCTURE
  1 ****   7 GROUP 4 **** **** 0

# MOE 2024.06 (io_trps.svl 2023.06)
