@<TRIPOS>MOLECULE
NONAME
51 52 1 0 0 
SMALL
USER_CHARGES


@<TRIPOS>ATOM
  1 S        1.5510    -0.5800     0.7450 S.o2  1 <1>   1.4470 
  2 O        2.8260    -1.2410     0.9260 O.2   1 <1>  -0.6500 
  3 O        1.1260     0.4490     1.6670 O.2   1 <1>  -0.6500 
  4 N        1.5860     0.1230    -0.8010 N.am  1 <1>  -0.8490 
  5 C        0.2280    -1.8150     0.6030 C.ar  1 <1>  -0.0090 
  6 C        2.2890     1.4390    -0.7640 C.3   1 <1>   0.2570 
  7 C        2.0560    -0.8220    -1.8190 C.3   1 <1>   0.1960 
  8 C       -1.0680    -1.4350     0.2790 C.ar  1 <1>  -0.1500 
  9 C        0.4770    -3.1680     0.8000 C.ar  1 <1>  -0.1500 
 10 C        3.7660     1.4210    -0.3390 C.2   1 <1>   0.5690 
 11 C        1.8330    -0.2730    -3.2270 C.3   1 <1>  -0.2400 
 12 C       -2.0800    -2.3710     0.1510 C.ar  1 <1>  -0.1500 
 13 C       -0.5300    -4.1090     0.6720 C.ar  1 <1>  -0.1500 
 14 O        4.0680     1.9060     0.7250 O.2   1 <1>  -0.5700 
 15 N        4.6960     0.8840    -1.1890 N.am  1 <1>  -0.5470 
 16 C       -1.8160    -3.7150     0.3470 C.ar  1 <1>  -0.1430 
 17 C        5.9980     0.4610    -0.8870 C.ar  1 <1>   0.1170 
 18 C       -2.9230    -4.7440     0.2060 C.3   1 <1>  -0.0970 
 19 C        6.3000    -0.1080     0.3440 C.ar  1 <1>  -0.1500 
 20 C        6.9990     0.5720    -1.8400 C.ar  1 <1>  -0.1500 
 21 C        7.5820    -0.5610     0.6390 C.ar  1 <1>   0.0830 
 22 C        8.2800     0.1320    -1.5620 C.ar  1 <1>  -0.1500 
 23 O        7.8710    -1.1500     1.8380 O.3   1 <1>  -0.3620 
 24 C        8.5870    -0.4250    -0.3320 C.ar  1 <1>   0.0830 
 25 C        6.8850    -1.3190     2.8350 C.3   1 <1>   0.0400 
 26 O        9.8850    -0.8120    -0.1730 O.3   1 <1>  -0.3630 
 27 C       10.5410    -0.5570     1.0500 C.3   1 <1>   0.0400 
 28 H        1.7680     2.0830    -0.0750 H     1 <1>   0.0800 
 29 H        2.2160     1.9170    -1.7220 H     1 <1>   0.0800 
 30 H        1.4910    -1.7360    -1.7340 H     1 <1>   0.0800 
 31 H        3.0920    -1.0750    -1.6630 H     1 <1>   0.0800 
 32 H       -1.2870    -0.3920     0.1260 H     1 <1>   0.1500 
 33 H        1.4720    -3.4930     1.0560 H     1 <1>   0.1500 
 34 H        2.4850     0.5510    -3.4430 H     1 <1>   0.0800 
 35 H        0.8080     0.0330    -3.3460 H     1 <1>   0.0800 
 36 H        2.0360    -1.0490    -3.9440 H     1 <1>   0.0800 
 37 H       -3.0750    -2.0470    -0.1030 H     1 <1>   0.1500 
 38 H       -0.3070    -5.1510     0.8290 H     1 <1>   0.1500 
 39 H        4.3810     0.6650    -2.1300 H     1 <1>   0.3700 
 40 H       -3.8710    -4.3160     0.4790 H     1 <1>   0.0800 
 41 H       -2.7360    -5.5880     0.8450 H     1 <1>   0.0800 
 42 H       -2.9760    -5.0840    -0.8130 H     1 <1>   0.0800 
 43 H        5.5020    -0.1940     1.0570 H     1 <1>   0.1500 
 44 H        6.7830     1.0070    -2.7980 H     1 <1>   0.1500 
 45 H        9.0570     0.2200    -2.3000 H     1 <1>   0.1500 
 46 H        7.3410    -1.8030     3.6790 H     1 <1>   0.0800 
 47 H        6.0940    -1.9350     2.4450 H     1 <1>   0.0800 
 48 H        6.5110    -0.3530     3.1250 H     1 <1>   0.0800 
 49 H       11.5980    -0.5250     0.8620 H     1 <1>   0.0800 
 50 H       10.3180    -1.3530     1.7360 H     1 <1>   0.0800 
 51 H       10.2060     0.3880     1.4410 H     1 <1>   0.0800 
@<TRIPOS>BOND
  1   1   2  2   
  2   1   3  2   
  3   1   4  am  
  4   1   5  1   
  5   4   6  1   
  6   4   7  1   
  7   5   8  ar  
  8   5   9  ar  
  9   6  10  1   
 10   6  28  1   
 11   6  29  1   
 12   7  11  1   
 13   7  30  1   
 14   7  31  1   
 15   8  12  ar  
 16   8  32  1   
 17   9  13  ar  
 18   9  33  1   
 19  10  14  2   
 20  10  15  am  
 21  11  34  1   
 22  11  35  1   
 23  11  36  1   
 24  12  16  ar  
 25  12  37  1   
 26  13  16  ar  
 27  13  38  1   
 28  15  17  1   
 29  15  39  1   
 30  16  18  1   
 31  17  19  ar  
 32  17  20  ar  
 33  18  40  1   
 34  18  41  1   
 35  18  42  1   
 36  19  21  ar  
 37  19  43  1   
 38  20  22  ar  
 39  20  44  1   
 40  21  23  1   
 41  21  24  ar  
 42  22  24  ar  
 43  22  45  1   
 44  23  25  1   
 45  24  26  1   
 46  25  46  1   
 47  25  47  1   
 48  25  48  1   
 49  26  27  1   
 50  27  49  1   
 51  27  50  1   
 52  27  51  1   
@<TRIPOS>SUBSTRUCTURE
  1 ****   2 GROUP 4 **** **** 0

# MOE 2024.06 (io_trps.svl 2023.06)
