@<TRIPOS>MOLECULE
NONAME
43 46 1 0 0 
SMALL
USER_CHARGES


@<TRIPOS>ATOM
  1 O        1.8770    -4.8680     1.8170 O.2   1 <1>  -0.5700 
  2 C        2.3020    -4.9960     0.7080 C.2   1 <1>   0.4480 
  3 C        3.7430    -5.4250     0.4120 C.3   1 <1>   0.1710 
  4 C        1.3880    -4.8060    -0.4850 C.3   1 <1>  -0.1790 
  5 N        4.8500    -4.4600     0.6950 N.3   1 <1>  -0.8100 
  6 C        4.7670    -3.1880    -0.0770 C.3   1 <1>   0.3700 
  7 C        6.1330    -5.1710     0.4560 C.3   1 <1>   0.1100 
  8 C        6.0880    -2.4470    -0.0400 C.2   1 <1>  -0.3320 
  9 C        3.6390    -2.2420     0.4180 C.3   1 <1>  -0.1600 
 10 C        7.3660    -4.3480     0.8490 C.3   1 <1>   0.0960 
 11 N        7.2860    -3.0240     0.2290 N.pl3 1 <1>   0.0480 
 12 C        6.2480    -1.1250    -0.2370 C.2   1 <1>  -0.1810 
 13 C        3.9650    -0.7250     0.5280 C.3   1 <1>  -0.1600 
 14 C        8.2480    -2.0400     0.1750 C.ar  1 <1>  -0.1520 
 15 C        7.6240    -0.8320    -0.1310 C.ar  1 <1>   0.0000 
 16 C        5.0560    -0.2260    -0.4360 C.3   1 <1>   0.0210 
 17 C        9.6290    -2.0930     0.3780 C.ar  1 <1>  -0.1500 
 18 C        8.3870     0.3340    -0.2460 C.ar  1 <1>  -0.1500 
 19 C       10.3660    -0.9360     0.2620 C.ar  1 <1>  -0.1500 
 20 C        9.7500     0.2830    -0.0520 C.ar  1 <1>  -0.1430 
 21 C       10.6050     1.5310    -0.1710 C.3   1 <1>  -0.0970 
 22 H        3.8020    -5.7300    -0.6180 H     1 <1>   0.0800 
 23 H        3.9120    -6.3030     1.0110 H     1 <1>   0.0800 
 24 H        1.8770    -4.2350    -1.2510 H     1 <1>   0.0800 
 25 H        0.4980    -4.2880    -0.1760 H     1 <1>   0.0800 
 26 H        1.1090    -5.7650    -0.8810 H     1 <1>   0.0800 
 27 H        4.5840    -3.4280    -1.1110 H     1 <1>   0.0800 
 28 H        6.2120    -5.4320    -0.5860 H     1 <1>   0.0800 
 29 H        6.1490    -6.0820     1.0290 H     1 <1>   0.0800 
 30 H        3.3170    -2.5650     1.3920 H     1 <1>   0.0800 
 31 H        2.8100    -2.3400    -0.2540 H     1 <1>   0.0800 
 32 H        8.2650    -4.8370     0.5250 H     1 <1>   0.0800 
 33 H        7.3950    -4.2230     1.9150 H     1 <1>   0.0800 
 34 H        4.3220    -0.5420     1.5280 H     1 <1>   0.0800 
 35 H        3.0680    -0.1470     0.3990 H     1 <1>   0.0800 
 36 H        4.7230    -0.2820    -1.4570 H     1 <1>   0.0800 
 37 H        5.3160     0.7910    -0.2050 H     1 <1>   0.0800 
 38 H       10.1010    -3.0270     0.6190 H     1 <1>   0.1500 
 39 H        7.8860     1.2520    -0.4840 H     1 <1>   0.1500 
 40 H       11.4300    -0.9620     0.4130 H     1 <1>   0.1500 
 41 H       10.0020     2.3860    -0.4160 H     1 <1>   0.0800 
 42 H       11.3410     1.3960    -0.9420 H     1 <1>   0.0800 
 43 H       11.1050     1.7190     0.7620 H     1 <1>   0.0800 
@<TRIPOS>BOND
  1   1   2  2   
  2   2   3  1   
  3   2   4  1   
  4   3   5  1   
  5   3  22  1   
  6   3  23  1   
  7   4  24  1   
  8   4  25  1   
  9   4  26  1   
 10   5   6  1   
 11   5   7  1   
 12   6   8  1   
 13   6   9  1   
 14   6  27  1   
 15   7  10  1   
 16   7  28  1   
 17   7  29  1   
 18   8  11  1   
 19   8  12  2   
 20   9  13  1   
 21   9  30  1   
 22   9  31  1   
 23  10  11  1   
 24  10  32  1   
 25  10  33  1   
 26  11  14  1   
 27  12  15  1   
 28  12  16  1   
 29  13  16  1   
 30  13  34  1   
 31  13  35  1   
 32  14  15  ar  
 33  14  17  ar  
 34  15  18  ar  
 35  16  36  1   
 36  16  37  1   
 37  17  19  ar  
 38  17  38  1   
 39  18  20  ar  
 40  18  39  1   
 41  19  20  ar  
 42  19  40  1   
 43  20  21  1   
 44  21  41  1   
 45  21  42  1   
 46  21  43  1   
@<TRIPOS>SUBSTRUCTURE
  1 ****   8 GROUP 4 **** **** 0

# MOE 2024.06 (io_trps.svl 2023.06)
