@<TRIPOS>MOLECULE
NONAME
35 36 1 0 0 
SMALL
USER_CHARGES


@<TRIPOS>ATOM
  1 CL       0.2990    -0.9520    -2.2900 Cl    1 <1>  -0.1770 
  2 C        1.0160    -1.8820    -0.9940 C.ar  1 <1>   0.1770 
  3 C        0.2190    -2.5530    -0.0800 C.ar  1 <1>   0.1770 
  4 C        2.3920    -1.9370    -0.8980 C.ar  1 <1>  -0.1500 
  5 CL      -1.5280    -2.4890    -0.1930 Cl    1 <1>  -0.1770 
  6 C        0.7960    -3.2860     0.9420 C.ar  1 <1>  -0.1500 
  7 C        2.9860    -2.6710     0.1240 C.ar  1 <1>   0.1000 
  8 C        2.1770    -3.3400     1.0370 C.ar  1 <1>  -0.1500 
  9 N        4.3650    -2.7490     0.2530 N.pl3 1 <1>  -0.8380 
 10 C        5.0620    -1.5000     0.6860 C.3   1 <1>   0.2090 
 11 C        5.1020    -3.4510    -0.8430 C.3   1 <1>   0.2090 
 12 C        6.5450    -1.7710     1.0080 C.3   1 <1>   0.1960 
 13 C        6.5900    -3.6520    -0.4920 C.3   1 <1>   0.1960 
 14 N        7.2610    -2.3860    -0.1300 N.am  1 <1>  -0.8490 
 15 S        8.9080    -2.6260     0.1870 S.o2  1 <1>   1.3330 
 16 O        9.0480    -2.8710     1.6050 O.2   1 <1>  -0.6500 
 17 O        9.4030    -3.5950    -0.7640 O.2   1 <1>  -0.6500 
 18 C        9.6260    -1.0270    -0.2190 C.3   1 <1>  -0.0550 
 19 C       11.1520    -0.9490    -0.0310 C.3   1 <1>  -0.2400 
 20 H        3.0000    -1.4140    -1.6110 H     1 <1>   0.1500 
 21 H        0.1730    -3.8040     1.6490 H     1 <1>   0.1500 
 22 H        2.6480    -3.9040     1.8220 H     1 <1>   0.1500 
 23 H        4.5730    -1.1090     1.5610 H     1 <1>   0.0800 
 24 H        4.9980    -0.7620    -0.0940 H     1 <1>   0.0800 
 25 H        5.0330    -2.8770    -1.7500 H     1 <1>   0.0800 
 26 H        4.6460    -4.4090    -1.0180 H     1 <1>   0.0800 
 27 H        6.5910    -2.4220     1.8670 H     1 <1>   0.0800 
 28 H        7.0160    -0.8420     1.2730 H     1 <1>   0.0800 
 29 H        7.0770    -4.0890    -1.3470 H     1 <1>   0.0800 
 30 H        6.6670    -4.3520     0.3240 H     1 <1>   0.0800 
 31 H        9.1700    -0.2740     0.3930 H     1 <1>   0.0800 
 32 H        9.3960    -0.7990    -1.2410 H     1 <1>   0.0800 
 33 H       11.4100    -1.1520     0.9950 H     1 <1>   0.0800 
 34 H       11.5110     0.0300    -0.2930 H     1 <1>   0.0800 
 35 H       11.6390    -1.6770    -0.6570 H     1 <1>   0.0800 
@<TRIPOS>BOND
  1   1   2  1   
  2   2   3  ar  
  3   2   4  ar  
  4   3   5  1   
  5   3   6  ar  
  6   4   7  ar  
  7   4  20  1   
  8   6   8  ar  
  9   6  21  1   
 10   7   8  ar  
 11   7   9  1   
 12   8  22  1   
 13   9  10  1   
 14   9  11  1   
 15  10  12  1   
 16  10  23  1   
 17  10  24  1   
 18  11  13  1   
 19  11  25  1   
 20  11  26  1   
 21  12  14  1   
 22  12  27  1   
 23  12  28  1   
 24  13  14  1   
 25  13  29  1   
 26  13  30  1   
 27  14  15  am  
 28  15  16  2   
 29  15  17  2   
 30  15  18  1   
 31  18  19  1   
 32  18  31  1   
 33  18  32  1   
 34  19  33  1   
 35  19  34  1   
 36  19  35  1   
@<TRIPOS>SUBSTRUCTURE
  1 ****   9 GROUP 4 **** **** 0

# MOE 2024.06 (io_trps.svl 2023.06)
