@<TRIPOS>MOLECULE
NONAME
32 32 1 0 0 
SMALL
USER_CHARGES


@<TRIPOS>ATOM
  1 CL      -0.7010    -0.1290    -0.0170 Cl    1 <1>  -0.1770 
  2 C       -0.4120     1.6020    -0.0140 C.ar  1 <1>   0.1770 
  3 C        0.8840     2.0890    -0.0170 C.ar  1 <1>   0.1770 
  4 C       -1.4940     2.4780    -0.0100 C.ar  1 <1>   0.0820 
  5 CL       2.2510     0.9990    -0.0230 Cl    1 <1>  -0.1770 
  6 C        1.1230     3.4510    -0.0150 C.ar  1 <1>  -0.1500 
  7 O       -2.7450     1.9430    -0.0070 O.3   1 <1>  -0.3630 
  8 C       -1.2490     3.8510    -0.0080 C.ar  1 <1>  -0.1500 
  9 C        0.0520     4.3310    -0.0110 C.ar  1 <1>  -0.1500 
 10 C       -3.9060     2.7340    -0.0020 C.3   1 <1>   0.1200 
 11 C       -5.0960     1.7700     0.0000 C.3   1 <1>   0.3430 
 12 N       -6.4070     2.4900     0.0060 N.4   1 <1>  -0.9060 
 13 C       -7.5490     1.5250     0.0090 C.3   1 <1>   0.3430 
 14 C       -8.9040     2.2390     0.0150 C.3   1 <1>   0.1200 
 15 O       -9.8760     1.2530     0.0170 O.3   1 <1>  -0.5600 
 16 C      -11.1860     1.7300     0.0240 C.3   1 <1>   0.0400 
 17 H        2.1360     3.8150    -0.0180 H     1 <1>   0.1500 
 18 H       -2.0500     4.5670    -0.0050 H     1 <1>   0.1500 
 19 H        0.2370     5.3930    -0.0100 H     1 <1>   0.1500 
 20 H       -3.8990     3.3430    -0.8890 H     1 <1>   0.0800 
 21 H       -3.8930     3.3390     0.8880 H     1 <1>   0.0800 
 22 H       -5.0250     1.1390     0.8730 H     1 <1>   0.0800 
 23 H       -5.0320     1.1430    -0.8760 H     1 <1>   0.0800 
 24 H       -6.4780     3.0940    -0.8230 H     1 <1>   0.4500 
 25 H       -6.4720     3.0900     0.8390 H     1 <1>   0.4500 
 26 H       -7.4920     0.8940     0.8810 H     1 <1>   0.0800 
 27 H       -7.4990     0.8980    -0.8670 H     1 <1>   0.0800 
 28 H       -9.0320     2.8390    -0.8700 H     1 <1>   0.0800 
 29 H       -9.0250     2.8350     0.9040 H     1 <1>   0.0800 
 30 H      -11.8520     0.8840     0.0250 H     1 <1>   0.0800 
 31 H      -11.3590     2.3210    -0.8600 H     1 <1>   0.0800 
 32 H      -11.3520     2.3170     0.9110 H     1 <1>   0.0800 
@<TRIPOS>BOND
  1   1   2  1   
  2   2   3  ar  
  3   2   4  ar  
  4   3   5  1   
  5   3   6  ar  
  6   4   7  1   
  7   4   8  ar  
  8   6   9  ar  
  9   6  17  1   
 10   7  10  1   
 11   8   9  ar  
 12   8  18  1   
 13   9  19  1   
 14  10  11  1   
 15  10  20  1   
 16  10  21  1   
 17  11  12  1   
 18  11  22  1   
 19  11  23  1   
 20  12  13  1   
 21  12  24  1   
 22  12  25  1   
 23  13  14  1   
 24  13  26  1   
 25  13  27  1   
 26  14  15  1   
 27  14  28  1   
 28  14  29  1   
 29  15  16  1   
 30  16  30  1   
 31  16  31  1   
 32  16  32  1   
@<TRIPOS>SUBSTRUCTURE
  1 ****   7 GROUP 4 **** **** 0

# MOE 2024.06 (io_trps.svl 2023.06)
