@<TRIPOS>MOLECULE
NONAME
44 47 1 0 0 
SMALL
USER_CHARGES


@<TRIPOS>ATOM
  1 I       -0.2920     2.9070     1.4630 I     1 <1>  -0.0810 
  2 C       -1.9200     2.2090     0.2850 C.ar  1 <1>   0.0810 
  3 C       -2.8760     1.4120     0.8870 C.ar  1 <1>  -0.1500 
  4 C       -1.9780     2.5700    -1.0470 C.ar  1 <1>  -0.1500 
  5 C       -3.9420     0.9530     0.1250 C.ar  1 <1>  -0.1440 
  6 C       -3.0420     2.1100    -1.8020 C.ar  1 <1>  -0.1500 
  7 C       -4.0130     1.3100    -1.2200 C.ar  1 <1>  -0.1500 
  8 C       -5.0090     0.0690     0.7790 C.3   1 <1>   0.3640 
  9 N       -5.5190    -0.9690    -0.1520 N.am  1 <1>  -0.2980 
 10 C       -6.2860     0.8240     1.1720 C.3   1 <1>  -0.0190 
 11 N       -6.8370    -0.7250    -0.4730 N.2   1 <1>  -0.5120 
 12 C       -4.7510    -2.0240    -0.6290 C.2   1 <1>   0.5690 
 13 C       -7.2840     0.2640     0.1900 C.2   1 <1>   0.3030 
 14 C       -6.3000     2.3620     1.1150 C.3   1 <1>  -0.1600 
 15 O       -5.1730    -2.8540    -1.3990 O.2   1 <1>  -0.5700 
 16 C       -3.3130    -2.1880    -0.1820 C.3   1 <1>  -0.1790 
 17 C       -8.5750     0.8960     0.0990 C.ar  1 <1>   0.0860 
 18 C       -7.7060     2.8740     1.4640 C.3   1 <1>  -0.0170 
 19 C       -8.8080     2.1450     0.6930 C.ar  1 <1>  -0.1430 
 20 C       -9.6250     0.2940    -0.5950 C.ar  1 <1>  -0.1500 
 21 C      -10.0530     2.7410     0.5930 C.ar  1 <1>  -0.1500 
 22 C      -10.8660     0.8930    -0.6940 C.ar  1 <1>  -0.1500 
 23 C      -11.0880     2.1280    -0.0940 C.ar  1 <1>   0.0830 
 24 O      -12.2700     2.7880    -0.1370 O.3   1 <1>  -0.3620 
 25 C      -13.3860     2.2540    -0.8130 C.3   1 <1>   0.0400 
 26 H       -2.7820     1.1610     1.9280 H     1 <1>   0.1500 
 27 H       -1.2160     3.1910    -1.4840 H     1 <1>   0.1500 
 28 H       -3.1170     2.3720    -2.8440 H     1 <1>   0.1500 
 29 H       -4.8350     0.9630    -1.8280 H     1 <1>   0.1500 
 30 H       -4.6030    -0.4140     1.6490 H     1 <1>   0.0800 
 31 H       -6.5740     0.5060     2.1580 H     1 <1>   0.0800 
 32 H       -6.0530     2.6940     0.1200 H     1 <1>   0.0800 
 33 H       -5.5780     2.7740     1.7980 H     1 <1>   0.0800 
 34 H       -3.2470    -2.1800     0.8890 H     1 <1>   0.0800 
 35 H       -2.7090    -1.4030    -0.5950 H     1 <1>   0.0800 
 36 H       -2.9330    -3.1290    -0.5380 H     1 <1>   0.0800 
 37 H       -7.7570     3.9300     1.2580 H     1 <1>   0.0800 
 38 H       -7.8830     2.7390     2.5170 H     1 <1>   0.0800 
 39 H       -9.4550    -0.6610    -1.0640 H     1 <1>   0.1500 
 40 H      -10.2420     3.6970     1.0480 H     1 <1>   0.1500 
 41 H      -11.6410     0.3890    -1.2380 H     1 <1>   0.1500 
 42 H      -14.2010     2.9480    -0.7130 H     1 <1>   0.0800 
 43 H      -13.6490     1.3130    -0.3640 H     1 <1>   0.0800 
 44 H      -13.1380     2.1300    -1.8530 H     1 <1>   0.0800 
@<TRIPOS>BOND
  1   1   2  1   
  2   2   3  ar  
  3   2   4  ar  
  4   3   5  ar  
  5   3  26  1   
  6   4   6  ar  
  7   4  27  1   
  8   5   7  ar  
  9   5   8  1   
 10   6   7  ar  
 11   6  28  1   
 12   7  29  1   
 13   8   9  1   
 14   8  10  1   
 15   8  30  1   
 16   9  11  1   
 17   9  12  am  
 18  10  13  1   
 19  10  14  1   
 20  10  31  1   
 21  11  13  2   
 22  12  15  2   
 23  12  16  1   
 24  13  17  1   
 25  14  18  1   
 26  14  32  1   
 27  14  33  1   
 28  16  34  1   
 29  16  35  1   
 30  16  36  1   
 31  17  19  ar  
 32  17  20  ar  
 33  18  19  1   
 34  18  37  1   
 35  18  38  1   
 36  19  21  ar  
 37  20  22  ar  
 38  20  39  1   
 39  21  23  ar  
 40  21  40  1   
 41  22  23  ar  
 42  22  41  1   
 43  23  24  1   
 44  24  25  1   
 45  25  42  1   
 46  25  43  1   
 47  25  44  1   
@<TRIPOS>SUBSTRUCTURE
  1 ****  13 GROUP 4 **** **** 0

# MOE 2024.06 (io_trps.svl 2023.06)
