@<TRIPOS>MOLECULE
NONAME
48 50 1 0 0 
SMALL
USER_CHARGES


@<TRIPOS>ATOM
  1 O       -0.9900     0.6200     0.1350 O.2   1 <1>  -0.5700 
  2 C       -1.4640     1.7040     0.4290 C.2   1 <1>   0.7150 
  3 N       -2.8010     1.7590     0.7760 N.am  1 <1>  -0.6600 
  4 C       -0.6380     2.8930     0.4230 C.2   1 <1>   0.0550 
  5 C       -3.5880     0.5240     1.0730 C.3   1 <1>   0.1400 
  6 C       -3.6640     2.9480     0.5070 C.3   1 <1>   0.1400 
  7 O        0.3190     3.0630    -0.4870 O.3   1 <1>  -0.2800 
  8 C       -0.6400     3.9830     1.2440 C.2   1 <1>  -0.1500 
  9 C       -4.6250     0.2640    -0.0310 C.3   1 <1>   0.1100 
 10 C       -4.7160     2.6260    -0.5690 C.3   1 <1>   0.1100 
 11 C        0.9150     4.2130    -0.2720 C.2   1 <1>  -0.0100 
 12 C        0.3660     4.8370     0.7910 C.2   1 <1>  -0.1500 
 13 N       -5.5170     1.4280    -0.2210 N.3   1 <1>  -0.8100 
 14 C       -6.5260     1.1430    -1.2860 C.3   1 <1>   0.1710 
 15 C       -7.6660     2.1620    -1.3710 C.2   1 <1>   0.5690 
 16 O       -8.1920     2.3780    -2.4370 O.2   1 <1>  -0.5700 
 17 N       -8.0420     2.7930    -0.2300 N.am  1 <1>  -0.7300 
 18 C       -9.0860     3.8170    -0.1010 C.3   1 <1>   0.2200 
 19 C       -8.4300     5.1410     0.3050 C.3   1 <1>  -0.1600 
 20 C      -10.1070     3.3570     0.9440 C.3   1 <1>  -0.1600 
 21 C       -9.4850     6.2270     0.5610 C.3   1 <1>  -0.1600 
 22 C      -11.1650     4.4400     1.2010 C.3   1 <1>  -0.1600 
 23 C      -10.5110     5.7690     1.6060 C.3   1 <1>  -0.1600 
 24 H       -4.0960     0.6470     2.0130 H     1 <1>   0.0800 
 25 H       -2.9380    -0.3290     1.1610 H     1 <1>   0.0800 
 26 H       -3.0750     3.7810     0.1700 H     1 <1>   0.0800 
 27 H       -4.1630     3.2360     1.4160 H     1 <1>   0.0800 
 28 H       -1.2790     4.1650     2.0890 H     1 <1>   0.1500 
 29 H       -5.2120    -0.5950     0.2440 H     1 <1>   0.0800 
 30 H       -4.1080     0.0380    -0.9490 H     1 <1>   0.0800 
 31 H       -4.2150     2.4690    -1.5100 H     1 <1>   0.0800 
 32 H       -5.3660     3.4770    -0.6800 H     1 <1>   0.0800 
 33 H        1.7220     4.5110    -0.9190 H     1 <1>   0.1500 
 34 H        0.6300     5.7880     1.2210 H     1 <1>   0.1500 
 35 H       -6.9780     0.1860    -1.0950 H     1 <1>   0.0800 
 36 H       -6.0400     1.0910    -2.2450 H     1 <1>   0.0800 
 37 H       -7.4930     2.5820     0.6070 H     1 <1>   0.3700 
 38 H       -9.5850     3.9450    -1.0490 H     1 <1>   0.0800 
 39 H       -7.7710     5.4640    -0.4820 H     1 <1>   0.0800 
 40 H       -7.8520     4.9960     1.2000 H     1 <1>   0.0800 
 41 H       -9.6020     3.1350     1.8680 H     1 <1>   0.0800 
 42 H      -10.5920     2.4620     0.5960 H     1 <1>   0.0800 
 43 H       -9.9930     6.4530    -0.3620 H     1 <1>   0.0800 
 44 H       -9.0010     7.1280     0.8990 H     1 <1>   0.0800 
 45 H      -11.8340     4.1150     1.9790 H     1 <1>   0.0800 
 46 H      -11.7470     4.5880     0.3070 H     1 <1>   0.0800 
 47 H      -11.2710     6.5240     1.7190 H     1 <1>   0.0800 
 48 H      -10.0220     5.6500     2.5570 H     1 <1>   0.0800 
@<TRIPOS>BOND
  1   1   2  2   
  2   2   3  am  
  3   2   4  1   
  4   3   5  1   
  5   3   6  1   
  6   4   7  1   
  7   4   8  2   
  8   5   9  1   
  9   5  24  1   
 10   5  25  1   
 11   6  10  1   
 12   6  26  1   
 13   6  27  1   
 14   7  11  1   
 15   8  12  1   
 16   8  28  1   
 17   9  13  1   
 18   9  29  1   
 19   9  30  1   
 20  10  13  1   
 21  10  31  1   
 22  10  32  1   
 23  11  12  2   
 24  11  33  1   
 25  12  34  1   
 26  13  14  1   
 27  14  15  1   
 28  14  35  1   
 29  14  36  1   
 30  15  16  2   
 31  15  17  am  
 32  17  18  1   
 33  17  37  1   
 34  18  19  1   
 35  18  20  1   
 36  18  38  1   
 37  19  21  1   
 38  19  39  1   
 39  19  40  1   
 40  20  22  1   
 41  20  41  1   
 42  20  42  1   
 43  21  23  1   
 44  21  43  1   
 45  21  44  1   
 46  22  23  1   
 47  22  45  1   
 48  22  46  1   
 49  23  47  1   
 50  23  48  1   
@<TRIPOS>SUBSTRUCTURE
  1 ****  10 GROUP 4 **** **** 0

# MOE 2024.06 (io_trps.svl 2023.06)
