@<TRIPOS>MOLECULE
NONAME
34 34 1 0 0 
SMALL
USER_CHARGES


@<TRIPOS>ATOM
  1 F       -1.2300    -0.6850    -1.0890 F     1 <1>  -0.3400 
  2 C       -1.8420     0.0390    -0.1540 C.3   1 <1>   1.0810 
  3 F       -1.2600    -0.2770     1.0020 F     1 <1>  -0.3400 
  4 F       -1.4900     1.3040    -0.3950 F     1 <1>  -0.3400 
  5 C       -3.3950    -0.1460    -0.1410 C.2   1 <1>   0.5690 
  6 O       -3.8710    -1.2410     0.0860 O.2   1 <1>  -0.5700 
  7 N       -4.2070     0.9470    -0.3880 N.am  1 <1>  -0.5470 
  8 C       -5.6050     1.1370    -0.4410 C.ar  1 <1>   0.1170 
  9 C       -6.0750     2.4470    -0.5780 C.ar  1 <1>   0.0830 
 10 C       -6.5270     0.0990    -0.3760 C.ar  1 <1>  -0.1500 
 11 O       -5.1330     3.4370    -0.6620 O.3   1 <1>  -0.3620 
 12 C       -7.4410     2.6990    -0.6300 C.ar  1 <1>  -0.1500 
 13 C       -7.8930     0.3510    -0.4250 C.ar  1 <1>   0.0830 
 14 C       -5.5040     4.7870    -0.8510 C.3   1 <1>   0.0400 
 15 C       -8.3600     1.6630    -0.5340 C.ar  1 <1>   0.1170 
 16 O       -8.8320    -0.6430    -0.3740 O.3   1 <1>  -0.3630 
 17 N       -9.7460     1.9080    -0.5750 N.am  1 <1>  -0.5470 
 18 C       -8.4620    -1.9850    -0.1370 C.3   1 <1>   0.0400 
 19 C      -10.5330     2.8260     0.0420 C.2   1 <1>   0.5690 
 20 O      -11.7210     2.8270    -0.1510 O.2   1 <1>  -0.5700 
 21 C       -9.9590     3.8440     0.9990 C.3   1 <1>  -0.1790 
 22 H       -3.7170     1.8390    -0.5320 H     1 <1>   0.3700 
 23 H       -6.1710    -0.9060    -0.2930 H     1 <1>   0.1500 
 24 H       -7.8140     3.6950    -0.7540 H     1 <1>   0.1500 
 25 H       -4.6070     5.3770    -0.9030 H     1 <1>   0.0800 
 26 H       -6.1020     5.1070    -0.0150 H     1 <1>   0.0800 
 27 H       -6.0510     4.8750    -1.7730 H     1 <1>   0.0800 
 28 H      -10.2900     1.1530    -0.9980 H     1 <1>   0.3700 
 29 H       -9.3600    -2.5750    -0.0820 H     1 <1>   0.0800 
 30 H       -7.9310    -2.0430     0.7970 H     1 <1>   0.0800 
 31 H       -7.8490    -2.3300    -0.9510 H     1 <1>   0.0800 
 32 H       -9.1590     3.4120     1.5710 H     1 <1>   0.0800 
 33 H      -10.7270     4.1680     1.6770 H     1 <1>   0.0800 
 34 H       -9.6020     4.6940     0.4520 H     1 <1>   0.0800 
@<TRIPOS>BOND
  1   1   2  1   
  2   2   3  1   
  3   2   4  1   
  4   2   5  1   
  5   5   6  2   
  6   5   7  am  
  7   7   8  1   
  8   7  22  1   
  9   8   9  ar  
 10   8  10  ar  
 11   9  11  1   
 12   9  12  ar  
 13  10  13  ar  
 14  10  23  1   
 15  11  14  1   
 16  12  15  ar  
 17  12  24  1   
 18  13  15  ar  
 19  13  16  1   
 20  14  25  1   
 21  14  26  1   
 22  14  27  1   
 23  15  17  1   
 24  16  18  1   
 25  17  19  am  
 26  17  28  1   
 27  18  29  1   
 28  18  30  1   
 29  18  31  1   
 30  19  20  2   
 31  19  21  1   
 32  21  32  1   
 33  21  33  1   
 34  21  34  1   
@<TRIPOS>SUBSTRUCTURE
  1 ****   8 GROUP 4 **** **** 0

# MOE 2024.06 (io_trps.svl 2023.06)
