@<TRIPOS>MOLECULE
NONAME
42 43 1 0 0 
SMALL
USER_CHARGES


@<TRIPOS>ATOM
  1 O       -0.0570    -0.0600     0.6620 O.2   1 <1>  -0.5700 
  2 C       -0.4720     0.8610    -0.0110 C.2   1 <1>   0.6900 
  3 N       -1.7830     0.9530    -0.3540 N.am  1 <1>  -0.5470 
  4 N        0.3510     1.8540    -0.4620 N.am  1 <1>  -0.5470 
  5 C       -2.8080     0.0640    -0.1260 C.ar  1 <1>   0.4270 
  6 C        1.7030     2.1180    -0.2000 C.ar  1 <1>   0.1170 
  7 N       -3.8680     0.6620     0.3970 N.ar  1 <1>  -0.6200 
  8 C       -2.7640    -1.3020    -0.4520 C.ar  1 <1>  -0.1430 
  9 C        2.4350     2.8460    -1.1300 C.ar  1 <1>  -0.1500 
 10 C        2.3450     1.7020     0.9610 C.ar  1 <1>  -0.1500 
 11 C       -4.9040    -0.1150     0.6600 C.ar  1 <1>   0.1600 
 12 C       -3.8610    -2.0870    -0.1660 C.ar  1 <1>  -0.1500 
 13 C       -1.5690    -1.9670    -1.1260 C.3   1 <1>  -0.0970 
 14 C        3.7680     3.1460    -0.9110 C.ar  1 <1>  -0.1500 
 15 C        3.6770     1.9990     1.1820 C.ar  1 <1>  -0.1500 
 16 C       -4.9530    -1.4720     0.4080 C.ar  1 <1>  -0.1500 
 17 C        4.3990     2.7250     0.2480 C.ar  1 <1>  -0.1430 
 18 C        5.8640     3.0490     0.4900 C.3   1 <1>  -0.0170 
 19 C        6.7600     1.9420    -0.0770 C.3   1 <1>  -0.1600 
 20 C        8.2460     2.2430     0.1570 C.3   1 <1>  -0.1600 
 21 C        9.1290     1.1300    -0.4130 C.3   1 <1>  -0.2400 
 22 H       -2.1440     1.8990    -0.3380 H     1 <1>   0.3700 
 23 H       -0.0600     2.4230    -1.1940 H     1 <1>   0.3700 
 24 H        1.9650     3.1800    -2.0360 H     1 <1>   0.1500 
 25 H        1.8040     1.1420     1.7030 H     1 <1>   0.1500 
 26 H       -5.7650     0.3580     1.1020 H     1 <1>   0.1500 
 27 H       -3.8750    -3.1410    -0.3820 H     1 <1>   0.1500 
 28 H       -1.0770    -1.2840    -1.7940 H     1 <1>   0.0800 
 29 H       -1.8810    -2.8230    -1.6960 H     1 <1>   0.0800 
 30 H       -0.8640    -2.2920    -0.3810 H     1 <1>   0.0800 
 31 H        4.3160     3.7070    -1.6480 H     1 <1>   0.1500 
 32 H        4.1510     1.6600     2.0870 H     1 <1>   0.1500 
 33 H       -5.8330    -2.0380     0.6530 H     1 <1>   0.1500 
 34 H        6.0390     3.1530     1.5470 H     1 <1>   0.0800 
 35 H        6.1070     3.9880     0.0250 H     1 <1>   0.0800 
 36 H        6.5740     1.8440    -1.1330 H     1 <1>   0.0800 
 37 H        6.5030     1.0070     0.3920 H     1 <1>   0.0800 
 38 H        8.4340     2.3370     1.2140 H     1 <1>   0.0800 
 39 H        8.5050     3.1770    -0.3130 H     1 <1>   0.0800 
 40 H        8.9000     0.1900     0.0580 H     1 <1>   0.0800 
 41 H       10.1660     1.3570    -0.2390 H     1 <1>   0.0800 
 42 H        8.9740     1.0330    -1.4730 H     1 <1>   0.0800 
@<TRIPOS>BOND
  1   1   2  2   
  2   2   3  am  
  3   2   4  am  
  4   3   5  1   
  5   3  22  1   
  6   4   6  1   
  7   4  23  1   
  8   5   7  ar  
  9   5   8  ar  
 10   6   9  ar  
 11   6  10  ar  
 12   7  11  ar  
 13   8  12  ar  
 14   8  13  1   
 15   9  14  ar  
 16   9  24  1   
 17  10  15  ar  
 18  10  25  1   
 19  11  16  ar  
 20  11  26  1   
 21  12  16  ar  
 22  12  27  1   
 23  13  28  1   
 24  13  29  1   
 25  13  30  1   
 26  14  17  ar  
 27  14  31  1   
 28  15  17  ar  
 29  15  32  1   
 30  16  33  1   
 31  17  18  1   
 32  18  19  1   
 33  18  34  1   
 34  18  35  1   
 35  19  20  1   
 36  19  36  1   
 37  19  37  1   
 38  20  21  1   
 39  20  38  1   
 40  20  39  1   
 41  21  40  1   
 42  21  41  1   
 43  21  42  1   
@<TRIPOS>SUBSTRUCTURE
  1 ****   4 GROUP 4 **** **** 0

# MOE 2024.06 (io_trps.svl 2023.06)
