@<TRIPOS>MOLECULE
NONAME
33 33 1 0 0 
SMALL
USER_CHARGES


@<TRIPOS>ATOM
  1 CL       0.4120    -0.0380     0.1910 Cl    1 <1>  -0.1770 
  2 C       -1.0610     0.8850    -0.0110 C.ar  1 <1>   0.1770 
  3 C       -1.0370     2.2630    -0.2470 C.ar  1 <1>   0.0860 
  4 C       -2.2440     0.1720     0.0670 C.ar  1 <1>  -0.1500 
  5 C        0.1740     3.0600    -0.3250 C.2   1 <1>   0.5440 
  6 C       -2.2770     2.8850    -0.4170 C.ar  1 <1>  -0.1500 
  7 C       -3.4530     0.8200    -0.0980 C.ar  1 <1>  -0.1500 
  8 O        0.2310     4.0030    -1.0890 O.2   1 <1>  -0.5700 
  9 N        1.2550     2.8060     0.4710 N.am  1 <1>  -0.7300 
 10 C       -3.4660     2.1810    -0.3430 C.ar  1 <1>  -0.1500 
 11 C        2.5440     3.5300     0.4390 C.3   1 <1>   0.1400 
 12 C        3.6750     2.5210     0.2460 C.3   1 <1>  -0.1600 
 13 C        5.0370     3.2240     0.2060 C.3   1 <1>  -0.1600 
 14 C        6.1750     2.2140     0.0220 C.3   1 <1>  -0.1600 
 15 C        7.5410     2.9170    -0.0160 C.3   1 <1>  -0.2660 
 16 C        8.6830     1.9400    -0.1820 C.2   1 <1>   0.9060 
 17 O        9.0860     1.6920    -1.3220 O.co2 1 <1>  -0.9000 
 18 O        9.1710     1.4280     0.8290 O.co2 1 <1>  -0.9000 
 19 H       -2.2160    -0.8880     0.2520 H     1 <1>   0.1500 
 20 H       -2.3030     3.9440    -0.6120 H     1 <1>   0.1500 
 21 H       -4.3780     0.2710    -0.0400 H     1 <1>   0.1500 
 22 H        1.2560     1.9570     1.0400 H     1 <1>   0.3700 
 23 H       -4.4040     2.6940    -0.4770 H     1 <1>   0.1500 
 24 H        2.6750     4.0620     1.3650 H     1 <1>   0.0800 
 25 H        2.5500     4.2450    -0.3680 H     1 <1>   0.0800 
 26 H        3.5230     1.9930    -0.6800 H     1 <1>   0.0800 
 27 H        3.6670     1.8120     1.0540 H     1 <1>   0.0800 
 28 H        5.1930     3.7660     1.1230 H     1 <1>   0.0800 
 29 H        5.0560     3.9280    -0.6090 H     1 <1>   0.0800 
 30 H        6.0410     1.6690    -0.8970 H     1 <1>   0.0800 
 31 H        6.1740     1.5040     0.8320 H     1 <1>   0.0800 
 32 H        7.7070     3.4560     0.8970 H     1 <1>   0.0800 
 33 H        7.5810     3.6080    -0.8350 H     1 <1>   0.0800 
@<TRIPOS>BOND
  1   1   2  1   
  2   2   3  ar  
  3   2   4  ar  
  4   3   5  1   
  5   3   6  ar  
  6   4   7  ar  
  7   4  19  1   
  8   5   8  2   
  9   5   9  am  
 10   6  10  ar  
 11   6  20  1   
 12   7  10  ar  
 13   7  21  1   
 14   9  11  1   
 15   9  22  1   
 16  10  23  1   
 17  11  12  1   
 18  11  24  1   
 19  11  25  1   
 20  12  13  1   
 21  12  26  1   
 22  12  27  1   
 23  13  14  1   
 24  13  28  1   
 25  13  29  1   
 26  14  15  1   
 27  14  30  1   
 28  14  31  1   
 29  15  16  1   
 30  15  32  1   
 31  15  33  1   
 32  16  17  ar  
 33  16  18  ar  
@<TRIPOS>SUBSTRUCTURE
  1 ****   9 GROUP 4 **** **** 0

# MOE 2024.06 (io_trps.svl 2023.06)
