@<TRIPOS>MOLECULE
NONAME
43 45 1 0 0 
SMALL
USER_CHARGES


@<TRIPOS>ATOM
  1 F        5.7770     2.8700    -2.1190 F     1 <1>  -0.3400 
  2 C        5.7600     1.8860    -1.2260 C.3   1 <1>   1.1640 
  3 F        5.8600     0.7610    -1.9230 F     1 <1>  -0.3400 
  4 F        6.8920     2.0030    -0.5410 F     1 <1>  -0.3400 
  5 C        4.5230     1.9050    -0.3210 C.ar  1 <1>  -0.1440 
  6 C        4.4160     1.0120     0.7510 C.ar  1 <1>   0.1170 
  7 C        3.4870     2.8050    -0.5660 C.ar  1 <1>  -0.1500 
  8 N        5.4390     0.0940     1.0510 N.am  1 <1>  -0.5470 
  9 C        3.2730     1.0530     1.5430 C.ar  1 <1>  -0.1500 
 10 C        2.3600     2.8280     0.2330 C.ar  1 <1>  -0.1500 
 11 C        5.4020    -1.1580     1.5970 C.2   1 <1>   0.5690 
 12 C        2.2520     1.9480     1.2910 C.ar  1 <1>  -0.1500 
 13 O        4.3880    -1.7330     1.9120 O.2   1 <1>  -0.5700 
 14 C        6.7510    -1.8480     1.8070 C.3   1 <1>   0.1710 
 15 N        7.8420    -1.2940     0.9490 N.3   1 <1>  -0.8100 
 16 C        9.1600    -1.6390     1.5050 C.3   1 <1>   0.1100 
 17 C        7.7130    -1.7930    -0.4360 C.3   1 <1>   0.1100 
 18 C       10.2600    -0.9580     0.6910 C.3   1 <1>  -0.1600 
 19 C        8.7560    -1.1220    -1.3280 C.3   1 <1>  -0.1600 
 20 C       10.1550    -1.3610    -0.7800 C.3   1 <1>   0.5600 
 21 O       10.4870    -2.7040    -0.9380 O.3   1 <1>  -0.5600 
 22 O       11.0750    -0.6620    -1.5480 O.3   1 <1>  -0.5600 
 23 C       11.8220    -2.8080    -1.2790 C.3   1 <1>   0.1200 
 24 C       12.2430    -1.3930    -1.6240 C.3   1 <1>   0.1200 
 25 H        3.5410     3.5020    -1.3860 H     1 <1>   0.1500 
 26 H        6.4040     0.3390     0.7890 H     1 <1>   0.3700 
 27 H        3.1760     0.3760     2.3730 H     1 <1>   0.1500 
 28 H        1.5660     3.5280     0.0320 H     1 <1>   0.1500 
 29 H        1.3770     1.9580     1.9180 H     1 <1>   0.1500 
 30 H        6.6390    -2.9030     1.6290 H     1 <1>   0.0800 
 31 H        7.0080    -1.7140     2.8420 H     1 <1>   0.0800 
 32 H        9.2990    -2.7090     1.4870 H     1 <1>   0.0800 
 33 H        9.2230    -1.3030     2.5260 H     1 <1>   0.0800 
 34 H        6.7310    -1.5760    -0.8200 H     1 <1>   0.0800 
 35 H        7.8530    -2.8620    -0.4570 H     1 <1>   0.0800 
 36 H       11.2220    -1.2240     1.0840 H     1 <1>   0.0800 
 37 H       10.1380     0.1060     0.7730 H     1 <1>   0.0800 
 38 H        8.5640    -0.0660    -1.3580 H     1 <1>   0.0800 
 39 H        8.6920    -1.5100    -2.3280 H     1 <1>   0.0800 
 40 H       11.9140    -3.4690    -2.1230 H     1 <1>   0.0800 
 41 H       12.3730    -3.1950    -0.4400 H     1 <1>   0.0800 
 42 H       12.9460    -1.0040    -0.9080 H     1 <1>   0.0800 
 43 H       12.6430    -1.3170    -2.6200 H     1 <1>   0.0800 
@<TRIPOS>BOND
  1   1   2  1   
  2   2   3  1   
  3   2   4  1   
  4   2   5  1   
  5   5   6  ar  
  6   5   7  ar  
  7   6   8  1   
  8   6   9  ar  
  9   7  10  ar  
 10   7  25  1   
 11   8  11  am  
 12   8  26  1   
 13   9  12  ar  
 14   9  27  1   
 15  10  12  ar  
 16  10  28  1   
 17  11  13  2   
 18  11  14  1   
 19  12  29  1   
 20  14  15  1   
 21  14  30  1   
 22  14  31  1   
 23  15  16  1   
 24  15  17  1   
 25  16  18  1   
 26  16  32  1   
 27  16  33  1   
 28  17  19  1   
 29  17  34  1   
 30  17  35  1   
 31  18  20  1   
 32  18  36  1   
 33  18  37  1   
 34  19  20  1   
 35  19  38  1   
 36  19  39  1   
 37  20  21  1   
 38  20  22  1   
 39  21  23  1   
 40  22  24  1   
 41  23  24  1   
 42  23  40  1   
 43  23  41  1   
 44  24  42  1   
 45  24  43  1   
@<TRIPOS>SUBSTRUCTURE
  1 ****  15 GROUP 4 **** **** 0

# MOE 2024.06 (io_trps.svl 2023.06)
