@<TRIPOS>MOLECULE
NONAME
49 50 1 0 0 
SMALL
USER_CHARGES


@<TRIPOS>ATOM
  1 O        8.2870    -3.0230     0.6920 O.3   1 <1>  -0.3630 
  2 C        8.4400    -1.6860     0.4890 C.ar  1 <1>   0.0830 
  3 C        7.1210    -3.6940     0.2830 C.3   1 <1>   0.1200 
  4 C        9.7240    -1.1570     0.5980 C.ar  1 <1>  -0.1440 
  5 C        7.3720    -0.8470     0.1770 C.ar  1 <1>  -0.1500 
  6 C        7.3910    -5.1950     0.4320 C.3   1 <1>   0.3430 
  7 C        9.9210     0.1970     0.3780 C.ar  1 <1>  -0.1500 
  8 C       10.9220    -2.0320     0.9480 C.3   1 <1>   0.1220 
  9 C        7.5810     0.5040    -0.0350 C.ar  1 <1>  -0.1500 
 10 N        6.2450    -6.0410    -0.0350 N.4   1 <1>  -0.9590 
 11 C        8.8640     1.0330     0.0640 C.ar  1 <1>   0.0830 
 12 C       11.4710    -2.7080    -0.2980 C.2   1 <1>  -0.2880 
 13 C        5.0270    -5.9110     0.8190 C.3   1 <1>   0.3430 
 14 C        6.6630    -7.4770    -0.1600 C.3   1 <1>   0.3430 
 15 O        9.1590     2.3450    -0.1300 O.3   1 <1>  -0.3630 
 16 C       12.7300    -2.6160    -0.7350 C.2   1 <1>  -0.3000 
 17 C        3.8180    -6.5050     0.0710 C.3   1 <1>  -0.0800 
 18 C        5.4530    -8.4230    -0.2430 C.3   1 <1>  -0.1600 
 19 C        8.1570     3.2790    -0.4630 C.3   1 <1>   0.0400 
 20 C        4.1940    -7.7330    -0.7890 C.3   1 <1>  -0.1600 
 21 C        3.1270    -5.4420    -0.7970 C.3   1 <1>  -0.2400 
 22 H        6.9320    -3.4390    -0.7450 H     1 <1>   0.0800 
 23 H        6.3160    -3.3730     0.9180 H     1 <1>   0.0800 
 24 H        6.3690    -1.2180     0.0990 H     1 <1>   0.1500 
 25 H        7.6030    -5.4120     1.4660 H     1 <1>   0.0800 
 26 H        8.2670    -5.4320    -0.1500 H     1 <1>   0.0800 
 27 H       10.9060     0.6240     0.4460 H     1 <1>   0.1500 
 28 H       10.6350    -2.7790     1.6660 H     1 <1>   0.0800 
 29 H       11.6900    -1.4330     1.4040 H     1 <1>   0.0800 
 30 H        6.7410     1.1280    -0.2730 H     1 <1>   0.1500 
 31 H        5.9650    -5.7380    -0.9780 H     1 <1>   0.4500 
 32 H       10.7210    -3.2820    -0.8140 H     1 <1>   0.1500 
 33 H        4.8280    -4.8800     1.0570 H     1 <1>   0.0800 
 34 H        5.1780    -6.4480     1.7420 H     1 <1>   0.0800 
 35 H        7.2680    -7.7620     0.6860 H     1 <1>   0.0800 
 36 H        7.2630    -7.5920    -1.0480 H     1 <1>   0.0800 
 37 H       13.0950    -3.1020    -1.6240 H     1 <1>   0.1500 
 38 H       13.5030    -2.0480    -0.2460 H     1 <1>   0.1500 
 39 H        3.1110    -6.8200     0.8210 H     1 <1>   0.0800 
 40 H        5.2460    -8.8110     0.7400 H     1 <1>   0.0800 
 41 H        5.7080    -9.2660    -0.8620 H     1 <1>   0.0800 
 42 H        8.6220     4.2420    -0.5700 H     1 <1>   0.0800 
 43 H        7.4310     3.3100     0.3300 H     1 <1>   0.0800 
 44 H        7.7030     2.9870    -1.3940 H     1 <1>   0.0800 
 45 H        4.3830    -7.4340    -1.8070 H     1 <1>   0.0800 
 46 H        3.3700    -8.4270    -0.8090 H     1 <1>   0.0800 
 47 H        3.7850    -5.0680    -1.5610 H     1 <1>   0.0800 
 48 H        2.7970    -4.6150    -0.1910 H     1 <1>   0.0800 
 49 H        2.2590    -5.8650    -1.2750 H     1 <1>   0.0800 
@<TRIPOS>BOND
  1   1   2  1   
  2   1   3  1   
  3   2   4  ar  
  4   2   5  ar  
  5   3   6  1   
  6   3  22  1   
  7   3  23  1   
  8   4   7  ar  
  9   4   8  1   
 10   5   9  ar  
 11   5  24  1   
 12   6  10  1   
 13   6  25  1   
 14   6  26  1   
 15   7  11  ar  
 16   7  27  1   
 17   8  12  1   
 18   8  28  1   
 19   8  29  1   
 20   9  11  ar  
 21   9  30  1   
 22  10  13  1   
 23  10  14  1   
 24  10  31  1   
 25  11  15  1   
 26  12  16  2   
 27  12  32  1   
 28  13  17  1   
 29  13  33  1   
 30  13  34  1   
 31  14  18  1   
 32  14  35  1   
 33  14  36  1   
 34  15  19  1   
 35  16  37  1   
 36  16  38  1   
 37  17  20  1   
 38  17  21  1   
 39  17  39  1   
 40  18  20  1   
 41  18  40  1   
 42  18  41  1   
 43  19  42  1   
 44  19  43  1   
 45  19  44  1   
 46  20  45  1   
 47  20  46  1   
 48  21  47  1   
 49  21  48  1   
 50  21  49  1   
@<TRIPOS>SUBSTRUCTURE
  1 ****   1 GROUP 4 **** **** 0

# MOE 2024.06 (io_trps.svl 2023.06)
