@<TRIPOS>MOLECULE
NONAME
43 45 1 0 0 
SMALL
USER_CHARGES


@<TRIPOS>ATOM
  1 S        0.3020    -0.4180     0.5210 S.3   1 <1>  -0.2860 
  2 C        2.0380    -0.3220     0.9650 C.2   1 <1>   0.2420 
  3 C       -0.3160    -1.8060     1.5980 C.3   1 <1>   0.1310 
  4 N        2.5950    -1.1110     1.8110 N.2   1 <1>  -0.3380 
  5 N        2.8660     0.5760     0.4450 N.pl3 1 <1>   0.0480 
  6 C       -1.7960    -2.0820     1.3810 C.2   1 <1>   0.5690 
  7 N        3.8710    -0.7310     1.8720 N.2   1 <1>  -0.3380 
  8 C        4.0330     0.2710     1.0490 C.2   1 <1>   0.1330 
  9 C        2.5680     1.6500    -0.5260 C.3   1 <1>   0.0160 
 10 O       -2.3570    -2.8190     2.1570 O.2   1 <1>  -0.5700 
 11 N       -2.4430    -1.5060     0.3310 N.am  1 <1>  -0.5790 
 12 C        5.2800     0.9560     0.8160 C.ar  1 <1>   0.0530 
 13 C       -3.8620    -1.6740    -0.0080 C.3   1 <1>   0.0490 
 14 C        5.8430     1.0850    -0.4610 C.ar  1 <1>   0.0830 
 15 C        5.9710     1.5260     1.8840 C.ar  1 <1>  -0.1500 
 16 C       -4.2430    -1.6670    -1.4510 C.3   1 <1>  -0.2000 
 17 C       -4.5900    -0.5010    -0.5740 C.3   1 <1>  -0.2000 
 18 O        5.2510     0.5290    -1.5390 O.3   1 <1>  -0.3630 
 19 C        7.0160     1.7930    -0.6580 C.ar  1 <1>  -0.1500 
 20 C        7.1500     2.2230     1.6910 C.ar  1 <1>  -0.1500 
 21 C        5.4150    -0.8620    -1.6960 C.3   1 <1>   0.1200 
 22 C        7.6730     2.3630     0.4170 C.ar  1 <1>  -0.1500 
 23 C        4.5440    -1.3120    -2.8640 C.3   1 <1>  -0.2400 
 24 H       -0.1360    -1.5210     2.6180 H     1 <1>   0.0800 
 25 H        0.2640    -2.6780     1.3600 H     1 <1>   0.0800 
 26 H        1.5840     2.0420    -0.3440 H     1 <1>   0.0800 
 27 H        2.6190     1.2500    -1.5230 H     1 <1>   0.0800 
 28 H        3.2880     2.4420    -0.4240 H     1 <1>   0.0800 
 29 H       -1.9180    -0.8740    -0.2760 H     1 <1>   0.3700 
 30 H       -4.3870    -2.3360     0.6630 H     1 <1>   0.1000 
 31 H        5.5700     1.4180     2.8770 H     1 <1>   0.1500 
 32 H       -5.0390    -2.3130    -1.7760 H     1 <1>   0.1000 
 33 H       -3.4710    -1.5550    -2.1920 H     1 <1>   0.1000 
 34 H       -4.0620     0.4270    -0.7000 H     1 <1>   0.1000 
 35 H       -5.6220    -0.3580    -0.3040 H     1 <1>   0.1000 
 36 H        7.4130     1.8910    -1.6530 H     1 <1>   0.1500 
 37 H        7.6620     2.6560     2.5330 H     1 <1>   0.1500 
 38 H        5.1190    -1.3590    -0.7870 H     1 <1>   0.0800 
 39 H        6.4560    -1.0590    -1.8900 H     1 <1>   0.0800 
 40 H        8.5870     2.9100     0.2650 H     1 <1>   0.1500 
 41 H        3.5090    -1.1080    -2.6530 H     1 <1>   0.0800 
 42 H        4.6590    -2.3700    -3.0140 H     1 <1>   0.0800 
 43 H        4.8380    -0.8030    -3.7640 H     1 <1>   0.0800 
@<TRIPOS>BOND
  1   1   2  1   
  2   1   3  1   
  3   2   4  2   
  4   2   5  1   
  5   3   6  1   
  6   3  24  1   
  7   3  25  1   
  8   4   7  1   
  9   5   8  1   
 10   5   9  1   
 11   6  10  2   
 12   6  11  am  
 13   7   8  2   
 14   8  12  1   
 15   9  26  1   
 16   9  27  1   
 17   9  28  1   
 18  11  13  1   
 19  11  29  1   
 20  12  14  ar  
 21  12  15  ar  
 22  13  16  1   
 23  13  17  1   
 24  13  30  1   
 25  14  18  1   
 26  14  19  ar  
 27  15  20  ar  
 28  15  31  1   
 29  16  17  1   
 30  16  32  1   
 31  16  33  1   
 32  17  34  1   
 33  17  35  1   
 34  18  21  1   
 35  19  22  ar  
 36  19  36  1   
 37  20  22  ar  
 38  20  37  1   
 39  21  23  1   
 40  21  38  1   
 41  21  39  1   
 42  22  40  1   
 43  23  41  1   
 44  23  42  1   
 45  23  43  1   
@<TRIPOS>SUBSTRUCTURE
  1 ****   2 GROUP 4 **** **** 0

# MOE 2024.06 (io_trps.svl 2023.06)
