@<TRIPOS>MOLECULE
NONAME
32 33 1 0 0 
SMALL
USER_CHARGES


@<TRIPOS>ATOM
  1 O       -6.6660     1.6800     0.0170 O.3   1 <1>  -0.3630 
  2 C       -5.4610     2.3110     0.0030 C.ar  1 <1>   0.0830 
  3 C       -6.8010     0.2770     0.0450 C.3   1 <1>   0.0400 
  4 C       -5.4760     3.7220    -0.0250 C.ar  1 <1>   0.0830 
  5 C       -4.2620     1.6400     0.0140 C.ar  1 <1>  -0.1500 
  6 O       -6.6760     4.3410    -0.0360 O.3   1 <1>  -0.3630 
  7 C       -4.2810     4.4020    -0.0410 C.ar  1 <1>  -0.1500 
  8 C       -3.0120     2.3130    -0.0010 C.ar  1 <1>   0.0000 
  9 C       -6.8300     5.7420    -0.0630 C.3   1 <1>   0.0400 
 10 C       -3.0510     3.7290    -0.0290 C.ar  1 <1>   0.0000 
 11 C       -1.7510     1.6700     0.0090 C.ar  1 <1>   0.2180 
 12 C       -1.8280     4.4220    -0.0450 C.ar  1 <1>  -0.1500 
 13 N       -0.6060     2.3780    -0.0060 N.ar  1 <1>  -0.2100 
 14 C       -1.7270     0.1360     0.0390 C.3   1 <1>  -0.0970 
 15 C       -0.6460     3.7510    -0.0330 C.ar  1 <1>   0.2110 
 16 C        0.7510     1.7520     0.0040 C.3   1 <1>   0.2480 
 17 H       -7.8510     0.0460     0.0520 H     1 <1>   0.0800 
 18 H       -6.3400    -0.1010     0.9400 H     1 <1>   0.0800 
 19 H       -6.3430    -0.1360    -0.8360 H     1 <1>   0.0800 
 20 H       -4.2690     0.5700     0.0350 H     1 <1>   0.1500 
 21 H       -4.2650     5.4750    -0.0620 H     1 <1>   0.1500 
 22 H       -7.8830     5.9590    -0.0660 H     1 <1>   0.0800 
 23 H       -6.3760     6.1260    -0.9590 H     1 <1>   0.0800 
 24 H       -6.3740     6.1610     0.8150 H     1 <1>   0.0800 
 25 H       -1.8480     5.4980    -0.0660 H     1 <1>   0.1500 
 26 H       -2.2350    -0.2140     0.9210 H     1 <1>   0.0800 
 27 H       -0.7460    -0.2950     0.0450 H     1 <1>   0.0800 
 28 H       -2.2400    -0.2490    -0.8250 H     1 <1>   0.0800 
 29 H        0.2840     4.2970    -0.0450 H     1 <1>   0.1500 
 30 H        0.8700     1.1260    -0.8630 H     1 <1>   0.0800 
 31 H        0.8720     1.1590     0.8940 H     1 <1>   0.0800 
 32 H        1.5230     2.5010    -0.0110 H     1 <1>   0.0800 
@<TRIPOS>BOND
  1   1   2  1   
  2   1   3  1   
  3   2   4  ar  
  4   2   5  ar  
  5   3  17  1   
  6   3  18  1   
  7   3  19  1   
  8   4   6  1   
  9   4   7  ar  
 10   5   8  ar  
 11   5  20  1   
 12   6   9  1   
 13   7  10  ar  
 14   7  21  1   
 15   8  10  ar  
 16   8  11  ar  
 17   9  22  1   
 18   9  23  1   
 19   9  24  1   
 20  10  12  ar  
 21  11  13  ar  
 22  11  14  1   
 23  12  15  ar  
 24  12  25  1   
 25  13  15  ar  
 26  13  16  1   
 27  14  26  1   
 28  14  27  1   
 29  14  28  1   
 30  15  29  1   
 31  16  30  1   
 32  16  31  1   
 33  16  32  1   
@<TRIPOS>SUBSTRUCTURE
  1 ****   8 GROUP 4 **** **** 0

# MOE 2024.06 (io_trps.svl 2023.06)
