@<TRIPOS>MOLECULE
NONAME
30 30 1 0 0 
SMALL
USER_CHARGES


@<TRIPOS>ATOM
  1 P        0.0450    -0.0030    -0.3830 P.3   1 <1>   1.0390 
  2 O        0.5200    -0.0560    -1.8000 O.co2 1 <1>  -0.9500 
  3 O        0.9150    -0.4460     0.7490 O.co2 1 <1>  -0.9500 
  4 C       -0.6050     1.6530    -0.0290 C.ar  1 <1>  -0.1390 
  5 C       -1.4640    -0.9770    -0.2980 C.3   1 <1>  -0.1600 
  6 C       -0.7040     2.1350     1.2710 C.ar  1 <1>  -0.1500 
  7 C       -1.0590     2.4900    -1.0400 C.ar  1 <1>  -0.1500 
  8 C       -1.2610    -2.4800    -0.5490 C.3   1 <1>  -0.1600 
  9 C       -1.2340     3.3830     1.5550 C.ar  1 <1>  -0.1500 
 10 C       -1.5930     3.7410    -0.7770 C.ar  1 <1>  -0.1500 
 11 C       -2.5620    -3.2980    -0.6370 C.3   1 <1>  -0.1600 
 12 C       -1.6830     4.1900     0.5270 C.ar  1 <1>  -0.1500 
 13 C       -3.3950    -3.3110     0.6570 C.3   1 <1>  -0.1600 
 14 C       -4.5290    -2.2770     0.6450 C.3   1 <1>  -0.2400 
 15 H       -2.1680    -0.6100    -1.0180 H     1 <1>   0.0800 
 16 H       -1.9000    -0.8560     0.6730 H     1 <1>   0.0800 
 17 H       -0.3450     1.5050     2.0680 H     1 <1>   0.1500 
 18 H       -0.9800     2.1390    -2.0560 H     1 <1>   0.1500 
 19 H       -0.6280    -2.8740     0.2290 H     1 <1>   0.0800 
 20 H       -0.7210    -2.5890    -1.4750 H     1 <1>   0.0800 
 21 H       -1.2910     3.7180     2.5740 H     1 <1>   0.1500 
 22 H       -1.9310     4.3580    -1.5900 H     1 <1>   0.1500 
 23 H       -2.2810    -4.3120    -0.8620 H     1 <1>   0.0800 
 24 H       -3.1550    -2.9470    -1.4640 H     1 <1>   0.0800 
 25 H       -2.0950     5.1600     0.7390 H     1 <1>   0.1500 
 26 H       -2.7560    -3.1490     1.5080 H     1 <1>   0.0800 
 27 H       -3.8380    -4.2850     0.7680 H     1 <1>   0.0800 
 28 H       -4.1440    -1.2790     0.5420 H     1 <1>   0.0800 
 29 H       -5.0830    -2.3320     1.5650 H     1 <1>   0.0800 
 30 H       -5.2020    -2.4700    -0.1720 H     1 <1>   0.0800 
@<TRIPOS>BOND
  1   1   2  ar  
  2   1   3  ar  
  3   1   4  1   
  4   1   5  1   
  5   4   6  ar  
  6   4   7  ar  
  7   5   8  1   
  8   5  15  1   
  9   5  16  1   
 10   6   9  ar  
 11   6  17  1   
 12   7  10  ar  
 13   7  18  1   
 14   8  11  1   
 15   8  19  1   
 16   8  20  1   
 17   9  12  ar  
 18   9  21  1   
 19  10  12  ar  
 20  10  22  1   
 21  11  13  1   
 22  11  23  1   
 23  11  24  1   
 24  12  25  1   
 25  13  14  1   
 26  13  26  1   
 27  13  27  1   
 28  14  28  1   
 29  14  29  1   
 30  14  30  1   
@<TRIPOS>SUBSTRUCTURE
  1 ****   5 GROUP 4 **** **** 0

# MOE 2024.06 (io_trps.svl 2023.06)
