@<TRIPOS>MOLECULE
NONAME
46 49 1 0 0 
SMALL
USER_CHARGES


@<TRIPOS>ATOM
  1 S        0.4170    -0.2340     1.5640 S.o2  1 <1>   1.4470 
  2 O        0.3310     0.9400     2.4010 O.2   1 <1>  -0.6500 
  3 O        0.8730    -1.4710     2.1530 O.2   1 <1>  -0.6500 
  4 N        1.5800     0.1900     0.3950 N.am  1 <1>  -0.8490 
  5 C       -1.0750    -0.5390     0.6020 C.ar  1 <1>  -0.0090 
  6 C        2.9460    -0.0870     0.8780 C.3   1 <1>   0.1960 
  7 C        1.4430     1.5850    -0.0640 C.3   1 <1>   0.1960 
  8 C       -2.2920     0.0650     0.8740 C.ar  1 <1>   0.1900 
  9 C       -1.0780    -1.4230    -0.4640 C.ar  1 <1>   0.1900 
 10 C        4.0080     0.2300    -0.1950 C.3   1 <1>   0.3430 
 11 C        2.4690     1.9220    -1.1670 C.3   1 <1>   0.3430 
 12 F       -2.3900     0.9100     1.8620 F     1 <1>  -0.1900 
 13 C       -3.4410    -0.1740     0.1390 C.ar  1 <1>  -0.1500 
 14 F        0.0250    -2.0390    -0.7930 F     1 <1>  -0.1900 
 15 C       -2.2020    -1.6960    -1.2270 C.ar  1 <1>  -0.1500 
 16 N        3.8810     1.6350    -0.7330 N.4   1 <1>  -0.9590 
 17 C       -3.3950    -1.0630    -0.9220 C.ar  1 <1>  -0.1500 
 18 C        4.8600     1.8930    -1.8240 C.3   1 <1>   0.4860 
 19 C        6.2590     1.7560    -1.2560 C.ar  1 <1>  -0.1440 
 20 C        6.7610     2.7370    -0.4040 C.ar  1 <1>  -0.1500 
 21 C        7.0410     0.6460    -1.5810 C.ar  1 <1>  -0.1500 
 22 C        8.0300     2.5650     0.1090 C.ar  1 <1>   0.0820 
 23 C        8.3180     0.4950    -1.0550 C.ar  1 <1>  -0.1500 
 24 O        8.6990     3.3670     0.9410 O.3   1 <1>  -0.3630 
 25 C        8.7880     1.4760    -0.2060 C.ar  1 <1>   0.0820 
 26 C        9.9740     2.7610     1.1580 C.3   1 <1>   0.4000 
 27 O        9.9690     1.5430     0.4140 O.3   1 <1>  -0.3620 
 28 H        3.0370    -1.1300     1.1310 H     1 <1>   0.0800 
 29 H        3.1440     0.4830     1.7710 H     1 <1>   0.0800 
 30 H        1.5800     2.2660     0.7610 H     1 <1>   0.0800 
 31 H        0.4510     1.7390    -0.4530 H     1 <1>   0.0800 
 32 H        3.8920    -0.4780    -0.9990 H     1 <1>   0.0800 
 33 H        4.9890     0.0870     0.2310 H     1 <1>   0.0800 
 34 H        2.3710     2.9620    -1.4340 H     1 <1>   0.0800 
 35 H        2.2310     1.3330    -2.0370 H     1 <1>   0.0800 
 36 H       -4.3580     0.3270     0.3980 H     1 <1>   0.1500 
 37 H       -2.1430    -2.3950    -2.0430 H     1 <1>   0.1500 
 38 H        4.1260     2.2690     0.0380 H     1 <1>   0.4500 
 39 H       -4.2810    -1.2630    -1.5030 H     1 <1>   0.1500 
 40 H        4.7320     2.8910    -2.2130 H     1 <1>   0.0800 
 41 H        4.7180     1.1910    -2.6300 H     1 <1>   0.0800 
 42 H        6.2080     3.6190    -0.1340 H     1 <1>   0.1500 
 43 H        6.6720    -0.1150    -2.2500 H     1 <1>   0.1500 
 44 H        8.9380    -0.3520    -1.2930 H     1 <1>   0.1500 
 45 H       10.1010     2.5460     2.2040 H     1 <1>   0.0800 
 46 H       10.7490     3.4080     0.7870 H     1 <1>   0.0800 
@<TRIPOS>BOND
  1   1   2  2   
  2   1   3  2   
  3   1   4  am  
  4   1   5  1   
  5   4   6  1   
  6   4   7  1   
  7   5   8  ar  
  8   5   9  ar  
  9   6  10  1   
 10   6  28  1   
 11   6  29  1   
 12   7  11  1   
 13   7  30  1   
 14   7  31  1   
 15   8  12  1   
 16   8  13  ar  
 17   9  14  1   
 18   9  15  ar  
 19  10  16  1   
 20  10  32  1   
 21  10  33  1   
 22  11  16  1   
 23  11  34  1   
 24  11  35  1   
 25  13  17  ar  
 26  13  36  1   
 27  15  17  ar  
 28  15  37  1   
 29  16  18  1   
 30  16  38  1   
 31  17  39  1   
 32  18  19  1   
 33  18  40  1   
 34  18  41  1   
 35  19  20  ar  
 36  19  21  ar  
 37  20  22  ar  
 38  20  42  1   
 39  21  23  ar  
 40  21  43  1   
 41  22  24  1   
 42  22  25  ar  
 43  23  25  ar  
 44  23  44  1   
 45  24  26  1   
 46  25  27  1   
 47  26  27  1   
 48  26  45  1   
 49  26  46  1   
@<TRIPOS>SUBSTRUCTURE
  1 ****   6 GROUP 4 **** **** 0

# MOE 2024.06 (io_trps.svl 2023.06)
