@<TRIPOS>MOLECULE
NONAME
39 40 1 0 0 
SMALL
USER_CHARGES


@<TRIPOS>ATOM
  1 S        0.0730    -0.1610     0.0460 S.o2  1 <1>   1.3330 
  2 O        0.2570    -0.5910     1.4150 O.2   1 <1>  -0.6500 
  3 O        0.6230    -0.9530    -1.0310 O.2   1 <1>  -0.6500 
  4 N       -1.5960     0.0020    -0.2130 N.am  1 <1>  -0.8490 
  5 C        0.6660     1.5270    -0.1420 C.3   1 <1>  -0.0550 
  6 C       -2.3120     0.3990     1.0050 C.3   1 <1>   0.1960 
  7 C       -2.1760    -1.2050    -0.8130 C.3   1 <1>   0.1960 
  8 C        2.1850     1.6930     0.0410 C.3   1 <1>  -0.2400 
  9 C       -3.7790     0.6960     0.6900 C.3   1 <1>  -0.1600 
 10 C       -3.6470    -0.9750    -1.1710 C.3   1 <1>  -0.1600 
 11 C       -4.4640    -0.5240     0.0510 C.3   1 <1>  -0.0190 
 12 C       -5.9190    -0.2360    -0.3230 C.2   1 <1>   0.5690 
 13 O       -6.1670     0.7230    -1.0100 O.2   1 <1>  -0.5700 
 14 N       -6.8780    -1.0950     0.1420 N.am  1 <1>  -0.5470 
 15 C       -8.2790    -1.1030    -0.0170 C.ar  1 <1>   0.1170 
 16 C       -9.0210    -0.1110    -0.6700 C.ar  1 <1>   0.1600 
 17 C       -8.9830    -2.1700     0.5160 C.ar  1 <1>  -0.1500 
 18 N      -10.3390    -0.1080    -0.8200 N.ar  1 <1>  -0.6200 
 19 C      -10.3530    -2.1840     0.3690 C.ar  1 <1>  -0.1500 
 20 C      -10.9740    -1.1430    -0.2980 C.ar  1 <1>   0.1600 
 21 H        0.1670     2.1550     0.5700 H     1 <1>   0.0800 
 22 H        0.4000     1.8760    -1.1220 H     1 <1>   0.0800 
 23 H       -1.8580     1.2820     1.4220 H     1 <1>   0.0800 
 24 H       -2.2480    -0.3870     1.7410 H     1 <1>   0.0800 
 25 H       -2.0790    -2.0330    -0.1300 H     1 <1>   0.0800 
 26 H       -1.6450    -1.4540    -1.7180 H     1 <1>   0.0800 
 27 H        2.4760     1.3720     1.0270 H     1 <1>   0.0800 
 28 H        2.4670     2.7220    -0.0870 H     1 <1>   0.0800 
 29 H        2.7120     1.0950    -0.6830 H     1 <1>   0.0800 
 30 H       -3.8270     1.5380     0.0200 H     1 <1>   0.0800 
 31 H       -4.2920     0.9680     1.5950 H     1 <1>   0.0800 
 32 H       -4.0600    -1.8820    -1.5740 H     1 <1>   0.0800 
 33 H       -3.7000    -0.2230    -1.9410 H     1 <1>   0.0800 
 34 H       -4.4500    -1.3220     0.7710 H     1 <1>   0.0800 
 35 H       -6.5200    -1.8720     0.6910 H     1 <1>   0.3700 
 36 H       -8.5040     0.7300    -1.0920 H     1 <1>   0.1500 
 37 H       -8.4820    -2.9690     1.0310 H     1 <1>   0.1500 
 38 H      -10.9400    -2.9920     0.7660 H     1 <1>   0.1500 
 39 H      -12.0450    -1.1620    -0.4090 H     1 <1>   0.1500 
@<TRIPOS>BOND
  1   1   2  2   
  2   1   3  2   
  3   1   4  am  
  4   1   5  1   
  5   4   6  1   
  6   4   7  1   
  7   5   8  1   
  8   5  21  1   
  9   5  22  1   
 10   6   9  1   
 11   6  23  1   
 12   6  24  1   
 13   7  10  1   
 14   7  25  1   
 15   7  26  1   
 16   8  27  1   
 17   8  28  1   
 18   8  29  1   
 19   9  11  1   
 20   9  30  1   
 21   9  31  1   
 22  10  11  1   
 23  10  32  1   
 24  10  33  1   
 25  11  12  1   
 26  11  34  1   
 27  12  13  2   
 28  12  14  am  
 29  14  15  1   
 30  14  35  1   
 31  15  16  ar  
 32  15  17  ar  
 33  16  18  ar  
 34  16  36  1   
 35  17  19  ar  
 36  17  37  1   
 37  18  20  ar  
 38  19  20  ar  
 39  19  38  1   
 40  20  39  1   
@<TRIPOS>SUBSTRUCTURE
  1 ****  11 GROUP 4 **** **** 0

# MOE 2024.06 (io_trps.svl 2023.06)
