@<TRIPOS>MOLECULE
NONAME
41 44 1 0 0 
SMALL
USER_CHARGES


@<TRIPOS>ATOM
  1 O        0.6540    -0.8150     1.6340 O.2   1 <1>  -0.5700 
  2 C        0.6900    -1.7960     0.9200 C.2   1 <1>   0.5440 
  3 N       -0.4140    -2.3490     0.3490 N.am  1 <1>  -0.6600 
  4 C        1.8670    -2.5220     0.5490 C.ar  1 <1>   0.0860 
  5 C       -0.0250    -3.5600    -0.3970 C.3   1 <1>   0.8670 
  6 C       -1.7890    -1.8150     0.5410 C.3   1 <1>   0.2200 
  7 C        1.4890    -3.5800    -0.2510 C.ar  1 <1>  -0.1440 
  8 C        3.2100    -2.3270     0.8470 C.ar  1 <1>  -0.1500 
  9 O       -0.3280    -3.2880    -1.6980 O.3   1 <1>  -0.6800 
 10 C       -0.6640    -4.8600     0.1160 C.ar  1 <1>  -0.1440 
 11 C       -2.9460    -2.7600     0.2240 C.3   1 <1>  -0.1600 
 12 C       -2.0420    -0.5990    -0.3500 C.3   1 <1>  -0.1600 
 13 C        2.4240    -4.4570    -0.7710 C.ar  1 <1>  -0.1500 
 14 C        4.1550    -3.1990     0.3330 C.ar  1 <1>  -0.1500 
 15 C       -0.6770    -5.1310     1.4800 C.ar  1 <1>  -0.1500 
 16 C       -1.2300    -5.7940    -0.7480 C.ar  1 <1>  -0.1500 
 17 C       -4.1360    -1.8240     0.0380 C.3   1 <1>  -0.1600 
 18 C       -3.5560    -0.5610    -0.6050 C.3   1 <1>  -0.1600 
 19 C        3.7650    -4.2600    -0.4740 C.ar  1 <1>  -0.1500 
 20 C       -1.2410    -6.2950     1.9690 C.ar  1 <1>  -0.1500 
 21 C       -1.7950    -6.9600    -0.2610 C.ar  1 <1>  -0.1500 
 22 C       -1.8020    -7.2110     1.0990 C.ar  1 <1>  -0.1500 
 23 H       -1.8910    -1.5000     1.5680 H     1 <1>   0.0800 
 24 H        3.4970    -1.5000     1.4730 H     1 <1>   0.1500 
 25 H       -0.1020    -2.3520    -1.8200 H     1 <1>   0.4000 
 26 H       -3.1160    -3.4700     1.0140 H     1 <1>   0.0800 
 27 H       -2.7790    -3.2750    -0.7050 H     1 <1>   0.0800 
 28 H       -1.5300    -0.7100    -1.2890 H     1 <1>   0.0800 
 29 H       -1.7040     0.2990     0.1370 H     1 <1>   0.0800 
 30 H        2.1140    -5.2800    -1.3930 H     1 <1>   0.1500 
 31 H        5.1980    -3.0550     0.5590 H     1 <1>   0.1500 
 32 H       -0.2450    -4.4290     2.1750 H     1 <1>   0.1500 
 33 H       -1.2350    -5.6200    -1.8110 H     1 <1>   0.1500 
 34 H       -4.5490    -1.5770     1.0020 H     1 <1>   0.0800 
 35 H       -4.9060    -2.2700    -0.5690 H     1 <1>   0.0800 
 36 H       -3.7440    -0.5660    -1.6650 H     1 <1>   0.0800 
 37 H       -4.0010     0.3210    -0.1770 H     1 <1>   0.0800 
 38 H        4.5050    -4.9340    -0.8690 H     1 <1>   0.1500 
 39 H       -1.2440    -6.4880     3.0280 H     1 <1>   0.1500 
 40 H       -2.2300    -7.6710    -0.9410 H     1 <1>   0.1500 
 41 H       -2.2420    -8.1180     1.4780 H     1 <1>   0.1500 
@<TRIPOS>BOND
  1   1   2  2   
  2   2   3  am  
  3   2   4  1   
  4   3   5  1   
  5   3   6  1   
  6   4   7  ar  
  7   4   8  ar  
  8   5   7  1   
  9   5   9  1   
 10   5  10  1   
 11   6  11  1   
 12   6  12  1   
 13   6  23  1   
 14   7  13  ar  
 15   8  14  ar  
 16   8  24  1   
 17   9  25  1   
 18  10  15  ar  
 19  10  16  ar  
 20  11  17  1   
 21  11  26  1   
 22  11  27  1   
 23  12  18  1   
 24  12  28  1   
 25  12  29  1   
 26  13  19  ar  
 27  13  30  1   
 28  14  19  ar  
 29  14  31  1   
 30  15  20  ar  
 31  15  32  1   
 32  16  21  ar  
 33  16  33  1   
 34  17  18  1   
 35  17  34  1   
 36  17  35  1   
 37  18  36  1   
 38  18  37  1   
 39  19  38  1   
 40  20  22  ar  
 41  20  39  1   
 42  21  22  ar  
 43  21  40  1   
 44  22  41  1   
@<TRIPOS>SUBSTRUCTURE
  1 ****   5 GROUP 4 **** **** 0

# MOE 2024.06 (io_trps.svl 2023.06)
