@<TRIPOS>MOLECULE
NONAME
44 44 1 0 0 
SMALL
USER_CHARGES


@<TRIPOS>ATOM
  1 O        0.4350     0.8580     0.5560 O.2   1 <1>  -0.5700 
  2 C        0.7840     1.5230    -0.3890 C.2   1 <1>   0.5690 
  3 N       -0.0680     2.2910    -1.1240 N.am  1 <1>  -0.7300 
  4 C        2.2610     1.5390    -0.7830 C.3   1 <1>  -0.0190 
  5 C       -1.5270     2.5330    -0.9520 C.3   1 <1>   0.2200 
  6 C        2.9260     0.1560    -0.6360 C.3   1 <1>  -0.1600 
  7 C        3.0350     2.5840     0.0410 C.3   1 <1>  -0.1600 
  8 C       -1.8110     3.7430    -0.0010 C.3   1 <1>   0.0000 
  9 C       -2.2600     1.2270    -0.6140 C.3   1 <1>  -0.2400 
 10 C        4.4100     0.2030    -1.0050 C.3   1 <1>   0.1400 
 11 C        4.5210     2.6080    -0.3270 C.3   1 <1>   0.1400 
 12 C       -1.3080     3.5100     1.4360 C.3   1 <1>  -0.2400 
 13 C       -1.1260     5.0110    -0.5460 C.3   1 <1>  -0.2400 
 14 C       -3.3230     4.0320     0.0670 C.3   1 <1>  -0.2400 
 15 N        5.0950     1.2410    -0.1840 N.am  1 <1>  -0.6600 
 16 C        6.1480     1.0060     0.6630 C.2   1 <1>   0.5690 
 17 O        6.6960     1.8930     1.2730 O.2   1 <1>  -0.5700 
 18 C        6.6760    -0.3940     0.8700 C.3   1 <1>  -0.1790 
 19 H        0.3400     2.8800    -1.8470 H     1 <1>   0.3700 
 20 H        2.3210     1.8190    -1.8190 H     1 <1>   0.0800 
 21 H       -1.8930     2.8200    -1.9230 H     1 <1>   0.0800 
 22 H        2.4210    -0.5550    -1.2660 H     1 <1>   0.0800 
 23 H        2.8330    -0.1880     0.3800 H     1 <1>   0.0800 
 24 H        2.9420     2.3580     1.0900 H     1 <1>   0.0800 
 25 H        2.6150     3.5610    -0.1190 H     1 <1>   0.0800 
 26 H       -2.0760     0.9230     0.3990 H     1 <1>   0.0800 
 27 H       -1.9370     0.4440    -1.2750 H     1 <1>   0.0800 
 28 H       -3.3190     1.3490    -0.7400 H     1 <1>   0.0800 
 29 H        4.5190     0.4550    -2.0460 H     1 <1>   0.0800 
 30 H        4.8450    -0.7680    -0.8540 H     1 <1>   0.0800 
 31 H        5.0360     3.3060     0.3120 H     1 <1>   0.0800 
 32 H        4.6470     2.9360    -1.3440 H     1 <1>   0.0800 
 33 H       -0.2430     3.3680     1.4510 H     1 <1>   0.0800 
 34 H       -1.7660     2.6390     1.8690 H     1 <1>   0.0800 
 35 H       -1.5390     4.3540     2.0610 H     1 <1>   0.0800 
 36 H       -1.3680     5.8640     0.0650 H     1 <1>   0.0800 
 37 H       -0.0560     4.9010    -0.5430 H     1 <1>   0.0800 
 38 H       -1.4480     5.2150    -1.5510 H     1 <1>   0.0800 
 39 H       -3.8480     3.2220     0.5400 H     1 <1>   0.0800 
 40 H       -3.7280     4.1730    -0.9200 H     1 <1>   0.0800 
 41 H       -3.5130     4.9220     0.6400 H     1 <1>   0.0800 
 42 H        7.0610    -0.7800    -0.0540 H     1 <1>   0.0800 
 43 H        5.8910    -1.0280     1.2360 H     1 <1>   0.0800 
 44 H        7.4700    -0.3780     1.5940 H     1 <1>   0.0800 
@<TRIPOS>BOND
  1   1   2  2   
  2   2   3  am  
  3   2   4  1   
  4   3   5  1   
  5   3  19  1   
  6   4   6  1   
  7   4   7  1   
  8   4  20  1   
  9   5   8  1   
 10   5   9  1   
 11   5  21  1   
 12   6  10  1   
 13   6  22  1   
 14   6  23  1   
 15   7  11  1   
 16   7  24  1   
 17   7  25  1   
 18   8  12  1   
 19   8  13  1   
 20   8  14  1   
 21   9  26  1   
 22   9  27  1   
 23   9  28  1   
 24  10  15  1   
 25  10  29  1   
 26  10  30  1   
 27  11  15  1   
 28  11  31  1   
 29  11  32  1   
 30  12  33  1   
 31  12  34  1   
 32  12  35  1   
 33  13  36  1   
 34  13  37  1   
 35  13  38  1   
 36  14  39  1   
 37  14  40  1   
 38  14  41  1   
 39  15  16  am  
 40  16  17  2   
 41  16  18  1   
 42  18  42  1   
 43  18  43  1   
 44  18  44  1   
@<TRIPOS>SUBSTRUCTURE
  1 ****   4 GROUP 4 **** **** 0

# MOE 2024.06 (io_trps.svl 2023.06)
