@<TRIPOS>MOLECULE
NONAME
39 39 1 0 0 
SMALL
USER_CHARGES


@<TRIPOS>ATOM
  1 CL      -2.1210     0.7490     1.4900 Cl    1 <1>  -0.1770 
  2 C       -1.1190     1.9950     0.7840 C.ar  1 <1>   0.1770 
  3 C       -1.5170     2.5960    -0.4000 C.ar  1 <1>  -0.1440 
  4 C        0.0450     2.3680     1.4330 C.ar  1 <1>  -0.1500 
  5 C       -0.7110     3.5970    -0.9160 C.ar  1 <1>   0.1770 
  6 C       -2.7830     2.1600    -1.1070 C.3   1 <1>   0.4870 
  7 C        0.8380     3.3680     0.8940 C.ar  1 <1>  -0.1500 
  8 CL      -1.1840     4.4030    -2.3910 Cl    1 <1>  -0.1770 
  9 C        0.4570     3.9870    -0.2860 C.ar  1 <1>  -0.1500 
 10 N       -3.9680     2.5590    -0.2820 N.4   1 <1>  -0.9590 
 11 C       -5.1810     1.7530    -0.6770 C.3   1 <1>   0.3430 
 12 C       -4.1530     4.0410    -0.3440 C.3   1 <1>   0.3430 
 13 C       -6.3890     1.8720     0.2990 C.3   1 <1>   0.3430 
 14 C       -4.3970     4.5620     1.0660 C.3   1 <1>  -0.2400 
 15 N       -7.5580     0.9710    -0.0290 N.4   1 <1>  -0.9590 
 16 C       -8.7330     1.3090     0.8460 C.3   1 <1>   0.2630 
 17 C       -7.2480    -0.4920     0.1290 C.3   1 <1>   0.2630 
 18 H        0.3320     1.8810     2.3500 H     1 <1>   0.1500 
 19 H       -2.7540     1.0880    -1.2200 H     1 <1>   0.0800 
 20 H       -2.8420     2.5980    -2.0900 H     1 <1>   0.0800 
 21 H        1.7490     3.6640     1.3900 H     1 <1>   0.1500 
 22 H        1.0650     4.7670    -0.7140 H     1 <1>   0.1500 
 23 H       -3.6830     2.3260     0.6840 H     1 <1>   0.4500 
 24 H       -4.8960     0.7150    -0.7250 H     1 <1>   0.0800 
 25 H       -5.4980     2.0570    -1.6620 H     1 <1>   0.0800 
 26 H       -4.9740     4.3000    -0.9940 H     1 <1>   0.0800 
 27 H       -3.2640     4.5150    -0.7310 H     1 <1>   0.0800 
 28 H       -6.7310     2.8940     0.2890 H     1 <1>   0.0800 
 29 H       -6.0500     1.6460     1.2970 H     1 <1>   0.0800 
 30 H       -5.2970     4.1670     1.4970 H     1 <1>   0.0800 
 31 H       -4.4980     5.6340     1.0270 H     1 <1>   0.0800 
 32 H       -3.5590     4.3410     1.7040 H     1 <1>   0.0800 
 33 H       -7.8710     1.1290    -1.0030 H     1 <1>   0.4500 
 34 H       -8.4920     1.1460     1.8840 H     1 <1>   0.0800 
 35 H       -9.5800     0.6910     0.5920 H     1 <1>   0.0800 
 36 H       -9.0180     2.3410     0.7160 H     1 <1>   0.0800 
 37 H       -6.9440    -0.7080     1.1410 H     1 <1>   0.0800 
 38 H       -6.4600    -0.7930    -0.5420 H     1 <1>   0.0800 
 39 H       -8.1230    -1.0840    -0.0940 H     1 <1>   0.0800 
@<TRIPOS>BOND
  1   1   2  1   
  2   2   3  ar  
  3   2   4  ar  
  4   3   5  ar  
  5   3   6  1   
  6   4   7  ar  
  7   4  18  1   
  8   5   8  1   
  9   5   9  ar  
 10   6  10  1   
 11   6  19  1   
 12   6  20  1   
 13   7   9  ar  
 14   7  21  1   
 15   9  22  1   
 16  10  11  1   
 17  10  12  1   
 18  10  23  1   
 19  11  13  1   
 20  11  24  1   
 21  11  25  1   
 22  12  14  1   
 23  12  26  1   
 24  12  27  1   
 25  13  15  1   
 26  13  28  1   
 27  13  29  1   
 28  14  30  1   
 29  14  31  1   
 30  14  32  1   
 31  15  16  1   
 32  15  17  1   
 33  15  33  1   
 34  16  34  1   
 35  16  35  1   
 36  16  36  1   
 37  17  37  1   
 38  17  38  1   
 39  17  39  1   
@<TRIPOS>SUBSTRUCTURE
  1 ****  10 GROUP 4 **** **** 0

# MOE 2024.06 (io_trps.svl 2023.06)
