@<TRIPOS>MOLECULE
NONAME
35 35 1 0 0 
SMALL
USER_CHARGES


@<TRIPOS>ATOM
  1 F       -1.9210     0.7450     1.2460 F     1 <1>  -0.1900 
  2 C       -1.1470     1.7310     0.8720 C.ar  1 <1>   0.1900 
  3 C       -1.4840     2.4770    -0.2530 C.ar  1 <1>  -0.1440 
  4 C       -0.0140     1.9800     1.6210 C.ar  1 <1>  -0.1500 
  5 C       -0.6380     3.5110    -0.6400 C.ar  1 <1>  -0.1500 
  6 C       -2.7460     2.1650    -1.0420 C.3   1 <1>   0.2540 
  7 C        0.7970     3.0170     1.2060 C.ar  1 <1>   0.1900 
  8 C        0.5090     3.7860     0.0920 C.ar  1 <1>  -0.1500 
  9 N       -3.9290     2.6840    -0.3250 N.3   1 <1>  -0.8100 
 10 F        1.8770     3.2830     1.8900 F     1 <1>  -0.1900 
 11 C       -5.1660     1.9850    -0.6900 C.3   1 <1>   0.1100 
 12 C       -4.0350     4.1490    -0.4480 C.3   1 <1>   0.0300 
 13 C       -6.1510     2.0600     0.4880 C.3   1 <1>   0.3430 
 14 N       -7.3440     1.1640     0.3180 N.4   1 <1>  -0.9590 
 15 C       -8.3910     1.5140     1.3270 C.3   1 <1>   0.2630 
 16 C       -6.9680    -0.2810     0.4480 C.3   1 <1>   0.2630 
 17 H        0.2280     1.3940     2.4870 H     1 <1>   0.1500 
 18 H       -0.8670     4.1070    -1.5070 H     1 <1>   0.1500 
 19 H       -2.8140     1.0960    -1.1480 H     1 <1>   0.0800 
 20 H       -2.6910     2.5910    -2.0300 H     1 <1>   0.0800 
 21 H        1.1720     4.5830    -0.1940 H     1 <1>   0.1500 
 22 H       -4.9370     0.9520    -0.8820 H     1 <1>   0.0800 
 23 H       -5.5900     2.4210    -1.5780 H     1 <1>   0.0800 
 24 H       -3.1430     4.6160    -0.0660 H     1 <1>   0.0800 
 25 H       -4.8670     4.5190     0.1260 H     1 <1>   0.0800 
 26 H       -4.1620     4.4360    -1.4780 H     1 <1>   0.0800 
 27 H       -6.4780     3.0820     0.5890 H     1 <1>   0.0800 
 28 H       -5.6240     1.7890     1.3890 H     1 <1>   0.0800 
 29 H       -7.7370     1.3240    -0.6230 H     1 <1>   0.4500 
 30 H       -8.0130     1.3650     2.3260 H     1 <1>   0.0800 
 31 H       -9.2630     0.8930     1.1930 H     1 <1>   0.0800 
 32 H       -8.6850     2.5450     1.2200 H     1 <1>   0.0800 
 33 H       -6.5260    -0.4660     1.4140 H     1 <1>   0.0800 
 34 H       -6.2580    -0.5580    -0.3130 H     1 <1>   0.0800 
 35 H       -7.8410    -0.9060     0.3430 H     1 <1>   0.0800 
@<TRIPOS>BOND
  1   1   2  1   
  2   2   3  ar  
  3   2   4  ar  
  4   3   5  ar  
  5   3   6  1   
  6   4   7  ar  
  7   4  17  1   
  8   5   8  ar  
  9   5  18  1   
 10   6   9  1   
 11   6  19  1   
 12   6  20  1   
 13   7   8  ar  
 14   7  10  1   
 15   8  21  1   
 16   9  11  1   
 17   9  12  1   
 18  11  13  1   
 19  11  22  1   
 20  11  23  1   
 21  12  24  1   
 22  12  25  1   
 23  12  26  1   
 24  13  14  1   
 25  13  27  1   
 26  13  28  1   
 27  14  15  1   
 28  14  16  1   
 29  14  29  1   
 30  15  30  1   
 31  15  31  1   
 32  15  32  1   
 33  16  33  1   
 34  16  34  1   
 35  16  35  1   
@<TRIPOS>SUBSTRUCTURE
  1 ****   9 GROUP 4 **** **** 0

# MOE 2024.06 (io_trps.svl 2023.06)
