@<TRIPOS>MOLECULE
NONAME
39 41 1 0 0 
SMALL
USER_CHARGES


@<TRIPOS>ATOM
  1 O        0.1110    -0.2350     0.9600 O.3   1 <1>  -0.3620 
  2 C        0.2030    -1.5530     0.6270 C.ar  1 <1>   0.0830 
  3 C        0.8430     0.7490     0.2610 C.3   1 <1>   0.0400 
  4 C        1.4140    -2.2150     0.2530 C.ar  1 <1>   0.3100 
  5 C       -0.9840    -2.2380     0.6830 C.ar  1 <1>  -0.1500 
  6 N        2.6010    -1.5460     0.2520 N.ar  1 <1>  -0.6200 
  7 C        1.3350    -3.5900    -0.0940 C.ar  1 <1>   0.0000 
  8 C       -1.0490    -3.5890     0.3530 C.ar  1 <1>  -0.1500 
  9 C        3.6810    -2.1840    -0.0950 C.ar  1 <1>   0.4100 
 10 C        2.5210    -4.2530    -0.4880 C.ar  1 <1>  -0.1440 
 11 C        0.0870    -4.2450    -0.0300 C.ar  1 <1>  -0.1500 
 12 N        4.8810    -1.5050    -0.0720 N.pl3 1 <1>  -0.8380 
 13 C        3.6730    -3.5330    -0.4820 C.ar  1 <1>  -0.1500 
 14 C        2.5310    -5.7160    -0.9100 C.3   1 <1>  -0.0970 
 15 C        4.8840    -0.0430    -0.3400 C.3   1 <1>   0.2090 
 16 C        5.8980    -1.9330     0.9200 C.3   1 <1>   0.2090 
 17 C        6.2670     0.3830    -0.8430 C.3   1 <1>  -0.1600 
 18 C        7.2930    -1.5360     0.4270 C.3   1 <1>  -0.1600 
 19 C        7.3800    -0.0320     0.1300 C.3   1 <1>  -0.1600 
 20 H        0.3220     1.6840     0.3540 H     1 <1>   0.0800 
 21 H        0.9170     0.4660    -0.7740 H     1 <1>   0.0800 
 22 H        1.8190     0.8310     0.7030 H     1 <1>   0.0800 
 23 H       -1.8810    -1.7250     0.9810 H     1 <1>   0.1500 
 24 H       -1.9950    -4.0990     0.4030 H     1 <1>   0.1500 
 25 H        0.0220    -5.2860    -0.2850 H     1 <1>   0.1500 
 26 H        4.6120    -3.9600    -0.7770 H     1 <1>   0.1500 
 27 H        1.8820    -5.8590    -1.7560 H     1 <1>   0.0800 
 28 H        2.1980    -6.3370    -0.0980 H     1 <1>   0.0800 
 29 H        3.5210    -6.0270    -1.1900 H     1 <1>   0.0800 
 30 H        4.6370     0.4820     0.5670 H     1 <1>   0.0800 
 31 H        4.1380     0.1890    -1.0810 H     1 <1>   0.0800 
 32 H        5.8500    -2.9980     1.0670 H     1 <1>   0.0800 
 33 H        5.6900    -1.4540     1.8620 H     1 <1>   0.0800 
 34 H        6.2810     1.4500    -0.9790 H     1 <1>   0.0800 
 35 H        6.4350    -0.0730    -1.8030 H     1 <1>   0.0800 
 36 H        7.5130    -2.0960    -0.4650 H     1 <1>   0.0800 
 37 H        8.0210    -1.8020     1.1720 H     1 <1>   0.0800 
 38 H        7.2740     0.5200     1.0480 H     1 <1>   0.0800 
 39 H        8.3420     0.2020    -0.2940 H     1 <1>   0.0800 
@<TRIPOS>BOND
  1   1   2  1   
  2   1   3  1   
  3   2   4  ar  
  4   2   5  ar  
  5   3  20  1   
  6   3  21  1   
  7   3  22  1   
  8   4   6  ar  
  9   4   7  ar  
 10   5   8  ar  
 11   5  23  1   
 12   6   9  ar  
 13   7  10  ar  
 14   7  11  ar  
 15   8  11  ar  
 16   8  24  1   
 17   9  12  1   
 18   9  13  ar  
 19  10  13  ar  
 20  10  14  1   
 21  11  25  1   
 22  12  15  1   
 23  12  16  1   
 24  13  26  1   
 25  14  27  1   
 26  14  28  1   
 27  14  29  1   
 28  15  17  1   
 29  15  30  1   
 30  15  31  1   
 31  16  18  1   
 32  16  32  1   
 33  16  33  1   
 34  17  19  1   
 35  17  34  1   
 36  17  35  1   
 37  18  19  1   
 38  18  36  1   
 39  18  37  1   
 40  19  38  1   
 41  19  39  1   
@<TRIPOS>SUBSTRUCTURE
  1 ****   6 GROUP 4 **** **** 0

# MOE 2024.06 (io_trps.svl 2023.06)
