@<TRIPOS>MOLECULE
NONAME
40 41 1 0 0 
SMALL
USER_CHARGES


@<TRIPOS>ATOM
  1 CL       0.4630    -0.7540    -2.2840 Cl    1 <1>  -0.1770 
  2 C        1.2170    -1.7020    -1.0150 C.ar  1 <1>   0.1770 
  3 C        0.4360    -2.4840    -0.1620 C.ar  1 <1>   0.1000 
  4 C        2.5920    -1.6300    -0.8960 C.ar  1 <1>  -0.1500 
  5 N       -0.9720    -2.5530    -0.2770 N.pl3 1 <1>  -0.8380 
  6 C        1.1030    -3.2100     0.8440 C.ar  1 <1>   0.1170 
  7 C        3.2290    -2.3480     0.1000 C.ar  1 <1>  -0.1500 
  8 C       -1.8420    -1.7750     0.6590 C.3   1 <1>   0.2090 
  9 C       -1.6400    -3.0730    -1.5080 C.3   1 <1>   0.2090 
 10 N        0.3820    -4.0230     1.7380 N.am  1 <1>  -0.5470 
 11 C        2.4820    -3.1310     0.9640 C.ar  1 <1>  -0.1500 
 12 C       -3.2880    -2.3320     0.7060 C.3   1 <1>   0.3430 
 13 C       -2.8760    -3.9420    -1.1540 C.3   1 <1>   0.3430 
 14 C       -0.3930    -5.0680     1.3700 C.2   1 <1>   0.5690 
 15 N       -3.3610    -3.7700     0.2690 N.4   1 <1>  -0.9590 
 16 O       -1.4860    -5.2230     1.8580 O.2   1 <1>  -0.5700 
 17 C        0.0840    -6.0110     0.2930 C.3   1 <1>  -0.1790 
 18 C       -4.6820    -4.3850     0.5430 C.3   1 <1>   0.3430 
 19 C       -4.5980    -5.8980     0.3810 C.3   1 <1>  -0.2400 
 20 H        3.1560    -1.0150    -1.5750 H     1 <1>   0.1500 
 21 H        4.3000    -2.2970     0.2040 H     1 <1>   0.1500 
 22 H       -1.8620    -0.7420     0.3580 H     1 <1>   0.0800 
 23 H       -1.4180    -1.8170     1.6470 H     1 <1>   0.0800 
 24 H       -0.9430    -3.6490    -2.0920 H     1 <1>   0.0800 
 25 H       -1.9570    -2.2400    -2.1120 H     1 <1>   0.0800 
 26 H        0.0790    -3.5650     2.5960 H     1 <1>   0.3700 
 27 H        2.9790    -3.6900     1.7380 H     1 <1>   0.1500 
 28 H       -3.9080    -1.7330     0.0610 H     1 <1>   0.0800 
 29 H       -3.6660    -2.2300     1.7100 H     1 <1>   0.0800 
 30 H       -2.6160    -4.9750    -1.3110 H     1 <1>   0.0800 
 31 H       -3.6680    -3.7030    -1.8430 H     1 <1>   0.0800 
 32 H       -2.6600    -4.2670     0.8620 H     1 <1>   0.4500 
 33 H        1.0800    -6.3420     0.5210 H     1 <1>   0.0800 
 34 H        0.0910    -5.5110    -0.6570 H     1 <1>   0.0800 
 35 H       -0.5620    -6.8680     0.2400 H     1 <1>   0.0800 
 36 H       -5.4270    -3.9820    -0.1250 H     1 <1>   0.0800 
 37 H       -4.9780    -4.1610     1.5560 H     1 <1>   0.0800 
 38 H       -4.4000    -6.1780    -0.6370 H     1 <1>   0.0800 
 39 H       -5.5400    -6.3340     0.6630 H     1 <1>   0.0800 
 40 H       -3.8400    -6.3070     1.0260 H     1 <1>   0.0800 
@<TRIPOS>BOND
  1   1   2  1   
  2   2   3  ar  
  3   2   4  ar  
  4   3   5  1   
  5   3   6  ar  
  6   4   7  ar  
  7   4  20  1   
  8   5   8  1   
  9   5   9  1   
 10   6  10  1   
 11   6  11  ar  
 12   7  11  ar  
 13   7  21  1   
 14   8  12  1   
 15   8  22  1   
 16   8  23  1   
 17   9  13  1   
 18   9  24  1   
 19   9  25  1   
 20  10  14  am  
 21  10  26  1   
 22  11  27  1   
 23  12  15  1   
 24  12  28  1   
 25  12  29  1   
 26  13  15  1   
 27  13  30  1   
 28  13  31  1   
 29  14  16  2   
 30  14  17  1   
 31  15  18  1   
 32  15  32  1   
 33  17  33  1   
 34  17  34  1   
 35  17  35  1   
 36  18  19  1   
 37  18  36  1   
 38  18  37  1   
 39  19  38  1   
 40  19  39  1   
 41  19  40  1   
@<TRIPOS>SUBSTRUCTURE
  1 ****   5 GROUP 4 **** **** 0

# MOE 2024.06 (io_trps.svl 2023.06)
