@<TRIPOS>MOLECULE
NONAME
49 50 1 0 0 
SMALL
USER_CHARGES


@<TRIPOS>ATOM
  1 O       -0.0780    -0.5140     1.3440 O.2   1 <1>  -0.5700 
  2 C        0.0180    -1.1170     0.2940 C.2   1 <1>   0.6900 
  3 N        1.2150    -1.5040    -0.2270 N.am  1 <1>  -0.5470 
  4 N       -1.1040    -1.4280    -0.4030 N.am  1 <1>  -0.7300 
  5 C        2.5300    -1.2360     0.1890 C.ar  1 <1>   0.1170 
  6 C       -2.4550    -1.1090     0.0780 C.3   1 <1>   0.2200 
  7 C        3.5520    -2.1590    -0.0670 C.ar  1 <1>  -0.1430 
  8 C        2.8410    -0.0410     0.8290 C.ar  1 <1>  -0.1500 
  9 C       -3.4530    -2.1320    -0.4540 C.3   1 <1>  -0.1600 
 10 C       -2.8330     0.3010    -0.3690 C.3   1 <1>  -0.1600 
 11 C        4.8630    -1.8600     0.3010 C.ar  1 <1>  -0.1430 
 12 C        3.2080    -3.4860    -0.7500 C.3   1 <1>  -0.0970 
 13 C        4.1370     0.2460     1.2040 C.ar  1 <1>  -0.1500 
 14 C       -4.8660    -1.7690    -0.0030 C.3   1 <1>   0.3430 
 15 C       -4.2500     0.6330     0.0860 C.3   1 <1>   0.3430 
 16 C        5.1430    -0.6610     0.9380 C.ar  1 <1>  -0.1500 
 17 C        6.0290    -2.8040     0.0330 C.3   1 <1>  -0.0970 
 18 N       -5.2100    -0.3850    -0.4530 N.4   1 <1>  -0.9590 
 19 C       -6.6410    -0.0770    -0.1830 C.3   1 <1>   0.4230 
 20 C       -7.0570     1.1340    -1.0120 C.3   1 <1>  -0.2400 
 21 C       -6.9090     0.1590     1.3050 C.3   1 <1>  -0.2400 
 22 H        1.1510    -2.2060    -0.9530 H     1 <1>   0.3700 
 23 H       -1.0080    -1.7230    -1.3720 H     1 <1>   0.3700 
 24 H       -2.4560    -1.1470     1.1580 H     1 <1>   0.0800 
 25 H        2.0680     0.6760     1.0330 H     1 <1>   0.1500 
 26 H       -3.2040    -3.1040    -0.0640 H     1 <1>   0.0800 
 27 H       -3.4170    -2.1770    -1.5280 H     1 <1>   0.0800 
 28 H       -2.7610     0.3960    -1.4370 H     1 <1>   0.0800 
 29 H       -2.1540     1.0060     0.0790 H     1 <1>   0.0800 
 30 H        2.3030    -3.8970    -0.3400 H     1 <1>   0.0800 
 31 H        3.9710    -4.2270    -0.6070 H     1 <1>   0.0800 
 32 H        3.0820    -3.3300    -1.8060 H     1 <1>   0.0800 
 33 H        4.3610     1.1730     1.7020 H     1 <1>   0.1500 
 34 H       -4.9230    -1.8270     1.0720 H     1 <1>   0.0800 
 35 H       -5.5670    -2.4770    -0.4170 H     1 <1>   0.0800 
 36 H       -4.5140     1.6180    -0.2640 H     1 <1>   0.0800 
 37 H       -4.2860     0.6360     1.1640 H     1 <1>   0.0800 
 38 H        6.1490    -0.4210     1.2330 H     1 <1>   0.1500 
 39 H        6.0480    -3.0850    -1.0050 H     1 <1>   0.0800 
 40 H        5.9330    -3.6870     0.6390 H     1 <1>   0.0800 
 41 H        6.9680    -2.3360     0.2660 H     1 <1>   0.0800 
 42 H       -5.1100    -0.3690    -1.4750 H     1 <1>   0.4500 
 43 H       -7.2400    -0.9160    -0.5040 H     1 <1>   0.0800 
 44 H       -6.5570     2.0300    -0.6920 H     1 <1>   0.0800 
 45 H       -8.1150     1.2950    -0.9000 H     1 <1>   0.0800 
 46 H       -6.8630     0.9660    -2.0570 H     1 <1>   0.0800 
 47 H       -6.4180     1.0450     1.6650 H     1 <1>   0.0800 
 48 H       -6.6080    -0.6860     1.8970 H     1 <1>   0.0800 
 49 H       -7.9660     0.2950     1.4550 H     1 <1>   0.0800 
@<TRIPOS>BOND
  1   1   2  2   
  2   2   3  am  
  3   2   4  am  
  4   3   5  1   
  5   3  22  1   
  6   4   6  1   
  7   4  23  1   
  8   5   7  ar  
  9   5   8  ar  
 10   6   9  1   
 11   6  10  1   
 12   6  24  1   
 13   7  11  ar  
 14   7  12  1   
 15   8  13  ar  
 16   8  25  1   
 17   9  14  1   
 18   9  26  1   
 19   9  27  1   
 20  10  15  1   
 21  10  28  1   
 22  10  29  1   
 23  11  16  ar  
 24  11  17  1   
 25  12  30  1   
 26  12  31  1   
 27  12  32  1   
 28  13  16  ar  
 29  13  33  1   
 30  14  18  1   
 31  14  34  1   
 32  14  35  1   
 33  15  18  1   
 34  15  36  1   
 35  15  37  1   
 36  16  38  1   
 37  17  39  1   
 38  17  40  1   
 39  17  41  1   
 40  18  19  1   
 41  18  42  1   
 42  19  20  1   
 43  19  21  1   
 44  19  43  1   
 45  20  44  1   
 46  20  45  1   
 47  20  46  1   
 48  21  47  1   
 49  21  48  1   
 50  21  49  1   
@<TRIPOS>SUBSTRUCTURE
  1 ****   2 GROUP 4 **** **** 0

# MOE 2024.06 (io_trps.svl 2023.06)
