@<TRIPOS>MOLECULE
NONAME
35 35 1 0 0 
SMALL
USER_CHARGES


@<TRIPOS>ATOM
  1 S       -0.1340     0.2460    -1.3780 S.o2  1 <1>   1.4470 
  2 O        0.1540     1.4830    -2.0590 O.2   1 <1>  -0.6500 
  3 O        0.0690    -0.9870    -2.1010 O.2   1 <1>  -0.6500 
  4 N        1.0700     0.1310    -0.2490 N.am  1 <1>  -0.9780 
  5 C       -1.7020     0.2070    -0.4350 C.ar  1 <1>  -0.0090 
  6 C       -2.2890     1.2660     0.2850 C.ar  1 <1>  -0.1430 
  7 C       -2.3660    -1.0200    -0.4260 C.ar  1 <1>  -0.1500 
  8 C       -3.4920     1.0410     0.9480 C.ar  1 <1>  -0.1500 
  9 C       -1.7540     2.7040     0.4270 C.3   1 <1>   0.0630 
 10 C       -3.5590    -1.2390     0.2380 C.ar  1 <1>  -0.1430 
 11 C       -4.1200    -0.1860     0.9300 C.ar  1 <1>  -0.1500 
 12 C       -2.0610     3.5500    -0.8120 C.3   1 <1>  -0.2400 
 13 C       -0.2940     2.8260     0.8740 C.3   1 <1>  -0.2400 
 14 C       -4.2240    -2.6140     0.1970 C.3   1 <1>   0.0630 
 15 C       -5.6030    -2.5330    -0.4650 C.3   1 <1>  -0.2400 
 16 C       -4.3300    -3.2110     1.6040 C.3   1 <1>  -0.2400 
 17 H        1.7970     0.7290    -0.6310 H     1 <1>   0.4200 
 18 H        1.4020    -0.8230    -0.3710 H     1 <1>   0.4200 
 19 H       -1.9330    -1.8450    -0.9650 H     1 <1>   0.1500 
 20 H       -3.9710     1.8320     1.4980 H     1 <1>   0.1500 
 21 H       -2.3060     3.1660     1.2280 H     1 <1>   0.0800 
 22 H       -5.0490    -0.3140     1.4580 H     1 <1>   0.1500 
 23 H       -1.5520     3.1840    -1.6810 H     1 <1>   0.0800 
 24 H       -1.7630     4.5700    -0.6490 H     1 <1>   0.0800 
 25 H       -3.1180     3.5330    -1.0120 H     1 <1>   0.0800 
 26 H        0.3860     2.7450     0.0510 H     1 <1>   0.0800 
 27 H       -0.0640     2.0720     1.6050 H     1 <1>   0.0800 
 28 H       -0.1350     3.7900     1.3230 H     1 <1>   0.0800 
 29 H       -3.6160    -3.2770    -0.3950 H     1 <1>   0.0800 
 30 H       -6.2720    -1.9210     0.1130 H     1 <1>   0.0800 
 31 H       -6.0300    -3.5150    -0.5580 H     1 <1>   0.0800 
 32 H       -5.5110    -2.1050    -1.4480 H     1 <1>   0.0800 
 33 H       -4.9710    -2.6140     2.2270 H     1 <1>   0.0800 
 34 H       -3.3560    -3.2550     2.0560 H     1 <1>   0.0800 
 35 H       -4.7300    -4.2080     1.5550 H     1 <1>   0.0800 
@<TRIPOS>BOND
  1   1   2  2   
  2   1   3  2   
  3   1   4  am  
  4   1   5  1   
  5   4  17  1   
  6   4  18  1   
  7   5   6  ar  
  8   5   7  ar  
  9   6   8  ar  
 10   6   9  1   
 11   7  10  ar  
 12   7  19  1   
 13   8  11  ar  
 14   8  20  1   
 15   9  12  1   
 16   9  13  1   
 17   9  21  1   
 18  10  11  ar  
 19  10  14  1   
 20  11  22  1   
 21  12  23  1   
 22  12  24  1   
 23  12  25  1   
 24  13  26  1   
 25  13  27  1   
 26  13  28  1   
 27  14  15  1   
 28  14  16  1   
 29  14  29  1   
 30  15  30  1   
 31  15  31  1   
 32  15  32  1   
 33  16  33  1   
 34  16  34  1   
 35  16  35  1   
@<TRIPOS>SUBSTRUCTURE
  1 ****   5 GROUP 4 **** **** 0

# MOE 2024.06 (io_trps.svl 2023.06)
