@<TRIPOS>MOLECULE
NONAME
46 47 1 0 0 
SMALL
USER_CHARGES


@<TRIPOS>ATOM
  1 O       -0.1730    -0.0940     0.3140 O.2   1 <1>  -0.5700 
  2 C       -0.7760    -1.0750    -0.0760 C.2   1 <1>   0.6340 
  3 O       -0.0760    -2.1140    -0.5450 O.3   1 <1>  -0.4300 
  4 C       -2.2190    -1.1760    -0.0550 C.ar  1 <1>   0.0860 
  5 C        1.3370    -2.0960    -0.6000 C.3   1 <1>   0.0400 
  6 C       -3.0080    -0.1070     0.3730 C.ar  1 <1>  -0.1500 
  7 C       -2.8940    -2.3280    -0.4550 C.ar  1 <1>  -0.1500 
  8 C       -4.3920    -0.1480     0.4100 C.ar  1 <1>   0.1170 
  9 C       -4.2720    -2.3970    -0.4240 C.ar  1 <1>  -0.1500 
 10 N       -5.0210     1.0260     0.8790 N.am  1 <1>  -0.5470 
 11 C       -5.0520    -1.3290     0.0020 C.ar  1 <1>   0.1000 
 12 C       -5.8850     1.8630     0.2400 C.2   1 <1>   0.5690 
 13 N       -6.4350    -1.5250    -0.0120 N.pl3 1 <1>  -0.8380 
 14 O       -6.5430     1.5540    -0.7230 O.2   1 <1>  -0.5700 
 15 C       -6.0410     3.2650     0.8040 C.3   1 <1>  -0.0990 
 16 C       -7.2900    -1.2680     1.1820 C.3   1 <1>   0.2090 
 17 C       -7.1150    -1.7610    -1.3220 C.3   1 <1>   0.2090 
 18 C       -4.7800     4.1230     0.6170 C.3   1 <1>  -0.2400 
 19 C       -8.4720    -0.3260     0.8600 C.3   1 <1>   0.3430 
 20 C       -8.2940    -0.7960    -1.5550 C.3   1 <1>   0.3430 
 21 N       -9.2360    -0.7220    -0.3780 N.4   1 <1>  -0.9590 
 22 C      -10.3310     0.2510    -0.6560 C.3   1 <1>   0.2630 
 23 H        1.6750    -3.0300    -1.0120 H     1 <1>   0.0800 
 24 H        1.7230    -1.9670     0.3960 H     1 <1>   0.0800 
 25 H        1.6490    -1.2790    -1.2280 H     1 <1>   0.0800 
 26 H       -2.5040     0.7930     0.6810 H     1 <1>   0.1500 
 27 H       -2.3330    -3.1830    -0.7930 H     1 <1>   0.1500 
 28 H       -4.7580    -3.3050    -0.7290 H     1 <1>   0.1500 
 29 H       -4.5210     1.4660     1.6510 H     1 <1>   0.3700 
 30 H       -6.2840     3.1990     1.8490 H     1 <1>   0.0800 
 31 H       -6.8650     3.7460     0.3070 H     1 <1>   0.0800 
 32 H       -6.6940    -0.8400     1.9690 H     1 <1>   0.0800 
 33 H       -7.6710    -2.2070     1.5420 H     1 <1>   0.0800 
 34 H       -7.4690    -2.7770    -1.3540 H     1 <1>   0.0800 
 35 H       -6.4050    -1.6360    -2.1220 H     1 <1>   0.0800 
 36 H       -3.9410     3.6980     1.1380 H     1 <1>   0.0800 
 37 H       -4.9490     5.1160     0.9970 H     1 <1>   0.0800 
 38 H       -4.5340     4.1970    -0.4280 H     1 <1>   0.0800 
 39 H       -8.0800     0.6670     0.7290 H     1 <1>   0.0800 
 40 H       -9.1360    -0.3020     1.7080 H     1 <1>   0.0800 
 41 H       -8.8310    -1.1120    -2.4330 H     1 <1>   0.0800 
 42 H       -7.8940     0.1810    -1.7600 H     1 <1>   0.0800 
 43 H       -9.6260    -1.6620    -0.2250 H     1 <1>   0.4500 
 44 H       -9.9200     1.2330    -0.8250 H     1 <1>   0.0800 
 45 H      -11.0120     0.2990     0.1790 H     1 <1>   0.0800 
 46 H      -10.8830    -0.0460    -1.5330 H     1 <1>   0.0800 
@<TRIPOS>BOND
  1   1   2  2   
  2   2   3  1   
  3   2   4  1   
  4   3   5  1   
  5   4   6  ar  
  6   4   7  ar  
  7   5  23  1   
  8   5  24  1   
  9   5  25  1   
 10   6   8  ar  
 11   6  26  1   
 12   7   9  ar  
 13   7  27  1   
 14   8  10  1   
 15   8  11  ar  
 16   9  11  ar  
 17   9  28  1   
 18  10  12  am  
 19  10  29  1   
 20  11  13  1   
 21  12  14  2   
 22  12  15  1   
 23  13  16  1   
 24  13  17  1   
 25  15  18  1   
 26  15  30  1   
 27  15  31  1   
 28  16  19  1   
 29  16  32  1   
 30  16  33  1   
 31  17  20  1   
 32  17  34  1   
 33  17  35  1   
 34  18  36  1   
 35  18  37  1   
 36  18  38  1   
 37  19  21  1   
 38  19  39  1   
 39  19  40  1   
 40  20  21  1   
 41  20  41  1   
 42  20  42  1   
 43  21  22  1   
 44  21  43  1   
 45  22  44  1   
 46  22  45  1   
 47  22  46  1   
@<TRIPOS>SUBSTRUCTURE
  1 ****   8 GROUP 4 **** **** 0

# MOE 2024.06 (io_trps.svl 2023.06)
