@<TRIPOS>MOLECULE
NONAME
48 49 1 0 0 
SMALL
USER_CHARGES


@<TRIPOS>ATOM
  1 O       -5.9600    -1.8780     0.2560 O.3   1 <1>  -0.3630 
  2 C       -7.3110    -1.8040     0.1530 C.ar  1 <1>   0.0830 
  3 C       -5.3100    -3.1100     0.4850 C.3   1 <1>   0.1200 
  4 C       -7.8560    -0.5440    -0.0270 C.ar  1 <1>  -0.1500 
  5 C       -8.1550    -2.9080     0.2180 C.ar  1 <1>  -0.1500 
  6 C       -3.8010    -2.8520     0.5570 C.3   1 <1>   0.2000 
  7 C       -9.2260    -0.3660    -0.1430 C.ar  1 <1>  -0.1440 
  8 C       -9.5220    -2.7350     0.1030 C.ar  1 <1>  -0.1500 
  9 O       -3.4080    -2.1320    -0.5740 O.3   1 <1>  -0.6800 
 10 C       -2.9780    -4.1560     0.6300 C.3   1 <1>   0.3430 
 11 C      -10.0670    -1.4730    -0.0780 C.ar  1 <1>  -0.1440 
 12 C       -9.7740     1.0400    -0.3400 C.3   1 <1>  -0.0970 
 13 N       -1.5810    -3.9210     0.1510 N.4   1 <1>  -0.9590 
 14 C      -11.5770    -1.3300    -0.2000 C.3   1 <1>  -0.0970 
 15 C       -0.9540    -5.1430    -0.4230 C.3   1 <1>   0.3430 
 16 C       -0.7240    -3.2530     1.1700 C.3   1 <1>   0.3430 
 17 C        0.3820    -4.7790    -1.0720 C.3   1 <1>  -0.1600 
 18 C        0.6140    -2.8640     0.5420 C.3   1 <1>  -0.1600 
 19 C        1.3220    -4.0750    -0.0830 C.3   1 <1>  -0.0800 
 20 C        2.6150    -3.6430    -0.7810 C.3   1 <1>  -0.2400 
 21 H       -5.5460    -3.7740    -0.3280 H     1 <1>   0.0800 
 22 H       -5.6740    -3.5170     1.4130 H     1 <1>   0.0800 
 23 H       -7.1940     0.3000    -0.0750 H     1 <1>   0.1500 
 24 H       -7.7790    -3.9020     0.3550 H     1 <1>   0.1500 
 25 H       -3.5930    -2.2440     1.4210 H     1 <1>   0.0800 
 26 H      -10.1650    -3.5960     0.1540 H     1 <1>   0.1500 
 27 H       -4.0910    -1.4420    -0.7510 H     1 <1>   0.4000 
 28 H       -3.4530    -4.8820    -0.0090 H     1 <1>   0.0800 
 29 H       -2.9800    -4.5480     1.6340 H     1 <1>   0.0800 
 30 H       -8.9810     1.7650    -0.3630 H     1 <1>   0.0800 
 31 H      -10.4380     1.2920     0.4680 H     1 <1>   0.0800 
 32 H      -10.3120     1.0980    -1.2690 H     1 <1>   0.0800 
 33 H       -1.7110    -3.2300    -0.6150 H     1 <1>   0.4500 
 34 H      -11.8300    -0.8940    -1.1500 H     1 <1>   0.0800 
 35 H      -11.9520    -0.7010     0.5870 H     1 <1>   0.0800 
 36 H      -12.0630    -2.2860    -0.1280 H     1 <1>   0.0800 
 37 H       -1.6040    -5.5780    -1.1660 H     1 <1>   0.0800 
 38 H       -0.7890    -5.8690     0.3560 H     1 <1>   0.0800 
 39 H       -0.5520    -3.9210     1.9980 H     1 <1>   0.0800 
 40 H       -1.2140    -2.3660     1.5400 H     1 <1>   0.0800 
 41 H        0.1990    -4.1480    -1.9250 H     1 <1>   0.0800 
 42 H        0.8500    -5.6790    -1.4320 H     1 <1>   0.0800 
 43 H        1.2420    -2.4330     1.3020 H     1 <1>   0.0800 
 44 H        0.4450    -2.1060    -0.2040 H     1 <1>   0.0800 
 45 H        1.5800    -4.7680     0.7030 H     1 <1>   0.0800 
 46 H        2.4110    -2.9470    -1.5770 H     1 <1>   0.0800 
 47 H        3.1210    -4.4970    -1.1980 H     1 <1>   0.0800 
 48 H        3.2820    -3.1710    -0.0800 H     1 <1>   0.0800 
@<TRIPOS>BOND
  1   1   2  1   
  2   1   3  1   
  3   2   4  ar  
  4   2   5  ar  
  5   3   6  1   
  6   3  21  1   
  7   3  22  1   
  8   4   7  ar  
  9   4  23  1   
 10   5   8  ar  
 11   5  24  1   
 12   6   9  1   
 13   6  10  1   
 14   6  25  1   
 15   7  11  ar  
 16   7  12  1   
 17   8  11  ar  
 18   8  26  1   
 19   9  27  1   
 20  10  13  1   
 21  10  28  1   
 22  10  29  1   
 23  11  14  1   
 24  12  30  1   
 25  12  31  1   
 26  12  32  1   
 27  13  15  1   
 28  13  16  1   
 29  13  33  1   
 30  14  34  1   
 31  14  35  1   
 32  14  36  1   
 33  15  17  1   
 34  15  37  1   
 35  15  38  1   
 36  16  18  1   
 37  16  39  1   
 38  16  40  1   
 39  17  19  1   
 40  17  41  1   
 41  17  42  1   
 42  18  19  1   
 43  18  43  1   
 44  18  44  1   
 45  19  20  1   
 46  19  45  1   
 47  20  46  1   
 48  20  47  1   
 49  20  48  1   
@<TRIPOS>SUBSTRUCTURE
  1 ****   3 GROUP 4 **** **** 0

# MOE 2024.06 (io_trps.svl 2023.06)
