@<TRIPOS>MOLECULE
NONAME
43 44 1 0 0 
SMALL
USER_CHARGES


@<TRIPOS>ATOM
  1 O        0.0310     0.9370    -1.5330 O.2   1 <1>  -0.5700 
  2 C       -0.0740     1.6460    -0.5510 C.2   1 <1>   0.7160 
  3 N       -1.3040     1.8000     0.0070 N.am  1 <1>  -0.7300 
  4 C        1.0640     2.3240     0.0300 C.2   1 <1>  -0.0860 
  5 C       -2.5620     1.3390    -0.5810 C.3   1 <1>   0.3640 
  6 C        2.4000     2.1820    -0.2100 C.2   1 <1>  -0.0400 
  7 C        1.0060     3.3320     1.0190 C.2   1 <1>  -0.1500 
  8 C       -3.6440     2.3440    -0.2030 C.ar  1 <1>  -0.1440 
  9 C       -2.8690    -0.0640    -0.0670 C.3   1 <1>  -0.2400 
 10 O        3.1030     2.9990     0.5350 O.3   1 <1>  -0.2800 
 11 C        3.1660     1.2750    -1.1530 C.3   1 <1>  -0.0600 
 12 C        2.2760     3.6950     1.2790 C.2   1 <1>  -0.0400 
 13 C       -4.2580     3.0940    -1.1960 C.ar  1 <1>  -0.1500 
 14 C       -4.0220     2.5410     1.1200 C.ar  1 <1>  -0.1500 
 15 C        2.8480     4.7190     2.2340 C.3   1 <1>  -0.0600 
 16 C       -5.2320     4.0270    -0.8830 C.ar  1 <1>   0.0830 
 17 C       -5.0060     3.4610     1.4420 C.ar  1 <1>  -0.1500 
 18 O       -5.7570     4.7460    -1.9050 O.3   1 <1>  -0.3620 
 19 C       -5.6270     4.1970     0.4480 C.ar  1 <1>   0.0830 
 20 C       -5.4780     6.1290    -1.9040 C.3   1 <1>   0.0400 
 21 O       -6.6050     5.0560     0.8260 O.3   1 <1>  -0.3630 
 22 C       -7.9080     4.7640     0.3720 C.3   1 <1>   0.0400 
 23 H       -1.4210     2.4600     0.7700 H     1 <1>   0.3700 
 24 H       -2.4610     1.3030    -1.6540 H     1 <1>   0.0800 
 25 H        0.1100     3.7250     1.4640 H     1 <1>   0.1500 
 26 H       -2.9010    -0.0880     1.0070 H     1 <1>   0.0800 
 27 H       -2.1160    -0.7490    -0.4130 H     1 <1>   0.0800 
 28 H       -3.8210    -0.3860    -0.4480 H     1 <1>   0.0800 
 29 H        2.5070     0.6230    -1.6930 H     1 <1>   0.0800 
 30 H        3.8580     0.6750    -0.5900 H     1 <1>   0.0800 
 31 H        3.7160     1.8710    -1.8570 H     1 <1>   0.0800 
 32 H       -3.9810     2.9700    -2.2280 H     1 <1>   0.1500 
 33 H       -3.5580     1.9770     1.9110 H     1 <1>   0.1500 
 34 H        2.0580     5.2110     2.7700 H     1 <1>   0.0800 
 35 H        3.4090     5.4520     1.6830 H     1 <1>   0.0800 
 36 H        3.5010     4.2340     2.9350 H     1 <1>   0.0800 
 37 H       -5.3020     3.6080     2.4650 H     1 <1>   0.1500 
 38 H       -5.8650     6.5510    -2.8140 H     1 <1>   0.0800 
 39 H       -4.4130     6.2680    -1.8560 H     1 <1>   0.0800 
 40 H       -5.9540     6.5890    -1.0570 H     1 <1>   0.0800 
 41 H       -8.5890     5.4530     0.8370 H     1 <1>   0.0800 
 42 H       -8.1560     3.7550     0.6510 H     1 <1>   0.0800 
 43 H       -7.9480     4.8760    -0.6970 H     1 <1>   0.0800 
@<TRIPOS>BOND
  1   1   2  2   
  2   2   3  am  
  3   2   4  1   
  4   3   5  1   
  5   3  23  1   
  6   4   6  2   
  7   4   7  1   
  8   5   8  1   
  9   5   9  1   
 10   5  24  1   
 11   6  10  1   
 12   6  11  1   
 13   7  12  2   
 14   7  25  1   
 15   8  13  ar  
 16   8  14  ar  
 17   9  26  1   
 18   9  27  1   
 19   9  28  1   
 20  10  12  1   
 21  11  29  1   
 22  11  30  1   
 23  11  31  1   
 24  12  15  1   
 25  13  16  ar  
 26  13  32  1   
 27  14  17  ar  
 28  14  33  1   
 29  15  34  1   
 30  15  35  1   
 31  15  36  1   
 32  16  18  1   
 33  16  19  ar  
 34  17  19  ar  
 35  17  37  1   
 36  18  20  1   
 37  19  21  1   
 38  20  38  1   
 39  20  39  1   
 40  20  40  1   
 41  21  22  1   
 42  22  41  1   
 43  22  42  1   
 44  22  43  1   
@<TRIPOS>SUBSTRUCTURE
  1 ****   3 GROUP 4 **** **** 0

# MOE 2024.06 (io_trps.svl 2023.06)
