@<TRIPOS>MOLECULE
NONAME
44 46 1 0 0 
SMALL
USER_CHARGES


@<TRIPOS>ATOM
  1 S       -1.2680     1.4120    -0.3620 S.o2  1 <1>   1.5000 
  2 O       -1.3700     2.8350    -0.6140 O.2   1 <1>  -0.6500 
  3 O       -2.2040     0.5620    -1.0690 O.2   1 <1>  -0.6500 
  4 N       -1.5920     1.2070     1.2990 N.am  1 <1>  -0.8490 
  5 C        0.4330     0.8390    -0.5640 C.2   1 <1>  -0.0220 
  6 C       -1.8660     2.4440     2.0420 C.3   1 <1>   0.1960 
  7 C       -2.6420     0.2280     1.6090 C.3   1 <1>   0.1960 
  8 S        0.8360    -0.7650     0.0440 S.3   1 <1>  -0.0800 
  9 C        1.5320     1.3960    -1.1190 C.2   1 <1>  -0.1500 
 10 C       -3.2100     3.1130     1.6550 C.3   1 <1>   0.3430 
 11 C       -4.0590     0.6940     1.1880 C.3   1 <1>   0.3430 
 12 C        2.5030    -0.6140    -0.4790 C.2   1 <1>  -0.1100 
 13 C        2.7040     0.5760    -1.0700 C.2   1 <1>  -0.1500 
 14 N       -4.2880     2.1970     1.1040 N.4   1 <1>  -0.9590 
 15 C       -4.5910     2.5860    -0.3080 C.3   1 <1>   0.4860 
 16 C       -5.8650     1.8880    -0.7370 C.ar  1 <1>  -0.1430 
 17 C       -7.0850     2.2530    -0.1890 C.ar  1 <1>  -0.1500 
 18 C       -5.8180     0.8690    -1.6780 C.ar  1 <1>  -0.1500 
 19 C       -8.2480     1.5980    -0.5560 C.ar  1 <1>   0.0830 
 20 C       -6.9780     0.2150    -2.0540 C.ar  1 <1>  -0.1500 
 21 O       -9.3890     2.0150     0.0450 O.3   1 <1>  -0.3630 
 22 C       -8.1920     0.5730    -1.4960 C.ar  1 <1>  -0.1500 
 23 C      -10.6430     1.4720    -0.3080 C.3   1 <1>   0.0400 
 24 H       -1.0620     3.1470     1.8950 H     1 <1>   0.0800 
 25 H       -1.8850     2.2190     3.0950 H     1 <1>   0.0800 
 26 H       -2.6430     0.0410     2.6700 H     1 <1>   0.0800 
 27 H       -2.4200    -0.7140     1.1340 H     1 <1>   0.0800 
 28 H        1.5680     2.3720    -1.5720 H     1 <1>   0.1500 
 29 H       -2.9880     3.8710     0.9220 H     1 <1>   0.0800 
 30 H       -3.5870     3.6300     2.5220 H     1 <1>   0.0800 
 31 H       -4.7730     0.2590     1.8680 H     1 <1>   0.0800 
 32 H       -4.2600     0.2530     0.2250 H     1 <1>   0.0800 
 33 H        3.1620    -1.4430    -0.2870 H     1 <1>   0.1500 
 34 H        3.6390     0.9200    -1.4810 H     1 <1>   0.1500 
 35 H       -5.1640     2.3850     1.6080 H     1 <1>   0.4500 
 36 H       -3.7820     2.3080    -0.9620 H     1 <1>   0.0800 
 37 H       -4.7320     3.6520    -0.3800 H     1 <1>   0.0800 
 38 H       -7.1660     3.0500     0.5280 H     1 <1>   0.1500 
 39 H       -4.8820     0.5740    -2.1270 H     1 <1>   0.1500 
 40 H       -6.9370    -0.5740    -2.7860 H     1 <1>   0.1500 
 41 H       -9.0770     0.0480    -1.8030 H     1 <1>   0.1500 
 42 H      -11.3980     1.9700     0.2720 H     1 <1>   0.0800 
 43 H      -10.6450     0.4200    -0.0830 H     1 <1>   0.0800 
 44 H      -10.8150     1.6420    -1.3560 H     1 <1>   0.0800 
@<TRIPOS>BOND
  1   1   2  2   
  2   1   3  2   
  3   1   4  am  
  4   1   5  1   
  5   4   6  1   
  6   4   7  1   
  7   5   8  1   
  8   5   9  2   
  9   6  10  1   
 10   6  24  1   
 11   6  25  1   
 12   7  11  1   
 13   7  26  1   
 14   7  27  1   
 15   8  12  1   
 16   9  13  1   
 17   9  28  1   
 18  10  14  1   
 19  10  29  1   
 20  10  30  1   
 21  11  14  1   
 22  11  31  1   
 23  11  32  1   
 24  12  13  2   
 25  12  33  1   
 26  13  34  1   
 27  14  15  1   
 28  14  35  1   
 29  15  16  1   
 30  15  36  1   
 31  15  37  1   
 32  16  17  ar  
 33  16  18  ar  
 34  17  19  ar  
 35  17  38  1   
 36  18  20  ar  
 37  18  39  1   
 38  19  21  1   
 39  19  22  ar  
 40  20  22  ar  
 41  20  40  1   
 42  21  23  1   
 43  22  41  1   
 44  23  42  1   
 45  23  43  1   
 46  23  44  1   
@<TRIPOS>SUBSTRUCTURE
  1 ****  11 GROUP 4 **** **** 0

# MOE 2024.06 (io_trps.svl 2023.06)
