@<TRIPOS>MOLECULE
NONAME
48 49 1 0 0 
SMALL
USER_CHARGES


@<TRIPOS>ATOM
  1 CL      -0.3870    -0.8170    -0.4040 Cl    1 <1>  -0.1770 
  2 C        1.0860     0.1030    -0.1820 C.ar  1 <1>   0.1770 
  3 C        1.0750     1.4860    -0.3520 C.ar  1 <1>   0.0820 
  4 C        2.2340    -0.5770     0.1620 C.ar  1 <1>  -0.1500 
  5 O       -0.0920     2.0870    -0.6900 O.3   1 <1>  -0.3630 
  6 C        2.2620     2.1790    -0.1640 C.ar  1 <1>  -0.1500 
  7 C        3.4410     0.1050     0.3540 C.ar  1 <1>   0.0280 
  8 C       -0.1970     3.4960    -0.8270 C.3   1 <1>   0.1810 
  9 C        3.4170     1.4980     0.1850 C.ar  1 <1>   0.0830 
 10 C        4.6900    -0.5200     0.7080 C.2   1 <1>  -0.1670 
 11 C       -1.6180     3.9060    -1.1680 C.2   1 <1>   0.6590 
 12 O        4.5360     2.2260     0.3640 O.3   1 <1>  -0.2330 
 13 C        5.7850     0.2660     0.8990 C.2   1 <1>  -0.1240 
 14 C        4.7010    -2.0460     0.8300 C.3   1 <1>  -0.1020 
 15 O       -1.8670     4.4600    -2.2080 O.2   1 <1>  -0.5700 
 16 O       -2.5320     3.6350    -0.2410 O.3   1 <1>  -0.4300 
 17 C        5.7010     1.6930     0.7250 C.2   1 <1>   0.7060 
 18 C        7.1640    -0.2800     1.2870 C.3   1 <1>   0.0390 
 19 C       -3.9200     3.8700    -0.3010 C.3   1 <1>   0.2800 
 20 O        6.6270     2.4590     0.9000 O.2   1 <1>  -0.5700 
 21 C        7.9140    -0.7920     0.0740 C.2   1 <1>   0.6590 
 22 C       -4.1940     5.3740    -0.4040 C.3   1 <1>  -0.2400 
 23 C       -4.5310     3.0860    -1.4680 C.3   1 <1>  -0.2400 
 24 C       -4.4780     3.3370     1.0190 C.3   1 <1>  -0.2400 
 25 O        8.2010    -1.9560    -0.0380 O.2   1 <1>  -0.5700 
 26 O        8.2270     0.1070    -0.8500 O.3   1 <1>  -0.4300 
 27 C        8.9220    -0.2450    -2.0280 C.3   1 <1>   0.0400 
 28 H        2.1720    -1.6420     0.2790 H     1 <1>   0.1500 
 29 H        2.3230     3.2440    -0.2790 H     1 <1>   0.1500 
 30 H        0.4630     3.8110    -1.6150 H     1 <1>   0.0800 
 31 H        0.0880     3.9510     0.1030 H     1 <1>   0.0800 
 32 H        4.0640    -2.3550     1.6400 H     1 <1>   0.0800 
 33 H        5.6780    -2.4530     1.0060 H     1 <1>   0.0800 
 34 H        4.3410    -2.4880    -0.0820 H     1 <1>   0.0800 
 35 H        7.0660    -1.0760     1.9990 H     1 <1>   0.0800 
 36 H        7.7670     0.4720     1.7610 H     1 <1>   0.0800 
 37 H       -3.8640     5.7640    -1.3490 H     1 <1>   0.0800 
 38 H       -3.6980     5.9010     0.3910 H     1 <1>   0.0800 
 39 H       -5.2500     5.5590    -0.3280 H     1 <1>   0.0800 
 40 H       -4.2020     3.4780    -2.4120 H     1 <1>   0.0800 
 41 H       -5.6020     3.1590    -1.4390 H     1 <1>   0.0800 
 42 H       -4.2590     2.0470    -1.4030 H     1 <1>   0.0800 
 43 H       -4.0400     3.8610     1.8490 H     1 <1>   0.0800 
 44 H       -4.2660     2.2870     1.1150 H     1 <1>   0.0800 
 45 H       -5.5440     3.4720     1.0560 H     1 <1>   0.0800 
 46 H        9.0660     0.6440    -2.6160 H     1 <1>   0.0800 
 47 H        8.3380    -0.9630    -2.5750 H     1 <1>   0.0800 
 48 H        9.8740    -0.6680    -1.7570 H     1 <1>   0.0800 
@<TRIPOS>BOND
  1   1   2  1   
  2   2   3  ar  
  3   2   4  ar  
  4   3   5  1   
  5   3   6  ar  
  6   4   7  ar  
  7   4  28  1   
  8   5   8  1   
  9   6   9  ar  
 10   6  29  1   
 11   7   9  ar  
 12   7  10  1   
 13   8  11  1   
 14   8  30  1   
 15   8  31  1   
 16   9  12  1   
 17  10  13  2   
 18  10  14  1   
 19  11  15  2   
 20  11  16  1   
 21  12  17  1   
 22  13  17  1   
 23  13  18  1   
 24  14  32  1   
 25  14  33  1   
 26  14  34  1   
 27  16  19  1   
 28  17  20  2   
 29  18  21  1   
 30  18  35  1   
 31  18  36  1   
 32  19  22  1   
 33  19  23  1   
 34  19  24  1   
 35  21  25  2   
 36  21  26  1   
 37  22  37  1   
 38  22  38  1   
 39  22  39  1   
 40  23  40  1   
 41  23  41  1   
 42  23  42  1   
 43  24  43  1   
 44  24  44  1   
 45  24  45  1   
 46  26  27  1   
 47  27  46  1   
 48  27  47  1   
 49  27  48  1   
@<TRIPOS>SUBSTRUCTURE
  1 ****   6 GROUP 4 **** **** 0

# MOE 2024.06 (io_trps.svl 2023.06)
