@<TRIPOS>MOLECULE
NONAME
37 38 1 0 0 
SMALL
USER_CHARGES


@<TRIPOS>ATOM
  1 S       -0.5170     0.5180     0.0680 S.3   1 <1>  -0.0800 
  2 C       -1.1690    -1.1170    -0.0040 C.2   1 <1>   0.4620 
  3 C        1.0940    -0.1430     0.0160 C.2   1 <1>  -0.0450 
  4 N       -0.2490    -2.0250    -0.0630 N.2   1 <1>  -0.5650 
  5 N       -2.5270    -1.3210     0.0030 N.pl3 1 <1>  -0.8220 
  6 C        2.3050     0.5460     0.0380 C.2   1 <1>   0.5940 
  7 C        0.9950    -1.4650    -0.0510 C.2   1 <1>   0.0460 
  8 C       -3.5230    -0.2260     0.1070 C.3   1 <1>   0.2090 
  9 C       -3.0770    -2.6950    -0.1020 C.3   1 <1>   0.2090 
 10 O        2.4230     1.7480     0.0350 O.2   1 <1>  -0.5700 
 11 C        3.5590    -0.3150     0.0970 C.3   1 <1>  -0.0990 
 12 C        2.2290    -2.3360    -0.1380 C.3   1 <1>   0.0210 
 13 C       -3.8900     0.2510    -1.2950 C.3   1 <1>  -0.2400 
 14 C       -3.3270    -3.2430     1.3000 C.3   1 <1>  -0.2400 
 15 C        3.7790    -1.9090    -0.0330 C.3   1 <1>   0.0000 
 16 C        4.1650    -3.4720    -0.1340 C.3   1 <1>  -0.2400 
 17 C        5.3690    -1.6440     0.0440 C.3   1 <1>  -0.2400 
 18 H       -3.1250     0.5900     0.6840 H     1 <1>   0.0800 
 19 H       -4.4030    -0.5820     0.6140 H     1 <1>   0.0800 
 20 H       -2.3780    -3.3310    -0.6200 H     1 <1>   0.0800 
 21 H       -3.9930    -2.6820    -0.6670 H     1 <1>   0.0800 
 22 H        3.9420    -0.0200     1.0610 H     1 <1>   0.0800 
 23 H        4.1440     0.1670    -0.6720 H     1 <1>   0.0800 
 24 H        2.0800    -2.8040    -1.0990 H     1 <1>   0.0800 
 25 H        2.0200    -3.0600     0.6350 H     1 <1>   0.0800 
 26 H       -3.0150     0.6150    -1.8020 H     1 <1>   0.0800 
 27 H       -4.6050     1.0500    -1.2300 H     1 <1>   0.0800 
 28 H       -4.3210    -0.5520    -1.8630 H     1 <1>   0.0800 
 29 H       -2.4040    -3.2610     1.8510 H     1 <1>   0.0800 
 30 H       -3.7060    -4.2460     1.2340 H     1 <1>   0.0800 
 31 H       -4.0430    -2.6360     1.8220 H     1 <1>   0.0800 
 32 H        3.4320    -4.2010    -0.4480 H     1 <1>   0.0800 
 33 H        4.4660    -3.8330     0.8380 H     1 <1>   0.0800 
 34 H        4.9550    -3.6930    -0.8370 H     1 <1>   0.0800 
 35 H        5.7540    -0.6890     0.3710 H     1 <1>   0.0800 
 36 H        5.8010    -1.7600    -0.9380 H     1 <1>   0.0800 
 37 H        5.9000    -2.2940     0.7250 H     1 <1>   0.0800 
@<TRIPOS>BOND
  1   1   2  1   
  2   1   3  1   
  3   2   4  2   
  4   2   5  1   
  5   3   6  1   
  6   3   7  2   
  7   4   7  1   
  8   5   8  1   
  9   5   9  1   
 10   6  10  2   
 11   6  11  1   
 12   7  12  1   
 13   8  13  1   
 14   8  18  1   
 15   8  19  1   
 16   9  14  1   
 17   9  20  1   
 18   9  21  1   
 19  11  15  1   
 20  11  22  1   
 21  11  23  1   
 22  12  15  1   
 23  12  24  1   
 24  12  25  1   
 25  13  26  1   
 26  13  27  1   
 27  13  28  1   
 28  14  29  1   
 29  14  30  1   
 30  14  31  1   
 31  15  16  1   
 32  15  17  1   
 33  16  32  1   
 34  16  33  1   
 35  16  34  1   
 36  17  35  1   
 37  17  36  1   
 38  17  37  1   
@<TRIPOS>SUBSTRUCTURE
  1 ****   7 GROUP 4 **** **** 0

# MOE 2024.06 (io_trps.svl 2023.06)
