@<TRIPOS>MOLECULE
NONAME
40 41 1 0 0 
SMALL
USER_CHARGES


@<TRIPOS>ATOM
  1 O       -1.7680     1.6550     1.1820 O.3   1 <1>  -0.3630 
  2 C       -1.1170     2.3770     0.2360 C.ar  1 <1>   0.0830 
  3 C       -2.1130     0.3230     0.8670 C.3   1 <1>   0.1200 
  4 C        0.1950     2.0870    -0.1550 C.ar  1 <1>   0.0820 
  5 C       -1.7930     3.4460    -0.3270 C.ar  1 <1>  -0.1500 
  6 C       -3.4130     0.3180     0.0610 C.3   1 <1>  -0.1600 
  7 O        0.8450     1.0480     0.4460 O.3   1 <1>  -0.3630 
  8 C        0.7950     2.8750    -1.1360 C.ar  1 <1>  -0.1500 
  9 C       -1.1860     4.2240    -1.2970 C.ar  1 <1>  -0.1500 
 10 C       -3.8600    -1.1190    -0.2240 C.3   1 <1>   0.1200 
 11 C        2.2360     0.8690     0.2990 C.3   1 <1>   0.0400 
 12 C        0.1060     3.9350    -1.7020 C.ar  1 <1>  -0.1500 
 13 O       -5.0480    -1.1030    -0.9870 O.3   1 <1>  -0.3630 
 14 C       -6.2800    -0.8650    -0.4570 C.ar  1 <1>   0.0830 
 15 C       -7.3510    -0.7730    -1.3430 C.ar  1 <1>  -0.1430 
 16 C       -6.5070    -0.7130     0.9100 C.ar  1 <1>  -0.1500 
 17 C       -8.6260    -0.5330    -0.8580 C.ar  1 <1>  -0.1500 
 18 C       -7.1320    -0.9340    -2.8410 C.3   1 <1>  -0.0970 
 19 C       -7.7840    -0.4730     1.3840 C.ar  1 <1>  -0.1500 
 20 C       -8.8440    -0.3830     0.5010 C.ar  1 <1>  -0.1500 
 21 H       -2.2420    -0.1990     1.7980 H     1 <1>   0.0800 
 22 H       -1.3110    -0.1350     0.3160 H     1 <1>   0.0800 
 23 H       -2.7950     3.6620    -0.0030 H     1 <1>   0.1500 
 24 H       -3.2530     0.8220    -0.8750 H     1 <1>   0.0800 
 25 H       -4.1720     0.8350     0.6180 H     1 <1>   0.0800 
 26 H        1.7940     2.6810    -1.4730 H     1 <1>   0.1500 
 27 H       -1.7180     5.0510    -1.7340 H     1 <1>   0.1500 
 28 H       -4.0220    -1.6890     0.6730 H     1 <1>   0.0800 
 29 H       -3.1160    -1.6220    -0.8160 H     1 <1>   0.0800 
 30 H        2.5390     0.0640     0.9430 H     1 <1>   0.0800 
 31 H        2.7370     1.7770     0.5880 H     1 <1>   0.0800 
 32 H        2.4500     0.6180    -0.7250 H     1 <1>   0.0800 
 33 H        0.5770     4.5390    -2.4580 H     1 <1>   0.1500 
 34 H       -5.7070    -0.7770     1.6200 H     1 <1>   0.1500 
 35 H       -9.4590    -0.4600    -1.5340 H     1 <1>   0.1500 
 36 H       -6.7150    -1.9040    -3.0440 H     1 <1>   0.0800 
 37 H       -6.4450    -0.1840    -3.1890 H     1 <1>   0.0800 
 38 H       -8.0540    -0.8360    -3.3830 H     1 <1>   0.0800 
 39 H       -7.9540    -0.3560     2.4400 H     1 <1>   0.1500 
 40 H       -9.8380    -0.1960     0.8690 H     1 <1>   0.1500 
@<TRIPOS>BOND
  1   1   2  1   
  2   1   3  1   
  3   2   4  ar  
  4   2   5  ar  
  5   3   6  1   
  6   3  21  1   
  7   3  22  1   
  8   4   7  1   
  9   4   8  ar  
 10   5   9  ar  
 11   5  23  1   
 12   6  10  1   
 13   6  24  1   
 14   6  25  1   
 15   7  11  1   
 16   8  12  ar  
 17   8  26  1   
 18   9  12  ar  
 19   9  27  1   
 20  10  13  1   
 21  10  28  1   
 22  10  29  1   
 23  11  30  1   
 24  11  31  1   
 25  11  32  1   
 26  12  33  1   
 27  13  14  1   
 28  14  15  ar  
 29  14  16  ar  
 30  15  17  ar  
 31  15  18  1   
 32  16  19  ar  
 33  16  34  1   
 34  17  20  ar  
 35  17  35  1   
 36  18  36  1   
 37  18  37  1   
 38  18  38  1   
 39  19  20  ar  
 40  19  39  1   
 41  20  40  1   
@<TRIPOS>SUBSTRUCTURE
  1 ****   6 GROUP 4 **** **** 0

# MOE 2024.06 (io_trps.svl 2023.06)
