@<TRIPOS>MOLECULE
NONAME
44 45 1 0 0 
SMALL
USER_CHARGES


@<TRIPOS>ATOM
  1 O       -0.0960     0.4340     0.1290 O.2   1 <1>  -0.5700 
  2 C        0.3830     1.5430     0.0990 C.2   1 <1>   0.6590 
  3 O       -0.3460     2.6620    -0.0090 O.3   1 <1>  -0.0870 
  4 C        1.8930     1.7740     0.1770 C.3   1 <1>  -0.0190 
  5 N       -1.6850     2.6790    -0.0790 N.2   1 <1>  -0.5130 
  6 C        2.4980     1.9390    -1.2290 C.3   1 <1>  -0.1600 
  7 C        2.6290     0.6570     0.9450 C.3   1 <1>  -0.1600 
  8 C       -2.2710     3.8180    -0.0470 C.2   1 <1>   0.4140 
  9 C        4.0130     2.1840    -1.1690 C.3   1 <1>  -0.1600 
 10 C        4.1410     0.9170     1.0020 C.3   1 <1>  -0.1600 
 11 N       -1.5110     4.9790     0.0120 N.pl3 1 <1>  -0.8500 
 12 C       -3.7290     3.9610    -0.0990 C.ar  1 <1>   0.3960 
 13 C        4.7430     1.0600    -0.4110 C.3   1 <1>  -0.0800 
 14 N       -4.2450     5.1800    -0.3500 N.ar  1 <1>  -0.6200 
 15 C       -4.5560     2.8520     0.1030 C.ar  1 <1>  -0.1500 
 16 C        6.2610     1.3450    -0.3600 C.3   1 <1>  -0.1600 
 17 C       -5.5620     5.2760    -0.3920 C.ar  1 <1>   0.1600 
 18 C       -5.9270     2.9680     0.0550 C.ar  1 <1>  -0.1500 
 19 C        7.1540     0.0990    -0.5030 C.3   1 <1>  -0.1600 
 20 C       -6.4350     4.2210    -0.2000 C.ar  1 <1>  -0.1500 
 21 C        7.0010    -0.9210     0.6290 C.3   1 <1>  -0.2400 
 22 H        2.0420     2.6920     0.7170 H     1 <1>   0.0800 
 23 H        2.3050     1.0490    -1.8040 H     1 <1>   0.0800 
 24 H        2.0240     2.7640    -1.7340 H     1 <1>   0.0800 
 25 H        2.2370     0.5900     1.9450 H     1 <1>   0.0800 
 26 H        2.4510    -0.2890     0.4620 H     1 <1>   0.0800 
 27 H        4.2030     3.1270    -0.6850 H     1 <1>   0.0800 
 28 H        4.3940     2.2460    -2.1740 H     1 <1>   0.0800 
 29 H        4.6080     0.1080     1.5300 H     1 <1>   0.0800 
 30 H        4.3230     1.8170     1.5640 H     1 <1>   0.0800 
 31 H       -0.6220     4.9020    -0.4770 H     1 <1>   0.4000 
 32 H       -2.0620     5.8020    -0.2580 H     1 <1>   0.4000 
 33 H        4.5800     0.1430    -0.9520 H     1 <1>   0.0800 
 34 H       -4.1100     1.8930     0.3000 H     1 <1>   0.1500 
 35 H        6.5210     2.0020    -1.1720 H     1 <1>   0.0800 
 36 H        6.5100     1.8680     0.5470 H     1 <1>   0.0800 
 37 H       -5.9730     6.2510    -0.5910 H     1 <1>   0.1500 
 38 H       -6.5700     2.1180     0.2100 H     1 <1>   0.1500 
 39 H        6.9480    -0.3830    -1.4440 H     1 <1>   0.0800 
 40 H        8.1800     0.4240    -0.5300 H     1 <1>   0.0800 
 41 H       -7.4970     4.3810    -0.2510 H     1 <1>   0.1500 
 42 H        6.0370    -1.3940     0.5860 H     1 <1>   0.0800 
 43 H        7.1210    -0.4440     1.5860 H     1 <1>   0.0800 
 44 H        7.7510    -1.6860     0.5330 H     1 <1>   0.0800 
@<TRIPOS>BOND
  1   1   2  2   
  2   2   3  1   
  3   2   4  1   
  4   3   5  1   
  5   4   6  1   
  6   4   7  1   
  7   4  22  1   
  8   5   8  2   
  9   6   9  1   
 10   6  23  1   
 11   6  24  1   
 12   7  10  1   
 13   7  25  1   
 14   7  26  1   
 15   8  11  1   
 16   8  12  1   
 17   9  13  1   
 18   9  27  1   
 19   9  28  1   
 20  10  13  1   
 21  10  29  1   
 22  10  30  1   
 23  11  31  1   
 24  11  32  1   
 25  12  14  ar  
 26  12  15  ar  
 27  13  16  1   
 28  13  33  1   
 29  14  17  ar  
 30  15  18  ar  
 31  15  34  1   
 32  16  19  1   
 33  16  35  1   
 34  16  36  1   
 35  17  20  ar  
 36  17  37  1   
 37  18  20  ar  
 38  18  38  1   
 39  19  21  1   
 40  19  39  1   
 41  19  40  1   
 42  20  41  1   
 43  21  42  1   
 44  21  43  1   
 45  21  44  1   
@<TRIPOS>SUBSTRUCTURE
  1 ****   3 GROUP 4 **** **** 0

# MOE 2024.06 (io_trps.svl 2023.06)
