@<TRIPOS>MOLECULE
NONAME
51 52 1 0 0 
SMALL
USER_CHARGES


@<TRIPOS>ATOM
  1 S        0.3720     2.0420    -1.4850 S.3   1 <1>  -0.3610 
  2 C        1.3380     1.5430    -0.1070 C.cat 1 <1>   0.8400 
  3 C       -1.0050     3.1600    -0.9100 C.3   1 <1>   0.2110 
  4 N        0.8190     1.6340     1.0970 N.pl3 1 <1>  -0.7940 
  5 N        2.5250     1.1080    -0.4570 N.pl3 1 <1>  -0.7940 
  6 C       -2.0960     2.3780    -0.2050 C.2   1 <1>   0.5690 
  7 C       -1.7080     3.7320    -2.1450 C.3   1 <1>  -0.0990 
  8 C        1.3990     1.4180     2.4310 C.3   1 <1>   0.3290 
  9 C        3.6230     0.5000     0.3120 C.3   1 <1>   0.3290 
 10 O       -1.9180     1.9030     0.8920 O.2   1 <1>  -0.5700 
 11 N       -3.2380     2.3310    -0.9550 N.am  1 <1>  -0.2370 
 12 C       -3.0660     3.0720    -2.0970 C.2   1 <1>   0.5690 
 13 C        0.6420     2.2950     3.4190 C.3   1 <1>  -0.2400 
 14 C        4.3950    -0.4270    -0.6170 C.3   1 <1>  -0.2400 
 15 C       -4.4180     1.6300    -0.6100 C.ar  1 <1>   0.1170 
 16 O       -3.8620     3.2180    -2.9840 O.2   1 <1>  -0.5700 
 17 C       -4.9860     1.7640     0.6550 C.ar  1 <1>  -0.1500 
 18 C       -5.0410     0.7910    -1.5280 C.ar  1 <1>  -0.1500 
 19 C       -6.1390     1.0780     0.9960 C.ar  1 <1>  -0.1500 
 20 C       -6.1930     0.1040    -1.1910 C.ar  1 <1>  -0.1500 
 21 C       -6.7510     0.2400     0.0690 C.ar  1 <1>   0.0830 
 22 O       -7.8820    -0.4680     0.3160 O.3   1 <1>  -0.3630 
 23 C       -8.5380    -0.3890     1.5620 C.3   1 <1>   0.1200 
 24 C       -9.7740    -1.2960     1.5390 C.3   1 <1>  -0.1600 
 25 C       -9.4210    -2.7730     1.3220 C.3   1 <1>  -0.2400 
 26 H       -0.5820     3.9260    -0.2840 H     1 <1>   0.0800 
 27 H       -0.1930     1.8150     1.1740 H     1 <1>   0.4500 
 28 H        2.7310     1.1460    -1.4590 H     1 <1>   0.4500 
 29 H       -1.2070     3.4920    -3.0650 H     1 <1>   0.0800 
 30 H       -1.8320     4.7960    -2.0620 H     1 <1>   0.0800 
 31 H        2.4410     1.6870     2.4400 H     1 <1>   0.0800 
 32 H        1.2940     0.3820     2.7100 H     1 <1>   0.0800 
 33 H        3.2340    -0.0690     1.1390 H     1 <1>   0.0800 
 34 H        4.2770     1.2710     0.6870 H     1 <1>   0.0800 
 35 H        0.7400     3.3340     3.1580 H     1 <1>   0.0800 
 36 H        1.0470     2.1580     4.4060 H     1 <1>   0.0800 
 37 H       -0.4000     2.0260     3.4470 H     1 <1>   0.0800 
 38 H        3.7530    -1.2020    -1.0000 H     1 <1>   0.0800 
 39 H        5.1950    -0.8960    -0.0720 H     1 <1>   0.0800 
 40 H        4.8280     0.1230    -1.4340 H     1 <1>   0.0800 
 41 H       -4.5250     2.4070     1.3830 H     1 <1>   0.1500 
 42 H       -4.6310     0.6750    -2.5160 H     1 <1>   0.1500 
 43 H       -6.5440     1.2080     1.9820 H     1 <1>   0.1500 
 44 H       -6.6720    -0.5420    -1.9060 H     1 <1>   0.1500 
 45 H       -8.8280     0.6340     1.7260 H     1 <1>   0.0800 
 46 H       -7.8520    -0.7070     2.3280 H     1 <1>   0.0800 
 47 H      -10.4390    -0.9610     0.7620 H     1 <1>   0.0800 
 48 H      -10.2910    -1.1940     2.4770 H     1 <1>   0.0800 
 49 H       -8.9400    -2.9080     0.3690 H     1 <1>   0.0800 
 50 H      -10.3130    -3.3730     1.3410 H     1 <1>   0.0800 
 51 H       -8.7560    -3.1190     2.0950 H     1 <1>   0.0800 
@<TRIPOS>BOND
  1   1   2  1   
  2   1   3  1   
  3   2   4  ar  
  4   2   5  ar  
  5   3   6  1   
  6   3   7  1   
  7   3  26  1   
  8   4   8  1   
  9   4  27  1   
 10   5   9  1   
 11   5  28  1   
 12   6  10  2   
 13   6  11  am  
 14   7  12  1   
 15   7  29  1   
 16   7  30  1   
 17   8  13  1   
 18   8  31  1   
 19   8  32  1   
 20   9  14  1   
 21   9  33  1   
 22   9  34  1   
 23  11  12  am  
 24  11  15  1   
 25  12  16  2   
 26  13  35  1   
 27  13  36  1   
 28  13  37  1   
 29  14  38  1   
 30  14  39  1   
 31  14  40  1   
 32  15  17  ar  
 33  15  18  ar  
 34  17  19  ar  
 35  17  41  1   
 36  18  20  ar  
 37  18  42  1   
 38  19  21  ar  
 39  19  43  1   
 40  20  21  ar  
 41  20  44  1   
 42  21  22  1   
 43  22  23  1   
 44  23  24  1   
 45  23  45  1   
 46  23  46  1   
 47  24  25  1   
 48  24  47  1   
 49  24  48  1   
 50  25  49  1   
 51  25  50  1   
 52  25  51  1   
@<TRIPOS>SUBSTRUCTURE
  1 ****   6 GROUP 4 **** **** 0

# MOE 2024.06 (io_trps.svl 2023.06)
