@<TRIPOS>MOLECULE
NONAME
29 29 1 0 0 
SMALL
USER_CHARGES


@<TRIPOS>ATOM
  1 O        0.1630    -0.7240    -1.6300 O.co2 1 <1>  -0.9000 
  2 C       -0.0380    -1.4800    -0.6650 C.2   1 <1>   0.9060 
  3 O        0.7140    -1.4520     0.3210 O.co2 1 <1>  -0.9000 
  4 C       -1.3200    -2.3220    -0.6430 C.3   1 <1>  -0.1860 
  5 C       -2.4930    -1.5340     0.0220 C.3   1 <1>   0.1380 
  6 C       -1.1510    -3.7580    -0.0430 C.3   1 <1>  -0.1860 
  7 C       -3.7050    -2.4280     0.2660 C.2   1 <1>  -0.2880 
  8 C       -2.9490    -0.3900    -0.8970 C.3   1 <1>  -0.2400 
  9 C       -2.1200    -0.9430     1.3910 C.3   1 <1>  -0.2400 
 10 C       -0.0680    -4.6370    -0.6730 C.2   1 <1>   0.9060 
 11 C       -2.4610    -4.5650    -0.1330 C.3   1 <1>  -0.0220 
 12 C       -3.7080    -3.7600     0.2000 C.2   1 <1>  -0.2760 
 13 O        0.0050    -4.7380    -1.9060 O.co2 1 <1>  -0.9000 
 14 O        0.5830    -5.3920     0.0660 O.co2 1 <1>  -0.9000 
 15 C       -4.9440    -4.6080     0.4330 C.3   1 <1>  -0.1020 
 16 H       -1.5730    -2.4730    -1.6760 H     1 <1>   0.0800 
 17 H       -0.8860    -3.6480     0.9900 H     1 <1>   0.0800 
 18 H       -4.5860    -1.8660     0.5130 H     1 <1>   0.1500 
 19 H       -3.2530    -0.7860    -1.8490 H     1 <1>   0.0800 
 20 H       -2.1420     0.3010    -1.0620 H     1 <1>   0.0800 
 21 H       -3.7720     0.1460    -0.4640 H     1 <1>   0.0800 
 22 H       -1.7490    -1.7200     2.0340 H     1 <1>   0.0800 
 23 H       -2.9730    -0.4870     1.8560 H     1 <1>   0.0800 
 24 H       -1.3510    -0.1990     1.2880 H     1 <1>   0.0800 
 25 H       -2.3740    -5.4070     0.5310 H     1 <1>   0.0800 
 26 H       -2.5660    -4.9470    -1.1330 H     1 <1>   0.0800 
 27 H       -4.7820    -5.2690     1.2650 H     1 <1>   0.0800 
 28 H       -5.1550    -5.1930    -0.4430 H     1 <1>   0.0800 
 29 H       -5.7930    -3.9860     0.6470 H     1 <1>   0.0800 
@<TRIPOS>BOND
  1   1   2  ar  
  2   2   3  ar  
  3   2   4  1   
  4   4   5  1   
  5   4   6  1   
  6   4  16  1   
  7   5   7  1   
  8   5   8  1   
  9   5   9  1   
 10   6  10  1   
 11   6  11  1   
 12   6  17  1   
 13   7  12  2   
 14   7  18  1   
 15   8  19  1   
 16   8  20  1   
 17   8  21  1   
 18   9  22  1   
 19   9  23  1   
 20   9  24  1   
 21  10  13  ar  
 22  10  14  ar  
 23  11  12  1   
 24  11  25  1   
 25  11  26  1   
 26  12  15  1   
 27  15  27  1   
 28  15  28  1   
 29  15  29  1   
@<TRIPOS>SUBSTRUCTURE
  1 ****   4 GROUP 4 **** **** 0

# MOE 2024.06 (io_trps.svl 2023.06)
