@<TRIPOS>MOLECULE
NONAME
35 38 1 0 0 
SMALL
USER_CHARGES


@<TRIPOS>ATOM
  1 S        0.0790    -0.1590    -0.1550 S.3   1 <1>  -0.0800 
  2 C        1.0590     1.2840    -0.1710 C.2   1 <1>   0.1660 
  3 C       -1.3810     0.7870    -0.3990 C.2   1 <1>  -0.1400 
  4 N        2.4030     1.2350    -0.0160 N.2   1 <1>  -0.5760 
  5 C        0.3110     2.3960    -0.3550 C.2   1 <1>  -0.0860 
  6 C       -1.0990     2.1020    -0.4830 C.2   1 <1>  -0.1810 
  7 C       -2.6870     0.0230    -0.4780 C.3   1 <1>   0.0200 
  8 C        3.0270     2.3670    -0.0450 C.2   1 <1>   0.5140 
  9 C        1.0600     3.6110    -0.3850 C.2   1 <1>   0.8060 
 10 C       -2.1690     3.1650    -0.7040 C.3   1 <1>   0.0210 
 11 C       -3.7210     0.5580     0.5200 C.3   1 <1>  -0.1600 
 12 O        2.3790     3.5260    -0.2240 O.3   1 <1>  -0.3000 
 13 C        4.4640     2.4750     0.1100 C.ar  1 <1>   0.0860 
 14 O        0.6020     4.7250    -0.5480 O.2   1 <1>  -0.5700 
 15 C       -3.2810     3.1040     0.3530 C.3   1 <1>  -0.1600 
 16 C       -4.2770     1.9470     0.1670 C.3   1 <1>  -0.1600 
 17 C        5.2750     1.3630     0.3070 C.ar  1 <1>  -0.1500 
 18 C        5.1520     3.6840     0.0750 C.ar  1 <1>  -0.1500 
 19 C        6.6410     1.5010     0.4510 C.ar  1 <1>   0.1600 
 20 C        6.5240     3.7180     0.2300 C.ar  1 <1>   0.1600 
 21 N        7.2860     2.6550     0.4170 N.ar  1 <1>  -0.6200 
 22 H       -2.5000    -1.0130    -0.2570 H     1 <1>   0.0800 
 23 H       -3.0730     0.0780    -1.4810 H     1 <1>   0.0800 
 24 H       -2.5890     3.0470    -1.6870 H     1 <1>   0.0800 
 25 H       -1.7380     4.1460    -0.6640 H     1 <1>   0.0800 
 26 H       -3.2870     0.5780     1.5050 H     1 <1>   0.0800 
 27 H       -4.5440    -0.1350     0.5460 H     1 <1>   0.0800 
 28 H       -3.8350     4.0250     0.2950 H     1 <1>   0.0800 
 29 H       -2.8420     3.0580     1.3350 H     1 <1>   0.0800 
 30 H       -5.1170     2.1340     0.8140 H     1 <1>   0.0800 
 31 H       -4.6530     1.9450    -0.8420 H     1 <1>   0.0800 
 32 H        4.8390     0.3800     0.3490 H     1 <1>   0.1500 
 33 H        4.6250     4.6090    -0.0720 H     1 <1>   0.1500 
 34 H        7.2390     0.6170     0.6030 H     1 <1>   0.1500 
 35 H        7.0260     4.6710     0.1980 H     1 <1>   0.1500 
@<TRIPOS>BOND
  1   1   2  1   
  2   1   3  1   
  3   2   4  1   
  4   2   5  2   
  5   3   6  2   
  6   3   7  1   
  7   4   8  2   
  8   5   6  1   
  9   5   9  1   
 10   6  10  1   
 11   7  11  1   
 12   7  22  1   
 13   7  23  1   
 14   8  12  1   
 15   8  13  1   
 16   9  12  1   
 17   9  14  2   
 18  10  15  1   
 19  10  24  1   
 20  10  25  1   
 21  11  16  1   
 22  11  26  1   
 23  11  27  1   
 24  13  17  ar  
 25  13  18  ar  
 26  15  16  1   
 27  15  28  1   
 28  15  29  1   
 29  16  30  1   
 30  16  31  1   
 31  17  19  ar  
 32  17  32  1   
 33  18  20  ar  
 34  18  33  1   
 35  19  21  ar  
 36  19  34  1   
 37  20  21  ar  
 38  20  35  1   
@<TRIPOS>SUBSTRUCTURE
  1 ****   2 GROUP 4 **** **** 0

# MOE 2024.06 (io_trps.svl 2023.06)
