@<TRIPOS>MOLECULE
NONAME
35 37 1 0 0 
SMALL
USER_CHARGES


@<TRIPOS>ATOM
  1 O       -0.5170    -0.5840    -0.3430 O.2   1 <1>  -0.5700 
  2 C       -0.2920    -1.2500     0.6470 C.2   1 <1>   0.6900 
  3 N        0.9720    -1.5860     1.0270 N.am  1 <1>  -0.5470 
  4 N       -1.3160    -1.7080     1.4080 N.am  1 <1>  -0.7300 
  5 C        2.2180    -1.2140     0.4980 C.ar  1 <1>   0.1170 
  6 C       -2.7550    -1.4240     1.1410 C.3   1 <1>   0.1400 
  7 C        3.2980    -2.0760     0.6810 C.ar  1 <1>  -0.1500 
  8 C        2.4170    -0.0080    -0.1850 C.ar  1 <1>  -0.1500 
  9 C       -3.2510    -2.0860    -0.1550 C.3   1 <1>   0.2000 
 10 C        4.5280    -1.7100     0.1760 C.ar  1 <1>   0.0830 
 11 C        3.6620     0.3440    -0.6880 C.ar  1 <1>  -0.1500 
 12 O       -4.6370    -2.0050    -0.2070 O.3   1 <1>  -0.5600 
 13 C       -2.9700    -3.5800    -0.2710 C.3   1 <1>  -0.1600 
 14 O        5.6820    -2.3840     0.2380 O.3   1 <1>  -0.3620 
 15 C        4.7080    -0.5340    -0.4910 C.ar  1 <1>   0.0830 
 16 C       -5.1270    -2.9360    -1.1160 C.3   1 <1>   0.1200 
 17 C       -4.1200    -4.0840    -1.1290 C.3   1 <1>  -0.1600 
 18 C        6.6560    -1.5900    -0.4360 C.3   1 <1>   0.4000 
 19 O        5.9840    -0.4120    -0.8800 O.3   1 <1>  -0.3620 
 20 H        1.0070    -2.3100     1.7350 H     1 <1>   0.3700 
 21 H       -1.1150    -2.1170     2.3170 H     1 <1>   0.3700 
 22 H       -2.8940    -0.3590     1.0600 H     1 <1>   0.0800 
 23 H       -3.3410    -1.7880     1.9650 H     1 <1>   0.0800 
 24 H        3.1920    -3.0100     1.1980 H     1 <1>   0.1500 
 25 H        1.5910     0.6660    -0.3250 H     1 <1>   0.1500 
 26 H       -2.8640    -1.5610    -1.0120 H     1 <1>   0.0800 
 27 H        3.8170     1.2680    -1.2160 H     1 <1>   0.1500 
 28 H       -3.0050    -4.0340     0.7030 H     1 <1>   0.0800 
 29 H       -2.0070    -3.7620    -0.7160 H     1 <1>   0.0800 
 30 H       -5.1900    -2.4610    -2.0800 H     1 <1>   0.0800 
 31 H       -6.1050    -3.2510    -0.7940 H     1 <1>   0.0800 
 32 H       -4.5520    -4.9810    -0.7200 H     1 <1>   0.0800 
 33 H       -3.8000    -4.2760    -2.1380 H     1 <1>   0.0800 
 34 H        7.0360    -2.1290    -1.2850 H     1 <1>   0.0800 
 35 H        7.4400    -1.3200     0.2490 H     1 <1>   0.0800 
@<TRIPOS>BOND
  1   1   2  2   
  2   2   3  am  
  3   2   4  am  
  4   3   5  1   
  5   3  20  1   
  6   4   6  1   
  7   4  21  1   
  8   5   7  ar  
  9   5   8  ar  
 10   6   9  1   
 11   6  22  1   
 12   6  23  1   
 13   7  10  ar  
 14   7  24  1   
 15   8  11  ar  
 16   8  25  1   
 17   9  12  1   
 18   9  13  1   
 19   9  26  1   
 20  10  14  1   
 21  10  15  ar  
 22  11  15  ar  
 23  11  27  1   
 24  12  16  1   
 25  13  17  1   
 26  13  28  1   
 27  13  29  1   
 28  14  18  1   
 29  15  19  1   
 30  16  17  1   
 31  16  30  1   
 32  16  31  1   
 33  17  32  1   
 34  17  33  1   
 35  18  19  1   
 36  18  34  1   
 37  18  35  1   
@<TRIPOS>SUBSTRUCTURE
  1 ****   3 GROUP 4 **** **** 0

# MOE 2024.06 (io_trps.svl 2023.06)
