@<TRIPOS>MOLECULE
NONAME
53 54 1 0 0 
SMALL
USER_CHARGES


@<TRIPOS>ATOM
  1 O       -2.5910     8.0830    -1.9410 O.2   1 <1>  -0.5700 
  2 C       -2.4380     7.3290    -1.0110 C.2   1 <1>   0.5690 
  3 N       -3.4310     7.1580    -0.0680 N.am  1 <1>  -0.6600 
  4 C       -1.1150     6.5730    -0.9670 C.3   1 <1>  -0.0990 
  5 C       -4.6820     7.9600    -0.1440 C.3   1 <1>   0.1400 
  6 C       -3.4020     6.2070     1.0730 C.3   1 <1>   0.1400 
  7 C        0.0190     7.3600    -0.2800 C.3   1 <1>  -0.0800 
  8 C       -5.8550     7.0040    -0.3550 C.3   1 <1>  -0.1600 
  9 C       -4.5480     5.2100     0.8930 C.3   1 <1>  -0.1600 
 10 C        1.3460     6.6050    -0.4250 C.3   1 <1>  -0.2400 
 11 C       -0.2600     7.6250     1.2050 C.3   1 <1>  -0.2400 
 12 C       -5.8870     5.9460     0.7600 C.3   1 <1>   0.4230 
 13 N       -6.9890     4.9580     0.5710 N.4   1 <1>  -0.9590 
 14 C       -7.0040     4.2790    -0.7590 C.3   1 <1>   0.3430 
 15 C       -8.3350     5.5440     0.8940 C.3   1 <1>   0.3430 
 16 C       -7.8800     3.0150    -0.6800 C.3   1 <1>  -0.0800 
 17 C       -9.5070     4.6340     0.4630 C.3   1 <1>  -0.0800 
 18 C       -9.0670     3.1670     0.2990 C.3   1 <1>  -0.1600 
 19 C       -7.0390     1.7860    -0.3040 C.3   1 <1>  -0.2400 
 20 C      -10.1860     5.1600    -0.8140 C.3   1 <1>  -0.2400 
 21 H       -0.8270     6.4000    -1.9890 H     1 <1>   0.0800 
 22 H       -1.2310     5.6050    -0.5230 H     1 <1>   0.0800 
 23 H       -4.6420     8.6690    -0.9540 H     1 <1>   0.0800 
 24 H       -4.8020     8.5170     0.7700 H     1 <1>   0.0800 
 25 H       -3.5230     6.7580     1.9910 H     1 <1>   0.0800 
 26 H       -2.4670     5.6830     1.1340 H     1 <1>   0.0800 
 27 H        0.1170     8.3100    -0.7810 H     1 <1>   0.0800 
 28 H       -5.7290     6.5510    -1.3220 H     1 <1>   0.0800 
 29 H       -6.7620     7.5780    -0.3590 H     1 <1>   0.0800 
 30 H       -4.5710     4.5570     1.7460 H     1 <1>   0.0800 
 31 H       -4.3390     4.6240     0.0160 H     1 <1>   0.0800 
 32 H        1.2970     5.6470     0.0620 H     1 <1>   0.0800 
 33 H        2.1480     7.1730     0.0160 H     1 <1>   0.0800 
 34 H        1.5790     6.4520    -1.4640 H     1 <1>   0.0800 
 35 H       -0.3680     6.7020     1.7460 H     1 <1>   0.0800 
 36 H       -1.1520     8.2120     1.3250 H     1 <1>   0.0800 
 37 H        0.5550     8.1780     1.6390 H     1 <1>   0.0800 
 38 H       -6.0540     6.4650     1.6910 H     1 <1>   0.0800 
 39 H       -6.8390     4.2020     1.2480 H     1 <1>   0.4500 
 40 H       -6.0080     4.0050    -1.0640 H     1 <1>   0.0800 
 41 H       -7.4050     4.9520    -1.4990 H     1 <1>   0.0800 
 42 H       -8.4480     6.5000     0.4100 H     1 <1>   0.0800 
 43 H       -8.3970     5.7100     1.9580 H     1 <1>   0.0800 
 44 H       -8.2740     2.8460    -1.6690 H     1 <1>   0.0800 
 45 H      -10.2500     4.6750     1.2430 H     1 <1>   0.0800 
 46 H       -8.7870     2.7950     1.2700 H     1 <1>   0.0800 
 47 H       -9.8950     2.5630    -0.0370 H     1 <1>   0.0800 
 48 H       -6.5930     1.8970     0.6690 H     1 <1>   0.0800 
 49 H       -6.2550     1.6300    -1.0250 H     1 <1>   0.0800 
 50 H       -7.6580     0.9040    -0.2940 H     1 <1>   0.0800 
 51 H       -9.5180     5.1770    -1.6550 H     1 <1>   0.0800 
 52 H      -10.5570     6.1580    -0.6570 H     1 <1>   0.0800 
 53 H      -11.0270     4.5360    -1.0680 H     1 <1>   0.0800 
@<TRIPOS>BOND
  1   1   2  2   
  2   2   3  am  
  3   2   4  1   
  4   3   5  1   
  5   3   6  1   
  6   4   7  1   
  7   4  21  1   
  8   4  22  1   
  9   5   8  1   
 10   5  23  1   
 11   5  24  1   
 12   6   9  1   
 13   6  25  1   
 14   6  26  1   
 15   7  10  1   
 16   7  11  1   
 17   7  27  1   
 18   8  12  1   
 19   8  28  1   
 20   8  29  1   
 21   9  12  1   
 22   9  30  1   
 23   9  31  1   
 24  10  32  1   
 25  10  33  1   
 26  10  34  1   
 27  11  35  1   
 28  11  36  1   
 29  11  37  1   
 30  12  13  1   
 31  12  38  1   
 32  13  14  1   
 33  13  15  1   
 34  13  39  1   
 35  14  16  1   
 36  14  40  1   
 37  14  41  1   
 38  15  17  1   
 39  15  42  1   
 40  15  43  1   
 41  16  18  1   
 42  16  19  1   
 43  16  44  1   
 44  17  18  1   
 45  17  20  1   
 46  17  45  1   
 47  18  46  1   
 48  18  47  1   
 49  19  48  1   
 50  19  49  1   
 51  19  50  1   
 52  20  51  1   
 53  20  52  1   
 54  20  53  1   
@<TRIPOS>SUBSTRUCTURE
  1 ****   9 GROUP 4 **** **** 0

# MOE 2024.06 (io_trps.svl 2023.06)
