@<TRIPOS>MOLECULE
NONAME
50 52 1 0 0 
SMALL
USER_CHARGES


@<TRIPOS>ATOM
  1 O       -2.2150     0.6420    -0.4220 O.3   1 <1>  -0.3630 
  2 C       -1.1230     1.4380    -0.2630 C.ar  1 <1>   0.0830 
  3 C       -2.3260    -0.6430     0.1570 C.3   1 <1>   0.1200 
  4 C       -1.1400     2.6670    -0.9130 C.ar  1 <1>  -0.1440 
  5 C       -0.0200     1.0880     0.5110 C.ar  1 <1>  -0.1500 
  6 C       -2.8110    -0.5050     1.6010 C.3   1 <1>  -0.2400 
  7 C       -0.0630     3.5320    -0.7940 C.ar  1 <1>  -0.1500 
  8 C       -2.3420     3.0520    -1.7510 C.3   1 <1>   0.4860 
  9 C        1.0490     1.9580     0.6300 C.ar  1 <1>  -0.1500 
 10 C        1.0290     3.1780    -0.0220 C.ar  1 <1>  -0.1500 
 11 N       -3.2410     3.9170    -0.9400 N.4   1 <1>  -0.9590 
 12 C       -3.8040     3.1540     0.2360 C.3   1 <1>   0.3430 
 13 C       -4.3470     4.5100    -1.7730 C.3   1 <1>   0.3430 
 14 C       -4.7610     3.9990     1.1020 C.3   1 <1>   0.2090 
 15 C       -5.3010     5.4010    -0.9490 C.3   1 <1>   0.2090 
 16 N       -5.7850     4.7050     0.2770 N.pl3 1 <1>  -0.8380 
 17 C       -7.0750     4.1760     0.2460 C.ar  1 <1>   0.1000 
 18 C       -8.1410     4.8570     0.8370 C.ar  1 <1>  -0.1430 
 19 C       -7.3200     2.9580    -0.3820 C.ar  1 <1>  -0.1500 
 20 C       -9.4150     4.3170     0.7900 C.ar  1 <1>  -0.1500 
 21 C       -7.9180     6.1890     1.5400 C.3   1 <1>  -0.0970 
 22 C       -8.5940     2.4250    -0.4260 C.ar  1 <1>  -0.1500 
 23 C       -9.6450     3.1050     0.1610 C.ar  1 <1>  -0.1500 
 24 H       -1.3820    -1.1560     0.0860 H     1 <1>   0.0800 
 25 H       -3.0500    -1.1930    -0.4190 H     1 <1>   0.0800 
 26 H        0.0330     0.1500     1.0310 H     1 <1>   0.1500 
 27 H       -2.1140     0.0620     2.1910 H     1 <1>   0.0800 
 28 H       -2.9060    -1.4820     2.0410 H     1 <1>   0.0800 
 29 H       -3.7750    -0.0310     1.6270 H     1 <1>   0.0800 
 30 H       -0.0530     4.4830    -1.2990 H     1 <1>   0.1500 
 31 H       -2.8650     2.1660    -2.0720 H     1 <1>   0.0800 
 32 H       -2.0050     3.5820    -2.6270 H     1 <1>   0.0800 
 33 H        1.9020     1.6850     1.2280 H     1 <1>   0.1500 
 34 H        1.8690     3.8470     0.0710 H     1 <1>   0.1500 
 35 H       -2.6680     4.6760    -0.5540 H     1 <1>   0.4500 
 36 H       -3.0020     2.7940     0.8590 H     1 <1>   0.0800 
 37 H       -4.3440     2.2930    -0.1210 H     1 <1>   0.0800 
 38 H       -4.9310     3.7170    -2.2100 H     1 <1>   0.0800 
 39 H       -3.9310     5.0950    -2.5760 H     1 <1>   0.0800 
 40 H       -4.1970     4.7270     1.6590 H     1 <1>   0.0800 
 41 H       -5.2540     3.3590     1.8150 H     1 <1>   0.0800 
 42 H       -6.1450     5.6780    -1.5580 H     1 <1>   0.0800 
 43 H       -4.7980     6.3070    -0.6610 H     1 <1>   0.0800 
 44 H       -6.5140     2.4230    -0.8410 H     1 <1>   0.1500 
 45 H      -10.2420     4.8360     1.2430 H     1 <1>   0.1500 
 46 H       -7.1920     6.0700     2.3230 H     1 <1>   0.0800 
 47 H       -8.8300     6.5580     1.9720 H     1 <1>   0.0800 
 48 H       -7.5530     6.9150     0.8360 H     1 <1>   0.0800 
 49 H       -8.7740     1.4830    -0.9130 H     1 <1>   0.1500 
 50 H      -10.6390     2.6950     0.1310 H     1 <1>   0.1500 
@<TRIPOS>BOND
  1   1   2  1   
  2   1   3  1   
  3   2   4  ar  
  4   2   5  ar  
  5   3   6  1   
  6   3  24  1   
  7   3  25  1   
  8   4   7  ar  
  9   4   8  1   
 10   5   9  ar  
 11   5  26  1   
 12   6  27  1   
 13   6  28  1   
 14   6  29  1   
 15   7  10  ar  
 16   7  30  1   
 17   8  11  1   
 18   8  31  1   
 19   8  32  1   
 20   9  10  ar  
 21   9  33  1   
 22  10  34  1   
 23  11  12  1   
 24  11  13  1   
 25  11  35  1   
 26  12  14  1   
 27  12  36  1   
 28  12  37  1   
 29  13  15  1   
 30  13  38  1   
 31  13  39  1   
 32  14  16  1   
 33  14  40  1   
 34  14  41  1   
 35  15  16  1   
 36  15  42  1   
 37  15  43  1   
 38  16  17  1   
 39  17  18  ar  
 40  17  19  ar  
 41  18  20  ar  
 42  18  21  1   
 43  19  22  ar  
 44  19  44  1   
 45  20  23  ar  
 46  20  45  1   
 47  21  46  1   
 48  21  47  1   
 49  21  48  1   
 50  22  23  ar  
 51  22  49  1   
 52  23  50  1   
@<TRIPOS>SUBSTRUCTURE
  1 ****  12 GROUP 4 **** **** 0

# MOE 2024.06 (io_trps.svl 2023.06)
