@<TRIPOS>MOLECULE
NONAME
32 33 1 0 0 
SMALL
USER_CHARGES


@<TRIPOS>ATOM
  1 F       -1.8750     0.6530     2.5660 F     1 <1>  -0.1900 
  2 C       -2.2970     1.0830     1.4090 C.ar  1 <1>   0.1900 
  3 C       -3.4130     0.4900     0.8510 C.ar  1 <1>  -0.1500 
  4 C       -1.6170     2.1120     0.7890 C.ar  1 <1>  -0.1500 
  5 C       -3.8740     0.9480    -0.3770 C.ar  1 <1>  -0.1430 
  6 C       -2.0740     2.5600    -0.4380 C.ar  1 <1>  -0.1500 
  7 C       -3.1940     1.9800    -1.0160 C.ar  1 <1>  -0.1500 
  8 C       -5.1060     0.3310    -1.0130 C.3   1 <1>   0.4870 
  9 N       -6.3130     0.8000    -0.2790 N.4   1 <1>  -0.9590 
 10 C       -7.5360     0.0500    -0.7290 C.3   1 <1>   0.3430 
 11 C       -6.4900     2.2800    -0.3970 C.3   1 <1>   0.3430 
 12 C       -8.8060     0.4930     0.0240 C.3   1 <1>   0.2000 
 13 C       -7.7020     2.7280     0.4240 C.3   1 <1>  -0.1600 
 14 O       -9.8890    -0.0850    -0.6020 O.3   1 <1>  -0.6800 
 15 C       -8.9910     2.0130    -0.0110 C.3   1 <1>  -0.1600 
 16 H       -3.8910    -0.3150     1.3820 H     1 <1>   0.1500 
 17 H       -0.7500     2.5460     1.2570 H     1 <1>   0.1500 
 18 H       -1.5540     3.3580    -0.9420 H     1 <1>   0.1500 
 19 H       -3.5230     2.3460    -1.9750 H     1 <1>   0.1500 
 20 H       -5.0320    -0.7430    -0.9570 H     1 <1>   0.0800 
 21 H       -5.1660     0.6140    -2.0510 H     1 <1>   0.0800 
 22 H       -6.1490     0.5980     0.7150 H     1 <1>   0.4500 
 23 H       -7.3980    -1.0080    -0.5790 H     1 <1>   0.0800 
 24 H       -7.6950     0.2270    -1.7800 H     1 <1>   0.0800 
 25 H       -6.6380     2.5490    -1.4310 H     1 <1>   0.0800 
 26 H       -5.6080     2.7890    -0.0380 H     1 <1>   0.0800 
 27 H       -8.7780     0.1320     1.0390 H     1 <1>   0.0800 
 28 H       -7.8300     3.7900     0.3020 H     1 <1>   0.0800 
 29 H       -7.5130     2.5490     1.4690 H     1 <1>   0.0800 
 30 H      -10.7290     0.1580    -0.1580 H     1 <1>   0.4000 
 31 H       -9.7980     2.2990     0.6420 H     1 <1>   0.0800 
 32 H       -9.2390     2.3210    -1.0140 H     1 <1>   0.0800 
@<TRIPOS>BOND
  1   1   2  1   
  2   2   3  ar  
  3   2   4  ar  
  4   3   5  ar  
  5   3  16  1   
  6   4   6  ar  
  7   4  17  1   
  8   5   7  ar  
  9   5   8  1   
 10   6   7  ar  
 11   6  18  1   
 12   7  19  1   
 13   8   9  1   
 14   8  20  1   
 15   8  21  1   
 16   9  10  1   
 17   9  11  1   
 18   9  22  1   
 19  10  12  1   
 20  10  23  1   
 21  10  24  1   
 22  11  13  1   
 23  11  25  1   
 24  11  26  1   
 25  12  14  1   
 26  12  15  1   
 27  12  27  1   
 28  13  15  1   
 29  13  28  1   
 30  13  29  1   
 31  14  30  1   
 32  15  31  1   
 33  15  32  1   
@<TRIPOS>SUBSTRUCTURE
  1 ****   9 GROUP 4 **** **** 0

# MOE 2024.06 (io_trps.svl 2023.06)
