@<TRIPOS>MOLECULE
NONAME
54 56 1 0 0 
SMALL
USER_CHARGES


@<TRIPOS>ATOM
  1 S       -0.2620     0.4510    -0.1960 S.3   1 <1>  -0.0800 
  2 C       -0.3970    -1.3090    -0.1890 C.2   1 <1>   0.1040 
  3 C        1.4850     0.3670    -0.0950 C.2   1 <1>  -0.1400 
  4 N       -1.6610    -1.9130    -0.2370 N.am  1 <1>  -0.4940 
  5 C        0.8400    -1.8710    -0.1000 C.2   1 <1>   0.0190 
  6 C        1.9030    -0.9050    -0.0430 C.2   1 <1>  -0.1810 
  7 C        2.3170     1.6280    -0.0730 C.3   1 <1>   0.0200 
  8 C       -2.8780    -1.4120    -0.6320 C.2   1 <1>   0.5690 
  9 C        1.0800    -3.2800    -0.0630 C.1   1 <1>   0.5380 
 10 C        3.3850    -1.2390     0.0570 C.3   1 <1>   0.0210 
 11 C        3.7990     1.2740    -0.3290 C.3   1 <1>  -0.0800 
 12 O       -3.0060    -0.3400    -1.1730 O.2   1 <1>  -0.5700 
 13 C       -4.1240    -2.2820    -0.3730 C.3   1 <1>   0.1710 
 14 N        1.2190    -4.4110    -0.0220 N.1   1 <1>  -0.5570 
 15 C        4.2090     0.0030     0.4560 C.3   1 <1>  -0.1600 
 16 C        4.6880     2.4890     0.0030 C.3   1 <1>  -0.1600 
 17 N       -5.4120    -1.5430    -0.2170 N.3   1 <1>  -0.8100 
 18 C        6.1470     2.3210    -0.4400 C.3   1 <1>  -0.2400 
 19 C       -6.6000    -2.4200    -0.1300 C.3   1 <1>   0.1100 
 20 C       -5.3970    -0.5510     0.8880 C.3   1 <1>   0.1100 
 21 C       -7.9160    -1.6010    -0.0680 C.3   1 <1>   0.3430 
 22 C       -6.6900     0.3000     0.9170 C.3   1 <1>   0.3430 
 23 N       -7.6450    -0.1280    -0.1620 N.4   1 <1>  -0.9590 
 24 C       -8.8760     0.6900    -0.2700 C.3   1 <1>   0.3430 
 25 C       -8.5220     2.0910    -0.7560 C.3   1 <1>  -0.2400 
 26 H       -1.6680    -2.8980     0.0270 H     1 <1>   0.3700 
 27 H        2.2010     2.0980     0.8880 H     1 <1>   0.0800 
 28 H        1.9680     2.3080    -0.8300 H     1 <1>   0.0800 
 29 H        3.7220    -1.6030    -0.8980 H     1 <1>   0.0800 
 30 H        3.5430    -2.0140     0.7870 H     1 <1>   0.0800 
 31 H        3.9020     1.0600    -1.3800 H     1 <1>   0.0800 
 32 H       -3.9530    -2.8740     0.5090 H     1 <1>   0.0800 
 33 H       -4.2160    -2.9540    -1.2090 H     1 <1>   0.0800 
 34 H        5.2480    -0.2210     0.2960 H     1 <1>   0.0800 
 35 H        4.0720     0.1870     1.5080 H     1 <1>   0.0800 
 36 H        4.6590     2.6840     1.0620 H     1 <1>   0.0800 
 37 H        4.2890     3.3560    -0.4960 H     1 <1>   0.0800 
 38 H        6.6400     1.5530     0.1280 H     1 <1>   0.0800 
 39 H        6.6820     3.2420    -0.2850 H     1 <1>   0.0800 
 40 H        6.1980     2.0710    -1.4850 H     1 <1>   0.0800 
 41 H       -6.5300    -3.0510     0.7400 H     1 <1>   0.0800 
 42 H       -6.6330    -3.0610    -0.9960 H     1 <1>   0.0800 
 43 H       -4.5620     0.1190     0.7710 H     1 <1>   0.0800 
 44 H       -5.2780    -1.0530     1.8330 H     1 <1>   0.0800 
 45 H       -8.4270    -1.8220     0.8550 H     1 <1>   0.0800 
 46 H       -8.5550    -1.9100    -0.8790 H     1 <1>   0.0800 
 47 H       -6.4200     1.3340     0.7780 H     1 <1>   0.0800 
 48 H       -7.1570     0.2090     1.8830 H     1 <1>   0.0800 
 49 H       -7.0830    -0.0350    -1.0250 H     1 <1>   0.4500 
 50 H       -9.3760     0.7420     0.6840 H     1 <1>   0.0800 
 51 H       -9.5490     0.2360    -0.9810 H     1 <1>   0.0800 
 52 H       -7.9370     2.6230    -0.0290 H     1 <1>   0.0800 
 53 H       -9.4290     2.6480    -0.9150 H     1 <1>   0.0800 
 54 H       -7.9900     2.0480    -1.6900 H     1 <1>   0.0800 
@<TRIPOS>BOND
  1   1   2  1   
  2   1   3  1   
  3   2   4  1   
  4   2   5  2   
  5   3   6  2   
  6   3   7  1   
  7   4   8  am  
  8   4  26  1   
  9   5   6  1   
 10   5   9  1   
 11   6  10  1   
 12   7  11  1   
 13   7  27  1   
 14   7  28  1   
 15   8  12  2   
 16   8  13  1   
 17   9  14  3   
 18  10  15  1   
 19  10  29  1   
 20  10  30  1   
 21  11  15  1   
 22  11  16  1   
 23  11  31  1   
 24  13  17  1   
 25  13  32  1   
 26  13  33  1   
 27  15  34  1   
 28  15  35  1   
 29  16  18  1   
 30  16  36  1   
 31  16  37  1   
 32  17  19  1   
 33  17  20  1   
 34  18  38  1   
 35  18  39  1   
 36  18  40  1   
 37  19  21  1   
 38  19  41  1   
 39  19  42  1   
 40  20  22  1   
 41  20  43  1   
 42  20  44  1   
 43  21  23  1   
 44  21  45  1   
 45  21  46  1   
 46  22  23  1   
 47  22  47  1   
 48  22  48  1   
 49  23  24  1   
 50  23  49  1   
 51  24  25  1   
 52  24  50  1   
 53  24  51  1   
 54  25  52  1   
 55  25  53  1   
 56  25  54  1   
@<TRIPOS>SUBSTRUCTURE
  1 ****   2 GROUP 4 **** **** 0

# MOE 2024.06 (io_trps.svl 2023.06)
