@<TRIPOS>MOLECULE
NONAME
50 52 1 0 0 
SMALL
USER_CHARGES


@<TRIPOS>ATOM
  1 S       -0.2080    -0.1920    -1.2200 S.o2  1 <1>   1.4470 
  2 O       -1.0070     0.6810    -2.0520 O.2   1 <1>  -0.6500 
  3 O        0.3840    -1.3770    -1.8060 O.2   1 <1>  -0.6500 
  4 N        1.0810     0.7320    -0.6170 N.am  1 <1>  -0.8490 
  5 C       -1.1460    -0.6260     0.2720 C.ar  1 <1>  -0.0090 
  6 C        1.7400     1.4840    -1.6870 C.3   1 <1>   0.1960 
  7 C        2.0340    -0.0870     0.1390 C.3   1 <1>   0.1960 
  8 C       -1.5350    -1.9380     0.5230 C.ar  1 <1>  -0.1500 
  9 C       -1.5000     0.3460     1.2000 C.ar  1 <1>  -0.1500 
 10 C        2.8060     2.4170    -1.1050 C.3   1 <1>  -0.1600 
 11 C        3.0980     0.8010     0.7880 C.3   1 <1>  -0.1600 
 12 C       -2.2470    -2.2690     1.6630 C.ar  1 <1>  -0.1500 
 13 C       -2.2120     0.0240     2.3430 C.ar  1 <1>  -0.1500 
 14 C        3.8360     1.6420    -0.2670 C.3   1 <1>  -0.0190 
 15 C       -2.5850    -1.2870     2.5760 C.ar  1 <1>  -0.1500 
 16 C        4.8620     2.5810     0.3680 C.2   1 <1>   0.5690 
 17 O        4.4890     3.3720     1.2000 O.2   1 <1>  -0.5700 
 18 N        6.1630     2.4650    -0.0420 N.am  1 <1>  -0.5470 
 19 C        7.3230     3.1730     0.3160 C.ar  1 <1>   0.1170 
 20 C        8.5750     2.5840     0.1190 C.ar  1 <1>  -0.1430 
 21 C        7.2670     4.4610     0.8420 C.ar  1 <1>  -0.1500 
 22 C        9.7250     3.2830     0.4500 C.ar  1 <1>  -0.1500 
 23 C        8.7130     1.1770    -0.4500 C.3   1 <1>  -0.0970 
 24 C        8.4160     5.1550     1.1760 C.ar  1 <1>  -0.1430 
 25 C        9.6480     4.5600     0.9760 C.ar  1 <1>  -0.1500 
 26 C        8.3290     6.5570     1.7520 C.3   1 <1>  -0.0970 
 27 H        1.0130     2.0830    -2.2120 H     1 <1>   0.0800 
 28 H        2.1840     0.8010    -2.3930 H     1 <1>   0.0800 
 29 H        2.5040    -0.8040    -0.5140 H     1 <1>   0.0800 
 30 H        1.5150    -0.6280     0.9140 H     1 <1>   0.0800 
 31 H       -1.2780    -2.7100    -0.1830 H     1 <1>   0.1500 
 32 H       -1.2130     1.3690     1.0230 H     1 <1>   0.1500 
 33 H        2.3190     3.1560    -0.4920 H     1 <1>   0.0800 
 34 H        3.3020     2.9350    -1.9060 H     1 <1>   0.0800 
 35 H        3.8010     0.1870     1.3220 H     1 <1>   0.0800 
 36 H        2.6200     1.4480     1.5040 H     1 <1>   0.0800 
 37 H       -2.5380    -3.2910     1.8390 H     1 <1>   0.1500 
 38 H       -2.4750     0.7930     3.0490 H     1 <1>   0.1500 
 39 H        4.3540     0.9660    -0.9230 H     1 <1>   0.0800 
 40 H       -3.1390    -1.5410     3.4630 H     1 <1>   0.1500 
 41 H        6.3450     1.7070    -0.6930 H     1 <1>   0.3700 
 42 H        6.3140     4.9330     0.9900 H     1 <1>   0.1500 
 43 H       10.6940     2.8400     0.3040 H     1 <1>   0.1500 
 44 H        8.1560     0.4800     0.1500 H     1 <1>   0.0800 
 45 H        9.7420     0.8640    -0.4530 H     1 <1>   0.0800 
 46 H        8.3510     1.1500    -1.4620 H     1 <1>   0.0800 
 47 H       10.5510     5.0880     1.2280 H     1 <1>   0.1500 
 48 H        7.3640     6.7240     2.1950 H     1 <1>   0.0800 
 49 H        8.4830     7.2810     0.9720 H     1 <1>   0.0800 
 50 H        9.0790     6.6950     2.5100 H     1 <1>   0.0800 
@<TRIPOS>BOND
  1   1   2  2   
  2   1   3  2   
  3   1   4  am  
  4   1   5  1   
  5   4   6  1   
  6   4   7  1   
  7   5   8  ar  
  8   5   9  ar  
  9   6  10  1   
 10   6  27  1   
 11   6  28  1   
 12   7  11  1   
 13   7  29  1   
 14   7  30  1   
 15   8  12  ar  
 16   8  31  1   
 17   9  13  ar  
 18   9  32  1   
 19  10  14  1   
 20  10  33  1   
 21  10  34  1   
 22  11  14  1   
 23  11  35  1   
 24  11  36  1   
 25  12  15  ar  
 26  12  37  1   
 27  13  15  ar  
 28  13  38  1   
 29  14  16  1   
 30  14  39  1   
 31  15  40  1   
 32  16  17  2   
 33  16  18  am  
 34  18  19  1   
 35  18  41  1   
 36  19  20  ar  
 37  19  21  ar  
 38  20  22  ar  
 39  20  23  1   
 40  21  24  ar  
 41  21  42  1   
 42  22  25  ar  
 43  22  43  1   
 44  23  44  1   
 45  23  45  1   
 46  23  46  1   
 47  24  25  ar  
 48  24  26  1   
 49  25  47  1   
 50  26  48  1   
 51  26  49  1   
 52  26  50  1   
@<TRIPOS>SUBSTRUCTURE
  1 ****  14 GROUP 4 **** **** 0

# MOE 2024.06 (io_trps.svl 2023.06)
