@<TRIPOS>MOLECULE
NONAME
46 48 1 0 0 
SMALL
USER_CHARGES


@<TRIPOS>ATOM
  1 CL       0.8100    -1.2250    -3.1110 Cl    1 <1>  -0.1770 
  2 C        1.8030    -1.9380    -1.8640 C.ar  1 <1>   0.1770 
  3 C        3.1750    -1.9450    -2.0130 C.ar  1 <1>  -0.1500 
  4 C        1.1960    -2.4830    -0.7480 C.ar  1 <1>  -0.1500 
  5 C        3.9780    -2.5070    -1.0280 C.ar  1 <1>   0.1000 
  6 C        1.9870    -3.0460     0.2390 C.ar  1 <1>  -0.1500 
  7 N        5.3610    -2.5000    -1.1910 N.pl3 1 <1>  -0.8380 
  8 C        3.3650    -3.0550     0.0970 C.ar  1 <1>  -0.1500 
  9 C        6.1980    -3.6740    -0.7950 C.3   1 <1>   0.2090 
 10 C        6.0810    -1.1930    -1.1340 C.3   1 <1>   0.2090 
 11 C        6.9770    -3.4170     0.5120 C.3   1 <1>   0.1100 
 12 C        6.8490    -1.0270     0.1920 C.3   1 <1>   0.1100 
 13 N        7.7640    -2.1650     0.4620 N.3   1 <1>  -0.8100 
 14 C        8.5110    -1.9530     1.7410 C.3   1 <1>   0.1710 
 15 C        9.6330    -0.9190     1.6310 C.2   1 <1>   0.5690 
 16 O       10.0120    -0.3520     2.6280 O.2   1 <1>  -0.5700 
 17 N       10.1250    -0.7080     0.3760 N.am  1 <1>  -0.5470 
 18 C       11.1080     0.1340    -0.1670 C.ar  1 <1>   0.1170 
 19 C       11.2250     0.2360    -1.5550 C.ar  1 <1>  -0.1430 
 20 C       11.9790     0.8680     0.6330 C.ar  1 <1>  -0.1500 
 21 C       12.1920     1.0610    -2.1090 C.ar  1 <1>  -0.1500 
 22 C       10.3030    -0.5460    -2.4850 C.3   1 <1>  -0.0970 
 23 C       12.9400     1.6890     0.0750 C.ar  1 <1>  -0.1500 
 24 C       13.0480     1.7860    -1.3000 C.ar  1 <1>  -0.1500 
 25 H        3.6250    -1.5240    -2.8900 H     1 <1>   0.1500 
 26 H        0.1250    -2.4650    -0.6580 H     1 <1>   0.1500 
 27 H        1.5300    -3.4750     1.1150 H     1 <1>   0.1500 
 28 H        3.9710    -3.4850     0.8690 H     1 <1>   0.1500 
 29 H        6.8990    -3.8790    -1.5840 H     1 <1>   0.0800 
 30 H        5.5730    -4.5430    -0.6810 H     1 <1>   0.0800 
 31 H        5.3780    -0.3860    -1.2390 H     1 <1>   0.0800 
 32 H        6.7740    -1.1390    -1.9550 H     1 <1>   0.0800 
 33 H        7.6390    -4.2480     0.6820 H     1 <1>   0.0800 
 34 H        6.2800    -3.3750     1.3300 H     1 <1>   0.0800 
 35 H        6.1310    -0.9370     0.9900 H     1 <1>   0.0800 
 36 H        7.4090    -0.1090     0.1480 H     1 <1>   0.0800 
 37 H        8.9690    -2.8780     2.0420 H     1 <1>   0.0800 
 38 H        7.8330    -1.6520     2.5210 H     1 <1>   0.0800 
 39 H        9.5990    -1.2570    -0.3090 H     1 <1>   0.3700 
 40 H       11.9120     0.8030     1.7030 H     1 <1>   0.1500 
 41 H       12.2890     1.1460    -3.1770 H     1 <1>   0.1500 
 42 H       10.4260    -1.6020    -2.3230 H     1 <1>   0.0800 
 43 H       10.5250    -0.3350    -3.5150 H     1 <1>   0.0800 
 44 H        9.2780    -0.2770    -2.3000 H     1 <1>   0.0800 
 45 H       13.6040     2.2490     0.7100 H     1 <1>   0.1500 
 46 H       13.7960     2.4230    -1.7380 H     1 <1>   0.1500 
@<TRIPOS>BOND
  1   1   2  1   
  2   2   3  ar  
  3   2   4  ar  
  4   3   5  ar  
  5   3  25  1   
  6   4   6  ar  
  7   4  26  1   
  8   5   7  1   
  9   5   8  ar  
 10   6   8  ar  
 11   6  27  1   
 12   7   9  1   
 13   7  10  1   
 14   8  28  1   
 15   9  11  1   
 16   9  29  1   
 17   9  30  1   
 18  10  12  1   
 19  10  31  1   
 20  10  32  1   
 21  11  13  1   
 22  11  33  1   
 23  11  34  1   
 24  12  13  1   
 25  12  35  1   
 26  12  36  1   
 27  13  14  1   
 28  14  15  1   
 29  14  37  1   
 30  14  38  1   
 31  15  16  2   
 32  15  17  am  
 33  17  18  1   
 34  17  39  1   
 35  18  19  ar  
 36  18  20  ar  
 37  19  21  ar  
 38  19  22  1   
 39  20  23  ar  
 40  20  40  1   
 41  21  24  ar  
 42  21  41  1   
 43  22  42  1   
 44  22  43  1   
 45  22  44  1   
 46  23  24  ar  
 47  23  45  1   
 48  24  46  1   
@<TRIPOS>SUBSTRUCTURE
  1 ****  12 GROUP 4 **** **** 0

# MOE 2024.06 (io_trps.svl 2023.06)
