@<TRIPOS>MOLECULE
NONAME
47 49 1 0 0 
SMALL
USER_CHARGES


@<TRIPOS>ATOM
  1 S        0.1340     0.3500     0.7630 S.3   1 <1>  -0.0800 
  2 C       -0.6120    -1.1850     0.3740 C.2   1 <1>   0.1040 
  3 C       -1.3960     1.1960     0.6310 C.2   1 <1>  -0.1400 
  4 N        0.1550    -2.3380     0.2720 N.am  1 <1>  -0.4940 
  5 C       -1.9620    -1.0420     0.1980 C.2   1 <1>  -0.0860 
  6 C       -2.3870     0.3460     0.3020 C.2   1 <1>  -0.1810 
  7 C       -1.3520     2.6880     0.8950 C.3   1 <1>   0.0200 
  8 C        1.4830    -2.6290     0.5020 C.2   1 <1>   0.5440 
  9 C       -2.8010    -2.1910    -0.0270 C.2   1 <1>   0.8060 
 10 C       -3.8180     0.8260     0.0570 C.3   1 <1>   0.0210 
 11 C       -1.9430     3.5030    -0.2590 C.3   1 <1>  -0.1600 
 12 O        2.1960    -1.8380     1.0830 O.2   1 <1>  -0.5700 
 13 C        2.0150    -3.9060     0.0690 C.ar  1 <1>   0.0860 
 14 O       -2.3840    -3.2120    -0.5540 O.2   1 <1>  -0.5700 
 15 O       -4.0650    -2.1700     0.4070 O.3   1 <1>  -0.4300 
 16 C       -3.9060     1.9850    -0.9480 C.3   1 <1>  -0.1600 
 17 C       -3.4630     3.3520    -0.4060 C.3   1 <1>  -0.1600 
 18 C        3.2080    -4.3910     0.6080 C.ar  1 <1>   0.1600 
 19 C        1.3910    -4.7070    -0.8850 C.ar  1 <1>  -0.1500 
 20 C       -4.9430    -3.2660     0.2920 C.3   1 <1>   0.2000 
 21 N        3.7900    -5.5430     0.3070 N.ar  1 <1>  -0.6200 
 22 C        1.9810    -5.9080    -1.2130 C.ar  1 <1>  -0.1500 
 23 C       -6.3610    -2.7030     0.2710 C.3   1 <1>  -0.2400 
 24 C       -4.7260    -4.1860     1.4930 C.3   1 <1>  -0.2400 
 25 C        3.1630    -6.2770    -0.5970 C.ar  1 <1>   0.1600 
 26 H       -0.3900    -3.1390    -0.0600 H     1 <1>   0.3700 
 27 H       -0.3290     2.9890     1.0360 H     1 <1>   0.0800 
 28 H       -1.8800     2.9010     1.8080 H     1 <1>   0.0800 
 29 H       -4.2670     1.1070     0.9930 H     1 <1>   0.0800 
 30 H       -4.4110     0.0380    -0.3600 H     1 <1>   0.0800 
 31 H       -1.4550     3.2280    -1.1780 H     1 <1>   0.0800 
 32 H       -1.7240     4.5410    -0.0770 H     1 <1>   0.0800 
 33 H       -4.9350     2.0740    -1.2480 H     1 <1>   0.0800 
 34 H       -3.3390     1.7380    -1.8290 H     1 <1>   0.0800 
 35 H       -3.7990     4.1030    -1.1010 H     1 <1>   0.0800 
 36 H       -3.9480     3.5520     0.5340 H     1 <1>   0.0800 
 37 H        3.7100    -3.7800     1.3410 H     1 <1>   0.1500 
 38 H        0.4770    -4.4070    -1.3670 H     1 <1>   0.1500 
 39 H       -4.7450    -3.7850    -0.6320 H     1 <1>   0.0800 
 40 H        1.5320    -6.5580    -1.9440 H     1 <1>   0.1500 
 41 H       -6.5640    -2.1570     1.1750 H     1 <1>   0.0800 
 42 H       -7.0720    -3.5050     0.1880 H     1 <1>   0.0800 
 43 H       -6.4860    -2.0520    -0.5750 H     1 <1>   0.0800 
 44 H       -4.8920    -3.6530     2.4120 H     1 <1>   0.0800 
 45 H       -3.7260    -4.5820     1.4840 H     1 <1>   0.0800 
 46 H       -5.4120    -5.0120     1.4480 H     1 <1>   0.0800 
 47 H        3.6170    -7.2180    -0.8600 H     1 <1>   0.1500 
@<TRIPOS>BOND
  1   1   2  1   
  2   1   3  1   
  3   2   4  1   
  4   2   5  2   
  5   3   6  2   
  6   3   7  1   
  7   4   8  am  
  8   4  26  1   
  9   5   6  1   
 10   5   9  1   
 11   6  10  1   
 12   7  11  1   
 13   7  27  1   
 14   7  28  1   
 15   8  12  2   
 16   8  13  1   
 17   9  14  2   
 18   9  15  1   
 19  10  16  1   
 20  10  29  1   
 21  10  30  1   
 22  11  17  1   
 23  11  31  1   
 24  11  32  1   
 25  13  18  ar  
 26  13  19  ar  
 27  15  20  1   
 28  16  17  1   
 29  16  33  1   
 30  16  34  1   
 31  17  35  1   
 32  17  36  1   
 33  18  21  ar  
 34  18  37  1   
 35  19  22  ar  
 36  19  38  1   
 37  20  23  1   
 38  20  24  1   
 39  20  39  1   
 40  21  25  ar  
 41  22  25  ar  
 42  22  40  1   
 43  23  41  1   
 44  23  42  1   
 45  23  43  1   
 46  24  44  1   
 47  24  45  1   
 48  24  46  1   
 49  25  47  1   
@<TRIPOS>SUBSTRUCTURE
  1 ****   2 GROUP 4 **** **** 0

# MOE 2024.06 (io_trps.svl 2023.06)
