@<TRIPOS>MOLECULE
NONAME
47 48 1 0 0 
SMALL
USER_CHARGES


@<TRIPOS>ATOM
  1 O        0.2700    -0.1980    -1.2860 O.2   1 <1>  -0.5700 
  2 C        0.0720    -1.2540    -0.7320 C.2   1 <1>   0.5690 
  3 N       -1.1660    -1.6510    -0.2990 N.am  1 <1>  -0.5470 
  4 C        1.2620    -2.1960    -0.4670 C.3   1 <1>   0.1710 
  5 C       -2.4140    -1.0090    -0.3830 C.ar  1 <1>   0.1170 
  6 N        2.5480    -1.5280    -0.1080 N.3   1 <1>  -0.8100 
  7 C       -3.3970    -1.3430     0.5410 C.ar  1 <1>  -0.1500 
  8 C       -2.7200    -0.0660    -1.3600 C.ar  1 <1>  -0.1500 
  9 C        2.4410    -0.6200     1.0610 C.3   1 <1>   0.1100 
 10 C        3.6840    -2.4640     0.0390 C.3   1 <1>   0.1100 
 11 C       -4.6450    -0.7500     0.4960 C.ar  1 <1>  -0.1500 
 12 C       -3.9670     0.5320    -1.4100 C.ar  1 <1>  -0.1500 
 13 C        3.7710     0.1240     1.3430 C.3   1 <1>   0.3430 
 14 C        5.0210    -1.7120     0.2700 C.3   1 <1>   0.3430 
 15 C       -4.9410     0.1900    -0.4760 C.ar  1 <1>   0.0830 
 16 N        4.8080    -0.2240     0.3170 N.4   1 <1>  -0.9590 
 17 O       -6.1900     0.7260    -0.4500 O.3   1 <1>  -0.3630 
 18 C        6.0440     0.5890     0.4430 C.3   1 <1>   0.3430 
 19 C       -6.5740     1.7130    -1.3810 C.3   1 <1>   0.0400 
 20 C        6.8880     0.4780    -0.8290 C.3   1 <1>  -0.1600 
 21 C        8.1050     1.4070    -0.7620 C.3   1 <1>  -0.2400 
 22 H       -1.2030    -2.5420     0.1910 H     1 <1>   0.3700 
 23 H        1.4130    -2.7690    -1.3650 H     1 <1>   0.0800 
 24 H        0.9930    -2.8810     0.3180 H     1 <1>   0.0800 
 25 H       -3.1910    -2.0680     1.3060 H     1 <1>   0.1500 
 26 H       -1.9840     0.2060    -2.0940 H     1 <1>   0.1500 
 27 H        2.1490    -1.1750     1.9360 H     1 <1>   0.0800 
 28 H        1.6800     0.1200     0.8770 H     1 <1>   0.0800 
 29 H        3.7740    -3.0600    -0.8540 H     1 <1>   0.0800 
 30 H        3.5040    -3.1350     0.8620 H     1 <1>   0.0800 
 31 H       -5.4010    -1.0110     1.2140 H     1 <1>   0.1500 
 32 H       -4.1590     1.2550    -2.1790 H     1 <1>   0.1500 
 33 H        4.1220    -0.1370     2.3270 H     1 <1>   0.0800 
 34 H        3.5820     1.1850     1.3300 H     1 <1>   0.0800 
 35 H        5.6970    -1.9610    -0.5300 H     1 <1>   0.0800 
 36 H        5.4650    -2.0500     1.1910 H     1 <1>   0.0800 
 37 H        4.3340    -0.0120    -0.5770 H     1 <1>   0.4500 
 38 H        6.6190     0.2630     1.2950 H     1 <1>   0.0800 
 39 H        5.7790     1.6240     0.5900 H     1 <1>   0.0800 
 40 H       -7.5890     1.9970    -1.1670 H     1 <1>   0.0800 
 41 H       -6.5120     1.3000    -2.3730 H     1 <1>   0.0800 
 42 H       -5.9260     2.5640    -1.2750 H     1 <1>   0.0800 
 43 H        6.2930     0.7520    -1.6840 H     1 <1>   0.0800 
 44 H        7.2390    -0.5300    -0.9590 H     1 <1>   0.0800 
 45 H        7.7980     2.4340    -0.6610 H     1 <1>   0.0800 
 46 H        8.6850     1.3180    -1.6660 H     1 <1>   0.0800 
 47 H        8.7380     1.1510     0.0700 H     1 <1>   0.0800 
@<TRIPOS>BOND
  1   1   2  2   
  2   2   3  am  
  3   2   4  1   
  4   3   5  1   
  5   3  22  1   
  6   4   6  1   
  7   4  23  1   
  8   4  24  1   
  9   5   7  ar  
 10   5   8  ar  
 11   6   9  1   
 12   6  10  1   
 13   7  11  ar  
 14   7  25  1   
 15   8  12  ar  
 16   8  26  1   
 17   9  13  1   
 18   9  27  1   
 19   9  28  1   
 20  10  14  1   
 21  10  29  1   
 22  10  30  1   
 23  11  15  ar  
 24  11  31  1   
 25  12  15  ar  
 26  12  32  1   
 27  13  16  1   
 28  13  33  1   
 29  13  34  1   
 30  14  16  1   
 31  14  35  1   
 32  14  36  1   
 33  15  17  1   
 34  16  18  1   
 35  16  37  1   
 36  17  19  1   
 37  18  20  1   
 38  18  38  1   
 39  18  39  1   
 40  19  40  1   
 41  19  41  1   
 42  19  42  1   
 43  20  21  1   
 44  20  43  1   
 45  20  44  1   
 46  21  45  1   
 47  21  46  1   
 48  21  47  1   
@<TRIPOS>SUBSTRUCTURE
  1 ****   2 GROUP 4 **** **** 0

# MOE 2024.06 (io_trps.svl 2023.06)
