@<TRIPOS>MOLECULE
NONAME
33 34 1 0 0 
SMALL
USER_CHARGES


@<TRIPOS>ATOM
  1 O       -0.0420     0.7460    -1.1130 O.co2 1 <1>  -0.9000 
  2 C        0.1640     1.9650    -0.9580 C.2   1 <1>   0.9790 
  3 O       -0.7520     2.7600    -1.2440 O.co2 1 <1>  -0.9000 
  4 C        1.4450     2.4490    -0.4580 C.ar  1 <1>  -0.1790 
  5 C        1.7080     3.8130    -0.3050 C.ar  1 <1>  -0.1500 
  6 C        2.4750     1.5720    -0.1040 C.ar  1 <1>  -0.1500 
  7 C        2.9230     4.2730     0.1660 C.ar  1 <1>  -0.1500 
  8 C        3.6900     2.0280     0.3690 C.ar  1 <1>  -0.1500 
  9 C        3.9390     3.3890     0.5040 C.ar  1 <1>   0.1000 
 10 N        5.1560     3.8700     0.9660 N.pl3 1 <1>  -0.8690 
 11 C        6.3670     3.5060     0.2220 C.3   1 <1>   0.5690 
 12 O        6.8230     2.3000     0.7550 O.3   1 <1>  -0.5600 
 13 C        7.4790     4.5670     0.3990 C.3   1 <1>   0.2000 
 14 C        7.9150     1.7350     0.0820 C.3   1 <1>   0.1200 
 15 O        7.1140     5.8290    -0.0860 O.3   1 <1>  -0.6800 
 16 C        8.7470     4.0850    -0.3150 C.3   1 <1>   0.2000 
 17 C        9.1250     2.6770     0.1720 C.3   1 <1>   0.2000 
 18 O        9.8040     4.9830    -0.1230 O.3   1 <1>  -0.6800 
 19 O       10.1580     2.1860    -0.6120 O.3   1 <1>  -0.6800 
 20 H        0.9290     4.5110    -0.5650 H     1 <1>   0.1500 
 21 H        2.2990     0.5140    -0.2040 H     1 <1>   0.1500 
 22 H        3.0840     5.3290     0.2700 H     1 <1>   0.1500 
 23 H        4.4530     1.3270     0.6460 H     1 <1>   0.1500 
 24 H        5.1600     4.8890     1.0610 H     1 <1>   0.4000 
 25 H        6.1340     3.3550    -0.8200 H     1 <1>   0.0800 
 26 H        7.6730     4.6680     1.4520 H     1 <1>   0.0800 
 27 H        7.6320     1.5600    -0.9420 H     1 <1>   0.0800 
 28 H        8.1400     0.7960     0.5560 H     1 <1>   0.0800 
 29 H        7.9260     6.3620    -0.2240 H     1 <1>   0.4000 
 30 H        8.5460     4.0390    -1.3730 H     1 <1>   0.0800 
 31 H        9.4690     2.7090     1.1920 H     1 <1>   0.0800 
 32 H       10.0430     5.0470     0.8240 H     1 <1>   0.4000 
 33 H       10.8270     2.8910    -0.7430 H     1 <1>   0.4000 
@<TRIPOS>BOND
  1   1   2  ar  
  2   2   3  ar  
  3   2   4  1   
  4   4   5  ar  
  5   4   6  ar  
  6   5   7  ar  
  7   5  20  1   
  8   6   8  ar  
  9   6  21  1   
 10   7   9  ar  
 11   7  22  1   
 12   8   9  ar  
 13   8  23  1   
 14   9  10  1   
 15  10  11  1   
 16  10  24  1   
 17  11  12  1   
 18  11  13  1   
 19  11  25  1   
 20  12  14  1   
 21  13  15  1   
 22  13  16  1   
 23  13  26  1   
 24  14  17  1   
 25  14  27  1   
 26  14  28  1   
 27  15  29  1   
 28  16  17  1   
 29  16  18  1   
 30  16  30  1   
 31  17  19  1   
 32  17  31  1   
 33  18  32  1   
 34  19  33  1   
@<TRIPOS>SUBSTRUCTURE
  1 ****   9 GROUP 4 **** **** 0

# MOE 2024.06 (io_trps.svl 2023.06)
