@<TRIPOS>MOLECULE
NONAME
50 52 1 0 0 
SMALL
USER_CHARGES


@<TRIPOS>ATOM
  1 F       -0.8030    -0.0550     1.0300 F     1 <1>  -0.1900 
  2 C       -1.2620    -1.2710     1.1290 C.ar  1 <1>   0.1900 
  3 C       -2.2070    -1.5540     2.0960 C.ar  1 <1>  -0.1500 
  4 C       -0.7870    -2.2390     0.2660 C.ar  1 <1>  -0.1500 
  5 C       -2.6890    -2.8480     2.1910 C.ar  1 <1>  -0.1500 
  6 C       -1.2800    -3.5270     0.3760 C.ar  1 <1>  -0.1500 
  7 C       -2.2460    -3.8610     1.3330 C.ar  1 <1>   0.0860 
  8 C       -2.7800    -5.2080     1.4430 C.2   1 <1>   0.5440 
  9 O       -3.2030    -5.6240     2.5030 O.2   1 <1>  -0.5700 
 10 N       -2.8470    -6.0170     0.3440 N.am  1 <1>  -0.7300 
 11 C       -3.4640    -7.3720     0.3070 C.3   1 <1>   0.1400 
 12 C       -4.7880    -7.4540    -0.4960 C.3   1 <1>   0.1440 
 13 C       -5.2370    -8.9260    -0.4200 C.ar  1 <1>  -0.1430 
 14 C       -4.6270    -6.9630    -1.9490 C.3   1 <1>  -0.1600 
 15 C       -5.8610    -6.4910     0.0510 C.3   1 <1>  -0.1600 
 16 C       -4.8600    -9.8480    -1.3880 C.ar  1 <1>  -0.1500 
 17 C       -5.9980    -9.3830     0.6480 C.ar  1 <1>  -0.1500 
 18 C       -4.9280    -5.4610    -1.9720 C.3   1 <1>  -0.1600 
 19 C       -5.7190    -5.1620    -0.6970 C.3   1 <1>  -0.1600 
 20 C       -5.2390   -11.1790    -1.3250 C.ar  1 <1>   0.0830 
 21 C       -6.3970   -10.7060     0.7270 C.ar  1 <1>  -0.1500 
 22 O       -4.7770   -11.9500    -2.3510 O.3   1 <1>  -0.3620 
 23 C       -6.0390   -11.6210    -0.2590 C.ar  1 <1>   0.0830 
 24 C       -4.5100   -13.3240    -2.1780 C.3   1 <1>   0.0400 
 25 O       -6.4610   -12.9190    -0.2070 O.3   1 <1>  -0.3630 
 26 C       -7.4300   -13.3540     0.7210 C.3   1 <1>   0.0400 
 27 H       -2.5520    -0.7790     2.7560 H     1 <1>   0.1500 
 28 H       -0.0460    -1.9820    -0.4700 H     1 <1>   0.1500 
 29 H       -3.4240    -3.0880     2.9410 H     1 <1>   0.1500 
 30 H       -0.9030    -4.2880    -0.2850 H     1 <1>   0.1500 
 31 H       -2.6880    -5.6070    -0.5760 H     1 <1>   0.3700 
 32 H       -3.6510    -7.7060     1.3140 H     1 <1>   0.0800 
 33 H       -2.7540    -8.0560    -0.1230 H     1 <1>   0.0800 
 34 H       -5.3670    -7.4480    -2.5630 H     1 <1>   0.0800 
 35 H       -3.6540    -7.1850    -2.3510 H     1 <1>   0.0800 
 36 H       -5.7770    -6.3550     1.1150 H     1 <1>   0.0800 
 37 H       -6.8360    -6.8910    -0.1700 H     1 <1>   0.0800 
 38 H       -4.2490    -9.5550    -2.2210 H     1 <1>   0.1500 
 39 H       -6.2890    -8.7130     1.4380 H     1 <1>   0.1500 
 40 H       -5.4970    -5.2030    -2.8480 H     1 <1>   0.0800 
 41 H       -4.0150    -4.8920    -1.9780 H     1 <1>   0.0800 
 42 H       -5.1830    -4.4530    -0.0900 H     1 <1>   0.0800 
 43 H       -6.6870    -4.7510    -0.9270 H     1 <1>   0.0800 
 44 H       -6.9890   -10.9980     1.5720 H     1 <1>   0.1500 
 45 H       -3.8530   -13.6400    -2.9670 H     1 <1>   0.0800 
 46 H       -5.4350   -13.8670    -2.2360 H     1 <1>   0.0800 
 47 H       -4.0380   -13.4730    -1.2220 H     1 <1>   0.0800 
 48 H       -7.6620   -14.3810     0.5060 H     1 <1>   0.0800 
 49 H       -8.3130   -12.7490     0.6120 H     1 <1>   0.0800 
 50 H       -7.0240   -13.2720     1.7140 H     1 <1>   0.0800 
@<TRIPOS>BOND
  1   1   2  1   
  2   2   3  ar  
  3   2   4  ar  
  4   3   5  ar  
  5   3  27  1   
  6   4   6  ar  
  7   4  28  1   
  8   5   7  ar  
  9   5  29  1   
 10   6   7  ar  
 11   6  30  1   
 12   7   8  1   
 13   8   9  2   
 14   8  10  am  
 15  10  11  1   
 16  10  31  1   
 17  11  12  1   
 18  11  32  1   
 19  11  33  1   
 20  12  13  1   
 21  12  14  1   
 22  12  15  1   
 23  13  16  ar  
 24  13  17  ar  
 25  14  18  1   
 26  14  34  1   
 27  14  35  1   
 28  15  19  1   
 29  15  36  1   
 30  15  37  1   
 31  16  20  ar  
 32  16  38  1   
 33  17  21  ar  
 34  17  39  1   
 35  18  19  1   
 36  18  40  1   
 37  18  41  1   
 38  19  42  1   
 39  19  43  1   
 40  20  22  1   
 41  20  23  ar  
 42  21  23  ar  
 43  21  44  1   
 44  22  24  1   
 45  23  25  1   
 46  24  45  1   
 47  24  46  1   
 48  24  47  1   
 49  25  26  1   
 50  26  48  1   
 51  26  49  1   
 52  26  50  1   
@<TRIPOS>SUBSTRUCTURE
  1 ****  11 GROUP 4 **** **** 0

# MOE 2024.06 (io_trps.svl 2023.06)
