@<TRIPOS>MOLECULE
NONAME
40 43 1 0 0 
SMALL
USER_CHARGES


@<TRIPOS>ATOM
  1 O       -0.7720    -0.1500    -0.3200 O.2   1 <1>  -0.5700 
  2 C       -1.1170    -1.2930    -0.1560 C.2   1 <1>   0.5690 
  3 N       -0.3400    -2.3920    -0.2810 N.am  1 <1>  -0.6600 
  4 C       -2.5180    -1.6730     0.2250 C.3   1 <1>  -0.0990 
  5 C       -1.0790    -3.6370    -0.0130 C.3   1 <1>   0.1400 
  6 C        1.0790    -2.4180    -0.7090 C.3   1 <1>   0.0600 
  7 C       -2.3780    -3.1490     0.6530 C.3   1 <1>  -0.0190 
  8 C       -3.5850    -4.0240     0.3390 C.2   1 <1>   0.5690 
  9 O       -3.3980    -5.1540    -0.0380 O.2   1 <1>  -0.5700 
 10 N       -4.8280    -3.4800     0.5180 N.am  1 <1>  -0.5470 
 11 C       -6.1150    -4.0020     0.3200 C.ar  1 <1>   0.1170 
 12 C       -7.1880    -3.0830     0.1470 C.ar  1 <1>   0.0000 
 13 C       -6.3760    -5.3610     0.3110 C.ar  1 <1>  -0.1500 
 14 C       -8.4640    -3.6340    -0.0100 C.ar  1 <1>   0.0000 
 15 C       -7.1300    -1.6690     0.1070 C.ar  1 <1>  -0.1500 
 16 C       -7.6710    -5.8720     0.1410 C.ar  1 <1>  -0.1500 
 17 C       -8.7080    -4.9980    -0.0160 C.ar  1 <1>  -0.1440 
 18 C       -9.6090    -2.8690    -0.1810 C.ar  1 <1>  -0.1440 
 19 C       -8.2620    -0.9060    -0.0620 C.ar  1 <1>  -0.1500 
 20 C      -10.1960    -5.2270    -0.2140 C.3   1 <1>  -0.0170 
 21 C       -9.5240    -1.5060    -0.2070 C.ar  1 <1>  -0.1500 
 22 C      -10.8000    -3.8020    -0.3150 C.3   1 <1>  -0.0170 
 23 H       -3.1380    -1.5670    -0.6470 H     1 <1>   0.0800 
 24 H       -2.8770    -1.0490     1.0220 H     1 <1>   0.0800 
 25 H       -0.5250    -4.2900     0.6400 H     1 <1>   0.0800 
 26 H       -1.2780    -4.1370    -0.9470 H     1 <1>   0.0800 
 27 H        1.4270    -1.4130    -0.8830 H     1 <1>   0.0800 
 28 H        1.1740    -2.9820    -1.6200 H     1 <1>   0.0800 
 29 H        1.6830    -2.8690     0.0570 H     1 <1>   0.0800 
 30 H       -2.2210    -3.1830     1.7160 H     1 <1>   0.0800 
 31 H       -4.8320    -2.5070     0.8110 H     1 <1>   0.3700 
 32 H       -5.5790    -6.0700     0.4430 H     1 <1>   0.1500 
 33 H       -6.1800    -1.1800     0.2050 H     1 <1>   0.1500 
 34 H       -7.8290    -6.9370     0.1390 H     1 <1>   0.1500 
 35 H       -8.1990     0.1680    -0.0900 H     1 <1>   0.1500 
 36 H      -10.6060    -5.7590     0.6250 H     1 <1>   0.0800 
 37 H      -10.3690    -5.7810    -1.1190 H     1 <1>   0.0800 
 38 H      -10.3970    -0.8920    -0.3380 H     1 <1>   0.1500 
 39 H      -11.2830    -3.6570    -1.2650 H     1 <1>   0.0800 
 40 H      -11.5010    -3.6270     0.4820 H     1 <1>   0.0800 
@<TRIPOS>BOND
  1   1   2  2   
  2   2   3  am  
  3   2   4  1   
  4   3   5  1   
  5   3   6  1   
  6   4   7  1   
  7   4  23  1   
  8   4  24  1   
  9   5   7  1   
 10   5  25  1   
 11   5  26  1   
 12   6  27  1   
 13   6  28  1   
 14   6  29  1   
 15   7   8  1   
 16   7  30  1   
 17   8   9  2   
 18   8  10  am  
 19  10  11  1   
 20  10  31  1   
 21  11  12  ar  
 22  11  13  ar  
 23  12  14  ar  
 24  12  15  ar  
 25  13  16  ar  
 26  13  32  1   
 27  14  17  ar  
 28  14  18  ar  
 29  15  19  ar  
 30  15  33  1   
 31  16  17  ar  
 32  16  34  1   
 33  17  20  1   
 34  18  21  ar  
 35  18  22  1   
 36  19  21  ar  
 37  19  35  1   
 38  20  22  1   
 39  20  36  1   
 40  20  37  1   
 41  21  38  1   
 42  22  39  1   
 43  22  40  1   
@<TRIPOS>SUBSTRUCTURE
  1 ****  10 GROUP 4 **** **** 0

# MOE 2024.06 (io_trps.svl 2023.06)
