@<TRIPOS>MOLECULE
NONAME
44 46 1 0 0 
SMALL
USER_CHARGES


@<TRIPOS>ATOM
  1 O       -1.1460     0.2020    -3.2130 O.2   1 <1>  -0.5700 
  2 C       -0.7470     0.8350    -2.2650 C.2   1 <1>   0.5690 
  3 N       -1.2620     0.7620    -1.0030 N.am  1 <1>  -0.5470 
  4 C        0.4260     1.8020    -2.4480 C.3   1 <1>   0.1710 
  5 C       -2.2910     0.0210    -0.4010 C.ar  1 <1>   0.1170 
  6 N        1.1350     2.1300    -1.1730 N.3   1 <1>  -0.8100 
  7 C       -2.4170     0.0380     0.9900 C.ar  1 <1>  -0.1430 
  8 C       -3.1970    -0.7280    -1.1460 C.ar  1 <1>  -0.1500 
  9 C        1.9630     3.3470    -1.3300 C.3   1 <1>   0.1100 
 10 C        2.0110     1.0070    -0.7510 C.3   1 <1>   0.1100 
 11 C       -3.4290    -0.6850     1.6010 C.ar  1 <1>  -0.1500 
 12 C       -1.4550     0.8400     1.8600 C.3   1 <1>  -0.0970 
 13 C       -4.2040    -1.4470    -0.5300 C.ar  1 <1>  -0.1500 
 14 C        2.6900     3.7300    -0.0280 C.3   1 <1>   0.2090 
 15 C        2.7500     1.2990     0.5680 C.3   1 <1>   0.2090 
 16 C       -4.3210    -1.4260     0.8470 C.ar  1 <1>  -0.1500 
 17 N        3.5040     2.5900     0.5010 N.pl3 1 <1>  -0.8380 
 18 C        4.7270     2.7700     1.1150 C.ar  1 <1>   0.7200 
 19 N        5.2470     1.7240     1.7590 N.ar  1 <1>  -0.6200 
 20 N        5.2870     3.9760     1.0180 N.ar  1 <1>  -0.6200 
 21 C        6.4070     1.9100     2.3380 C.ar  1 <1>   0.1600 
 22 C        6.4470     4.1330     1.6060 C.ar  1 <1>   0.1600 
 23 C        7.0620     3.1150     2.2910 C.ar  1 <1>  -0.1500 
 24 H       -0.7170     1.3480    -0.3640 H     1 <1>   0.3700 
 25 H        0.0210     2.7030    -2.8720 H     1 <1>   0.0800 
 26 H        1.1160     1.3840    -3.1600 H     1 <1>   0.0800 
 27 H       -3.1240    -0.7530    -2.2170 H     1 <1>   0.1500 
 28 H        1.3350     4.1710    -1.6240 H     1 <1>   0.0800 
 29 H        2.6980     3.1950    -2.1020 H     1 <1>   0.0800 
 30 H        2.7460     0.8100    -1.5140 H     1 <1>   0.0800 
 31 H        1.4240     0.1140    -0.6230 H     1 <1>   0.0800 
 32 H       -3.5330    -0.6790     2.6720 H     1 <1>   0.1500 
 33 H       -1.5110     1.8840     1.6070 H     1 <1>   0.0800 
 34 H       -0.4480     0.4940     1.7110 H     1 <1>   0.0800 
 35 H       -1.6960     0.7330     2.9020 H     1 <1>   0.0800 
 36 H       -4.8950    -2.0200    -1.1230 H     1 <1>   0.1500 
 37 H        1.9630     4.0130     0.7130 H     1 <1>   0.0800 
 38 H        3.3070     4.5880    -0.2270 H     1 <1>   0.0800 
 39 H        3.4130     0.4760     0.7690 H     1 <1>   0.0800 
 40 H        2.0380     1.3520     1.3720 H     1 <1>   0.0800 
 41 H       -5.1040    -1.9850     1.3290 H     1 <1>   0.1500 
 42 H        6.8470     1.0790     2.8640 H     1 <1>   0.1500 
 43 H        6.9200     5.0990     1.5400 H     1 <1>   0.1500 
 44 H        8.0120     3.2550     2.7690 H     1 <1>   0.1500 
@<TRIPOS>BOND
  1   1   2  2   
  2   2   3  am  
  3   2   4  1   
  4   3   5  1   
  5   3  24  1   
  6   4   6  1   
  7   4  25  1   
  8   4  26  1   
  9   5   7  ar  
 10   5   8  ar  
 11   6   9  1   
 12   6  10  1   
 13   7  11  ar  
 14   7  12  1   
 15   8  13  ar  
 16   8  27  1   
 17   9  14  1   
 18   9  28  1   
 19   9  29  1   
 20  10  15  1   
 21  10  30  1   
 22  10  31  1   
 23  11  16  ar  
 24  11  32  1   
 25  12  33  1   
 26  12  34  1   
 27  12  35  1   
 28  13  16  ar  
 29  13  36  1   
 30  14  17  1   
 31  14  37  1   
 32  14  38  1   
 33  15  17  1   
 34  15  39  1   
 35  15  40  1   
 36  16  41  1   
 37  17  18  1   
 38  18  19  ar  
 39  18  20  ar  
 40  19  21  ar  
 41  20  22  ar  
 42  21  23  ar  
 43  21  42  1   
 44  22  23  ar  
 45  22  43  1   
 46  23  44  1   
@<TRIPOS>SUBSTRUCTURE
  1 ****  10 GROUP 4 **** **** 0

# MOE 2024.06 (io_trps.svl 2023.06)
