@<TRIPOS>MOLECULE
NONAME
46 47 1 0 0 
SMALL
USER_CHARGES


@<TRIPOS>ATOM
  1 O       -0.6930    -1.2010     1.9440 O.2   1 <1>  -0.5700 
  2 C       -0.8280    -2.1150     1.1630 C.2   1 <1>   0.4950 
  3 C       -1.9890    -2.2860     0.3420 C.2   1 <1>   0.0290 
  4 C        0.3300    -3.0990     1.1170 C.3   1 <1>  -0.0990 
  5 C       -2.0550    -3.4400    -0.5120 C.2   1 <1>   0.4950 
  6 C       -2.9940    -1.3410     0.3980 C.2   1 <1>  -0.0500 
  7 C        0.4560    -3.8150    -0.2330 C.3   1 <1>   0.0000 
  8 O       -2.9980    -3.7250    -1.2170 O.2   1 <1>  -0.5700 
  9 C       -0.9060    -4.4350    -0.5720 C.3   1 <1>  -0.0990 
 10 N       -4.1430    -1.3420    -0.3190 N.pl3 1 <1>  -0.8690 
 11 C        1.5160    -4.9220    -0.1320 C.3   1 <1>  -0.2400 
 12 C        0.8910    -2.8280    -1.3330 C.3   1 <1>  -0.2400 
 13 C       -5.2450    -0.3510    -0.2470 C.3   1 <1>   0.3530 
 14 C       -6.6020    -1.0250    -0.0530 C.ar  1 <1>  -0.1430 
 15 C       -7.7570    -0.3510    -0.4460 C.ar  1 <1>   0.0830 
 16 C       -6.7120    -2.2850     0.5200 C.ar  1 <1>  -0.1500 
 17 O       -7.5920     0.9010    -0.9620 O.3   1 <1>  -0.3630 
 18 C       -9.0140    -0.9620    -0.3070 C.ar  1 <1>   0.0830 
 19 C       -7.9480    -2.8810     0.6830 C.ar  1 <1>  -0.1500 
 20 C       -8.4140     1.9540    -0.5080 C.3   1 <1>   0.0400 
 21 O      -10.1300    -0.3160    -0.7530 O.3   1 <1>  -0.3630 
 22 C       -9.0930    -2.2260     0.2700 C.ar  1 <1>  -0.1500 
 23 C      -11.3490    -0.9970    -0.9540 C.3   1 <1>   0.0400 
 24 H        1.2420    -2.5710     1.3340 H     1 <1>   0.0800 
 25 H        0.1790    -3.8160     1.9040 H     1 <1>   0.0800 
 26 H       -2.8700    -0.5090     1.0770 H     1 <1>   0.1500 
 27 H       -1.1300    -5.2320     0.1140 H     1 <1>   0.0800 
 28 H       -0.8700    -4.8630    -1.5590 H     1 <1>   0.0800 
 29 H       -4.3270    -2.1160    -0.9850 H     1 <1>   0.4000 
 30 H        2.4770    -4.5060     0.1180 H     1 <1>   0.0800 
 31 H        1.6100    -5.4440    -1.0680 H     1 <1>   0.0800 
 32 H        1.2540    -5.6390     0.6270 H     1 <1>   0.0800 
 33 H        0.1870    -2.0250    -1.4580 H     1 <1>   0.0800 
 34 H        1.8470    -2.3950    -1.0930 H     1 <1>   0.0800 
 35 H        0.9840    -3.3350    -2.2780 H     1 <1>   0.0800 
 36 H       -5.0670     0.3300     0.5670 H     1 <1>   0.0800 
 37 H       -5.2450     0.2150    -1.1630 H     1 <1>   0.0800 
 38 H       -5.8330    -2.8140     0.8470 H     1 <1>   0.1500 
 39 H       -8.0150    -3.8570     1.1300 H     1 <1>   0.1500 
 40 H       -7.8790     2.8770    -0.6340 H     1 <1>   0.0800 
 41 H       -8.6470     1.7990     0.5310 H     1 <1>   0.0800 
 42 H       -9.3120     1.9730    -1.0990 H     1 <1>   0.0800 
 43 H      -10.0350    -2.7210     0.4100 H     1 <1>   0.1500 
 44 H      -12.0310    -0.3240    -1.4390 H     1 <1>   0.0800 
 45 H      -11.7460    -1.2920     0.0010 H     1 <1>   0.0800 
 46 H      -11.1710    -1.8530    -1.5810 H     1 <1>   0.0800 
@<TRIPOS>BOND
  1   1   2  2   
  2   2   3  1   
  3   2   4  1   
  4   3   5  1   
  5   3   6  2   
  6   4   7  1   
  7   4  24  1   
  8   4  25  1   
  9   5   8  2   
 10   5   9  1   
 11   6  10  1   
 12   6  26  1   
 13   7   9  1   
 14   7  11  1   
 15   7  12  1   
 16   9  27  1   
 17   9  28  1   
 18  10  13  1   
 19  10  29  1   
 20  11  30  1   
 21  11  31  1   
 22  11  32  1   
 23  12  33  1   
 24  12  34  1   
 25  12  35  1   
 26  13  14  1   
 27  13  36  1   
 28  13  37  1   
 29  14  15  ar  
 30  14  16  ar  
 31  15  17  1   
 32  15  18  ar  
 33  16  19  ar  
 34  16  38  1   
 35  17  20  1   
 36  18  21  1   
 37  18  22  ar  
 38  19  22  ar  
 39  19  39  1   
 40  20  40  1   
 41  20  41  1   
 42  20  42  1   
 43  21  23  1   
 44  22  43  1   
 45  23  44  1   
 46  23  45  1   
 47  23  46  1   
@<TRIPOS>SUBSTRUCTURE
  1 ****  10 GROUP 4 **** **** 0

# MOE 2024.06 (io_trps.svl 2023.06)
