@<TRIPOS>MOLECULE
NONAME
30 32 1 0 0 
SMALL
USER_CHARGES


@<TRIPOS>ATOM
  1 S       -0.7360    -0.8900     2.4970 S.3   1 <1>  -0.0800 
  2 C        0.7900    -0.5770     1.6860 C.2   1 <1>  -0.1100 
  3 C       -0.5290    -2.6160     2.2850 C.2   1 <1>  -0.1100 
  4 C        1.3980    -1.7200     1.2890 C.2   1 <1>  -0.0460 
  5 C        0.6230    -2.8800     1.6430 C.2   1 <1>  -0.1500 
  6 C        2.6570    -1.8520     0.5970 C.2   1 <1>  -0.1040 
  7 C        3.5230    -0.8940     0.1920 C.2   1 <1>  -0.0380 
  8 N        3.3610     0.4870     0.3720 N.pl3 1 <1>  -0.8380 
  9 C        4.8270    -1.2550    -0.5430 C.3   1 <1>   0.3380 
 10 C        4.4690     1.0690     1.1890 C.3   1 <1>   0.2090 
 11 C        3.3120     1.1970    -0.9430 C.3   1 <1>   0.2090 
 12 O        5.5940    -2.0450     0.2920 O.3   1 <1>  -0.6800 
 13 C        5.5840     0.0590    -0.8610 C.3   1 <1>  -0.0800 
 14 C        5.8140     0.8460     0.4550 C.3   1 <1>  -0.1600 
 15 C        4.6270     0.9250    -1.7150 C.3   1 <1>  -0.1600 
 16 H        1.0960     0.4480     1.5790 H     1 <1>   0.1500 
 17 H       -1.3030    -3.2570     2.6680 H     1 <1>   0.1500 
 18 H        0.9760    -3.8650     1.3950 H     1 <1>   0.1500 
 19 H        2.9170    -2.8730     0.3890 H     1 <1>   0.1500 
 20 H        4.6250    -1.8130    -1.4410 H     1 <1>   0.0800 
 21 H        4.2920     2.1190     1.3460 H     1 <1>   0.0800 
 22 H        4.4840     0.5850     2.1510 H     1 <1>   0.0800 
 23 H        2.4670     0.8350    -1.5060 H     1 <1>   0.0800 
 24 H        3.1790     2.2530    -0.7800 H     1 <1>   0.0800 
 25 H        5.4550    -1.7160     1.1990 H     1 <1>   0.4000 
 26 H        6.5030    -0.1390    -1.3830 H     1 <1>   0.0800 
 27 H        6.2640     1.7980     0.2420 H     1 <1>   0.0800 
 28 H        6.4900     0.3140     1.1000 H     1 <1>   0.0800 
 29 H        4.3980     0.4220    -2.6370 H     1 <1>   0.0800 
 30 H        5.0930     1.8610    -1.9670 H     1 <1>   0.0800 
@<TRIPOS>BOND
  1   1   2  1   
  2   1   3  1   
  3   2   4  2   
  4   2  16  1   
  5   3   5  2   
  6   3  17  1   
  7   4   5  1   
  8   4   6  1   
  9   5  18  1   
 10   6   7  2   
 11   6  19  1   
 12   7   8  1   
 13   7   9  1   
 14   8  10  1   
 15   8  11  1   
 16   9  12  1   
 17   9  13  1   
 18   9  20  1   
 19  10  14  1   
 20  10  21  1   
 21  10  22  1   
 22  11  15  1   
 23  11  23  1   
 24  11  24  1   
 25  12  25  1   
 26  13  14  1   
 27  13  15  1   
 28  13  26  1   
 29  14  27  1   
 30  14  28  1   
 31  15  29  1   
 32  15  30  1   
@<TRIPOS>SUBSTRUCTURE
  1 ****   7 GROUP 4 **** **** 0

# MOE 2024.06 (io_trps.svl 2023.06)
