@<TRIPOS>MOLECULE
NONAME
37 37 1 0 0 
SMALL
USER_CHARGES


@<TRIPOS>ATOM
  1 BR      -0.9350    -1.1760     0.0730 Br    1 <1>  -0.1110 
  2 C       -2.7480    -0.5290    -0.0210 C.ar  1 <1>   0.1110 
  3 C       -3.5630    -0.6640     1.0860 C.ar  1 <1>  -0.1500 
  4 C       -3.1880     0.0540    -1.1930 C.ar  1 <1>  -0.1500 
  5 C       -4.8640    -0.1970     1.0120 C.ar  1 <1>  -0.1500 
  6 C       -4.4910     0.5160    -1.2530 C.ar  1 <1>  -0.1500 
  7 C       -5.3430     0.3970    -0.1570 C.ar  1 <1>   0.1000 
  8 N       -6.6440     0.8720    -0.2670 N.pl3 1 <1>  -0.7760 
  9 P       -7.8770     0.9530     0.9070 P.3   1 <1>   1.5180 
 10 O       -7.5870     1.8770     1.9970 O.2   1 <1>  -0.7000 
 11 O       -9.1500     1.3430     0.0200 O.3   1 <1>  -0.5510 
 12 O       -8.1140    -0.5750     1.3250 O.3   1 <1>  -0.5510 
 13 C       -9.6140     2.6400    -0.0380 C.3   1 <1>   0.2000 
 14 C       -8.5150    -1.5260     0.4100 C.3   1 <1>   0.2000 
 15 C      -11.0240     2.5730    -0.6160 C.3   1 <1>  -0.2400 
 16 C       -8.6930     3.4770    -0.9280 C.3   1 <1>  -0.2400 
 17 C      -10.0110    -1.7700     0.6010 C.3   1 <1>  -0.2400 
 18 C       -7.7060    -2.7880     0.6940 C.3   1 <1>  -0.2400 
 19 H       -3.1880    -1.1210     1.9840 H     1 <1>   0.1500 
 20 H       -2.5260     0.1420    -2.0350 H     1 <1>   0.1500 
 21 H       -5.5010    -0.2960     1.8720 H     1 <1>   0.1500 
 22 H       -4.8520     0.9680    -2.1580 H     1 <1>   0.1500 
 23 H       -6.8060     1.5670    -0.9860 H     1 <1>   0.4000 
 24 H       -9.6520     3.0420     0.9640 H     1 <1>   0.0800 
 25 H       -8.3090    -1.1800    -0.5900 H     1 <1>   0.0800 
 26 H      -11.0070     2.1500    -1.6040 H     1 <1>   0.0800 
 27 H      -11.4470     3.5600    -0.6710 H     1 <1>   0.0800 
 28 H      -11.6510     1.9730     0.0180 H     1 <1>   0.0800 
 29 H       -8.5920     3.0260    -1.8990 H     1 <1>   0.0800 
 30 H       -7.7270     3.5970    -0.4730 H     1 <1>   0.0800 
 31 H       -9.1130     4.4600    -1.0540 H     1 <1>   0.0800 
 32 H      -10.2130    -2.0850     1.6100 H     1 <1>   0.0800 
 33 H      -10.3440    -2.5380    -0.0720 H     1 <1>   0.0800 
 34 H      -10.5680    -0.8760     0.3900 H     1 <1>   0.0800 
 35 H       -7.8750    -3.1240     1.7020 H     1 <1>   0.0800 
 36 H       -6.6590    -2.5900     0.5540 H     1 <1>   0.0800 
 37 H       -7.9950    -3.5700     0.0170 H     1 <1>   0.0800 
@<TRIPOS>BOND
  1   1   2  1   
  2   2   3  ar  
  3   2   4  ar  
  4   3   5  ar  
  5   3  19  1   
  6   4   6  ar  
  7   4  20  1   
  8   5   7  ar  
  9   5  21  1   
 10   6   7  ar  
 11   6  22  1   
 12   7   8  1   
 13   8   9  1   
 14   8  23  1   
 15   9  10  2   
 16   9  11  1   
 17   9  12  1   
 18  11  13  1   
 19  12  14  1   
 20  13  15  1   
 21  13  16  1   
 22  13  24  1   
 23  14  17  1   
 24  14  18  1   
 25  14  25  1   
 26  15  26  1   
 27  15  27  1   
 28  15  28  1   
 29  16  29  1   
 30  16  30  1   
 31  16  31  1   
 32  17  32  1   
 33  17  33  1   
 34  17  34  1   
 35  18  35  1   
 36  18  36  1   
 37  18  37  1   
@<TRIPOS>SUBSTRUCTURE
  1 ****   8 GROUP 4 **** **** 0

# MOE 2024.06 (io_trps.svl 2023.06)
