@<TRIPOS>MOLECULE
NONAME
29 32 1 0 0 
SMALL
USER_CHARGES


@<TRIPOS>ATOM
  1 S        0.0560    -0.1610     0.0460 S.3   1 <1>  -0.0800 
  2 C        1.3280     1.0530     0.0540 C.2   1 <1>   0.1660 
  3 C       -1.1770     1.0940     0.0310 C.2   1 <1>  -0.1400 
  4 N        2.6550     0.7200     0.0620 N.2   1 <1>  -0.5760 
  5 C        0.8040     2.3160     0.0490 C.2   1 <1>  -0.0010 
  6 C       -0.6320     2.3210     0.0450 C.2   1 <1>  -0.1810 
  7 C       -2.6450     0.7320     0.0070 C.3   1 <1>   0.0200 
  8 C        3.4560     1.7310     0.0620 C.2   1 <1>   0.3990 
  9 C        1.7360     3.3930     0.0460 C.2   1 <1>   0.1870 
 10 C       -1.4860     3.5780     0.0480 C.3   1 <1>   0.0210 
 11 C       -3.4660     1.9890    -0.3410 C.3   1 <1>  -0.1600 
 12 N        3.0450     3.0640     0.0540 N.pl3 1 <1>   0.2940 
 13 N        1.5800     4.6890     0.0360 N.2   1 <1>  -0.3380 
 14 C       -2.9520     3.2430     0.3990 C.3   1 <1>  -0.1600 
 15 C        3.6480     4.2600     0.0480 C.2   1 <1>   0.0060 
 16 N        2.7960     5.2270     0.0380 N.2   1 <1>  -0.3380 
 17 C        5.1530     4.4570     0.0540 C.3   1 <1>  -0.0600 
 18 H       -2.9270     0.3610     0.9770 H     1 <1>   0.0800 
 19 H       -2.8260    -0.0380    -0.7220 H     1 <1>   0.0800 
 20 H        4.5190     1.5710     0.0680 H     1 <1>   0.0600 
 21 H       -1.4350     4.0320    -0.9260 H     1 <1>   0.0800 
 22 H       -1.1020     4.2820     0.7660 H     1 <1>   0.0800 
 23 H       -4.5000     1.8190    -0.1000 H     1 <1>   0.0800 
 24 H       -3.3970     2.1640    -1.4010 H     1 <1>   0.0800 
 25 H       -3.5740     4.0880     0.1620 H     1 <1>   0.0800 
 26 H       -3.0210     3.0710     1.4590 H     1 <1>   0.0800 
 27 H        5.5840     4.0200     0.9360 H     1 <1>   0.0800 
 28 H        5.3820     5.5090     0.0480 H     1 <1>   0.0800 
 29 H        5.5920     4.0080    -0.8190 H     1 <1>   0.0800 
@<TRIPOS>BOND
  1   1   2  1   
  2   1   3  1   
  3   2   4  1   
  4   2   5  2   
  5   3   6  2   
  6   3   7  1   
  7   4   8  2   
  8   5   6  1   
  9   5   9  1   
 10   6  10  1   
 11   7  11  1   
 12   7  18  1   
 13   7  19  1   
 14   8  12  1   
 15   8  20  1   
 16   9  12  1   
 17   9  13  2   
 18  10  14  1   
 19  10  21  1   
 20  10  22  1   
 21  11  14  1   
 22  11  23  1   
 23  11  24  1   
 24  12  15  1   
 25  13  16  1   
 26  14  25  1   
 27  14  26  1   
 28  15  16  2   
 29  15  17  1   
 30  17  27  1   
 31  17  28  1   
 32  17  29  1   
@<TRIPOS>SUBSTRUCTURE
  1 ****   5 GROUP 4 **** **** 0

# MOE 2024.06 (io_trps.svl 2023.06)
