@<TRIPOS>MOLECULE
NONAME
43 45 1 0 0 
SMALL
USER_CHARGES


@<TRIPOS>ATOM
  1 S       -0.3960    -1.7100    -1.2090 S.o2  1 <1>   1.4470 
  2 O       -1.3370    -0.6320    -1.4230 O.2   1 <1>  -0.6500 
  3 O       -0.1410    -2.6440    -2.2830 O.2   1 <1>  -0.6500 
  4 N       -0.9880    -2.6180     0.0890 N.am  1 <1>  -0.8490 
  5 C        1.1570    -1.0360    -0.5620 C.ar  1 <1>  -0.0090 
  6 C       -2.3720    -3.1130    -0.1360 C.3   1 <1>   0.3370 
  7 C       -0.1410    -3.7490     0.4550 C.3   1 <1>   0.1960 
  8 C        2.3520    -1.1970    -1.2190 C.ar  1 <1>  -0.1500 
  9 C        1.1630    -0.3250     0.6510 C.ar  1 <1>  -0.1500 
 10 C       -3.4520    -2.2500     0.5780 C.2   1 <1>   0.5690 
 11 C       -2.3470    -4.5920     0.2940 C.3   1 <1>  -0.1600 
 12 C       -1.0800    -4.7360     1.1190 C.3   1 <1>  -0.1600 
 13 C        3.5650    -0.6840    -0.7190 C.ar  1 <1>   0.0000 
 14 C        2.3210     0.1880     1.1660 C.ar  1 <1>  -0.1500 
 15 O       -4.2280    -2.7530     1.3610 O.2   1 <1>  -0.5700 
 16 N       -3.5240    -0.9200     0.2950 N.am  1 <1>  -0.7300 
 17 C        3.5500     0.0230     0.5010 C.ar  1 <1>   0.0000 
 18 C        4.7920    -0.8520    -1.3910 C.ar  1 <1>  -0.1500 
 19 C       -4.4900     0.0390     0.8530 C.3   1 <1>   0.1400 
 20 C        4.7640     0.5350     1.0030 C.ar  1 <1>  -0.1500 
 21 C        5.9550    -0.3450    -0.8800 C.ar  1 <1>  -0.1500 
 22 C       -5.0300     0.8960    -0.2850 C.3   1 <1>  -0.2400 
 23 C        5.9410     0.3560     0.3310 C.ar  1 <1>  -0.1500 
 24 H       -2.6030    -3.0870    -1.1880 H     1 <1>   0.0800 
 25 H        0.6510    -3.4410     1.1180 H     1 <1>   0.0800 
 26 H        0.2850    -4.2080    -0.4230 H     1 <1>   0.0800 
 27 H        2.3800    -1.7340    -2.1520 H     1 <1>   0.1500 
 28 H        0.2280    -0.1920     1.1700 H     1 <1>   0.1500 
 29 H       -2.2740    -5.2020    -0.5890 H     1 <1>   0.0800 
 30 H       -3.2200    -4.9030     0.8390 H     1 <1>   0.0800 
 31 H       -1.2610    -4.4300     2.1360 H     1 <1>   0.0800 
 32 H       -0.6890    -5.7380     1.1090 H     1 <1>   0.0800 
 33 H        2.3110     0.7300     2.0950 H     1 <1>   0.1500 
 34 H       -2.8280    -0.5250    -0.3560 H     1 <1>   0.3700 
 35 H        4.8000    -1.3910    -2.3210 H     1 <1>   0.1500 
 36 H       -3.9960     0.6570     1.5840 H     1 <1>   0.0800 
 37 H       -5.2970    -0.4870     1.3370 H     1 <1>   0.0800 
 38 H        4.7470     1.0740     1.9330 H     1 <1>   0.1500 
 39 H        6.8900    -0.4760    -1.3970 H     1 <1>   0.1500 
 40 H       -4.2300     1.4340    -0.7620 H     1 <1>   0.0800 
 41 H       -5.7380     1.6060     0.1010 H     1 <1>   0.0800 
 42 H       -5.5280     0.2770    -1.0090 H     1 <1>   0.0800 
 43 H        6.8650     0.7490     0.7180 H     1 <1>   0.1500 
@<TRIPOS>BOND
  1   1   2  2   
  2   1   3  2   
  3   1   4  am  
  4   1   5  1   
  5   4   6  1   
  6   4   7  1   
  7   5   8  ar  
  8   5   9  ar  
  9   6  10  1   
 10   6  11  1   
 11   6  24  1   
 12   7  12  1   
 13   7  25  1   
 14   7  26  1   
 15   8  13  ar  
 16   8  27  1   
 17   9  14  ar  
 18   9  28  1   
 19  10  15  2   
 20  10  16  am  
 21  11  12  1   
 22  11  29  1   
 23  11  30  1   
 24  12  31  1   
 25  12  32  1   
 26  13  17  ar  
 27  13  18  ar  
 28  14  17  ar  
 29  14  33  1   
 30  16  19  1   
 31  16  34  1   
 32  17  20  ar  
 33  18  21  ar  
 34  18  35  1   
 35  19  22  1   
 36  19  36  1   
 37  19  37  1   
 38  20  23  ar  
 39  20  38  1   
 40  21  23  ar  
 41  21  39  1   
 42  22  40  1   
 43  22  41  1   
 44  22  42  1   
 45  23  43  1   
@<TRIPOS>SUBSTRUCTURE
  1 ****   5 GROUP 4 **** **** 0

# MOE 2024.06 (io_trps.svl 2023.06)
