@<TRIPOS>MOLECULE
NONAME
43 45 1 0 0 
SMALL
USER_CHARGES


@<TRIPOS>ATOM
  1 S        1.0600     1.6370    -0.1000 S.3   1 <1>  -0.3320 
  2 C       -0.7320     1.5150     0.0710 C.ar  1 <1>   0.1020 
  3 C        1.4860     1.3620    -1.8950 C.3   1 <1>   0.2110 
  4 C       -1.5670     1.1500    -0.9740 C.ar  1 <1>  -0.1500 
  5 C       -1.2540     1.8030     1.3190 C.ar  1 <1>  -0.1500 
  6 C        2.9620     0.9730    -2.0380 C.2   1 <1>   0.5690 
  7 C        1.1450     2.6550    -2.6470 C.3   1 <1>  -0.2400 
  8 C       -2.9340     1.0810    -0.7600 C.ar  1 <1>  -0.1500 
  9 C       -2.6200     1.7320     1.5260 C.ar  1 <1>  -0.1500 
 10 O        3.3020     0.3420    -3.0110 O.2   1 <1>  -0.5700 
 11 N        3.8520     1.3490    -1.0830 N.am  1 <1>  -0.7300 
 12 C       -3.4660     1.3730     0.4870 C.ar  1 <1>  -0.1430 
 13 C        5.2860     1.0180    -1.0540 C.3   1 <1>   0.2200 
 14 C       -4.9650     1.2940     0.7170 C.3   1 <1>  -0.0970 
 15 C        5.6560     0.0940     0.1260 C.3   1 <1>  -0.0800 
 16 C        6.1340     2.2710    -0.7880 C.3   1 <1>  -0.1600 
 17 C        7.1350     0.4140     0.2850 C.3   1 <1>  -0.1600 
 18 C        5.1080     0.6420     1.4600 C.3   1 <1>  -0.1600 
 19 C        6.9160     1.9050     0.4860 C.3   1 <1>  -0.0800 
 20 C        5.9430     1.9170     1.6770 C.3   1 <1>  -0.1600 
 21 H        0.8910     0.5380    -2.2400 H     1 <1>   0.0800 
 22 H       -1.1850     0.9170    -1.9470 H     1 <1>   0.1500 
 23 H       -0.5940     2.0820     2.1210 H     1 <1>   0.1500 
 24 H        1.7490     3.4650    -2.2790 H     1 <1>   0.0800 
 25 H        0.1080     2.9090    -2.5230 H     1 <1>   0.0800 
 26 H        1.3460     2.5270    -3.6960 H     1 <1>   0.0800 
 27 H       -3.5840     0.7970    -1.5690 H     1 <1>   0.1500 
 28 H       -3.0220     1.9560     2.4980 H     1 <1>   0.1500 
 29 H        3.4980     1.8080    -0.2410 H     1 <1>   0.3700 
 30 H        5.5830     0.5630    -1.9850 H     1 <1>   0.0800 
 31 H       -5.2300     0.3080     1.0530 H     1 <1>   0.0800 
 32 H       -5.4980     1.5070    -0.1920 H     1 <1>   0.0800 
 33 H       -5.2690     2.0080     1.4620 H     1 <1>   0.0800 
 34 H        5.4390    -0.9440    -0.0560 H     1 <1>   0.0800 
 35 H        5.5400     3.1590    -0.6570 H     1 <1>   0.0800 
 36 H        6.8170     2.4200    -1.6050 H     1 <1>   0.0800 
 37 H        7.7110     0.1910    -0.5980 H     1 <1>   0.0800 
 38 H        7.5780    -0.0620     1.1440 H     1 <1>   0.0800 
 39 H        5.3050    -0.0630     2.2490 H     1 <1>   0.0800 
 40 H        4.0510     0.8390     1.4380 H     1 <1>   0.0800 
 41 H        7.8090     2.4890     0.6390 H     1 <1>   0.0800 
 42 H        6.4840     1.8520     2.6050 H     1 <1>   0.0800 
 43 H        5.3320     2.8030     1.6870 H     1 <1>   0.0800 
@<TRIPOS>BOND
  1   1   2  1   
  2   1   3  1   
  3   2   4  ar  
  4   2   5  ar  
  5   3   6  1   
  6   3   7  1   
  7   3  21  1   
  8   4   8  ar  
  9   4  22  1   
 10   5   9  ar  
 11   5  23  1   
 12   6  10  2   
 13   6  11  am  
 14   7  24  1   
 15   7  25  1   
 16   7  26  1   
 17   8  12  ar  
 18   8  27  1   
 19   9  12  ar  
 20   9  28  1   
 21  11  13  1   
 22  11  29  1   
 23  12  14  1   
 24  13  15  1   
 25  13  16  1   
 26  13  30  1   
 27  14  31  1   
 28  14  32  1   
 29  14  33  1   
 30  15  17  1   
 31  15  18  1   
 32  15  34  1   
 33  16  19  1   
 34  16  35  1   
 35  16  36  1   
 36  17  19  1   
 37  17  37  1   
 38  17  38  1   
 39  18  20  1   
 40  18  39  1   
 41  18  40  1   
 42  19  20  1   
 43  19  41  1   
 44  20  42  1   
 45  20  43  1   
@<TRIPOS>SUBSTRUCTURE
  1 ****   1 GROUP 4 **** **** 0

# MOE 2024.06 (io_trps.svl 2023.06)
