@<TRIPOS>MOLECULE
NONAME
52 54 1 0 0 
SMALL
USER_CHARGES


@<TRIPOS>ATOM
  1 O        0.0700     1.4470     1.7670 O.2   1 <1>  -0.5700 
  2 C       -0.0440     1.9550     0.6700 C.2   1 <1>   0.5440 
  3 N        1.0050     1.9300    -0.2160 N.am  1 <1>  -0.5470 
  4 C       -1.2840     2.6110     0.3030 C.ar  1 <1>   0.0860 
  5 C        2.2710     1.3440    -0.0640 C.ar  1 <1>   0.1170 
  6 C       -1.7760     2.5940    -1.0030 C.ar  1 <1>  -0.1500 
  7 C       -2.0410     3.2860     1.2590 C.ar  1 <1>  -0.1500 
  8 C        3.4010     2.1640    -0.0490 C.ar  1 <1>  -0.1440 
  9 C        2.4310    -0.0410     0.0380 C.ar  1 <1>  -0.1430 
 10 C       -2.9660     3.2160    -1.3350 C.ar  1 <1>  -0.1500 
 11 C       -3.2300     3.9120     0.9360 C.ar  1 <1>  -0.1500 
 12 C        4.6620     1.6030     0.0670 C.ar  1 <1>  -0.1500 
 13 C        3.2790     3.6800    -0.1460 C.3   1 <1>  -0.0970 
 14 C        3.7010    -0.5800     0.1590 C.ar  1 <1>  -0.1500 
 15 C        1.2420    -0.9940     0.0170 C.3   1 <1>  -0.0970 
 16 C       -3.7080     3.8740    -0.3650 C.ar  1 <1>  -0.1430 
 17 C        4.8210     0.2330     0.1730 C.ar  1 <1>  -0.1430 
 18 C       -5.0290     4.5330    -0.7180 C.3   1 <1>   0.4860 
 19 C        6.2060    -0.3730     0.3040 C.3   1 <1>  -0.0970 
 20 N       -6.1330     3.7130    -0.1490 N.4   1 <1>  -0.9590 
 21 C       -6.1600     2.3230    -0.7310 C.3   1 <1>   0.3430 
 22 C       -7.4700     4.3830    -0.3060 C.3   1 <1>   0.3430 
 23 C       -7.3680     1.5190    -0.2160 C.3   1 <1>   0.1200 
 24 C       -8.6160     3.4790     0.1880 C.3   1 <1>   0.1200 
 25 O       -8.5500     2.2310    -0.4390 O.3   1 <1>  -0.5600 
 26 H        0.9490     2.5940    -0.9830 H     1 <1>   0.3700 
 27 H       -1.2220     2.0750    -1.7680 H     1 <1>   0.1500 
 28 H       -1.6790     3.3120     2.2750 H     1 <1>   0.1500 
 29 H       -3.3050     3.1770    -2.3580 H     1 <1>   0.1500 
 30 H       -3.7690     4.4270     1.7150 H     1 <1>   0.1500 
 31 H        5.5320     2.2350     0.0780 H     1 <1>   0.1500 
 32 H        2.6140     4.0430     0.6170 H     1 <1>   0.0800 
 33 H        2.8980     3.9600    -1.1110 H     1 <1>   0.0800 
 34 H        4.2340     4.1530    -0.0080 H     1 <1>   0.0800 
 35 H        3.8240    -1.6450     0.2430 H     1 <1>   0.1500 
 36 H        0.5390    -0.7020    -0.7410 H     1 <1>   0.0800 
 37 H        0.7510    -0.9790     0.9740 H     1 <1>   0.0800 
 38 H        1.5580    -2.0000    -0.1880 H     1 <1>   0.0800 
 39 H       -5.1320     4.6040    -1.7890 H     1 <1>   0.0800 
 40 H       -5.0530     5.5280    -0.3050 H     1 <1>   0.0800 
 41 H        6.8750     0.3170     0.7860 H     1 <1>   0.0800 
 42 H        6.5920    -0.6100    -0.6710 H     1 <1>   0.0800 
 43 H        6.1680    -1.2720     0.8920 H     1 <1>   0.0800 
 44 H       -5.9400     3.6070     0.8550 H     1 <1>   0.4500 
 45 H       -5.2520     1.7990    -0.4790 H     1 <1>   0.0800 
 46 H       -6.2240     2.3780    -1.8050 H     1 <1>   0.0800 
 47 H       -7.6460     4.6080    -1.3460 H     1 <1>   0.0800 
 48 H       -7.4880     5.3100     0.2420 H     1 <1>   0.0800 
 49 H       -7.2790     1.3100     0.8360 H     1 <1>   0.0800 
 50 H       -7.4440     0.5840    -0.7450 H     1 <1>   0.0800 
 51 H       -9.5680     3.9170    -0.0590 H     1 <1>   0.0800 
 52 H       -8.5720     3.3360     1.2540 H     1 <1>   0.0800 
@<TRIPOS>BOND
  1   1   2  2   
  2   2   3  am  
  3   2   4  1   
  4   3   5  1   
  5   3  26  1   
  6   4   6  ar  
  7   4   7  ar  
  8   5   8  ar  
  9   5   9  ar  
 10   6  10  ar  
 11   6  27  1   
 12   7  11  ar  
 13   7  28  1   
 14   8  12  ar  
 15   8  13  1   
 16   9  14  ar  
 17   9  15  1   
 18  10  16  ar  
 19  10  29  1   
 20  11  16  ar  
 21  11  30  1   
 22  12  17  ar  
 23  12  31  1   
 24  13  32  1   
 25  13  33  1   
 26  13  34  1   
 27  14  17  ar  
 28  14  35  1   
 29  15  36  1   
 30  15  37  1   
 31  15  38  1   
 32  16  18  1   
 33  17  19  1   
 34  18  20  1   
 35  18  39  1   
 36  18  40  1   
 37  19  41  1   
 38  19  42  1   
 39  19  43  1   
 40  20  21  1   
 41  20  22  1   
 42  20  44  1   
 43  21  23  1   
 44  21  45  1   
 45  21  46  1   
 46  22  24  1   
 47  22  47  1   
 48  22  48  1   
 49  23  25  1   
 50  23  49  1   
 51  23  50  1   
 52  24  25  1   
 53  24  51  1   
 54  24  52  1   
@<TRIPOS>SUBSTRUCTURE
  1 ****   4 GROUP 4 **** **** 0

# MOE 2024.06 (io_trps.svl 2023.06)
