@<TRIPOS>MOLECULE
NONAME
32 33 1 0 0 
SMALL
USER_CHARGES


@<TRIPOS>ATOM
  1 S        0.1400     0.2260    -0.8740 S.3   1 <1>  -0.3320 
  2 C       -1.4010    -0.6010    -0.4410 C.ar  1 <1>   0.1020 
  3 C        1.5030    -0.7390    -0.0740 C.3   1 <1>   0.0700 
  4 C       -2.5670    -0.0650    -0.9590 C.ar  1 <1>  -0.1500 
  5 C       -1.4360    -1.7230     0.3720 C.ar  1 <1>  -0.1500 
  6 C        2.8430    -0.0700    -0.3830 C.3   1 <1>   0.1200 
  7 C       -3.7830    -0.6560    -0.6620 C.ar  1 <1>  -0.1500 
  8 C       -2.6550    -2.3110     0.6660 C.ar  1 <1>  -0.1500 
  9 O        2.9130     1.1440     0.2960 O.3   1 <1>  -0.5600 
 10 C       -3.8260    -1.7780     0.1490 C.ar  1 <1>  -0.1500 
 11 C        4.0100     1.9260    -0.0450 C.3   1 <1>   0.1200 
 12 C        3.9390     3.2090     0.7770 C.3   1 <1>   0.0960 
 13 N        5.0070     4.1320     0.3620 N.pl3 1 <1>   0.3140 
 14 N        6.2960     3.8240     0.4190 N.2   1 <1>  -0.7070 
 15 C        4.8870     5.3720    -0.1230 C.2   1 <1>   0.0360 
 16 C        6.8580     4.8970    -0.0320 C.2   1 <1>   0.3660 
 17 N        6.0330     5.8900    -0.3850 N.2   1 <1>  -0.5650 
 18 H        1.4660    -1.7310    -0.4860 H     1 <1>   0.0800 
 19 H        1.3190    -0.7620     0.9850 H     1 <1>   0.0800 
 20 H       -2.5200     0.8060    -1.5870 H     1 <1>   0.1500 
 21 H       -0.5400    -2.1460     0.7810 H     1 <1>   0.1500 
 22 H        2.9300     0.1080    -1.4420 H     1 <1>   0.0800 
 23 H        3.6570    -0.6910    -0.0490 H     1 <1>   0.0800 
 24 H       -4.6930    -0.2440    -1.0620 H     1 <1>   0.1500 
 25 H       -2.6950    -3.1820     1.2960 H     1 <1>   0.1500 
 26 H       -4.7720    -2.2370     0.3800 H     1 <1>   0.1500 
 27 H        3.9580     2.1490    -1.0980 H     1 <1>   0.0800 
 28 H        4.9120     1.3820     0.1800 H     1 <1>   0.0800 
 29 H        4.0700     2.9820     1.8180 H     1 <1>   0.0800 
 30 H        2.9870     3.6850     0.6280 H     1 <1>   0.0800 
 31 H        3.9400     5.8580    -0.2680 H     1 <1>   0.1500 
 32 H        7.9270     5.0090    -0.1280 H     1 <1>   0.1500 
@<TRIPOS>BOND
  1   1   2  1   
  2   1   3  1   
  3   2   4  ar  
  4   2   5  ar  
  5   3   6  1   
  6   3  18  1   
  7   3  19  1   
  8   4   7  ar  
  9   4  20  1   
 10   5   8  ar  
 11   5  21  1   
 12   6   9  1   
 13   6  22  1   
 14   6  23  1   
 15   7  10  ar  
 16   7  24  1   
 17   8  10  ar  
 18   8  25  1   
 19   9  11  1   
 20  10  26  1   
 21  11  12  1   
 22  11  27  1   
 23  11  28  1   
 24  12  13  1   
 25  12  29  1   
 26  12  30  1   
 27  13  14  1   
 28  13  15  1   
 29  14  16  2   
 30  15  17  2   
 31  15  31  1   
 32  16  17  1   
 33  16  32  1   
@<TRIPOS>SUBSTRUCTURE
  1 ****   9 GROUP 4 **** **** 0

# MOE 2024.06 (io_trps.svl 2023.06)
