@<TRIPOS>MOLECULE
NONAME
46 49 1 0 0 
SMALL
USER_CHARGES


@<TRIPOS>ATOM
  1 O       -0.7230     0.9920    -1.1500 O.2   1 <1>  -0.5700 
  2 C       -1.1270     1.9420    -0.5050 C.2   1 <1>   0.5440 
  3 N       -0.2840     3.0160    -0.3020 N.am  1 <1>  -0.6600 
  4 C       -2.4740     1.9070     0.0350 C.ar  1 <1>   0.0860 
  5 C        1.0140     3.0990    -1.0380 C.3   1 <1>   0.1400 
  6 C       -0.5370     4.0440     0.7560 C.3   1 <1>   0.1400 
  7 C       -3.3740     2.9500    -0.1730 C.ar  1 <1>  -0.1500 
  8 C       -2.9160     0.8110     0.7770 C.ar  1 <1>  -0.1500 
  9 C        1.4430     4.5580    -1.1910 C.3   1 <1>  -0.1600 
 10 C        0.7830     4.5880     1.2960 C.3   1 <1>  -0.1600 
 11 C       -4.6540     2.9110     0.3490 C.ar  1 <1>   0.0830 
 12 C       -4.1930     0.7650     1.3080 C.ar  1 <1>  -0.1500 
 13 C        1.5910     5.2410     0.1760 C.3   1 <1>   0.5600 
 14 O       -5.4730     3.9670     0.1160 O.3   1 <1>  -0.1650 
 15 C       -5.0650     1.8180     1.1010 C.ar  1 <1>  -0.1500 
 16 O        2.9260     5.2690     0.5600 O.3   1 <1>  -0.5600 
 17 O        1.2110     6.5720     0.0720 O.3   1 <1>  -0.5600 
 18 C       -6.7970     3.8000    -0.1310 C.ar  1 <1>   0.0830 
 19 C        3.4900     6.4740     0.1810 C.3   1 <1>   0.1200 
 20 C        2.3170     7.3230    -0.2690 C.3   1 <1>   0.1200 
 21 C       -7.6820     4.7340     0.3850 C.ar  1 <1>  -0.1500 
 22 C       -7.2750     2.7390    -0.8920 C.ar  1 <1>  -0.1500 
 23 C       -9.0400     4.6020     0.1570 C.ar  1 <1>  -0.1500 
 24 C       -8.6340     2.6090    -1.1180 C.ar  1 <1>  -0.1500 
 25 C       -9.5160     3.5390    -0.5930 C.ar  1 <1>  -0.1500 
 26 H        0.9080     2.6510    -2.0120 H     1 <1>   0.0800 
 27 H        1.7640     2.5480    -0.4950 H     1 <1>   0.0800 
 28 H       -1.1000     3.6080     1.5650 H     1 <1>   0.0800 
 29 H       -1.1120     4.8520     0.3350 H     1 <1>   0.0800 
 30 H       -3.0710     3.8010    -0.7570 H     1 <1>   0.1500 
 31 H       -2.2400    -0.0120     0.9320 H     1 <1>   0.1500 
 32 H        0.6860     5.0610    -1.7640 H     1 <1>   0.0800 
 33 H        2.3680     4.6050    -1.7340 H     1 <1>   0.0800 
 34 H        1.3400     3.7700     1.7150 H     1 <1>   0.0800 
 35 H        0.5990     5.3050     2.0750 H     1 <1>   0.0800 
 36 H       -4.5080    -0.0900     1.8830 H     1 <1>   0.1500 
 37 H       -6.0550     1.7890     1.5210 H     1 <1>   0.1500 
 38 H        4.1910     6.3040    -0.6170 H     1 <1>   0.0800 
 39 H        3.9890     6.9040     1.0310 H     1 <1>   0.0800 
 40 H        2.2760     8.2690     0.2410 H     1 <1>   0.0800 
 41 H        2.3240     7.4710    -1.3340 H     1 <1>   0.0800 
 42 H       -7.3040     5.5570     0.9640 H     1 <1>   0.1500 
 43 H       -6.5920     2.0210    -1.3100 H     1 <1>   0.1500 
 44 H       -9.7270     5.3260     0.5610 H     1 <1>   0.1500 
 45 H       -9.0060     1.7870    -1.7040 H     1 <1>   0.1500 
 46 H      -10.5730     3.4370    -0.7690 H     1 <1>   0.1500 
@<TRIPOS>BOND
  1   1   2  2   
  2   2   3  am  
  3   2   4  1   
  4   3   5  1   
  5   3   6  1   
  6   4   7  ar  
  7   4   8  ar  
  8   5   9  1   
  9   5  26  1   
 10   5  27  1   
 11   6  10  1   
 12   6  28  1   
 13   6  29  1   
 14   7  11  ar  
 15   7  30  1   
 16   8  12  ar  
 17   8  31  1   
 18   9  13  1   
 19   9  32  1   
 20   9  33  1   
 21  10  13  1   
 22  10  34  1   
 23  10  35  1   
 24  11  14  1   
 25  11  15  ar  
 26  12  15  ar  
 27  12  36  1   
 28  13  16  1   
 29  13  17  1   
 30  14  18  1   
 31  15  37  1   
 32  16  19  1   
 33  17  20  1   
 34  18  21  ar  
 35  18  22  ar  
 36  19  20  1   
 37  19  38  1   
 38  19  39  1   
 39  20  40  1   
 40  20  41  1   
 41  21  23  ar  
 42  21  42  1   
 43  22  24  ar  
 44  22  43  1   
 45  23  25  ar  
 46  23  44  1   
 47  24  25  ar  
 48  24  45  1   
 49  25  46  1   
@<TRIPOS>SUBSTRUCTURE
  1 ****   7 GROUP 4 **** **** 0

# MOE 2024.06 (io_trps.svl 2023.06)
