@<TRIPOS>MOLECULE
NONAME
47 49 1 0 0 
SMALL
USER_CHARGES


@<TRIPOS>ATOM
  1 S        0.2180     0.1080    -1.6480 S.3   1 <1>  -0.4600 
  2 C       -0.6540    -1.1760    -0.6850 C.3   1 <1>   0.2940 
  3 C       -0.9190     1.5260    -1.6300 C.3   1 <1>   0.0700 
  4 C        0.2780    -2.3490    -0.3650 C.ar  1 <1>  -0.1440 
  5 C       -1.8970    -1.6350    -1.4580 C.3   1 <1>  -0.0220 
  6 C       -2.2170     1.1810    -2.3650 C.3   1 <1>   0.2090 
  7 C        0.0320    -3.1020     0.7820 C.ar  1 <1>   0.0830 
  8 C        1.3380    -2.7060    -1.1910 C.ar  1 <1>  -0.1500 
  9 C       -3.1270    -0.8320    -1.0170 C.2   1 <1>  -0.0380 
 10 N       -3.1600     0.4460    -1.4790 N.pl3 1 <1>  -0.8690 
 11 O       -1.0350    -2.7530     1.5550 O.3   1 <1>  -0.3630 
 12 C        0.8560    -4.1780     1.0960 C.ar  1 <1>  -0.1500 
 13 C        2.1540    -3.7780    -0.8760 C.ar  1 <1>  -0.1500 
 14 C       -4.1070    -1.3280    -0.1620 C.2   1 <1>   0.0290 
 15 C       -1.5330    -3.6280     2.5440 C.3   1 <1>   0.0400 
 16 C        1.9160    -4.5190     0.2760 C.ar  1 <1>   0.0830 
 17 C       -4.1990    -2.6890     0.3030 C.2   1 <1>   0.7060 
 18 C       -5.1370    -0.4870     0.3920 C.2   1 <1>   0.5410 
 19 O        2.6700    -5.5810     0.6600 O.3   1 <1>  -0.3630 
 20 O       -3.8830    -3.6680    -0.3440 O.2   1 <1>  -0.5700 
 21 O       -4.7290    -2.9620     1.5100 O.3   1 <1>  -0.2270 
 22 O       -5.5000     0.5730    -0.0960 O.2   1 <1>  -0.5700 
 23 C       -5.7680    -0.8940     1.6030 C.2   1 <1>  -0.1360 
 24 C        3.7840    -5.9980    -0.0980 C.3   1 <1>   0.0400 
 25 C       -5.5330    -2.1010     2.1390 C.2   1 <1>  -0.0610 
 26 C       -6.1230    -2.6340     3.4300 C.3   1 <1>  -0.1020 
 27 H       -0.9460    -0.6940     0.2320 H     1 <1>   0.0800 
 28 H       -0.4040     2.3250    -2.1320 H     1 <1>   0.0800 
 29 H       -1.1030     1.7990    -0.6060 H     1 <1>   0.0800 
 30 H       -2.0140    -2.6820    -1.2850 H     1 <1>   0.0800 
 31 H       -1.7360    -1.5400    -2.5150 H     1 <1>   0.0800 
 32 H       -2.0040     0.6040    -3.2490 H     1 <1>   0.0800 
 33 H       -2.6940     2.0940    -2.6760 H     1 <1>   0.0800 
 34 H        1.5400    -2.1560    -2.0930 H     1 <1>   0.1500 
 35 H       -3.9860     1.0170    -1.2080 H     1 <1>   0.4000 
 36 H        0.7010    -4.7710     1.9750 H     1 <1>   0.1500 
 37 H        2.9630    -4.0180    -1.5380 H     1 <1>   0.1500 
 38 H       -2.4200    -3.1910     2.9640 H     1 <1>   0.0800 
 39 H       -0.7900    -3.7480     3.3120 H     1 <1>   0.0800 
 40 H       -1.7720    -4.5720     2.0850 H     1 <1>   0.0800 
 41 H       -6.4290    -0.1750     2.0510 H     1 <1>   0.1500 
 42 H        4.2270    -6.8420     0.3980 H     1 <1>   0.0800 
 43 H        4.4920    -5.1900    -0.1500 H     1 <1>   0.0800 
 44 H        3.4500    -6.2840    -1.0790 H     1 <1>   0.0800 
 45 H       -5.3350    -2.8780     4.1210 H     1 <1>   0.0800 
 46 H       -6.6960    -3.5230     3.2320 H     1 <1>   0.0800 
 47 H       -6.7670    -1.9030     3.8850 H     1 <1>   0.0800 
@<TRIPOS>BOND
  1   1   2  1   
  2   1   3  1   
  3   2   4  1   
  4   2   5  1   
  5   2  27  1   
  6   3   6  1   
  7   3  28  1   
  8   3  29  1   
  9   4   7  ar  
 10   4   8  ar  
 11   5   9  1   
 12   5  30  1   
 13   5  31  1   
 14   6  10  1   
 15   6  32  1   
 16   6  33  1   
 17   7  11  1   
 18   7  12  ar  
 19   8  13  ar  
 20   8  34  1   
 21   9  10  1   
 22   9  14  2   
 23  10  35  1   
 24  11  15  1   
 25  12  16  ar  
 26  12  36  1   
 27  13  16  ar  
 28  13  37  1   
 29  14  17  1   
 30  14  18  1   
 31  15  38  1   
 32  15  39  1   
 33  15  40  1   
 34  16  19  1   
 35  17  20  2   
 36  17  21  1   
 37  18  22  2   
 38  18  23  1   
 39  19  24  1   
 40  21  25  1   
 41  23  25  2   
 42  23  41  1   
 43  24  42  1   
 44  24  43  1   
 45  24  44  1   
 46  25  26  1   
 47  26  45  1   
 48  26  46  1   
 49  26  47  1   
@<TRIPOS>SUBSTRUCTURE
  1 ****   5 GROUP 4 **** **** 0

# MOE 2024.06 (io_trps.svl 2023.06)
