@<TRIPOS>MOLECULE
NONAME
36 37 1 0 0 
SMALL
USER_CHARGES


@<TRIPOS>ATOM
  1 BR       0.4440     0.1920    -0.8900 Br    1 <1>  -0.1110 
  2 C        0.2500    -1.6880    -0.4960 C.ar  1 <1>   0.1110 
  3 C        1.3620    -2.4200    -0.1010 C.ar  1 <1>   0.0830 
  4 C       -1.0060    -2.2510    -0.6220 C.ar  1 <1>  -0.1500 
  5 O        2.5560    -1.7760    -0.0050 O.3   1 <1>  -0.3630 
  6 C        1.1900    -3.7750     0.1720 C.ar  1 <1>  -0.1500 
  7 C       -1.1590    -3.5990    -0.3460 C.ar  1 <1>  -0.1500 
  8 C        3.7470    -2.4580     0.3220 C.3   1 <1>   0.1200 
  9 C       -0.0650    -4.3550     0.0490 C.ar  1 <1>  -0.1500 
 10 C        4.8980    -1.4440     0.3020 C.3   1 <1>   0.2000 
 11 O        4.8650    -0.7420    -0.9060 O.3   1 <1>  -0.6800 
 12 C        6.2830    -2.1080     0.4570 C.3   1 <1>   0.3430 
 13 N        7.3510    -1.2130    -0.0840 N.4   1 <1>  -0.9590 
 14 C        8.6000    -1.8900    -0.4940 C.3   1 <1>   0.3430 
 15 C        7.7340    -0.0890     0.7990 C.3   1 <1>   0.3430 
 16 C        9.6230    -0.7660    -0.5900 C.3   1 <1>  -0.1600 
 17 C        9.0520     0.4040     0.2200 C.3   1 <1>  -0.1600 
 18 H       -1.8420    -1.6490    -0.9300 H     1 <1>   0.1500 
 19 H        2.0080    -4.3970     0.4820 H     1 <1>   0.1500 
 20 H       -2.1280    -4.0610    -0.4380 H     1 <1>   0.1500 
 21 H        3.9050    -3.2330    -0.4090 H     1 <1>   0.0800 
 22 H        3.6340    -2.8910     1.3010 H     1 <1>   0.0800 
 23 H       -0.1930    -5.4020     0.2620 H     1 <1>   0.1500 
 24 H        4.7490    -0.7330     1.0960 H     1 <1>   0.0800 
 25 H        3.9270    -0.5050    -1.1020 H     1 <1>   0.4000 
 26 H        6.2760    -3.0270    -0.1050 H     1 <1>   0.0800 
 27 H        6.4720    -2.3500     1.4890 H     1 <1>   0.0800 
 28 H        6.9120    -0.7860    -0.9230 H     1 <1>   0.4500 
 29 H        8.4850    -2.4060    -1.4340 H     1 <1>   0.0800 
 30 H        8.9050    -2.5900     0.2680 H     1 <1>   0.0800 
 31 H        7.8920    -0.4480     1.8030 H     1 <1>   0.0800 
 32 H        6.9830     0.6860     0.8030 H     1 <1>   0.0800 
 33 H        9.7550    -0.4800    -1.6200 H     1 <1>   0.0800 
 34 H       10.5740    -1.0920    -0.2040 H     1 <1>   0.0800 
 35 H        9.7190     0.7110     1.0070 H     1 <1>   0.0800 
 36 H        8.8700     1.2490    -0.4220 H     1 <1>   0.0800 
@<TRIPOS>BOND
  1   1   2  1   
  2   2   3  ar  
  3   2   4  ar  
  4   3   5  1   
  5   3   6  ar  
  6   4   7  ar  
  7   4  18  1   
  8   5   8  1   
  9   6   9  ar  
 10   6  19  1   
 11   7   9  ar  
 12   7  20  1   
 13   8  10  1   
 14   8  21  1   
 15   8  22  1   
 16   9  23  1   
 17  10  11  1   
 18  10  12  1   
 19  10  24  1   
 20  11  25  1   
 21  12  13  1   
 22  12  26  1   
 23  12  27  1   
 24  13  14  1   
 25  13  15  1   
 26  13  28  1   
 27  14  16  1   
 28  14  29  1   
 29  14  30  1   
 30  15  17  1   
 31  15  31  1   
 32  15  32  1   
 33  16  17  1   
 34  16  33  1   
 35  16  34  1   
 36  17  35  1   
 37  17  36  1   
@<TRIPOS>SUBSTRUCTURE
  1 ****   8 GROUP 4 **** **** 0

# MOE 2024.06 (io_trps.svl 2023.06)
