@<TRIPOS>MOLECULE
NONAME
40 41 1 0 0 
SMALL
USER_CHARGES


@<TRIPOS>ATOM
  1 O        0.1020     0.2160     1.0110 O.2   1 <1>  -0.5700 
  2 C       -0.1040     1.3870     0.7720 C.2   1 <1>   0.5690 
  3 N        0.9450     2.2520     0.5280 N.am  1 <1>  -0.6600 
  4 C       -1.5830     1.8220     0.7860 C.3   1 <1>   0.2610 
  5 C        2.3450     1.7540     0.4180 C.3   1 <1>   0.1400 
  6 C        0.8200     3.7070     0.2230 C.3   1 <1>   0.1400 
  7 O       -1.9040     2.5750    -0.3770 O.3   1 <1>  -0.3630 
  8 C       -1.9590     2.6110     2.0530 C.3   1 <1>  -0.2400 
  9 C        2.8590     1.9910    -1.0070 C.3   1 <1>  -0.1600 
 10 C        1.2990     3.9680    -1.2080 C.3   1 <1>  -0.1600 
 11 C       -3.2030     2.8830    -0.6110 C.ar  1 <1>   0.0820 
 12 C        2.7350     3.4650    -1.4200 C.3   1 <1>  -0.1600 
 13 C       -3.6200     4.2140    -0.5570 C.ar  1 <1>   0.0820 
 14 C       -4.1030     1.8740    -0.9190 C.ar  1 <1>  -0.1500 
 15 O       -2.6900     5.1660    -0.2530 O.3   1 <1>  -0.3630 
 16 C       -4.9580     4.5110    -0.8050 C.ar  1 <1>  -0.1500 
 17 C       -5.4300     2.1820    -1.1610 C.ar  1 <1>  -0.1500 
 18 C       -3.0120     6.5390    -0.2770 C.3   1 <1>   0.0400 
 19 C       -5.8550     3.4990    -1.1030 C.ar  1 <1>  -0.1500 
 20 H       -2.1740     0.9250     0.7530 H     1 <1>   0.0800 
 21 H        2.3990     0.7040     0.6500 H     1 <1>   0.0800 
 22 H        2.9610     2.2820     1.1250 H     1 <1>   0.0800 
 23 H        1.4300     4.2610     0.9160 H     1 <1>   0.0800 
 24 H       -0.1890     4.0570     0.3310 H     1 <1>   0.0800 
 25 H       -1.4490     3.5550     2.0830 H     1 <1>   0.0800 
 26 H       -1.6760     2.0440     2.9210 H     1 <1>   0.0800 
 27 H       -3.0200     2.7780     2.0930 H     1 <1>   0.0800 
 28 H        2.2890     1.3760    -1.6810 H     1 <1>   0.0800 
 29 H        3.8860     1.6810    -1.0700 H     1 <1>   0.0800 
 30 H        1.2480     5.0220    -1.4130 H     1 <1>   0.0800 
 31 H        0.6300     3.4700    -1.8890 H     1 <1>   0.0800 
 32 H        3.0100     3.5780    -2.4550 H     1 <1>   0.0800 
 33 H        3.4100     4.0590    -0.8280 H     1 <1>   0.0800 
 34 H       -3.7660     0.8550    -0.9760 H     1 <1>   0.1500 
 35 H       -5.3220     5.5200    -0.7690 H     1 <1>   0.1500 
 36 H       -6.1290     1.3990    -1.3980 H     1 <1>   0.1500 
 37 H       -2.1200     7.0940    -0.0510 H     1 <1>   0.0800 
 38 H       -3.7630     6.7340     0.4670 H     1 <1>   0.0800 
 39 H       -3.3630     6.7970    -1.2610 H     1 <1>   0.0800 
 40 H       -6.8880     3.7360    -1.2920 H     1 <1>   0.1500 
@<TRIPOS>BOND
  1   1   2  2   
  2   2   3  am  
  3   2   4  1   
  4   3   5  1   
  5   3   6  1   
  6   4   7  1   
  7   4   8  1   
  8   4  20  1   
  9   5   9  1   
 10   5  21  1   
 11   5  22  1   
 12   6  10  1   
 13   6  23  1   
 14   6  24  1   
 15   7  11  1   
 16   8  25  1   
 17   8  26  1   
 18   8  27  1   
 19   9  12  1   
 20   9  28  1   
 21   9  29  1   
 22  10  12  1   
 23  10  30  1   
 24  10  31  1   
 25  11  13  ar  
 26  11  14  ar  
 27  12  32  1   
 28  12  33  1   
 29  13  15  1   
 30  13  16  ar  
 31  14  17  ar  
 32  14  34  1   
 33  15  18  1   
 34  16  19  ar  
 35  16  35  1   
 36  17  19  ar  
 37  17  36  1   
 38  18  37  1   
 39  18  38  1   
 40  18  39  1   
 41  19  40  1   
@<TRIPOS>SUBSTRUCTURE
  1 ****   7 GROUP 4 **** **** 0

# MOE 2024.06 (io_trps.svl 2023.06)
