@<TRIPOS>MOLECULE
NONAME
41 43 1 0 0 
SMALL
USER_CHARGES


@<TRIPOS>ATOM
  1 S       -0.7330     0.8520     0.7930 S.o2  1 <1>   1.5000 
  2 O       -1.5410     1.2180     1.9300 O.2   1 <1>  -0.6500 
  3 O       -0.4670     1.8000    -0.2620 O.2   1 <1>  -0.6500 
  4 N        0.7790     0.4750     1.5160 N.am  1 <1>  -0.7570 
  5 C       -1.2650    -0.7450     0.1300 C.2   1 <1>  -0.0220 
  6 C        2.0120     0.2410     0.9340 C.ar  1 <1>   0.1990 
  7 S       -2.9270    -0.8760    -0.4430 S.3   1 <1>  -0.0800 
  8 C       -0.6400    -1.9290    -0.0510 C.2   1 <1>  -0.1500 
  9 C        2.2050     0.1740    -0.4440 C.ar  1 <1>  -0.1500 
 10 C        3.1170     0.0450     1.7550 C.ar  1 <1>  -0.1500 
 11 C       -2.7060    -2.5520    -0.9070 C.2   1 <1>  -0.1100 
 12 C       -1.4520    -2.9520    -0.6360 C.2   1 <1>  -0.1500 
 13 C        3.4550    -0.0810    -0.9740 C.ar  1 <1>  -0.1500 
 14 C        4.3660    -0.2070     1.2210 C.ar  1 <1>  -0.1500 
 15 C        4.5700    -0.2700    -0.1580 C.ar  1 <1>   0.0860 
 16 C        5.8750    -0.5290    -0.7280 C.2   1 <1>   0.5440 
 17 O        5.9980    -1.4210    -1.5490 O.2   1 <1>  -0.5700 
 18 N        6.9870     0.2100    -0.3760 N.am  1 <1>  -0.6600 
 19 C        6.8860     1.5450     0.2900 C.3   1 <1>   0.1400 
 20 C        8.3410    -0.2230    -0.8350 C.3   1 <1>   0.1400 
 21 C        7.9760     2.4880    -0.2290 C.3   1 <1>  -0.1600 
 22 C        9.4350     0.4010     0.0380 C.3   1 <1>  -0.1600 
 23 C        9.3920     1.9390     0.0200 C.3   1 <1>  -0.1600 
 24 H        0.7040     0.5810     2.5220 H     1 <1>   0.4200 
 25 H        0.3850    -2.1340     0.2070 H     1 <1>   0.1500 
 26 H        1.3820     0.3210    -1.1180 H     1 <1>   0.1500 
 27 H        2.9960     0.0870     2.8220 H     1 <1>   0.1500 
 28 H       -3.5490    -3.0630    -1.3390 H     1 <1>   0.1500 
 29 H       -1.0550    -3.9360    -0.8240 H     1 <1>   0.1500 
 30 H        3.5860    -0.1360    -2.0420 H     1 <1>   0.1500 
 31 H        5.2070    -0.3660     1.8750 H     1 <1>   0.1500 
 32 H        6.9970     1.4160     1.3530 H     1 <1>   0.0800 
 33 H        5.9210     1.9810     0.0960 H     1 <1>   0.0800 
 34 H        8.4730     0.0770    -1.8610 H     1 <1>   0.0800 
 35 H        8.4090    -1.2970    -0.7890 H     1 <1>   0.0800 
 36 H        7.8750     3.4510     0.2380 H     1 <1>   0.0800 
 37 H        7.8240     2.6250    -1.2860 H     1 <1>   0.0800 
 38 H       10.4000     0.0620    -0.2970 H     1 <1>   0.0800 
 39 H        9.3010     0.0460     1.0450 H     1 <1>   0.0800 
 40 H        9.7630     2.3050     0.9630 H     1 <1>   0.0800 
 41 H       10.0450     2.3110    -0.7510 H     1 <1>   0.0800 
@<TRIPOS>BOND
  1   1   2  2   
  2   1   3  2   
  3   1   4  am  
  4   1   5  1   
  5   4   6  1   
  6   4  24  1   
  7   5   7  1   
  8   5   8  2   
  9   6   9  ar  
 10   6  10  ar  
 11   7  11  1   
 12   8  12  1   
 13   8  25  1   
 14   9  13  ar  
 15   9  26  1   
 16  10  14  ar  
 17  10  27  1   
 18  11  12  2   
 19  11  28  1   
 20  12  29  1   
 21  13  15  ar  
 22  13  30  1   
 23  14  15  ar  
 24  14  31  1   
 25  15  16  1   
 26  16  17  2   
 27  16  18  am  
 28  18  19  1   
 29  18  20  1   
 30  19  21  1   
 31  19  32  1   
 32  19  33  1   
 33  20  22  1   
 34  20  34  1   
 35  20  35  1   
 36  21  23  1   
 37  21  36  1   
 38  21  37  1   
 39  22  23  1   
 40  22  38  1   
 41  22  39  1   
 42  23  40  1   
 43  23  41  1   
@<TRIPOS>SUBSTRUCTURE
  1 ****   9 GROUP 4 **** **** 0

# MOE 2024.06 (io_trps.svl 2023.06)
