@<TRIPOS>MOLECULE
NONAME
51 53 1 0 0 
SMALL
USER_CHARGES


@<TRIPOS>ATOM
  1 S        0.3310     0.7110     0.4550 S.3   1 <1>  -0.3320 
  2 C       -1.3340     1.2460     0.0980 C.ar  1 <1>   0.7220 
  3 C        1.4380     2.0280    -0.2630 C.3   1 <1>   0.2110 
  4 N       -2.2630     0.4700     0.5590 N.ar  1 <1>  -0.6200 
  5 N       -1.4550     2.3440    -0.5790 N.ar  1 <1>  -0.6200 
  6 C        2.8070     1.4400    -0.6210 C.2   1 <1>   0.5690 
  7 C        1.5340     3.1550     0.7750 C.3   1 <1>  -0.2400 
  8 C       -3.4720     0.8970     0.2810 C.ar  1 <1>   0.7200 
  9 C       -2.7060     2.6680    -0.8020 C.ar  1 <1>   0.7200 
 10 O        3.4880     2.0380    -1.4200 O.2   1 <1>  -0.5700 
 11 N        3.1960     0.2710    -0.0210 N.am  1 <1>  -0.5470 
 12 N       -3.7450     1.9840    -0.3950 N.ar  1 <1>  -0.6200 
 13 N       -4.5310     0.1440     0.7380 N.pl3 1 <1>  -0.8380 
 14 N       -2.9370     3.8210    -1.5220 N.pl3 1 <1>  -0.8380 
 15 C        4.3690    -0.4920    -0.1170 C.ar  1 <1>   0.1170 
 16 C       -4.3660    -1.1070     1.5450 C.3   1 <1>   0.2090 
 17 C       -5.9580     0.5900     0.6400 C.3   1 <1>   0.2090 
 18 C       -1.8730     4.8310    -1.7900 C.3   1 <1>   0.1290 
 19 C       -4.2730     4.1420    -2.1000 C.3   1 <1>   0.1290 
 20 C        4.3350    -1.8140     0.3140 C.ar  1 <1>  -0.1500 
 21 C        5.5700     0.0110    -0.6080 C.ar  1 <1>  -0.1500 
 22 C       -5.3890    -2.1770     1.1210 C.3   1 <1>   0.1200 
 23 C       -6.8790    -0.5860     0.2680 C.3   1 <1>   0.1200 
 24 C        5.4620    -2.6130     0.2540 C.ar  1 <1>  -0.1500 
 25 C        6.7000    -0.7850    -0.6710 C.ar  1 <1>  -0.1500 
 26 O       -6.6940    -1.6680     1.1380 O.3   1 <1>  -0.5600 
 27 C        6.6480    -2.0990    -0.2400 C.ar  1 <1>  -0.1500 
 28 H        0.9780     2.3800    -1.1680 H     1 <1>   0.0800 
 29 H        1.9690     2.7880     1.6870 H     1 <1>   0.0800 
 30 H        0.5580     3.5560     0.9850 H     1 <1>   0.0800 
 31 H        2.1530     3.9470     0.3920 H     1 <1>   0.0800 
 32 H        2.4650    -0.1480     0.5570 H     1 <1>   0.3700 
 33 H       -4.5090    -0.8760     2.5860 H     1 <1>   0.0800 
 34 H       -3.3790    -1.5170     1.4310 H     1 <1>   0.0800 
 35 H       -6.0770     1.3620    -0.0990 H     1 <1>   0.0800 
 36 H       -6.2660     0.9930     1.5890 H     1 <1>   0.0800 
 37 H       -1.1160     4.8010    -1.0250 H     1 <1>   0.0800 
 38 H       -2.2970     5.8190    -1.8040 H     1 <1>   0.0800 
 39 H       -1.4150     4.6280    -2.7430 H     1 <1>   0.0800 
 40 H       -4.8360     3.2420    -2.2830 H     1 <1>   0.0800 
 41 H       -4.1560     4.6600    -3.0360 H     1 <1>   0.0800 
 42 H       -4.8210     4.7640    -1.4150 H     1 <1>   0.0800 
 43 H        3.4190    -2.2240     0.6970 H     1 <1>   0.1500 
 44 H        5.6330     1.0290    -0.9430 H     1 <1>   0.1500 
 45 H       -5.3530    -3.0110     1.7990 H     1 <1>   0.0800 
 46 H       -5.1690    -2.5290     0.1280 H     1 <1>   0.0800 
 47 H       -6.6780    -0.9130    -0.7370 H     1 <1>   0.0800 
 48 H       -7.9080    -0.2840     0.3350 H     1 <1>   0.0800 
 49 H        5.4190    -3.6350     0.5900 H     1 <1>   0.1500 
 50 H        7.6200    -0.3800    -1.0550 H     1 <1>   0.1500 
 51 H        7.5270    -2.7180    -0.2890 H     1 <1>   0.1500 
@<TRIPOS>BOND
  1   1   2  1   
  2   1   3  1   
  3   2   4  ar  
  4   2   5  ar  
  5   3   6  1   
  6   3   7  1   
  7   3  28  1   
  8   4   8  ar  
  9   5   9  ar  
 10   6  10  2   
 11   6  11  am  
 12   7  29  1   
 13   7  30  1   
 14   7  31  1   
 15   8  12  ar  
 16   8  13  1   
 17   9  12  ar  
 18   9  14  1   
 19  11  15  1   
 20  11  32  1   
 21  13  16  1   
 22  13  17  1   
 23  14  18  1   
 24  14  19  1   
 25  15  20  ar  
 26  15  21  ar  
 27  16  22  1   
 28  16  33  1   
 29  16  34  1   
 30  17  23  1   
 31  17  35  1   
 32  17  36  1   
 33  18  37  1   
 34  18  38  1   
 35  18  39  1   
 36  19  40  1   
 37  19  41  1   
 38  19  42  1   
 39  20  24  ar  
 40  20  43  1   
 41  21  25  ar  
 42  21  44  1   
 43  22  26  1   
 44  22  45  1   
 45  22  46  1   
 46  23  26  1   
 47  23  47  1   
 48  23  48  1   
 49  24  27  ar  
 50  24  49  1   
 51  25  27  ar  
 52  25  50  1   
 53  27  51  1   
@<TRIPOS>SUBSTRUCTURE
  1 ****   1 GROUP 4 **** **** 0

# MOE 2024.06 (io_trps.svl 2023.06)
