@<TRIPOS>MOLECULE
NONAME
29 29 1 0 0 
SMALL
USER_CHARGES


@<TRIPOS>ATOM
  1 CL       0.8960     0.5540     0.5650 Cl    1 <1>  -0.1770 
  2 C        2.1480    -0.5600     0.0760 C.ar  1 <1>   0.1770 
  3 C        1.8720    -1.5130    -0.8870 C.ar  1 <1>  -0.1500 
  4 C        3.3990    -0.4730     0.6580 C.ar  1 <1>  -0.1500 
  5 C        2.8690    -2.3930    -1.2710 C.ar  1 <1>  -0.1500 
  6 C        4.3890    -1.3580     0.2680 C.ar  1 <1>  -0.1500 
  7 C        4.1370    -2.3290    -0.6990 C.ar  1 <1>   0.1990 
  8 N        5.1430    -3.2100    -1.0810 N.am  1 <1>  -0.6930 
  9 S        5.0160    -4.9280    -0.9080 S.o2  1 <1>   1.3330 
 10 C        6.4100    -2.6840    -1.6860 C.3   1 <1>   0.2570 
 11 O        6.2630    -5.4820    -1.3770 O.2   1 <1>  -0.6500 
 12 O        3.7640    -5.3390    -1.4920 O.2   1 <1>  -0.6500 
 13 C        4.9340    -5.1330     0.8580 C.3   1 <1>  -0.1350 
 14 C        7.6650    -2.8060    -0.8160 C.2   1 <1>   0.6590 
 15 O        8.7650    -2.7070    -1.2970 O.2   1 <1>  -0.5700 
 16 O        7.4920    -2.9880     0.4930 O.3   1 <1>  -0.4300 
 17 C        8.5910    -3.1180     1.3720 C.3   1 <1>   0.0400 
 18 H        0.8920    -1.5620    -1.3270 H     1 <1>   0.1500 
 19 H        3.5880     0.2780     1.4050 H     1 <1>   0.1500 
 20 H        2.6640    -3.1340    -2.0240 H     1 <1>   0.1500 
 21 H        5.3630    -1.3020     0.7210 H     1 <1>   0.1500 
 22 H        6.2790    -1.6460    -1.9270 H     1 <1>   0.0800 
 23 H        6.5950    -3.2060    -2.6080 H     1 <1>   0.0800 
 24 H        4.8470    -6.1730     1.1020 H     1 <1>   0.0800 
 25 H        4.0800    -4.6160     1.2510 H     1 <1>   0.0800 
 26 H        5.8180    -4.7460     1.3230 H     1 <1>   0.0800 
 27 H        8.2180    -3.2540     2.3710 H     1 <1>   0.0800 
 28 H        9.1890    -2.2250     1.3170 H     1 <1>   0.0800 
 29 H        9.1740    -3.9720     1.0740 H     1 <1>   0.0800 
@<TRIPOS>BOND
  1   1   2  1   
  2   2   3  ar  
  3   2   4  ar  
  4   3   5  ar  
  5   3  18  1   
  6   4   6  ar  
  7   4  19  1   
  8   5   7  ar  
  9   5  20  1   
 10   6   7  ar  
 11   6  21  1   
 12   7   8  1   
 13   8   9  am  
 14   8  10  1   
 15   9  11  2   
 16   9  12  2   
 17   9  13  1   
 18  10  14  1   
 19  10  22  1   
 20  10  23  1   
 21  13  24  1   
 22  13  25  1   
 23  13  26  1   
 24  14  15  2   
 25  14  16  1   
 26  16  17  1   
 27  17  27  1   
 28  17  28  1   
 29  17  29  1   
@<TRIPOS>SUBSTRUCTURE
  1 ****   8 GROUP 4 **** **** 0

# MOE 2024.06 (io_trps.svl 2023.06)
