@<TRIPOS>MOLECULE
NONAME
42 42 1 0 0 
SMALL
USER_CHARGES


@<TRIPOS>ATOM
  1 S       -0.0950     0.3820     0.2830 S.o2  1 <1>   1.3330 
  2 O       -0.5200     0.1020    -1.0710 O.2   1 <1>  -0.6500 
  3 O       -0.3810     1.6860     0.8370 O.2   1 <1>  -0.6500 
  4 N        1.5770     0.1650     0.3710 N.am  1 <1>  -0.8490 
  5 C       -0.7770    -0.8130     1.4170 C.3   1 <1>  -0.1350 
  6 C        2.0400    -0.8460    -0.5920 C.3   1 <1>   0.5560 
  7 C        2.2840     1.4410     0.1190 C.3   1 <1>   0.1960 
  8 O        1.4260    -2.0510    -0.2400 O.3   1 <1>  -0.5600 
  9 C        3.6110    -0.9990    -0.6480 C.3   1 <1>   0.5560 
 10 C        3.8210     1.3040     0.0660 C.3   1 <1>   0.1960 
 11 C        1.0490    -2.8350    -1.3240 C.3   1 <1>   0.1200 
 12 O        4.1740    -1.4420     0.5580 O.3   1 <1>  -0.5600 
 13 N        4.2270     0.2880    -0.9130 N.am  1 <1>  -0.8490 
 14 C        0.4860    -4.1390    -0.7730 C.3   1 <1>  -0.2400 
 15 C        4.2890    -2.8220     0.6810 C.3   1 <1>   0.1200 
 16 S        5.8640     0.2100    -1.3020 S.o2  1 <1>   1.3330 
 17 C        4.8910    -3.1130     2.0490 C.3   1 <1>  -0.2400 
 18 O        6.0440    -0.9500    -2.1450 O.2   1 <1>  -0.6500 
 19 O        6.2190     1.5190    -1.7960 O.2   1 <1>  -0.6500 
 20 C        6.7740    -0.0360     0.2140 C.3   1 <1>  -0.1350 
 21 H       -0.5980    -1.8120     1.0780 H     1 <1>   0.0800 
 22 H       -1.8360    -0.6690     1.5030 H     1 <1>   0.0800 
 23 H       -0.3330    -0.6920     2.3850 H     1 <1>   0.0800 
 24 H        1.7090    -0.5680    -1.5790 H     1 <1>   0.0800 
 25 H        2.0390     2.1410     0.9010 H     1 <1>   0.0800 
 26 H        1.9450     1.8640    -0.8120 H     1 <1>   0.0800 
 27 H        3.8690    -1.6900    -1.4330 H     1 <1>   0.0800 
 28 H        4.1850     1.0470     1.0460 H     1 <1>   0.0800 
 29 H        4.2440     2.2550    -0.2110 H     1 <1>   0.0800 
 30 H        1.9090    -3.0290    -1.9430 H     1 <1>   0.0800 
 31 H        0.2980    -2.3080    -1.8920 H     1 <1>   0.0800 
 32 H        1.2290    -4.6490    -0.1880 H     1 <1>   0.0800 
 33 H        0.1900    -4.7780    -1.5860 H     1 <1>   0.0800 
 34 H       -0.3780    -3.9420    -0.1650 H     1 <1>   0.0800 
 35 H        4.9280    -3.1910    -0.1040 H     1 <1>   0.0800 
 36 H        3.3160    -3.2740     0.6070 H     1 <1>   0.0800 
 37 H        5.8690    -2.6760     2.1320 H     1 <1>   0.0800 
 38 H        4.9790    -4.1750     2.1880 H     1 <1>   0.0800 
 39 H        4.2540    -2.7190     2.8210 H     1 <1>   0.0800 
 40 H        6.5720    -1.0010     0.6290 H     1 <1>   0.0800 
 41 H        6.5220     0.7160     0.9330 H     1 <1>   0.0800 
 42 H        7.8260     0.0250     0.0140 H     1 <1>   0.0800 
@<TRIPOS>BOND
  1   1   2  2   
  2   1   3  2   
  3   1   4  am  
  4   1   5  1   
  5   4   6  1   
  6   4   7  1   
  7   5  21  1   
  8   5  22  1   
  9   5  23  1   
 10   6   8  1   
 11   6   9  1   
 12   6  24  1   
 13   7  10  1   
 14   7  25  1   
 15   7  26  1   
 16   8  11  1   
 17   9  12  1   
 18   9  13  1   
 19   9  27  1   
 20  10  13  1   
 21  10  28  1   
 22  10  29  1   
 23  11  14  1   
 24  11  30  1   
 25  11  31  1   
 26  12  15  1   
 27  13  16  am  
 28  14  32  1   
 29  14  33  1   
 30  14  34  1   
 31  15  17  1   
 32  15  35  1   
 33  15  36  1   
 34  16  18  2   
 35  16  19  2   
 36  16  20  1   
 37  17  37  1   
 38  17  38  1   
 39  17  39  1   
 40  20  40  1   
 41  20  41  1   
 42  20  42  1   
@<TRIPOS>SUBSTRUCTURE
  1 ****   6 GROUP 4 **** **** 0

# MOE 2024.06 (io_trps.svl 2023.06)
