@<TRIPOS>MOLECULE
NONAME
27 27 1 0 0 
SMALL
USER_CHARGES


@<TRIPOS>ATOM
  1 S       -0.0450    -0.4170     0.3180 S.o2  1 <1>   1.3330 
  2 O        0.0300    -1.2790    -0.8370 O.2   1 <1>  -0.6500 
  3 O       -0.1480    -0.9560     1.6500 O.2   1 <1>  -0.6500 
  4 N        1.3430     0.5160     0.3730 N.am  1 <1>  -0.9140 
  5 C       -1.3200     0.7960     0.0600 C.3   1 <1>  -0.1350 
  6 C        2.5210    -0.1910    -0.1190 C.3   1 <1>   0.1960 
  7 C        3.7550     0.6990     0.0130 C.3   1 <1>   0.0700 
  8 S        5.2250    -0.2680    -0.5500 S.3   1 <1>  -0.3310 
  9 C        6.6550     0.8140    -0.3710 C.ar  1 <1>   0.1020 
 10 C        7.8870     0.2820    -0.7050 C.ar  1 <1>  -0.1500 
 11 C        6.5430     2.1220     0.0770 C.ar  1 <1>  -0.1500 
 12 C        9.0240     1.0620    -0.5880 C.ar  1 <1>  -0.1500 
 13 C        7.6850     2.8980     0.1920 C.ar  1 <1>  -0.1500 
 14 C        8.9220     2.3690    -0.1400 C.ar  1 <1>  -0.1500 
 15 H        1.4760     0.6550     1.3740 H     1 <1>   0.4200 
 16 H       -2.2800     0.3180     0.0320 H     1 <1>   0.0800 
 17 H       -1.1610     1.3040    -0.8710 H     1 <1>   0.0800 
 18 H       -1.3160     1.5160     0.8540 H     1 <1>   0.0800 
 19 H        2.3850    -0.4480    -1.1580 H     1 <1>   0.0800 
 20 H        2.6640    -1.1000     0.4430 H     1 <1>   0.0800 
 21 H        3.9320     0.9770     1.0360 H     1 <1>   0.0800 
 22 H        3.6770     1.5640    -0.6210 H     1 <1>   0.0800 
 23 H        7.9520    -0.7340    -1.0510 H     1 <1>   0.1500 
 24 H        5.5940     2.5470     0.3360 H     1 <1>   0.1500 
 25 H        9.9860     0.6540    -0.8460 H     1 <1>   0.1500 
 26 H        7.6130     3.9140     0.5380 H     1 <1>   0.1500 
 27 H        9.8060     2.9760    -0.0500 H     1 <1>   0.1500 
@<TRIPOS>BOND
  1   1   2  2   
  2   1   3  2   
  3   1   4  am  
  4   1   5  1   
  5   4   6  1   
  6   4  15  1   
  7   5  16  1   
  8   5  17  1   
  9   5  18  1   
 10   6   7  1   
 11   6  19  1   
 12   6  20  1   
 13   7   8  1   
 14   7  21  1   
 15   7  22  1   
 16   8   9  1   
 17   9  10  ar  
 18   9  11  ar  
 19  10  12  ar  
 20  10  23  1   
 21  11  13  ar  
 22  11  24  1   
 23  12  14  ar  
 24  12  25  1   
 25  13  14  ar  
 26  13  26  1   
 27  14  27  1   
@<TRIPOS>SUBSTRUCTURE
  1 ****   7 GROUP 4 **** **** 0

# MOE 2024.06 (io_trps.svl 2023.06)
