@<TRIPOS>MOLECULE
NONAME
38 38 1 0 0 
SMALL
USER_CHARGES


@<TRIPOS>ATOM
  1 O       -0.6560     0.5660    -1.3760 O.2   1 <1>  -0.5700 
  2 C       -1.3730     1.0330    -0.5080 C.2   1 <1>   0.4140 
  3 C       -1.2280     2.3390     0.0030 C.3   1 <1>  -0.7150 
  4 C       -2.4700     0.1340     0.0450 C.3   1 <1>   0.0420 
  5 C       -2.1810     2.8290     0.9200 C.2   1 <1>   0.4140 
  6 C       -0.1670     3.1720    -0.4110 C.2   1 <1>   0.4140 
  7 C       -2.5650    -1.2040    -0.7000 C.2   1 <1>   0.6590 
  8 C       -3.7880     0.9410     0.2070 C.3   1 <1>   0.0000 
  9 O       -2.0250     3.8120     1.6210 O.2   1 <1>  -0.5700 
 10 C       -3.4860     2.0960     1.1830 C.3   1 <1>  -0.0990 
 11 O       -0.3010     4.3660    -0.6170 O.2   1 <1>  -0.5700 
 12 C        1.2360     2.6190    -0.6490 C.3   1 <1>  -0.0990 
 13 O       -3.3920    -1.4260    -1.5480 O.2   1 <1>  -0.5700 
 14 O       -1.7820    -2.2110    -0.3050 O.3   1 <1>  -0.4300 
 15 C       -4.9120     0.0800     0.8160 C.3   1 <1>  -0.2400 
 16 C       -4.2990     1.5380    -1.1240 C.3   1 <1>  -0.2400 
 17 C        2.3390     3.4830    -0.0130 C.3   1 <1>  -0.1600 
 18 C       -0.4370    -2.0760     0.1090 C.3   1 <1>   0.0400 
 19 C        3.7280     2.8690    -0.2210 C.3   1 <1>  -0.2400 
 20 H       -2.1620    -0.1180     1.0400 H     1 <1>   0.0800 
 21 H       -4.2850     2.8150     1.1630 H     1 <1>   0.0800 
 22 H       -3.4260     1.7180     2.1870 H     1 <1>   0.0800 
 23 H        1.3880     2.5490    -1.7090 H     1 <1>   0.0800 
 24 H        1.2980     1.6330    -0.2330 H     1 <1>   0.0800 
 25 H       -4.5870    -0.3830     1.7300 H     1 <1>   0.0800 
 26 H       -5.2170    -0.6940     0.1330 H     1 <1>   0.0800 
 27 H       -5.7740     0.6870     1.0300 H     1 <1>   0.0800 
 28 H       -3.5600     2.1830    -1.5690 H     1 <1>   0.0800 
 29 H       -5.1860     2.1220    -0.9600 H     1 <1>   0.0800 
 30 H       -4.5370     0.7680    -1.8340 H     1 <1>   0.0800 
 31 H        2.1380     3.5850     1.0400 H     1 <1>   0.0800 
 32 H        2.3110     4.4680    -0.4480 H     1 <1>   0.0800 
 33 H       -0.0710    -3.0500     0.3790 H     1 <1>   0.0800 
 34 H       -0.3750    -1.4150     0.9550 H     1 <1>   0.0800 
 35 H        0.1400    -1.6890    -0.7130 H     1 <1>   0.0800 
 36 H        3.7760     1.8950     0.2310 H     1 <1>   0.0800 
 37 H        4.4770     3.4970     0.2280 H     1 <1>   0.0800 
 38 H        3.9390     2.7770    -1.2720 H     1 <1>   0.0800 
@<TRIPOS>BOND
  1   1   2  2   
  2   2   3  1   
  3   2   4  1   
  4   3   5  1   
  5   3   6  1   
  6   4   7  1   
  7   4   8  1   
  8   4  20  1   
  9   5   9  2   
 10   5  10  1   
 11   6  11  2   
 12   6  12  1   
 13   7  13  2   
 14   7  14  1   
 15   8  10  1   
 16   8  15  1   
 17   8  16  1   
 18  10  21  1   
 19  10  22  1   
 20  12  17  1   
 21  12  23  1   
 22  12  24  1   
 23  14  18  1   
 24  15  25  1   
 25  15  26  1   
 26  15  27  1   
 27  16  28  1   
 28  16  29  1   
 29  16  30  1   
 30  17  19  1   
 31  17  31  1   
 32  17  32  1   
 33  18  33  1   
 34  18  34  1   
 35  18  35  1   
 36  19  36  1   
 37  19  37  1   
 38  19  38  1   
@<TRIPOS>SUBSTRUCTURE
  1 ****   2 GROUP 4 **** **** 0

# MOE 2024.06 (io_trps.svl 2023.06)
