@<TRIPOS>MOLECULE
NONAME
31 33 1 0 0 
SMALL
USER_CHARGES


@<TRIPOS>ATOM
  1 F        0.0120     0.3060     0.7590 F     1 <1>  -0.3400 
  2 C       -1.0790     1.0660     0.6780 C.3   1 <1>   1.0200 
  3 F       -2.1040     0.2200     0.6930 F     1 <1>  -0.3400 
  4 F       -1.1360     1.7240     1.8350 F     1 <1>  -0.3400 
  5 C       -1.0460     2.0390    -0.5740 C.3   1 <1>   0.5800 
  6 O       -1.1000     1.3830    -1.8100 O.3   1 <1>  -0.6800 
  7 N       -2.1390     3.0550    -0.5900 N.am  1 <1>  -0.2980 
  8 C        0.2220     2.9110    -0.5880 C.3   1 <1>  -0.0990 
  9 N       -1.6200     4.3370    -0.5990 N.2   1 <1>  -0.5120 
 10 C       -3.4810     2.7010    -0.7020 C.2   1 <1>   0.7150 
 11 C       -0.3640     4.2950    -0.6060 C.2   1 <1>   0.3890 
 12 O       -3.7390     1.6010    -1.1680 O.2   1 <1>  -0.5700 
 13 C       -4.5630     3.5770    -0.3070 C.2   1 <1>   0.0550 
 14 C        0.5820     5.4850    -0.6190 C.3   1 <1>  -0.1000 
 15 O       -4.3750     4.6380     0.4750 O.3   1 <1>  -0.2800 
 16 C       -5.8930     3.4980    -0.5990 C.2   1 <1>  -0.1500 
 17 C        1.2410     5.9530     0.6430 C.3   1 <1>  -0.2000 
 18 C        0.1910     6.8000    -0.0170 C.3   1 <1>  -0.2000 
 19 C       -5.5280     5.2320     0.6770 C.2   1 <1>  -0.0100 
 20 C       -6.5160     4.5730     0.0360 C.2   1 <1>  -0.1500 
 21 H       -2.0360     1.1040    -1.9490 H     1 <1>   0.4000 
 22 H        0.8290     2.7350    -1.4570 H     1 <1>   0.0800 
 23 H        0.8140     2.7870     0.2990 H     1 <1>   0.0800 
 24 H        1.1570     5.5260    -1.5270 H     1 <1>   0.1000 
 25 H       -6.3830     2.7530    -1.2010 H     1 <1>   0.1500 
 26 H        2.2650     6.2810     0.6050 H     1 <1>   0.1000 
 27 H        0.9910     5.4830     1.5790 H     1 <1>   0.1000 
 28 H       -0.7780     6.8840     0.4440 H     1 <1>   0.1000 
 29 H        0.4880     7.7040    -0.5190 H     1 <1>   0.1000 
 30 H       -5.5590     6.1180     1.2870 H     1 <1>   0.1500 
 31 H       -7.5660     4.8020     0.0040 H     1 <1>   0.1500 
@<TRIPOS>BOND
  1   1   2  1   
  2   2   3  1   
  3   2   4  1   
  4   2   5  1   
  5   5   6  1   
  6   5   7  1   
  7   5   8  1   
  8   6  21  1   
  9   7   9  1   
 10   7  10  am  
 11   8  11  1   
 12   8  22  1   
 13   8  23  1   
 14   9  11  2   
 15  10  12  2   
 16  10  13  1   
 17  11  14  1   
 18  13  15  1   
 19  13  16  2   
 20  14  17  1   
 21  14  18  1   
 22  14  24  1   
 23  15  19  1   
 24  16  20  1   
 25  16  25  1   
 26  17  18  1   
 27  17  26  1   
 28  17  27  1   
 29  18  28  1   
 30  18  29  1   
 31  19  20  2   
 32  19  30  1   
 33  20  31  1   
@<TRIPOS>SUBSTRUCTURE
  1 ****   7 GROUP 4 **** **** 0

# MOE 2024.06 (io_trps.svl 2023.06)
