@<TRIPOS>MOLECULE
NONAME
37 38 1 0 0 
SMALL
USER_CHARGES


@<TRIPOS>ATOM
  1 S       -0.0850     0.4530     0.0690 S.3   1 <1>  -0.3320 
  2 C       -1.5280    -0.6230    -0.0180 C.ar  1 <1>   0.1020 
  3 C        1.3890    -0.6560     0.1640 C.3   1 <1>   0.0700 
  4 C       -1.4210    -2.0050    -0.0110 C.ar  1 <1>  -0.1500 
  5 C       -2.7650    -0.0110    -0.0940 C.ar  1 <1>  -0.1500 
  6 C        2.6370     0.2260     0.2400 C.3   1 <1>  -0.0990 
  7 C       -2.5710    -2.7740    -0.0810 C.ar  1 <1>  -0.1500 
  8 C       -3.9100    -0.7870    -0.1640 C.ar  1 <1>  -0.1500 
  9 C        3.9230    -0.5790     0.3320 C.2   1 <1>   0.5690 
 10 C       -3.8170    -2.1710    -0.1590 C.ar  1 <1>  -0.1440 
 11 O        3.8540    -1.7830     0.2380 O.2   1 <1>  -0.5700 
 12 N        5.1220     0.0580     0.5170 N.am  1 <1>  -0.6600 
 13 C       -5.0730    -3.0190    -0.2340 C.3   1 <1>  -0.0970 
 14 C        6.4000    -0.7080     0.6440 C.3   1 <1>   0.1400 
 15 C        5.3260     1.5380     0.5930 C.3   1 <1>   0.1400 
 16 C        7.4740    -0.1370    -0.2960 C.3   1 <1>   0.1200 
 17 C        6.4610     1.9790    -0.3470 C.3   1 <1>   0.1200 
 18 O        7.6230     1.2410    -0.0980 O.3   1 <1>  -0.5600 
 19 H        1.3940    -1.2690    -0.7200 H     1 <1>   0.0800 
 20 H        1.2840    -1.2650     1.0440 H     1 <1>   0.0800 
 21 H       -0.4690    -2.4940     0.0480 H     1 <1>   0.1500 
 22 H       -2.8290     1.0620    -0.0980 H     1 <1>   0.1500 
 23 H        2.5610     0.8540     1.1070 H     1 <1>   0.0800 
 24 H        2.6800     0.8420    -0.6390 H     1 <1>   0.0800 
 25 H       -2.4900    -3.8470    -0.0740 H     1 <1>   0.1500 
 26 H       -4.8720    -0.3080    -0.2210 H     1 <1>   0.1500 
 27 H       -4.8650    -3.9590    -0.7140 H     1 <1>   0.0800 
 28 H       -5.8360    -2.5130    -0.7980 H     1 <1>   0.0800 
 29 H       -5.4430    -3.2090     0.7580 H     1 <1>   0.0800 
 30 H        6.2470    -1.7470     0.4120 H     1 <1>   0.0800 
 31 H        6.7500    -0.6450     1.6590 H     1 <1>   0.0800 
 32 H        5.5860     1.8050     1.6030 H     1 <1>   0.0800 
 33 H        4.4310     2.0700     0.3290 H     1 <1>   0.0800 
 34 H        7.2070    -0.3130    -1.3240 H     1 <1>   0.0800 
 35 H        8.4230    -0.6020    -0.1010 H     1 <1>   0.0800 
 36 H        6.6930     3.0170    -0.1890 H     1 <1>   0.0800 
 37 H        6.1780     1.8390    -1.3760 H     1 <1>   0.0800 
@<TRIPOS>BOND
  1   1   2  1   
  2   1   3  1   
  3   2   4  ar  
  4   2   5  ar  
  5   3   6  1   
  6   3  19  1   
  7   3  20  1   
  8   4   7  ar  
  9   4  21  1   
 10   5   8  ar  
 11   5  22  1   
 12   6   9  1   
 13   6  23  1   
 14   6  24  1   
 15   7  10  ar  
 16   7  25  1   
 17   8  10  ar  
 18   8  26  1   
 19   9  11  2   
 20   9  12  am  
 21  10  13  1   
 22  12  14  1   
 23  12  15  1   
 24  13  27  1   
 25  13  28  1   
 26  13  29  1   
 27  14  16  1   
 28  14  30  1   
 29  14  31  1   
 30  15  17  1   
 31  15  32  1   
 32  15  33  1   
 33  16  18  1   
 34  16  34  1   
 35  16  35  1   
 36  17  18  1   
 37  17  36  1   
 38  17  37  1   
@<TRIPOS>SUBSTRUCTURE
  1 ****   3 GROUP 4 **** **** 0

# MOE 2024.06 (io_trps.svl 2023.06)
