@<TRIPOS>MOLECULE
NONAME
50 52 1 0 0 
SMALL
USER_CHARGES


@<TRIPOS>ATOM
  1 S       -0.5520     0.8670     1.2490 S.o2  1 <1>   1.4470 
  2 O       -1.6790     1.7030     1.6060 O.2   1 <1>  -0.6500 
  3 O       -0.4780    -0.4780     1.7760 O.2   1 <1>  -0.6500 
  4 N       -0.5360     0.7580    -0.4420 N.am  1 <1>  -0.8490 
  5 C        0.9990     1.7310     1.6350 C.ar  1 <1>  -0.0090 
  6 C       -0.7640     2.0580    -1.0830 C.3   1 <1>   0.1960 
  7 C       -1.4930    -0.2410    -0.9250 C.3   1 <1>   0.1960 
  8 C        2.1600     1.4830     0.9130 C.ar  1 <1>  -0.1500 
  9 C        1.0670     2.6500     2.6740 C.ar  1 <1>  -0.1500 
 10 C       -0.5650     1.9420    -2.5970 C.3   1 <1>  -0.1600 
 11 C       -1.3390    -0.4360    -2.4380 C.3   1 <1>  -0.1600 
 12 C        3.3690     2.1220     1.1840 C.ar  1 <1>   0.0860 
 13 C        2.2480     3.3050     2.9700 C.ar  1 <1>  -0.1500 
 14 C       -1.4970     0.8850    -3.1990 C.3   1 <1>  -0.1600 
 15 C        4.5530     1.8330     0.3950 C.2   1 <1>   0.5440 
 16 C        3.3850     3.0440     2.2290 C.ar  1 <1>  -0.1500 
 17 O        4.4570     1.5660    -0.7860 O.2   1 <1>  -0.5700 
 18 N        5.7960     1.8500     0.9650 N.am  1 <1>  -0.7300 
 19 C        7.0540     1.5140     0.2550 C.3   1 <1>   0.1400 
 20 C        7.6660     2.7750    -0.3540 C.3   1 <1>  -0.0170 
 21 C        8.9620     2.4350    -1.0710 C.ar  1 <1>  -0.1430 
 22 C       10.1860     2.6210    -0.4470 C.ar  1 <1>  -0.1500 
 23 C        8.9260     1.9270    -2.3600 C.ar  1 <1>  -0.1500 
 24 C       11.3620     2.3030    -1.1050 C.ar  1 <1>  -0.1500 
 25 C       10.1000     1.6080    -3.0200 C.ar  1 <1>  -0.1500 
 26 C       11.3190     1.7960    -2.3920 C.ar  1 <1>  -0.1500 
 27 H       -0.0680     2.7840    -0.6960 H     1 <1>   0.0800 
 28 H       -1.7630     2.4040    -0.8710 H     1 <1>   0.0800 
 29 H       -2.4970     0.0720    -0.6900 H     1 <1>   0.0800 
 30 H       -1.3130    -1.1850    -0.4380 H     1 <1>   0.0800 
 31 H        2.1290     0.7680     0.1060 H     1 <1>   0.1500 
 32 H        0.1820     2.8570     3.2540 H     1 <1>   0.1500 
 33 H        0.4610     1.6790    -2.7920 H     1 <1>   0.0800 
 34 H       -0.7530     2.8960    -3.0570 H     1 <1>   0.0800 
 35 H       -2.0720    -1.1440    -2.7820 H     1 <1>   0.0800 
 36 H       -0.3650    -0.8520    -2.6320 H     1 <1>   0.0800 
 37 H        2.2780     4.0190     3.7760 H     1 <1>   0.1500 
 38 H       -1.2670     0.7410    -4.2400 H     1 <1>   0.0800 
 39 H       -2.5170     1.2220    -3.1220 H     1 <1>   0.0800 
 40 H        4.2940     3.5700     2.4600 H     1 <1>   0.1500 
 41 H        5.8790     1.9910     1.9730 H     1 <1>   0.3700 
 42 H        6.8470     0.8030    -0.5280 H     1 <1>   0.0800 
 43 H        7.7470     1.0620     0.9420 H     1 <1>   0.0800 
 44 H        7.8550     3.4980     0.4180 H     1 <1>   0.0800 
 45 H        6.9720     3.2030    -1.0570 H     1 <1>   0.0800 
 46 H       10.2320     3.0150     0.5530 H     1 <1>   0.1500 
 47 H        7.9810     1.7770    -2.8540 H     1 <1>   0.1500 
 48 H       12.3090     2.4510    -0.6170 H     1 <1>   0.1500 
 49 H       10.0650     1.2140    -4.0200 H     1 <1>   0.1500 
 50 H       12.2330     1.5490    -2.9050 H     1 <1>   0.1500 
@<TRIPOS>BOND
  1   1   2  2   
  2   1   3  2   
  3   1   4  am  
  4   1   5  1   
  5   4   6  1   
  6   4   7  1   
  7   5   8  ar  
  8   5   9  ar  
  9   6  10  1   
 10   6  27  1   
 11   6  28  1   
 12   7  11  1   
 13   7  29  1   
 14   7  30  1   
 15   8  12  ar  
 16   8  31  1   
 17   9  13  ar  
 18   9  32  1   
 19  10  14  1   
 20  10  33  1   
 21  10  34  1   
 22  11  14  1   
 23  11  35  1   
 24  11  36  1   
 25  12  15  1   
 26  12  16  ar  
 27  13  16  ar  
 28  13  37  1   
 29  14  38  1   
 30  14  39  1   
 31  15  17  2   
 32  15  18  am  
 33  16  40  1   
 34  18  19  1   
 35  18  41  1   
 36  19  20  1   
 37  19  42  1   
 38  19  43  1   
 39  20  21  1   
 40  20  44  1   
 41  20  45  1   
 42  21  22  ar  
 43  21  23  ar  
 44  22  24  ar  
 45  22  46  1   
 46  23  25  ar  
 47  23  47  1   
 48  24  26  ar  
 49  24  48  1   
 50  25  26  ar  
 51  25  49  1   
 52  26  50  1   
@<TRIPOS>SUBSTRUCTURE
  1 ****  17 GROUP 4 **** **** 0

# MOE 2024.06 (io_trps.svl 2023.06)
