@<TRIPOS>MOLECULE
NONAME
32 33 1 0 0 
SMALL
USER_CHARGES


@<TRIPOS>ATOM
  1 O        1.1320    -1.3370     1.4750 O.3   1 <1>  -0.5600 
  2 C        0.5400    -1.8570     0.3170 C.3   1 <1>   0.1200 
  3 C        1.7090    -0.0670     1.3090 C.3   1 <1>   0.1200 
  4 C        1.5870    -2.0400    -0.8070 C.3   1 <1>   0.3430 
  5 C        2.7180    -0.0480     0.1380 C.3   1 <1>   0.3430 
  6 N        2.9050    -1.4230    -0.4410 N.4   1 <1>  -0.9590 
  7 C        3.9190    -1.4810    -1.5270 C.3   1 <1>   0.4860 
  8 C        5.2310    -0.9430    -0.9940 C.ar  1 <1>  -0.1440 
  9 C        5.9690    -1.6770    -0.0760 C.ar  1 <1>  -0.1500 
 10 C        5.6980     0.2940    -1.4130 C.ar  1 <1>  -0.1500 
 11 C        7.1560    -1.1770     0.4330 C.ar  1 <1>  -0.1440 
 12 C        6.8840     0.7950    -0.9090 C.ar  1 <1>  -0.1500 
 13 C        7.6090     0.0620     0.0130 C.ar  1 <1>  -0.1500 
 14 C        7.9640    -1.9800     1.4380 C.3   1 <1>  -0.0970 
 15 H       -0.2460    -1.1900     0.0030 H     1 <1>   0.0800 
 16 H        0.0950    -2.8040     0.5690 H     1 <1>   0.0800 
 17 H        2.2070     0.1860     2.2290 H     1 <1>   0.0800 
 18 H        0.9230     0.6500     1.1460 H     1 <1>   0.0800 
 19 H        1.2060    -1.5950    -1.7110 H     1 <1>   0.0800 
 20 H        1.7170    -3.0930    -0.9930 H     1 <1>   0.0800 
 21 H        3.6600     0.3370     0.4960 H     1 <1>   0.0800 
 22 H        2.3620     0.6260    -0.6230 H     1 <1>   0.0800 
 23 H        3.2640    -1.9750     0.3510 H     1 <1>   0.4500 
 24 H        3.5980    -0.8920    -2.3690 H     1 <1>   0.0800 
 25 H        4.0570    -2.4990    -1.8530 H     1 <1>   0.0800 
 26 H        5.6330    -2.6460     0.2510 H     1 <1>   0.1500 
 27 H        5.1530     0.8810    -2.1330 H     1 <1>   0.1500 
 28 H        7.2500     1.7540    -1.2330 H     1 <1>   0.1500 
 29 H        8.5330     0.4590     0.3980 H     1 <1>   0.1500 
 30 H        7.3250    -2.6180     2.0200 H     1 <1>   0.0800 
 31 H        8.4870    -1.3230     2.1100 H     1 <1>   0.0800 
 32 H        8.6850    -2.5890     0.9210 H     1 <1>   0.0800 
@<TRIPOS>BOND
  1   1   2  1   
  2   1   3  1   
  3   2   4  1   
  4   2  15  1   
  5   2  16  1   
  6   3   5  1   
  7   3  17  1   
  8   3  18  1   
  9   4   6  1   
 10   4  19  1   
 11   4  20  1   
 12   5   6  1   
 13   5  21  1   
 14   5  22  1   
 15   6   7  1   
 16   6  23  1   
 17   7   8  1   
 18   7  24  1   
 19   7  25  1   
 20   8   9  ar  
 21   8  10  ar  
 22   9  11  ar  
 23   9  26  1   
 24  10  12  ar  
 25  10  27  1   
 26  11  13  ar  
 27  11  14  1   
 28  12  13  ar  
 29  12  28  1   
 30  13  29  1   
 31  14  30  1   
 32  14  31  1   
 33  14  32  1   
@<TRIPOS>SUBSTRUCTURE
  1 ****   8 GROUP 4 **** **** 0

# MOE 2024.06 (io_trps.svl 2023.06)
