@<TRIPOS>MOLECULE
NONAME
37 38 1 0 0 
SMALL
USER_CHARGES


@<TRIPOS>ATOM
  1 O       -0.8710    -1.0880    -1.9960 O.2   1 <1>  -0.5700 
  2 C       -0.7130    -2.1300    -1.3980 C.2   1 <1>   0.5690 
  3 N        0.1760    -2.2020    -0.3460 N.am  1 <1>  -0.6600 
  4 C       -1.5620    -3.3220    -1.8950 C.3   1 <1>   0.2610 
  5 C        0.8120    -0.9720     0.2150 C.3   1 <1>   0.1400 
  6 C        0.4470    -3.3980     0.5080 C.3   1 <1>   0.1400 
  7 O       -2.1990    -4.0430    -0.8470 O.3   1 <1>  -0.3630 
  8 C       -0.7460    -4.3280    -2.7150 C.3   1 <1>  -0.2400 
  9 C        0.4140    -0.7990     1.6910 C.3   1 <1>   0.1200 
 10 C        0.0530    -3.1020     1.9640 C.3   1 <1>   0.1200 
 11 C       -3.0610    -3.4590     0.0230 C.ar  1 <1>   0.0820 
 12 O        0.7140    -1.9560     2.4240 O.3   1 <1>  -0.5600 
 13 C       -3.5650    -2.1690    -0.1220 C.ar  1 <1>  -0.1500 
 14 C       -3.4360    -4.2160     1.1210 C.ar  1 <1>  -0.1500 
 15 C       -4.4160    -1.6380     0.8340 C.ar  1 <1>  -0.1440 
 16 C       -4.2890    -3.6920     2.0750 C.ar  1 <1>  -0.1500 
 17 C       -4.7760    -2.4040     1.9320 C.ar  1 <1>  -0.1500 
 18 C       -4.9550    -0.2280     0.6780 C.3   1 <1>  -0.0970 
 19 H       -2.3450    -2.9350    -2.5230 H     1 <1>   0.0800 
 20 H        0.5140    -0.0980    -0.3350 H     1 <1>   0.0800 
 21 H        1.8820    -1.0590     0.1420 H     1 <1>   0.0800 
 22 H        1.4980    -3.6240     0.4710 H     1 <1>   0.0800 
 23 H       -0.0800    -4.2650     0.1630 H     1 <1>   0.0800 
 24 H        0.0410    -4.7530    -2.1210 H     1 <1>   0.0800 
 25 H       -0.3040    -3.8280    -3.5570 H     1 <1>   0.0800 
 26 H       -1.3870    -5.1110    -3.0790 H     1 <1>   0.0800 
 27 H       -0.6410    -0.6010     1.7750 H     1 <1>   0.0800 
 28 H        0.9570     0.0180     2.1300 H     1 <1>   0.0800 
 29 H        0.3340    -3.9210     2.6010 H     1 <1>   0.0800 
 30 H       -1.0090    -2.9460     2.0470 H     1 <1>   0.0800 
 31 H       -3.3080    -1.5630    -0.9700 H     1 <1>   0.1500 
 32 H       -3.0550    -5.2160     1.2250 H     1 <1>   0.1500 
 33 H       -4.5750    -4.2840     2.9270 H     1 <1>   0.1500 
 34 H       -5.4390    -2.0020     2.6780 H     1 <1>   0.1500 
 35 H       -4.2730     0.3750     0.1060 H     1 <1>   0.0800 
 36 H       -5.0880     0.2320     1.6410 H     1 <1>   0.0800 
 37 H       -5.9030    -0.2560     0.1710 H     1 <1>   0.0800 
@<TRIPOS>BOND
  1   1   2  2   
  2   2   3  am  
  3   2   4  1   
  4   3   5  1   
  5   3   6  1   
  6   4   7  1   
  7   4   8  1   
  8   4  19  1   
  9   5   9  1   
 10   5  20  1   
 11   5  21  1   
 12   6  10  1   
 13   6  22  1   
 14   6  23  1   
 15   7  11  1   
 16   8  24  1   
 17   8  25  1   
 18   8  26  1   
 19   9  12  1   
 20   9  27  1   
 21   9  28  1   
 22  10  12  1   
 23  10  29  1   
 24  10  30  1   
 25  11  13  ar  
 26  11  14  ar  
 27  13  15  ar  
 28  13  31  1   
 29  14  16  ar  
 30  14  32  1   
 31  15  17  ar  
 32  15  18  1   
 33  16  17  ar  
 34  16  33  1   
 35  17  34  1   
 36  18  35  1   
 37  18  36  1   
 38  18  37  1   
@<TRIPOS>SUBSTRUCTURE
  1 ****  11 GROUP 4 **** **** 0

# MOE 2024.06 (io_trps.svl 2023.06)
