@<TRIPOS>MOLECULE
NONAME
41 42 1 0 0 
SMALL
USER_CHARGES


@<TRIPOS>ATOM
  1 CL      -0.1050    -0.5270    -0.4070 Cl    1 <1>  -0.1770 
  2 C        1.2990     0.5190    -0.3610 C.ar  1 <1>   0.1770 
  3 C        1.1440     1.9030    -0.3540 C.ar  1 <1>   0.0820 
  4 C        2.5490    -0.0600    -0.3360 C.ar  1 <1>  -0.1500 
  5 O       -0.0690     2.4880    -0.3860 O.3   1 <1>  -0.3630 
  6 C        2.2700     2.7020    -0.3330 C.ar  1 <1>  -0.1500 
  7 C        3.7070     0.7300    -0.3110 C.ar  1 <1>   0.0280 
  8 C       -0.7940     2.5290     0.8300 C.3   1 <1>   0.1810 
  9 C        3.5300     2.1230    -0.3050 C.ar  1 <1>   0.0830 
 10 C        5.0520     0.2120    -0.2860 C.2   1 <1>  -0.1670 
 11 C       -2.1250     3.2520     0.6560 C.2   1 <1>   0.4480 
 12 O        4.5940     2.9470    -0.2650 O.3   1 <1>  -0.2330 
 13 C        6.0920     1.0880    -0.2100 C.2   1 <1>  -0.1240 
 14 C        5.2190    -1.3080    -0.3600 C.3   1 <1>  -0.1020 
 15 O       -2.2590     4.3430     1.1340 O.2   1 <1>  -0.5700 
 16 C       -3.2790     2.5350    -0.0940 C.3   1 <1>   0.0610 
 17 C        5.8510     2.5100    -0.2130 C.2   1 <1>   0.7060 
 18 C        7.5620     0.6610    -0.1270 C.3   1 <1>  -0.1020 
 19 C       -4.5410     3.4220    -0.1270 C.3   1 <1>  -0.2400 
 20 C       -2.9020     2.2200    -1.5530 C.3   1 <1>  -0.2400 
 21 C       -3.6590     1.2190     0.6110 C.3   1 <1>  -0.2400 
 22 O        6.7280     3.3510    -0.1750 O.2   1 <1>  -0.5700 
 23 H        2.6090    -1.1310    -0.3370 H     1 <1>   0.1500 
 24 H        2.1690     3.7720    -0.3380 H     1 <1>   0.1500 
 25 H       -0.1970     3.0640     1.5480 H     1 <1>   0.0800 
 26 H       -0.9480     1.5280     1.1830 H     1 <1>   0.0800 
 27 H        4.6620    -1.6980    -1.1930 H     1 <1>   0.0800 
 28 H        4.8570    -1.7630     0.5450 H     1 <1>   0.0800 
 29 H        6.2360    -1.6130    -0.5060 H     1 <1>   0.0800 
 30 H        8.1290     1.3660     0.4550 H     1 <1>   0.0800 
 31 H        7.9870     0.6220    -1.1140 H     1 <1>   0.0800 
 32 H        7.6810    -0.2930     0.3490 H     1 <1>   0.0800 
 33 H       -4.8640     3.6520     0.8730 H     1 <1>   0.0800 
 34 H       -5.3490     2.9330    -0.6410 H     1 <1>   0.0800 
 35 H       -4.3300     4.3500    -0.6300 H     1 <1>   0.0800 
 36 H       -2.5800     3.1160    -2.0550 H     1 <1>   0.0800 
 37 H       -3.7430     1.8160    -2.0870 H     1 <1>   0.0800 
 38 H       -2.1050     1.5000    -1.6020 H     1 <1>   0.0800 
 39 H       -3.9020     1.4050     1.6430 H     1 <1>   0.0800 
 40 H       -2.8550     0.5070     0.5700 H     1 <1>   0.0800 
 41 H       -4.5160     0.7710     0.1380 H     1 <1>   0.0800 
@<TRIPOS>BOND
  1   1   2  1   
  2   2   3  ar  
  3   2   4  ar  
  4   3   5  1   
  5   3   6  ar  
  6   4   7  ar  
  7   4  23  1   
  8   5   8  1   
  9   6   9  ar  
 10   6  24  1   
 11   7   9  ar  
 12   7  10  1   
 13   8  11  1   
 14   8  25  1   
 15   8  26  1   
 16   9  12  1   
 17  10  13  2   
 18  10  14  1   
 19  11  15  2   
 20  11  16  1   
 21  12  17  1   
 22  13  17  1   
 23  13  18  1   
 24  14  27  1   
 25  14  28  1   
 26  14  29  1   
 27  16  19  1   
 28  16  20  1   
 29  16  21  1   
 30  17  22  2   
 31  18  30  1   
 32  18  31  1   
 33  18  32  1   
 34  19  33  1   
 35  19  34  1   
 36  19  35  1   
 37  20  36  1   
 38  20  37  1   
 39  20  38  1   
 40  21  39  1   
 41  21  40  1   
 42  21  41  1   
@<TRIPOS>SUBSTRUCTURE
  1 ****   3 GROUP 4 **** **** 0

# MOE 2024.06 (io_trps.svl 2023.06)
