@<TRIPOS>MOLECULE
NONAME
40 41 1 0 0 
SMALL
USER_CHARGES


@<TRIPOS>ATOM
  1 S       -0.1500    -0.3170     0.9440 S.o2  1 <1>   1.4470 
  2 O       -0.7950    -0.1380     2.2260 O.2   1 <1>  -0.6500 
  3 O        0.0000    -1.6360     0.3740 O.2   1 <1>  -0.6500 
  4 N       -1.0490     0.5090    -0.2040 N.am  1 <1>  -0.9140 
  5 C        1.4330     0.5700     0.9230 C.ar  1 <1>  -0.0090 
  6 C       -2.4770     0.5410     0.0300 C.3   1 <1>   0.2760 
  7 C        2.5450     0.0590     0.2700 C.ar  1 <1>  -0.1500 
  8 C        1.5630     1.8030     1.5460 C.ar  1 <1>  -0.1500 
  9 C       -3.1010    -0.8450    -0.2010 C.3   1 <1>  -0.1600 
 10 C       -3.0740     1.5710    -0.9350 C.3   1 <1>  -0.1600 
 11 C        3.7660     0.7300     0.2160 C.ar  1 <1>   0.0860 
 12 C        2.7640     2.4880     1.5260 C.ar  1 <1>  -0.1500 
 13 C       -4.6330    -0.7950    -0.0960 C.3   1 <1>  -0.1600 
 14 C       -4.6050     1.6290    -0.8240 C.3   1 <1>  -0.1600 
 15 C        3.8650     1.9620     0.8750 C.ar  1 <1>  -0.1430 
 16 C        4.8620     0.1250    -0.5180 C.2   1 <1>   0.5440 
 17 C       -5.2260     0.2450    -1.0550 C.3   1 <1>  -0.1600 
 18 C        5.1740     2.7430     0.9150 C.3   1 <1>  -0.0970 
 19 O        5.2500    -0.9940    -0.2700 O.2   1 <1>  -0.5700 
 20 N        5.4750     0.7640    -1.5400 N.am  1 <1>  -0.8000 
 21 H       -0.9080    -0.0300    -1.0540 H     1 <1>   0.4200 
 22 H       -2.6800     0.8680     1.0380 H     1 <1>   0.0800 
 23 H        2.4720    -0.8990    -0.2190 H     1 <1>   0.1500 
 24 H        0.7140     2.2270     2.0560 H     1 <1>   0.1500 
 25 H       -2.7370    -1.5410     0.5330 H     1 <1>   0.0800 
 26 H       -2.8310    -1.2070    -1.1780 H     1 <1>   0.0800 
 27 H       -2.8080     1.3160    -1.9460 H     1 <1>   0.0800 
 28 H       -2.6680     2.5420    -0.7120 H     1 <1>   0.0800 
 29 H        2.8300     3.4380     2.0300 H     1 <1>   0.1500 
 30 H       -4.9110    -0.5470     0.9150 H     1 <1>   0.0800 
 31 H       -5.0410    -1.7660    -0.3200 H     1 <1>   0.0800 
 32 H       -4.9940     2.3240    -1.5480 H     1 <1>   0.0800 
 33 H       -4.8790     1.9850     0.1550 H     1 <1>   0.0800 
 34 H       -6.2920     0.3000    -0.9120 H     1 <1>   0.0800 
 35 H       -5.0460    -0.0620    -2.0710 H     1 <1>   0.0800 
 36 H        5.1590     3.4780     1.7000 H     1 <1>   0.0800 
 37 H        6.0010     2.0800     1.1010 H     1 <1>   0.0800 
 38 H        5.3340     3.2470    -0.0200 H     1 <1>   0.0800 
 39 H        5.1720     1.6670    -1.9030 H     1 <1>   0.3700 
 40 H        6.2080     0.2750    -2.0550 H     1 <1>   0.3700 
@<TRIPOS>BOND
  1   1   2  2   
  2   1   3  2   
  3   1   4  am  
  4   1   5  1   
  5   4   6  1   
  6   4  21  1   
  7   5   7  ar  
  8   5   8  ar  
  9   6   9  1   
 10   6  10  1   
 11   6  22  1   
 12   7  11  ar  
 13   7  23  1   
 14   8  12  ar  
 15   8  24  1   
 16   9  13  1   
 17   9  25  1   
 18   9  26  1   
 19  10  14  1   
 20  10  27  1   
 21  10  28  1   
 22  11  15  ar  
 23  11  16  1   
 24  12  15  ar  
 25  12  29  1   
 26  13  17  1   
 27  13  30  1   
 28  13  31  1   
 29  14  17  1   
 30  14  32  1   
 31  14  33  1   
 32  15  18  1   
 33  16  19  2   
 34  16  20  am  
 35  17  34  1   
 36  17  35  1   
 37  18  36  1   
 38  18  37  1   
 39  18  38  1   
 40  20  39  1   
 41  20  40  1   
@<TRIPOS>SUBSTRUCTURE
  1 ****   5 GROUP 4 **** **** 0

# MOE 2024.06 (io_trps.svl 2023.06)
