@<TRIPOS>MOLECULE
NONAME
34 35 1 0 0 
SMALL
USER_CHARGES


@<TRIPOS>ATOM
  1 O       -0.8920    -0.3200    -1.9110 O.co2 1 <1>  -0.9000 
  2 C       -1.2220    -1.5170    -1.9440 C.2   1 <1>   0.9060 
  3 O       -1.5570    -2.0350    -3.0250 O.co2 1 <1>  -0.9000 
  4 C       -1.2000    -2.3830    -0.6420 C.3   1 <1>   0.0370 
  5 C       -2.6470    -2.4320    -0.0650 C.ar  1 <1>  -0.1440 
  6 C       -0.1810    -1.7880     0.3880 C.3   1 <1>  -0.1600 
  7 C       -0.7370    -3.8410    -1.0000 C.3   1 <1>  -0.1600 
  8 C       -3.0080    -1.9830     1.2050 C.ar  1 <1>  -0.1500 
  9 C       -3.6620    -2.9380    -0.8710 C.ar  1 <1>  -0.1500 
 10 C        1.2670    -2.1520     0.0380 C.3   1 <1>  -0.1600 
 11 C        0.2020    -4.4870     0.0300 C.3   1 <1>  -0.1600 
 12 C       -4.3140    -2.0710     1.6540 C.ar  1 <1>  -0.1500 
 13 C       -4.9710    -3.0270    -0.4320 C.ar  1 <1>  -0.1500 
 14 C        1.4980    -3.6690     0.1750 C.3   1 <1>  -0.1600 
 15 C       -5.3060    -2.5960     0.8460 C.ar  1 <1>   0.0820 
 16 O       -6.5610    -2.6500     1.3600 O.3   1 <1>  -0.3630 
 17 C       -7.6440    -3.0950     0.5760 C.3   1 <1>   0.0400 
 18 H       -0.3620    -2.1810     1.3700 H     1 <1>   0.0800 
 19 H       -0.2930    -0.7190     0.4410 H     1 <1>   0.0800 
 20 H       -0.2030    -3.8170    -1.9350 H     1 <1>   0.0800 
 21 H       -1.5830    -4.4830    -1.1560 H     1 <1>   0.0800 
 22 H       -2.2910    -1.5450     1.8700 H     1 <1>   0.1500 
 23 H       -3.4290    -3.2620    -1.8720 H     1 <1>   0.1500 
 24 H        1.9470    -1.6180     0.6780 H     1 <1>   0.0800 
 25 H        1.4620    -1.8420    -0.9750 H     1 <1>   0.0800 
 26 H        0.4400    -5.4920    -0.2710 H     1 <1>   0.0800 
 27 H       -0.3080    -4.5400     0.9760 H     1 <1>   0.0800 
 28 H       -4.5720    -1.7240     2.6370 H     1 <1>   0.1500 
 29 H       -5.7040    -3.4280    -1.1030 H     1 <1>   0.1500 
 30 H        1.9340    -3.8830     1.1350 H     1 <1>   0.0800 
 31 H        2.2020    -3.9740    -0.5800 H     1 <1>   0.0800 
 32 H       -8.5370    -3.0270     1.1700 H     1 <1>   0.0800 
 33 H       -7.4700    -4.1170     0.2910 H     1 <1>   0.0800 
 34 H       -7.7290    -2.4620    -0.2900 H     1 <1>   0.0800 
@<TRIPOS>BOND
  1   1   2  ar  
  2   2   3  ar  
  3   2   4  1   
  4   4   5  1   
  5   4   6  1   
  6   4   7  1   
  7   5   8  ar  
  8   5   9  ar  
  9   6  10  1   
 10   6  18  1   
 11   6  19  1   
 12   7  11  1   
 13   7  20  1   
 14   7  21  1   
 15   8  12  ar  
 16   8  22  1   
 17   9  13  ar  
 18   9  23  1   
 19  10  14  1   
 20  10  24  1   
 21  10  25  1   
 22  11  14  1   
 23  11  26  1   
 24  11  27  1   
 25  12  15  ar  
 26  12  28  1   
 27  13  15  ar  
 28  13  29  1   
 29  14  30  1   
 30  14  31  1   
 31  15  16  1   
 32  16  17  1   
 33  17  32  1   
 34  17  33  1   
 35  17  34  1   
@<TRIPOS>SUBSTRUCTURE
  1 ****   5 GROUP 4 **** **** 0

# MOE 2024.06 (io_trps.svl 2023.06)
