@<TRIPOS>MOLECULE
NONAME
42 43 1 0 0 
SMALL
USER_CHARGES


@<TRIPOS>ATOM
  1 O       -5.4860    -0.4850    -2.3000 O.3   1 <1>  -0.5600 
  2 C       -5.0900    -1.1230    -1.1200 C.3   1 <1>   0.1200 
  3 C       -6.6300     0.3110    -2.1760 C.3   1 <1>   0.1200 
  4 C       -4.7770    -0.0820    -0.0280 C.3   1 <1>   0.3430 
  5 C       -6.3950     1.4240    -1.1380 C.3   1 <1>   0.3430 
  6 N       -5.9330     0.8520     0.1740 N.4   1 <1>  -0.9590 
  7 C       -5.6740     1.8880     1.2230 C.3   1 <1>   0.3430 
  8 C       -6.9730     2.4980     1.7880 C.3   1 <1>   0.1200 
  9 O       -7.8670     1.4740     2.2000 O.3   1 <1>  -0.3630 
 10 C       -8.6270     0.8340     1.2790 C.ar  1 <1>   0.0830 
 11 C       -8.5710    -0.5570     1.1960 C.ar  1 <1>  -0.1430 
 12 C       -9.4100     1.5640     0.3940 C.ar  1 <1>  -0.1500 
 13 C       -9.2530    -1.1980     0.1670 C.ar  1 <1>  -0.1430 
 14 C       -7.7880    -1.3790     2.2220 C.3   1 <1>  -0.0970 
 15 C      -10.0890     0.9240    -0.6240 C.ar  1 <1>  -0.1430 
 16 C       -9.9990    -0.4520    -0.7340 C.ar  1 <1>  -0.1500 
 17 C       -9.2270    -2.7130     0.0050 C.3   1 <1>  -0.0970 
 18 C      -10.9480     1.7060    -1.6020 C.3   1 <1>  -0.0970 
 19 H       -4.2130    -1.7050    -1.3420 H     1 <1>   0.0800 
 20 H       -5.8760    -1.7900    -0.8070 H     1 <1>   0.0800 
 21 H       -7.4600    -0.3140    -1.8930 H     1 <1>   0.0800 
 22 H       -6.8380     0.7400    -3.1400 H     1 <1>   0.0800 
 23 H       -3.9050     0.4750    -0.3280 H     1 <1>   0.0800 
 24 H       -4.5490    -0.5910     0.8930 H     1 <1>   0.0800 
 25 H       -7.3120     1.9730    -1.0000 H     1 <1>   0.0800 
 26 H       -5.6530     2.1010    -1.5260 H     1 <1>   0.0800 
 27 H       -6.7320     0.2920     0.5270 H     1 <1>   0.4500 
 28 H       -5.0510     2.6710     0.8230 H     1 <1>   0.0800 
 29 H       -5.1420     1.4370     2.0450 H     1 <1>   0.0800 
 30 H       -7.4500     3.1360     1.0680 H     1 <1>   0.0800 
 31 H       -6.7440     3.0890     2.6570 H     1 <1>   0.0800 
 32 H       -9.5000     2.6290     0.5060 H     1 <1>   0.1500 
 33 H       -7.4080    -0.7750     3.0250 H     1 <1>   0.0800 
 34 H       -6.9650    -1.8850     1.7530 H     1 <1>   0.0800 
 35 H       -8.4370    -2.1150     2.6630 H     1 <1>   0.0800 
 36 H      -10.5370    -0.9490    -1.5240 H     1 <1>   0.1500 
 37 H       -9.7190    -3.1790     0.8390 H     1 <1>   0.0800 
 38 H       -8.2160    -3.0710    -0.0510 H     1 <1>   0.0800 
 39 H       -9.7370    -3.0150    -0.8920 H     1 <1>   0.0800 
 40 H      -10.7350     2.7590    -1.5490 H     1 <1>   0.0800 
 41 H      -11.9870     1.5550    -1.3700 H     1 <1>   0.0800 
 42 H      -10.7680     1.3710    -2.6080 H     1 <1>   0.0800 
@<TRIPOS>BOND
  1   1   2  1   
  2   1   3  1   
  3   2   4  1   
  4   2  19  1   
  5   2  20  1   
  6   3   5  1   
  7   3  21  1   
  8   3  22  1   
  9   4   6  1   
 10   4  23  1   
 11   4  24  1   
 12   5   6  1   
 13   5  25  1   
 14   5  26  1   
 15   6   7  1   
 16   6  27  1   
 17   7   8  1   
 18   7  28  1   
 19   7  29  1   
 20   8   9  1   
 21   8  30  1   
 22   8  31  1   
 23   9  10  1   
 24  10  11  ar  
 25  10  12  ar  
 26  11  13  ar  
 27  11  14  1   
 28  12  15  ar  
 29  12  32  1   
 30  13  16  ar  
 31  13  17  1   
 32  14  33  1   
 33  14  34  1   
 34  14  35  1   
 35  15  16  ar  
 36  15  18  1   
 37  16  36  1   
 38  17  37  1   
 39  17  38  1   
 40  17  39  1   
 41  18  40  1   
 42  18  41  1   
 43  18  42  1   
@<TRIPOS>SUBSTRUCTURE
  1 ****  10 GROUP 4 **** **** 0

# MOE 2024.06 (io_trps.svl 2023.06)
