@<TRIPOS>MOLECULE
NONAME
55 56 1 0 0 
SMALL
USER_CHARGES


@<TRIPOS>ATOM
  1 O        0.5010     3.5360     0.9860 O.3   1 <1>  -0.5600 
  2 C        0.0250     4.6770     0.3240 C.3   1 <1>   0.2000 
  3 C        0.6610     2.3560     0.2400 C.3   1 <1>   0.2000 
  4 C       -1.3760     4.4130    -0.2900 C.3   1 <1>   0.3430 
  5 C        1.0680     5.1500    -0.6970 C.3   1 <1>  -0.2400 
  6 C       -0.4470     2.1820    -0.8330 C.3   1 <1>   0.3430 
  7 C        0.6430     1.2150     1.2550 C.3   1 <1>  -0.2400 
  8 N       -1.6760     2.9490    -0.4650 N.4   1 <1>  -0.9590 
  9 C       -2.8810     2.6580    -1.3010 C.3   1 <1>   0.3430 
 10 C       -4.1740     2.9370    -0.5040 C.3   1 <1>   0.2000 
 11 O       -3.9720     2.5760     0.8290 O.3   1 <1>  -0.6800 
 12 C       -5.3830     2.1680    -1.0500 C.3   1 <1>   0.1200 
 13 O       -6.4640     2.3540    -0.1610 O.3   1 <1>  -0.3630 
 14 C       -7.7350     1.9940    -0.4830 C.ar  1 <1>   0.0830 
 15 C       -8.8130     2.5790     0.2010 C.ar  1 <1>  -0.1430 
 16 C       -7.9580     1.0500    -1.4850 C.ar  1 <1>  -0.1500 
 17 C      -10.0960     2.1810    -0.1790 C.ar  1 <1>  -0.1500 
 18 C       -8.6160     3.6270     1.3370 C.3   1 <1>   0.1430 
 19 C       -9.2400     0.6820    -1.8340 C.ar  1 <1>  -0.1500 
 20 C      -10.3110     1.2520    -1.1800 C.ar  1 <1>  -0.1500 
 21 C       -7.8870     4.8750     0.8090 C.3   1 <1>  -0.2400 
 22 C       -9.9440     4.1340     1.9370 C.3   1 <1>  -0.2400 
 23 C       -7.8310     3.0120     2.5090 C.3   1 <1>  -0.2400 
 24 H       -0.0740     5.4450     1.0730 H     1 <1>   0.0800 
 25 H        1.6270     2.3880    -0.2360 H     1 <1>   0.0800 
 26 H       -1.4320     4.9190    -1.2390 H     1 <1>   0.0800 
 27 H       -2.1200     4.8510     0.3540 H     1 <1>   0.0800 
 28 H        1.1740     4.4650    -1.5170 H     1 <1>   0.0800 
 29 H        2.0210     5.2720    -0.2110 H     1 <1>   0.0800 
 30 H        0.7790     6.1060    -1.0960 H     1 <1>   0.0800 
 31 H       -0.6730     1.1340    -0.9380 H     1 <1>   0.0800 
 32 H       -0.0720     2.5320    -1.7790 H     1 <1>   0.0800 
 33 H       -0.3000     1.1770     1.7700 H     1 <1>   0.0800 
 34 H        1.4290     1.3590     1.9770 H     1 <1>   0.0800 
 35 H        0.8100     0.2720     0.7650 H     1 <1>   0.0800 
 36 H       -1.9480     2.6280     0.4870 H     1 <1>   0.4500 
 37 H       -2.8770     1.6150    -1.5710 H     1 <1>   0.0800 
 38 H       -2.8670     3.2360    -2.2100 H     1 <1>   0.0800 
 39 H       -4.3930     3.9900    -0.5280 H     1 <1>   0.0800 
 40 H       -4.8540     2.5140     1.2680 H     1 <1>   0.4000 
 41 H       -5.1700     1.1150    -1.1100 H     1 <1>   0.0800 
 42 H       -5.6700     2.5430    -2.0170 H     1 <1>   0.0800 
 43 H       -7.1490     0.5770    -2.0050 H     1 <1>   0.1500 
 44 H      -10.9760     2.5790     0.2880 H     1 <1>   0.1500 
 45 H       -9.4070    -0.0460    -2.6090 H     1 <1>   0.1500 
 46 H      -11.3150     0.9710    -1.4450 H     1 <1>   0.1500 
 47 H       -8.4140     5.2710    -0.0410 H     1 <1>   0.0800 
 48 H       -6.8830     4.6540     0.5100 H     1 <1>   0.0800 
 49 H       -7.8400     5.6370     1.5660 H     1 <1>   0.0800 
 50 H      -10.5020     3.3220     2.3670 H     1 <1>   0.0800 
 51 H      -10.5420     4.6140     1.1830 H     1 <1>   0.0800 
 52 H       -9.7620     4.8530     2.7160 H     1 <1>   0.0800 
 53 H       -8.3310     2.1250     2.8550 H     1 <1>   0.0800 
 54 H       -7.7620     3.7060     3.3270 H     1 <1>   0.0800 
 55 H       -6.8340     2.7440     2.2240 H     1 <1>   0.0800 
@<TRIPOS>BOND
  1   1   2  1   
  2   1   3  1   
  3   2   4  1   
  4   2   5  1   
  5   2  24  1   
  6   3   6  1   
  7   3   7  1   
  8   3  25  1   
  9   4   8  1   
 10   4  26  1   
 11   4  27  1   
 12   5  28  1   
 13   5  29  1   
 14   5  30  1   
 15   6   8  1   
 16   6  31  1   
 17   6  32  1   
 18   7  33  1   
 19   7  34  1   
 20   7  35  1   
 21   8   9  1   
 22   8  36  1   
 23   9  10  1   
 24   9  37  1   
 25   9  38  1   
 26  10  11  1   
 27  10  12  1   
 28  10  39  1   
 29  11  40  1   
 30  12  13  1   
 31  12  41  1   
 32  12  42  1   
 33  13  14  1   
 34  14  15  ar  
 35  14  16  ar  
 36  15  17  ar  
 37  15  18  1   
 38  16  19  ar  
 39  16  43  1   
 40  17  20  ar  
 41  17  44  1   
 42  18  21  1   
 43  18  22  1   
 44  18  23  1   
 45  19  20  ar  
 46  19  45  1   
 47  20  46  1   
 48  21  47  1   
 49  21  48  1   
 50  21  49  1   
 51  22  50  1   
 52  22  51  1   
 53  22  52  1   
 54  23  53  1   
 55  23  54  1   
 56  23  55  1   
@<TRIPOS>SUBSTRUCTURE
  1 ****  10 GROUP 4 **** **** 0

# MOE 2024.06 (io_trps.svl 2023.06)
