@<TRIPOS>MOLECULE
NONAME
44 45 1 0 0 
SMALL
USER_CHARGES


@<TRIPOS>ATOM
  1 O       -1.2260    -2.8110     2.0950 O.3   1 <1>  -0.3630 
  2 C       -2.1220    -2.4290     1.1400 C.ar  1 <1>   0.0820 
  3 C       -0.2110    -1.9580     2.5780 C.3   1 <1>   0.0400 
  4 C       -2.3040    -1.1430     0.6090 C.ar  1 <1>   0.0820 
  5 C       -2.9220    -3.4590     0.6770 C.ar  1 <1>  -0.1500 
  6 O       -1.5900    -0.0630     0.9980 O.3   1 <1>  -0.5330 
  7 C       -3.2680    -0.9200    -0.3720 C.ar  1 <1>   0.0820 
  8 C       -3.8970    -3.2430    -0.2840 C.ar  1 <1>  -0.1430 
  9 O       -3.3840     0.3530    -0.8530 O.3   1 <1>  -0.3630 
 10 C       -4.0650    -1.9720    -0.8140 C.ar  1 <1>  -0.1500 
 11 C       -4.7700    -4.3940    -0.7250 C.3   1 <1>   0.4860 
 12 C       -4.1570     0.6500    -1.9970 C.3   1 <1>   0.0400 
 13 N       -5.7940    -4.5620     0.3290 N.4   1 <1>  -0.9060 
 14 C       -6.7220    -5.6940     0.0950 C.3   1 <1>   0.4860 
 15 C       -5.9080    -6.9690     0.0040 C.ar  1 <1>  -0.1430 
 16 C       -5.6870    -7.5640    -1.2310 C.ar  1 <1>  -0.1500 
 17 C       -5.3700    -7.5460     1.1460 C.ar  1 <1>  -0.1500 
 18 C       -4.9230    -8.7130    -1.3190 C.ar  1 <1>  -0.1500 
 19 C       -4.6060    -8.6970     1.0560 C.ar  1 <1>  -0.1500 
 20 C       -4.3750    -9.2850    -0.1840 C.ar  1 <1>   0.0820 
 21 O       -3.6360   -10.4060    -0.3640 O.3   1 <1>  -0.3620 
 22 C       -3.0750   -11.1060     0.7250 C.3   1 <1>   0.0400 
 23 H        0.4140    -2.5220     3.2450 H     1 <1>   0.0800 
 24 H       -0.6660    -1.1400     3.1080 H     1 <1>   0.0800 
 25 H        0.3700    -1.5990     1.7470 H     1 <1>   0.0800 
 26 H       -2.7550    -4.4390     1.0910 H     1 <1>   0.1500 
 27 H       -1.8900     0.7190     0.4910 H     1 <1>   0.4500 
 28 H       -4.8140    -1.8020    -1.5650 H     1 <1>   0.1500 
 29 H       -4.1740    -5.2880    -0.8240 H     1 <1>   0.0800 
 30 H       -5.2310    -4.1740    -1.6750 H     1 <1>   0.0800 
 31 H       -4.0150     1.6890    -2.2350 H     1 <1>   0.0800 
 32 H       -5.1940     0.4680    -1.7780 H     1 <1>   0.0800 
 33 H       -3.8190     0.0410    -2.8170 H     1 <1>   0.0800 
 34 H       -6.2970    -3.6780     0.4480 H     1 <1>   0.4500 
 35 H       -5.2840    -4.7270     1.2040 H     1 <1>   0.4500 
 36 H       -7.2740    -5.5450    -0.8180 H     1 <1>   0.0800 
 37 H       -7.4250    -5.7750     0.9090 H     1 <1>   0.0800 
 38 H       -6.1040    -7.1540    -2.1350 H     1 <1>   0.1500 
 39 H       -5.5380    -7.1180     2.1200 H     1 <1>   0.1500 
 40 H       -4.7440    -9.1830    -2.2710 H     1 <1>   0.1500 
 41 H       -4.1990    -9.1250     1.9530 H     1 <1>   0.1500 
 42 H       -2.5560   -11.9640     0.3380 H     1 <1>   0.0800 
 43 H       -3.8660   -11.4240     1.3810 H     1 <1>   0.0800 
 44 H       -2.3830   -10.4610     1.2370 H     1 <1>   0.0800 
@<TRIPOS>BOND
  1   1   2  1   
  2   1   3  1   
  3   2   4  ar  
  4   2   5  ar  
  5   3  23  1   
  6   3  24  1   
  7   3  25  1   
  8   4   6  1   
  9   4   7  ar  
 10   5   8  ar  
 11   5  26  1   
 12   6  27  1   
 13   7   9  1   
 14   7  10  ar  
 15   8  10  ar  
 16   8  11  1   
 17   9  12  1   
 18  10  28  1   
 19  11  13  1   
 20  11  29  1   
 21  11  30  1   
 22  12  31  1   
 23  12  32  1   
 24  12  33  1   
 25  13  14  1   
 26  13  34  1   
 27  13  35  1   
 28  14  15  1   
 29  14  36  1   
 30  14  37  1   
 31  15  16  ar  
 32  15  17  ar  
 33  16  18  ar  
 34  16  38  1   
 35  17  19  ar  
 36  17  39  1   
 37  18  20  ar  
 38  18  40  1   
 39  19  20  ar  
 40  19  41  1   
 41  20  21  1   
 42  21  22  1   
 43  22  42  1   
 44  22  43  1   
 45  22  44  1   
@<TRIPOS>SUBSTRUCTURE
  1 ****  11 GROUP 4 **** **** 0

# MOE 2024.06 (io_trps.svl 2023.06)
