@<TRIPOS>MOLECULE
NONAME
41 42 1 0 0 
SMALL
USER_CHARGES


@<TRIPOS>ATOM
  1 O        0.2470    -0.3290    -0.0220 O.3   1 <1>  -0.3630 
  2 C       -0.9890    -0.8880    -0.0240 C.ar  1 <1>   0.0830 
  3 C        1.3990    -1.1080     0.1740 C.3   1 <1>   0.1200 
  4 C       -1.2310    -2.2390     0.2130 C.ar  1 <1>  -0.1500 
  5 C       -2.0530    -0.0390    -0.2810 C.ar  1 <1>  -0.1500 
  6 C        2.6010    -0.1630     0.0890 C.3   1 <1>   0.3430 
  7 C       -2.5260    -2.7290     0.1890 C.ar  1 <1>  -0.1440 
  8 C       -3.3500    -0.5200    -0.3060 C.ar  1 <1>  -0.1440 
  9 N        3.9110    -0.8610     0.3050 N.4   1 <1>  -0.9590 
 10 C       -3.5790    -1.8660    -0.0680 C.ar  1 <1>  -0.1500 
 11 C       -2.8040    -4.1990     0.4490 C.3   1 <1>  -0.0970 
 12 C       -4.5170     0.4100    -0.5850 C.3   1 <1>  -0.0970 
 13 C        4.9980     0.1460     0.4940 C.3   1 <1>   0.3430 
 14 C        4.2390    -1.8070    -0.8050 C.3   1 <1>   0.3430 
 15 C        6.3040    -0.5650     0.8530 C.3   1 <1>  -0.1600 
 16 C        5.5280    -2.5620    -0.4760 C.3   1 <1>  -0.1600 
 17 C        6.6950    -1.6040    -0.2060 C.3   1 <1>  -0.1600 
 18 H        1.4280    -1.8530    -0.6010 H     1 <1>   0.0800 
 19 H        1.3330    -1.5610     1.1480 H     1 <1>   0.0800 
 20 H       -0.4320    -2.9230     0.4190 H     1 <1>   0.1500 
 21 H       -1.8570     1.0020    -0.4600 H     1 <1>   0.1500 
 22 H        2.4750     0.5990     0.8410 H     1 <1>   0.0800 
 23 H        2.6000     0.3140    -0.8770 H     1 <1>   0.0800 
 24 H        3.8600    -1.4060     1.1760 H     1 <1>   0.4500 
 25 H       -4.5870    -2.2430    -0.0830 H     1 <1>   0.1500 
 26 H       -1.9340    -4.7950     0.2450 H     1 <1>   0.0800 
 27 H       -3.6040    -4.5430    -0.1830 H     1 <1>   0.0800 
 28 H       -3.0900    -4.3390     1.4760 H     1 <1>   0.0800 
 29 H       -4.1740     1.3350    -1.0120 H     1 <1>   0.0800 
 30 H       -5.0380     0.6230     0.3300 H     1 <1>   0.0800 
 31 H       -5.1990    -0.0510    -1.2760 H     1 <1>   0.0800 
 32 H        4.7360     0.8320     1.2840 H     1 <1>   0.0800 
 33 H        5.1350     0.7110    -0.4150 H     1 <1>   0.0800 
 34 H        4.3690    -1.2600    -1.7250 H     1 <1>   0.0800 
 35 H        3.4390    -2.5160    -0.9430 H     1 <1>   0.0800 
 36 H        6.2020    -1.0400     1.8140 H     1 <1>   0.0800 
 37 H        7.0900     0.1660     0.9400 H     1 <1>   0.0800 
 38 H        5.7810    -3.2040    -1.3030 H     1 <1>   0.0800 
 39 H        5.3650    -3.1930     0.3800 H     1 <1>   0.0800 
 40 H        7.5570    -2.1590     0.1260 H     1 <1>   0.0800 
 41 H        6.9650    -1.1000    -1.1200 H     1 <1>   0.0800 
@<TRIPOS>BOND
  1   1   2  1   
  2   1   3  1   
  3   2   4  ar  
  4   2   5  ar  
  5   3   6  1   
  6   3  18  1   
  7   3  19  1   
  8   4   7  ar  
  9   4  20  1   
 10   5   8  ar  
 11   5  21  1   
 12   6   9  1   
 13   6  22  1   
 14   6  23  1   
 15   7  10  ar  
 16   7  11  1   
 17   8  10  ar  
 18   8  12  1   
 19   9  13  1   
 20   9  14  1   
 21   9  24  1   
 22  10  25  1   
 23  11  26  1   
 24  11  27  1   
 25  11  28  1   
 26  12  29  1   
 27  12  30  1   
 28  12  31  1   
 29  13  15  1   
 30  13  32  1   
 31  13  33  1   
 32  14  16  1   
 33  14  34  1   
 34  14  35  1   
 35  15  17  1   
 36  15  36  1   
 37  15  37  1   
 38  16  17  1   
 39  16  38  1   
 40  16  39  1   
 41  17  40  1   
 42  17  41  1   
@<TRIPOS>SUBSTRUCTURE
  1 ****   3 GROUP 4 **** **** 0

# MOE 2024.06 (io_trps.svl 2023.06)
