@<TRIPOS>MOLECULE
NONAME
49 51 1 0 0 
SMALL
USER_CHARGES


@<TRIPOS>ATOM
  1 O        0.7900    -0.8240     1.5290 O.2   1 <1>  -0.5700 
  2 C        1.0880    -1.2710     0.4380 C.2   1 <1>   0.6900 
  3 N        2.3660    -1.1340    -0.0430 N.am  1 <1>  -0.6600 
  4 N        0.1580    -1.9070    -0.3300 N.am  1 <1>  -0.5470 
  5 C        3.3550    -0.2530     0.6540 C.3   1 <1>   0.1400 
  6 C        3.0110    -2.0840    -1.0040 C.3   1 <1>   0.1400 
  7 C       -1.1770    -2.2020    -0.0320 C.ar  1 <1>   0.1170 
  8 C        4.4540    -1.0730     1.3520 C.3   1 <1>   0.2090 
  9 C        4.1020    -2.9270    -0.3180 C.3   1 <1>   0.2090 
 10 C       -2.1600    -1.2140     0.0670 C.ar  1 <1>  -0.1440 
 11 C       -1.5360    -3.5320     0.1450 C.ar  1 <1>  -0.1500 
 12 N        5.0700    -2.0870     0.4420 N.pl3 1 <1>  -0.8380 
 13 C       -3.4700    -1.5760     0.3400 C.ar  1 <1>  -0.1500 
 14 C       -1.8270     0.2610    -0.1160 C.3   1 <1>  -0.0970 
 15 C       -2.8440    -3.8870     0.4140 C.ar  1 <1>  -0.1500 
 16 C        6.3100    -1.8140    -0.1380 C.ar  1 <1>   0.1000 
 17 C       -3.8140    -2.9060     0.5120 C.ar  1 <1>  -0.1500 
 18 C        7.4620    -2.5080     0.2510 C.ar  1 <1>  -0.1440 
 19 C        6.4040    -0.8440    -1.1280 C.ar  1 <1>  -0.1500 
 20 C        8.6800    -2.2290    -0.3660 C.ar  1 <1>  -0.1440 
 21 C        7.3370    -3.5640     1.3500 C.3   1 <1>  -0.0970 
 22 C        7.6110    -0.5630    -1.7320 C.ar  1 <1>  -0.1500 
 23 C        8.7450    -1.2560    -1.3520 C.ar  1 <1>  -0.1500 
 24 C        9.9640    -2.9620    -0.0020 C.3   1 <1>  -0.0970 
 25 H        0.4710    -2.1470    -1.2620 H     1 <1>   0.3700 
 26 H        2.8640     0.3670     1.3830 H     1 <1>   0.0800 
 27 H        3.8090     0.4020    -0.0670 H     1 <1>   0.0800 
 28 H        3.4580    -1.5220    -1.8040 H     1 <1>   0.0800 
 29 H        2.2860    -2.7490    -1.4350 H     1 <1>   0.0800 
 30 H        4.0260    -1.5800     2.1990 H     1 <1>   0.0800 
 31 H        5.2190    -0.4100     1.7180 H     1 <1>   0.0800 
 32 H        4.6330    -3.4990    -1.0590 H     1 <1>   0.0800 
 33 H        3.6380    -3.6200     0.3620 H     1 <1>   0.0800 
 34 H       -0.7810    -4.2940     0.0760 H     1 <1>   0.1500 
 35 H       -4.2330    -0.8230     0.4240 H     1 <1>   0.1500 
 36 H       -1.1930     0.4000    -0.9730 H     1 <1>   0.0800 
 37 H       -1.3150     0.6260     0.7570 H     1 <1>   0.0800 
 38 H       -2.7190     0.8440    -0.2580 H     1 <1>   0.0800 
 39 H       -3.1070    -4.9210     0.5510 H     1 <1>   0.1500 
 40 H       -4.8340    -3.1750     0.7250 H     1 <1>   0.1500 
 41 H        5.5240    -0.3110    -1.4270 H     1 <1>   0.1500 
 42 H        6.7270    -3.1890     2.1510 H     1 <1>   0.0800 
 43 H        8.2840    -3.8390     1.7710 H     1 <1>   0.0800 
 44 H        6.8680    -4.4430     0.9470 H     1 <1>   0.0800 
 45 H        7.6720     0.1910    -2.4970 H     1 <1>   0.1500 
 46 H        9.6800    -1.0290    -1.8320 H     1 <1>   0.1500 
 47 H        9.8180    -4.0240    -0.0790 H     1 <1>   0.0800 
 48 H       10.2540    -2.7150     1.0030 H     1 <1>   0.0800 
 49 H       10.7670    -2.6880    -0.6620 H     1 <1>   0.0800 
@<TRIPOS>BOND
  1   1   2  2   
  2   2   3  am  
  3   2   4  am  
  4   3   5  1   
  5   3   6  1   
  6   4   7  1   
  7   4  25  1   
  8   5   8  1   
  9   5  26  1   
 10   5  27  1   
 11   6   9  1   
 12   6  28  1   
 13   6  29  1   
 14   7  10  ar  
 15   7  11  ar  
 16   8  12  1   
 17   8  30  1   
 18   8  31  1   
 19   9  12  1   
 20   9  32  1   
 21   9  33  1   
 22  10  13  ar  
 23  10  14  1   
 24  11  15  ar  
 25  11  34  1   
 26  12  16  1   
 27  13  17  ar  
 28  13  35  1   
 29  14  36  1   
 30  14  37  1   
 31  14  38  1   
 32  15  17  ar  
 33  15  39  1   
 34  16  18  ar  
 35  16  19  ar  
 36  17  40  1   
 37  18  20  ar  
 38  18  21  1   
 39  19  22  ar  
 40  19  41  1   
 41  20  23  ar  
 42  20  24  1   
 43  21  42  1   
 44  21  43  1   
 45  21  44  1   
 46  22  23  ar  
 47  22  45  1   
 48  23  46  1   
 49  24  47  1   
 50  24  48  1   
 51  24  49  1   
@<TRIPOS>SUBSTRUCTURE
  1 ****   3 GROUP 4 **** **** 0

# MOE 2024.06 (io_trps.svl 2023.06)
