@<TRIPOS>MOLECULE
NONAME
44 45 1 0 0 
SMALL
USER_CHARGES


@<TRIPOS>ATOM
  1 O        0.4150    -0.1980     0.9670 O.3   1 <1>  -0.3630 
  2 C        1.5440    -0.7740     0.4850 C.ar  1 <1>   0.0830 
  3 C       -0.2170     0.8640     0.2880 C.3   1 <1>   0.0400 
  4 C        2.0600    -1.8350     1.2100 C.ar  1 <1>  -0.1500 
  5 C        2.1920    -0.3610    -0.6740 C.ar  1 <1>  -0.1500 
  6 C        3.2110    -2.4780     0.7920 C.ar  1 <1>  -0.1500 
  7 C        3.3440    -1.0040    -1.0920 C.ar  1 <1>  -0.1500 
  8 C        3.8630    -2.0620    -0.3590 C.ar  1 <1>  -0.1430 
  9 C        5.1390    -2.7490    -0.8030 C.3   1 <1>  -0.0170 
 10 C        6.3180    -2.0510    -0.1300 C.3   1 <1>   0.3430 
 11 N        7.6070    -2.6830    -0.5280 N.4   1 <1>  -0.9060 
 12 C        8.7840    -2.0700     0.1170 C.3   1 <1>   0.4230 
 13 C        9.0480    -0.6780    -0.4750 C.3   1 <1>  -0.1600 
 14 C        9.9840    -2.9960    -0.1030 C.3   1 <1>  -0.1600 
 15 C       10.3320    -0.0660     0.1050 C.3   1 <1>  -0.1600 
 16 C       11.2670    -2.3870     0.4810 C.3   1 <1>  -0.1600 
 17 C       11.5410    -0.9910    -0.1000 C.3   1 <1>  -0.0800 
 18 C       12.7910    -0.3830     0.5420 C.3   1 <1>  -0.2400 
 19 H       -1.0930     1.1420     0.8450 H     1 <1>   0.0800 
 20 H       -0.4990     0.5300    -0.6950 H     1 <1>   0.0800 
 21 H        0.4620     1.6960     0.2330 H     1 <1>   0.0800 
 22 H        1.5490    -2.1510     2.1020 H     1 <1>   0.1500 
 23 H        1.8130     0.4550    -1.2610 H     1 <1>   0.1500 
 24 H        3.5840    -3.3020     1.3760 H     1 <1>   0.1500 
 25 H        3.8260    -0.6690    -1.9940 H     1 <1>   0.1500 
 26 H        5.2240    -2.6850    -1.8740 H     1 <1>   0.0800 
 27 H        5.1010    -3.7860    -0.5190 H     1 <1>   0.0800 
 28 H        6.1950    -2.1070     0.9400 H     1 <1>   0.0800 
 29 H        6.3130    -1.0100    -0.4110 H     1 <1>   0.0800 
 30 H        7.7320    -2.6260    -1.5450 H     1 <1>   0.4500 
 31 H        7.5900    -3.6790    -0.2820 H     1 <1>   0.4500 
 32 H        8.6140    -1.9750     1.1790 H     1 <1>   0.0800 
 33 H        8.2320    -0.0140    -0.2530 H     1 <1>   0.0800 
 34 H        9.1550    -0.7470    -1.5440 H     1 <1>   0.0800 
 35 H       10.1360    -3.1610    -1.1560 H     1 <1>   0.0800 
 36 H        9.8100    -3.9450     0.3730 H     1 <1>   0.0800 
 37 H       10.1980     0.1220     1.1570 H     1 <1>   0.0800 
 38 H       10.5220     0.8820    -0.3720 H     1 <1>   0.0800 
 39 H       12.1010    -3.0350     0.2650 H     1 <1>   0.0800 
 40 H       11.1790    -2.3190     1.5530 H     1 <1>   0.0800 
 41 H       11.7260    -1.0890    -1.1590 H     1 <1>   0.0800 
 42 H       12.6600    -0.2640     1.6040 H     1 <1>   0.0800 
 43 H       13.0010     0.5820     0.1140 H     1 <1>   0.0800 
 44 H       13.6450    -1.0160     0.3730 H     1 <1>   0.0800 
@<TRIPOS>BOND
  1   1   2  1   
  2   1   3  1   
  3   2   4  ar  
  4   2   5  ar  
  5   3  19  1   
  6   3  20  1   
  7   3  21  1   
  8   4   6  ar  
  9   4  22  1   
 10   5   7  ar  
 11   5  23  1   
 12   6   8  ar  
 13   6  24  1   
 14   7   8  ar  
 15   7  25  1   
 16   8   9  1   
 17   9  10  1   
 18   9  26  1   
 19   9  27  1   
 20  10  11  1   
 21  10  28  1   
 22  10  29  1   
 23  11  12  1   
 24  11  30  1   
 25  11  31  1   
 26  12  13  1   
 27  12  14  1   
 28  12  32  1   
 29  13  15  1   
 30  13  33  1   
 31  13  34  1   
 32  14  16  1   
 33  14  35  1   
 34  14  36  1   
 35  15  17  1   
 36  15  37  1   
 37  15  38  1   
 38  16  17  1   
 39  16  39  1   
 40  16  40  1   
 41  17  18  1   
 42  17  41  1   
 43  18  42  1   
 44  18  43  1   
 45  18  44  1   
@<TRIPOS>SUBSTRUCTURE
  1 ****  10 GROUP 4 **** **** 0

# MOE 2024.06 (io_trps.svl 2023.06)
