@<TRIPOS>MOLECULE
NONAME
51 53 1 0 0 
SMALL
USER_CHARGES


@<TRIPOS>ATOM
  1 O       -1.4380     3.0050     0.4440 O.2   1 <1>  -0.5700 
  2 C       -0.3790     2.4270     0.4890 C.2   1 <1>   0.5690 
  3 N       -0.2230     1.2680     1.1890 N.am  1 <1>  -0.7300 
  4 C        0.8040     3.0020    -0.2760 C.3   1 <1>   0.0440 
  5 C       -1.1090     0.5950     2.1980 C.3   1 <1>   0.1400 
  6 C        1.9810     2.0340    -0.3410 C.ar  1 <1>  -0.1440 
  7 C       -2.6210     0.9200     2.1240 C.3   1 <1>   0.3430 
  8 C        2.9610     2.0550     0.6390 C.ar  1 <1>  -0.1500 
  9 C        2.0750     1.1100    -1.3690 C.ar  1 <1>  -0.1500 
 10 N       -3.1650     0.9030     0.7330 N.4   1 <1>  -0.9590 
 11 C        4.0130     1.1590     0.5920 C.ar  1 <1>  -0.1500 
 12 C        3.1290     0.2160    -1.4100 C.ar  1 <1>  -0.1500 
 13 C       -4.5650     1.4000     0.6810 C.3   1 <1>   0.3430 
 14 C       -2.9740    -0.3840     0.0080 C.3   1 <1>   0.3430 
 15 C        4.1160     0.2220    -0.4300 C.ar  1 <1>   0.0000 
 16 C       -4.9820     1.6020    -0.7760 C.3   1 <1>  -0.1600 
 17 C       -3.3690    -0.2090    -1.4590 C.3   1 <1>  -0.1600 
 18 C        5.2170    -0.7130    -0.4770 C.ar  1 <1>   0.0000 
 19 C       -4.8010     0.3230    -1.6050 C.3   1 <1>  -0.1600 
 20 C        6.0730    -0.7580    -1.5730 C.ar  1 <1>  -0.1500 
 21 C        5.4530    -1.5960     0.5740 C.ar  1 <1>  -0.1500 
 22 C        7.1270    -1.6530    -1.6220 C.ar  1 <1>  -0.1500 
 23 C        6.5050    -2.4930     0.5310 C.ar  1 <1>  -0.1500 
 24 C        7.3450    -2.5230    -0.5690 C.ar  1 <1>  -0.1500 
 25 H        0.7240     0.8650     1.1320 H     1 <1>   0.3700 
 26 H        1.1070     3.9150     0.2010 H     1 <1>   0.0800 
 27 H        0.4830     3.2500    -1.2710 H     1 <1>   0.0800 
 28 H       -0.7570     0.8530     3.1820 H     1 <1>   0.0800 
 29 H       -0.9870    -0.4690     2.0950 H     1 <1>   0.0800 
 30 H       -2.7650     1.9040     2.5380 H     1 <1>   0.0800 
 31 H       -3.1650     0.2230     2.7390 H     1 <1>   0.0800 
 32 H        2.9160     2.7710     1.4430 H     1 <1>   0.1500 
 33 H        1.3300     1.0800    -2.1460 H     1 <1>   0.1500 
 34 H       -2.5910     1.6220     0.2460 H     1 <1>   0.4500 
 35 H        4.7740     1.1860     1.3530 H     1 <1>   0.1500 
 36 H        3.1940    -0.4990    -2.2110 H     1 <1>   0.1500 
 37 H       -4.6400     2.3400     1.2060 H     1 <1>   0.0800 
 38 H       -5.2240     0.6890     1.1520 H     1 <1>   0.0800 
 39 H       -3.5840    -1.1510     0.4580 H     1 <1>   0.0800 
 40 H       -1.9410    -0.6900     0.0610 H     1 <1>   0.0800 
 41 H       -4.3990     2.4010    -1.2020 H     1 <1>   0.0800 
 42 H       -6.0140     1.9060    -0.8080 H     1 <1>   0.0800 
 43 H       -3.2870    -1.1560    -1.9620 H     1 <1>   0.0800 
 44 H       -2.6780     0.4680    -1.9320 H     1 <1>   0.0800 
 45 H       -5.0120     0.5270    -2.6420 H     1 <1>   0.0800 
 46 H       -5.5000    -0.4250    -1.2690 H     1 <1>   0.0800 
 47 H        5.9110    -0.0810    -2.3930 H     1 <1>   0.1500 
 48 H        4.8030    -1.5800     1.4300 H     1 <1>   0.1500 
 49 H        7.7780    -1.6730    -2.4790 H     1 <1>   0.1500 
 50 H        6.6720    -3.1680     1.3520 H     1 <1>   0.1500 
 51 H        8.1640    -3.2200    -0.6040 H     1 <1>   0.1500 
@<TRIPOS>BOND
  1   1   2  2   
  2   2   3  am  
  3   2   4  1   
  4   3   5  1   
  5   3  25  1   
  6   4   6  1   
  7   4  26  1   
  8   4  27  1   
  9   5   7  1   
 10   5  28  1   
 11   5  29  1   
 12   6   8  ar  
 13   6   9  ar  
 14   7  10  1   
 15   7  30  1   
 16   7  31  1   
 17   8  11  ar  
 18   8  32  1   
 19   9  12  ar  
 20   9  33  1   
 21  10  13  1   
 22  10  14  1   
 23  10  34  1   
 24  11  15  ar  
 25  11  35  1   
 26  12  15  ar  
 27  12  36  1   
 28  13  16  1   
 29  13  37  1   
 30  13  38  1   
 31  14  17  1   
 32  14  39  1   
 33  14  40  1   
 34  15  18  1   
 35  16  19  1   
 36  16  41  1   
 37  16  42  1   
 38  17  19  1   
 39  17  43  1   
 40  17  44  1   
 41  18  20  ar  
 42  18  21  ar  
 43  19  45  1   
 44  19  46  1   
 45  20  22  ar  
 46  20  47  1   
 47  21  23  ar  
 48  21  48  1   
 49  22  24  ar  
 50  22  49  1   
 51  23  24  ar  
 52  23  50  1   
 53  24  51  1   
@<TRIPOS>SUBSTRUCTURE
  1 ****   9 GROUP 4 **** **** 0

# MOE 2024.06 (io_trps.svl 2023.06)
