@<TRIPOS>MOLECULE
NONAME
33 34 1 0 0 
SMALL
USER_CHARGES


@<TRIPOS>ATOM
  1 CL       1.9210     4.7470     1.1260 Cl    1 <1>  -0.1770 
  2 C        0.6920     3.6090     0.6230 C.ar  1 <1>   0.1770 
  3 C        0.9890     2.5630    -0.2600 C.ar  1 <1>   0.0860 
  4 C       -0.5780     3.8080     1.1320 C.ar  1 <1>  -0.1500 
  5 C        2.3070     2.3150    -0.8080 C.2   1 <1>   0.5440 
  6 C       -0.0710     1.7250    -0.6210 C.ar  1 <1>  -0.1500 
  7 C       -1.5910     2.9510     0.7530 C.ar  1 <1>   0.1770 
  8 O        2.4200     1.9750    -1.9660 O.2   1 <1>  -0.5700 
  9 N        3.4300     2.4730    -0.0420 N.am  1 <1>  -0.4900 
 10 C       -1.3490     1.9100    -0.1230 C.ar  1 <1>  -0.1500 
 11 CL      -3.1960     3.1870     1.3860 Cl    1 <1>  -0.1770 
 12 C        4.6460     1.8850    -0.1760 C.2   1 <1>   0.6900 
 13 O        4.7740     0.7550    -0.5870 O.2   1 <1>  -0.5700 
 14 N        5.7400     2.5480     0.2420 N.am  1 <1>  -0.7300 
 15 C        5.9690     3.9880     0.1160 C.3   1 <1>   0.3150 
 16 C        7.2940     4.1630    -0.6430 C.3   1 <1>  -0.1950 
 17 C        5.9430     4.5870     1.5220 C.3   1 <1>  -0.2400 
 18 C        8.6420     3.9380    -0.0270 C.3   1 <1>  -0.2000 
 19 C        8.2280     5.3200    -0.4530 C.3   1 <1>  -0.2000 
 20 H       -0.7810     4.6180     1.8090 H     1 <1>   0.1500 
 21 H        0.1180     0.9150    -1.3090 H     1 <1>   0.1500 
 22 H        3.3710     3.1100     0.7420 H     1 <1>   0.3700 
 23 H       -2.1540     1.2550    -0.4090 H     1 <1>   0.1500 
 24 H        6.6000     2.0050     0.1520 H     1 <1>   0.3700 
 25 H        5.1810     4.4350    -0.4680 H     1 <1>   0.0800 
 26 H        7.1770     3.8340    -1.6630 H     1 <1>   0.1000 
 27 H        6.7200     4.1670     2.1340 H     1 <1>   0.0800 
 28 H        4.9940     4.3980     1.9880 H     1 <1>   0.0800 
 29 H        6.0790     5.6510     1.4720 H     1 <1>   0.0800 
 30 H        9.3900     3.4220    -0.6040 H     1 <1>   0.1000 
 31 H        8.7270     3.7330     1.0250 H     1 <1>   0.1000 
 32 H        8.0560     6.0510     0.3170 H     1 <1>   0.1000 
 33 H        8.6960     5.7500    -1.3220 H     1 <1>   0.1000 
@<TRIPOS>BOND
  1   1   2  1   
  2   2   3  ar  
  3   2   4  ar  
  4   3   5  1   
  5   3   6  ar  
  6   4   7  ar  
  7   4  20  1   
  8   5   8  2   
  9   5   9  am  
 10   6  10  ar  
 11   6  21  1   
 12   7  10  ar  
 13   7  11  1   
 14   9  12  am  
 15   9  22  1   
 16  10  23  1   
 17  12  13  2   
 18  12  14  am  
 19  14  15  1   
 20  14  24  1   
 21  15  16  1   
 22  15  17  1   
 23  15  25  1   
 24  16  18  1   
 25  16  19  1   
 26  16  26  1   
 27  17  27  1   
 28  17  28  1   
 29  17  29  1   
 30  18  19  1   
 31  18  30  1   
 32  18  31  1   
 33  19  32  1   
 34  19  33  1   
@<TRIPOS>SUBSTRUCTURE
  1 ****   9 GROUP 4 **** **** 0

# MOE 2024.06 (io_trps.svl 2023.06)
