@<TRIPOS>MOLECULE
NONAME
43 44 1 0 0 
SMALL
USER_CHARGES


@<TRIPOS>ATOM
  1 CL       0.7440     0.7830    -2.4270 Cl    1 <1>  -0.1770 
  2 C        0.2440     2.1110    -1.3980 C.ar  1 <1>   0.1770 
  3 C        1.1190     2.6300    -0.4520 C.ar  1 <1>   0.0830 
  4 C       -1.0310     2.6160    -1.5600 C.ar  1 <1>  -0.1500 
  5 O        2.3620     2.0760    -0.3540 O.3   1 <1>  -0.3630 
  6 C        0.6880     3.6860     0.3460 C.ar  1 <1>  -0.1500 
  7 C       -1.4690     3.6690    -0.7660 C.ar  1 <1>   0.1170 
  8 C        3.3120     2.5400     0.5800 C.3   1 <1>   0.0400 
  9 C       -0.5960     4.2020     0.1920 C.ar  1 <1>   0.0830 
 10 N       -2.7540     4.2340    -0.8750 N.am  1 <1>  -0.5470 
 11 O       -1.0710     5.2390     0.9480 O.3   1 <1>  -0.3630 
 12 C       -3.8510     3.9300    -1.6280 C.2   1 <1>   0.5690 
 13 C       -0.2860     5.8420     1.9550 C.3   1 <1>   0.0400 
 14 O       -3.8980     3.0240    -2.4210 O.2   1 <1>  -0.5700 
 15 C       -5.0830     4.7960    -1.4440 C.3   1 <1>  -0.0990 
 16 C       -5.8060     4.4990    -0.1180 C.3   1 <1>  -0.1600 
 17 C       -7.0260     5.4090     0.1010 C.3   1 <1>  -0.0800 
 18 C       -7.7210     5.1410     1.4320 C.3   1 <1>  -0.1600 
 19 C       -8.1420     5.2180    -0.9260 C.3   1 <1>  -0.1600 
 20 C       -9.1190     5.7350     1.2660 C.3   1 <1>  -0.1600 
 21 C       -9.4170     5.7120    -0.2380 C.3   1 <1>  -0.1600 
 22 H       -1.6660     2.1790    -2.3060 H     1 <1>   0.1500 
 23 H        1.3490     4.0980     1.0790 H     1 <1>   0.1500 
 24 H        4.2040     1.9510     0.4660 H     1 <1>   0.0800 
 25 H        2.9170     2.4160     1.5720 H     1 <1>   0.0800 
 26 H        3.5290     3.5730     0.3740 H     1 <1>   0.0800 
 27 H       -2.8740     5.0130    -0.2250 H     1 <1>   0.3700 
 28 H       -0.8700     6.6200     2.4140 H     1 <1>   0.0800 
 29 H        0.5950     6.2660     1.5060 H     1 <1>   0.0800 
 30 H       -0.0280     5.1000     2.6900 H     1 <1>   0.0800 
 31 H       -5.7470     4.6120    -2.2690 H     1 <1>   0.0800 
 32 H       -4.7900     5.8290    -1.4820 H     1 <1>   0.0800 
 33 H       -5.1220     4.6380     0.7010 H     1 <1>   0.0800 
 34 H       -6.1160     3.4680    -0.1110 H     1 <1>   0.0800 
 35 H       -6.7170     6.4410     0.0850 H     1 <1>   0.0800 
 36 H       -7.1940     5.5800     2.2610 H     1 <1>   0.0800 
 37 H       -7.8080     4.0790     1.5910 H     1 <1>   0.0800 
 38 H       -8.2500     4.1710    -1.1540 H     1 <1>   0.0800 
 39 H       -7.9480     5.7570    -1.8370 H     1 <1>   0.0800 
 40 H       -9.1210     6.7540     1.6150 H     1 <1>   0.0800 
 41 H       -9.8490     5.1750     1.8240 H     1 <1>   0.0800 
 42 H      -10.2430     5.0590    -0.4600 H     1 <1>   0.0800 
 43 H       -9.6590     6.7050    -0.5740 H     1 <1>   0.0800 
@<TRIPOS>BOND
  1   1   2  1   
  2   2   3  ar  
  3   2   4  ar  
  4   3   5  1   
  5   3   6  ar  
  6   4   7  ar  
  7   4  22  1   
  8   5   8  1   
  9   6   9  ar  
 10   6  23  1   
 11   7   9  ar  
 12   7  10  1   
 13   8  24  1   
 14   8  25  1   
 15   8  26  1   
 16   9  11  1   
 17  10  12  am  
 18  10  27  1   
 19  11  13  1   
 20  12  14  2   
 21  12  15  1   
 22  13  28  1   
 23  13  29  1   
 24  13  30  1   
 25  15  16  1   
 26  15  31  1   
 27  15  32  1   
 28  16  17  1   
 29  16  33  1   
 30  16  34  1   
 31  17  18  1   
 32  17  19  1   
 33  17  35  1   
 34  18  20  1   
 35  18  36  1   
 36  18  37  1   
 37  19  21  1   
 38  19  38  1   
 39  19  39  1   
 40  20  21  1   
 41  20  40  1   
 42  20  41  1   
 43  21  42  1   
 44  21  43  1   
@<TRIPOS>SUBSTRUCTURE
  1 ****  10 GROUP 4 **** **** 0

# MOE 2024.06 (io_trps.svl 2023.06)
