@<TRIPOS>MOLECULE
NONAME
50 52 1 0 0 
SMALL
USER_CHARGES


@<TRIPOS>ATOM
  1 O        0.1180     1.1540    -1.6590 O.2   1 <1>  -0.5700 
  2 C        0.1130     1.9370    -0.7270 C.2   1 <1>   0.5440 
  3 N        1.2950     2.2000    -0.0600 N.am  1 <1>  -0.6600 
  4 C       -1.1360     2.5720    -0.3530 C.ar  1 <1>   0.0860 
  5 C        2.5370     1.4270    -0.3430 C.3   1 <1>   0.1400 
  6 C        1.4780     3.3490     0.8700 C.3   1 <1>   0.1400 
  7 C       -1.6780     2.4170     0.9230 C.ar  1 <1>  -0.1500 
  8 C       -1.8390     3.3590    -1.2640 C.ar  1 <1>  -0.1500 
  9 C        3.6130     2.3610    -0.9030 C.3   1 <1>  -0.1600 
 10 C        2.5520     4.2910     0.3210 C.3   1 <1>  -0.1600 
 11 C       -2.8630     3.0350     1.2800 C.ar  1 <1>  -0.1500 
 12 C       -3.0240     3.9800    -0.9130 C.ar  1 <1>  -0.1500 
 13 C        3.8750     3.5510     0.0380 C.3   1 <1>  -0.0190 
 14 C       -3.5370     3.8200     0.3620 C.ar  1 <1>  -0.1500 
 15 C        4.9650     4.4650    -0.5250 C.2   1 <1>   0.5690 
 16 O        4.6550     5.4690    -1.1200 O.2   1 <1>  -0.5700 
 17 N        6.2590     4.0770    -0.3190 N.am  1 <1>  -0.5470 
 18 C        7.5060     4.6230    -0.6740 C.ar  1 <1>   0.1170 
 19 C        8.6540     3.9030    -0.3210 C.ar  1 <1>   0.0830 
 20 C        7.6530     5.8290    -1.3500 C.ar  1 <1>  -0.1500 
 21 O        8.4670     2.7220     0.3430 O.3   1 <1>  -0.3630 
 22 C        9.9150     4.3970    -0.6470 C.ar  1 <1>  -0.1500 
 23 C        8.9080     6.3140    -1.6710 C.ar  1 <1>  -0.1500 
 24 C        9.5580     1.9160     0.7250 C.3   1 <1>   0.1200 
 25 C       10.0390     5.5990    -1.3200 C.ar  1 <1>  -0.1500 
 26 C        9.0070     0.6790     1.4260 C.3   1 <1>  -0.2400 
 27 H        2.3450     0.6360    -1.0490 H     1 <1>   0.0800 
 28 H        2.8810     0.9740     0.5700 H     1 <1>   0.0800 
 29 H        1.7740     2.9750     1.8350 H     1 <1>   0.0800 
 30 H        0.5620     3.9000     0.9910 H     1 <1>   0.0800 
 31 H       -1.1600     1.8010     1.6360 H     1 <1>   0.1500 
 32 H       -1.4430     3.4770    -2.2580 H     1 <1>   0.1500 
 33 H        3.2900     2.7230    -1.8650 H     1 <1>   0.0800 
 34 H        4.5190     1.8020    -1.0540 H     1 <1>   0.0800 
 35 H        2.7260     5.0840     1.0260 H     1 <1>   0.0800 
 36 H        2.1840     4.7390    -0.5870 H     1 <1>   0.0800 
 37 H       -3.2650     2.9030     2.2710 H     1 <1>   0.1500 
 38 H       -3.5490     4.5850    -1.6330 H     1 <1>   0.1500 
 39 H        4.2340     3.1640     0.9750 H     1 <1>   0.0800 
 40 H       -4.4600     4.3020     0.6370 H     1 <1>   0.1500 
 41 H        6.3820     3.1950     0.1790 H     1 <1>   0.3700 
 42 H        6.7900     6.4010    -1.6330 H     1 <1>   0.1500 
 43 H       10.8110     3.8670    -0.3880 H     1 <1>   0.1500 
 44 H        9.0020     7.2500    -2.1950 H     1 <1>   0.1500 
 45 H       10.1850     2.4840     1.3910 H     1 <1>   0.0800 
 46 H       10.1050     1.6400    -0.1600 H     1 <1>   0.0800 
 47 H       11.0140     5.9800    -1.5720 H     1 <1>   0.1500 
 48 H        8.4520     0.9650     2.3010 H     1 <1>   0.0800 
 49 H        9.8190     0.0420     1.7290 H     1 <1>   0.0800 
 50 H        8.3700     0.1270     0.7580 H     1 <1>   0.0800 
@<TRIPOS>BOND
  1   1   2  2   
  2   2   3  am  
  3   2   4  1   
  4   3   5  1   
  5   3   6  1   
  6   4   7  ar  
  7   4   8  ar  
  8   5   9  1   
  9   5  27  1   
 10   5  28  1   
 11   6  10  1   
 12   6  29  1   
 13   6  30  1   
 14   7  11  ar  
 15   7  31  1   
 16   8  12  ar  
 17   8  32  1   
 18   9  13  1   
 19   9  33  1   
 20   9  34  1   
 21  10  13  1   
 22  10  35  1   
 23  10  36  1   
 24  11  14  ar  
 25  11  37  1   
 26  12  14  ar  
 27  12  38  1   
 28  13  15  1   
 29  13  39  1   
 30  14  40  1   
 31  15  16  2   
 32  15  17  am  
 33  17  18  1   
 34  17  41  1   
 35  18  19  ar  
 36  18  20  ar  
 37  19  21  1   
 38  19  22  ar  
 39  20  23  ar  
 40  20  42  1   
 41  21  24  1   
 42  22  25  ar  
 43  22  43  1   
 44  23  25  ar  
 45  23  44  1   
 46  24  26  1   
 47  24  45  1   
 48  24  46  1   
 49  25  47  1   
 50  26  48  1   
 51  26  49  1   
 52  26  50  1   
@<TRIPOS>SUBSTRUCTURE
  1 ****  13 GROUP 4 **** **** 0

# MOE 2024.06 (io_trps.svl 2023.06)
