@<TRIPOS>MOLECULE
NONAME
34 35 1 0 0 
SMALL
USER_CHARGES


@<TRIPOS>ATOM
  1 F        0.4170    -0.2620     0.9810 F     1 <1>  -0.1900 
  2 C        1.4580    -0.9090     0.5290 C.ar  1 <1>   0.1900 
  3 C        2.7180    -0.4490     0.8550 C.ar  1 <1>  -0.1500 
  4 C        1.2540    -2.0270    -0.2560 C.ar  1 <1>  -0.1500 
  5 C        3.8340    -1.1260     0.3800 C.ar  1 <1>   0.1170 
  6 C        2.3630    -2.7070    -0.7290 C.ar  1 <1>  -0.1500 
  7 N        5.1080    -0.6560     0.7300 N.am  1 <1>  -0.5470 
  8 C        3.6360    -2.2590    -0.4100 C.ar  1 <1>  -0.1500 
  9 C        6.3140    -0.8010     0.1100 C.2   1 <1>   0.6900 
 10 O        6.4200    -1.3240    -0.9810 O.2   1 <1>  -0.5700 
 11 N        7.4050    -0.3250     0.7560 N.am  1 <1>  -0.7300 
 12 C        8.7800    -0.3710     0.2350 C.3   1 <1>   0.2200 
 13 C        9.5910    -1.3760     1.0600 C.3   1 <1>  -0.1600 
 14 C        9.3870     1.0330     0.3150 C.3   1 <1>  -0.1600 
 15 C       11.0650    -1.3870     0.6300 C.3   1 <1>  -0.1600 
 16 C       10.8610     1.0260    -0.1180 C.3   1 <1>  -0.1600 
 17 C       11.6760     0.0190     0.7050 C.3   1 <1>  -0.1600 
 18 H        2.8200     0.4270     1.4660 H     1 <1>   0.1500 
 19 H        0.2560    -2.3530    -0.4880 H     1 <1>   0.1500 
 20 H        2.2400    -3.5820    -1.3430 H     1 <1>   0.1500 
 21 H        5.1320    -0.0120     1.5120 H     1 <1>   0.3700 
 22 H        4.4860    -2.8020    -0.7820 H     1 <1>   0.1500 
 23 H        7.3270    -0.0300     1.7240 H     1 <1>   0.3700 
 24 H        8.7710    -0.6900    -0.7960 H     1 <1>   0.0800 
 25 H        9.1750    -2.3590     0.9270 H     1 <1>   0.0800 
 26 H        9.5330    -1.1180     2.1030 H     1 <1>   0.0800 
 27 H        9.3220     1.3990     1.3240 H     1 <1>   0.0800 
 28 H        8.8330     1.6960    -0.3270 H     1 <1>   0.0800 
 29 H       11.1360    -1.7520    -0.3810 H     1 <1>   0.0800 
 30 H       11.6210    -2.0580     1.2620 H     1 <1>   0.0800 
 31 H       11.2780     2.0120     0.0020 H     1 <1>   0.0800 
 32 H       10.9240     0.7670    -1.1610 H     1 <1>   0.0800 
 33 H       12.6880    -0.0090     0.3390 H     1 <1>   0.0800 
 34 H       11.7070     0.3400     1.7330 H     1 <1>   0.0800 
@<TRIPOS>BOND
  1   1   2  1   
  2   2   3  ar  
  3   2   4  ar  
  4   3   5  ar  
  5   3  18  1   
  6   4   6  ar  
  7   4  19  1   
  8   5   7  1   
  9   5   8  ar  
 10   6   8  ar  
 11   6  20  1   
 12   7   9  am  
 13   7  21  1   
 14   8  22  1   
 15   9  10  2   
 16   9  11  am  
 17  11  12  1   
 18  11  23  1   
 19  12  13  1   
 20  12  14  1   
 21  12  24  1   
 22  13  15  1   
 23  13  25  1   
 24  13  26  1   
 25  14  16  1   
 26  14  27  1   
 27  14  28  1   
 28  15  17  1   
 29  15  29  1   
 30  15  30  1   
 31  16  17  1   
 32  16  31  1   
 33  16  32  1   
 34  17  33  1   
 35  17  34  1   
@<TRIPOS>SUBSTRUCTURE
  1 ****   9 GROUP 4 **** **** 0

# MOE 2024.06 (io_trps.svl 2023.06)
