@<TRIPOS>MOLECULE
NONAME
38 39 1 0 0 
SMALL
USER_CHARGES


@<TRIPOS>ATOM
  1 O       -5.5730     2.7750     0.1620 O.3   1 <1>  -0.3630 
  2 C       -4.3280     2.2900    -0.0740 C.ar  1 <1>   0.0830 
  3 C       -6.7450     2.0510    -0.1400 C.3   1 <1>   0.1200 
  4 C       -3.2430     3.0830     0.3060 C.ar  1 <1>   0.0730 
  5 C       -4.1090     1.0500    -0.6710 C.ar  1 <1>  -0.1500 
  6 C       -7.9410     2.9220     0.2500 C.3   1 <1>   0.1100 
  7 C       -3.4390     4.3640     0.9230 C.1   1 <1>   0.4840 
  8 C       -1.9550     2.6110     0.0780 C.ar  1 <1>  -0.1500 
  9 C       -2.8200     0.5990    -0.8890 C.ar  1 <1>  -0.1500 
 10 N       -9.2300     2.2490    -0.0250 N.3   1 <1>  -0.8100 
 11 N       -3.5680     5.3840     1.4170 N.1   1 <1>  -0.5570 
 12 C       -1.7420     1.3790    -0.5140 C.ar  1 <1>  -0.1500 
 13 C       -9.5380     1.1940     0.9770 C.3   1 <1>   0.1100 
 14 C      -10.3310     3.2430    -0.0690 C.3   1 <1>   0.1100 
 15 C      -10.9260     0.5410     0.7530 C.3   1 <1>   0.3430 
 16 C      -11.7100     2.5980    -0.3550 C.3   1 <1>   0.3430 
 17 N      -11.6010     1.1050    -0.4610 N.4   1 <1>  -0.9590 
 18 C      -12.8950     0.4390    -0.7870 C.3   1 <1>   0.2630 
 19 H       -6.7250     1.1380     0.4250 H     1 <1>   0.0800 
 20 H       -6.7590     1.8510    -1.1970 H     1 <1>   0.0800 
 21 H       -4.9240     0.4210    -0.9750 H     1 <1>   0.1500 
 22 H       -7.8820     3.8280    -0.3310 H     1 <1>   0.0800 
 23 H       -7.8750     3.1850     1.2930 H     1 <1>   0.0800 
 24 H       -1.1090     3.2120     0.3670 H     1 <1>   0.1500 
 25 H       -2.6530    -0.3600    -1.3510 H     1 <1>   0.1500 
 26 H       -0.7380     1.0270    -0.6840 H     1 <1>   0.1500 
 27 H       -9.5060     1.6120     1.9700 H     1 <1>   0.0800 
 28 H       -8.7880     0.4230     0.9310 H     1 <1>   0.0800 
 29 H      -10.1260     3.9680    -0.8400 H     1 <1>   0.0800 
 30 H      -10.3790     3.7760     0.8660 H     1 <1>   0.0800 
 31 H      -11.5380     0.7060     1.6240 H     1 <1>   0.0800 
 32 H      -10.7960    -0.5230     0.6410 H     1 <1>   0.0800 
 33 H      -12.0990     3.0020    -1.2750 H     1 <1>   0.0800 
 34 H      -12.3940     2.8630     0.4340 H     1 <1>   0.0800 
 35 H      -10.9130     0.9620    -1.2190 H     1 <1>   0.4500 
 36 H      -13.6070     0.5940     0.0080 H     1 <1>   0.0800 
 37 H      -12.7470    -0.6210    -0.9160 H     1 <1>   0.0800 
 38 H      -13.3030     0.8410    -1.7000 H     1 <1>   0.0800 
@<TRIPOS>BOND
  1   1   2  1   
  2   1   3  1   
  3   2   4  ar  
  4   2   5  ar  
  5   3   6  1   
  6   3  19  1   
  7   3  20  1   
  8   4   7  1   
  9   4   8  ar  
 10   5   9  ar  
 11   5  21  1   
 12   6  10  1   
 13   6  22  1   
 14   6  23  1   
 15   7  11  3   
 16   8  12  ar  
 17   8  24  1   
 18   9  12  ar  
 19   9  25  1   
 20  10  13  1   
 21  10  14  1   
 22  12  26  1   
 23  13  15  1   
 24  13  27  1   
 25  13  28  1   
 26  14  16  1   
 27  14  29  1   
 28  14  30  1   
 29  15  17  1   
 30  15  31  1   
 31  15  32  1   
 32  16  17  1   
 33  16  33  1   
 34  16  34  1   
 35  17  18  1   
 36  17  35  1   
 37  18  36  1   
 38  18  37  1   
 39  18  38  1   
@<TRIPOS>SUBSTRUCTURE
  1 ****   3 GROUP 4 **** **** 0

# MOE 2024.06 (io_trps.svl 2023.06)
