@<TRIPOS>MOLECULE
NONAME
38 39 1 0 0 
SMALL
USER_CHARGES


@<TRIPOS>ATOM
  1 CL      -1.8740     1.4430    -3.0470 Cl    1 <1>  -0.1770 
  2 C       -2.3140     1.2390    -1.3650 C.ar  1 <1>   0.1770 
  3 C       -1.6520     1.9520    -0.3730 C.ar  1 <1>   0.0820 
  4 C       -3.3330     0.3580    -1.0630 C.ar  1 <1>  -0.1500 
  5 O       -0.6600     2.8050    -0.7390 O.3   1 <1>  -0.3630 
  6 C       -2.0420     1.7560     0.9490 C.ar  1 <1>  -0.1500 
  7 C       -3.7320     0.1600     0.2530 C.ar  1 <1>  -0.0090 
  8 C        0.0720     3.5480     0.2110 C.3   1 <1>   0.0400 
  9 C       -3.0670     0.8720     1.2480 C.ar  1 <1>  -0.1500 
 10 S       -5.0850    -0.9820     0.6470 S.o2  1 <1>   1.4470 
 11 O       -5.4920    -0.8170     2.0260 O.2   1 <1>  -0.6500 
 12 O       -4.7410    -2.3000     0.1600 O.2   1 <1>  -0.6500 
 13 N       -6.3570    -0.4080    -0.3150 N.am  1 <1>  -0.8490 
 14 C       -6.8560     0.8970     0.1490 C.3   1 <1>   0.1960 
 15 C       -7.4500    -1.3830    -0.3770 C.3   1 <1>   0.1960 
 16 C       -7.8760     1.4630    -0.8490 C.3   1 <1>  -0.0190 
 17 C       -8.5230    -0.9160    -1.3690 C.3   1 <1>  -0.1600 
 18 C       -8.3540     2.8350    -0.4000 C.2   1 <1>   0.5690 
 19 C       -9.0510     0.4830    -1.0210 C.3   1 <1>  -0.1600 
 20 O       -8.4810     3.0840     0.7710 O.2   1 <1>  -0.5700 
 21 N       -8.6400     3.7740    -1.3190 N.am  1 <1>  -0.8000 
 22 H       -3.8220    -0.1790    -1.8570 H     1 <1>   0.1500 
 23 H       -1.5640     2.2800     1.7560 H     1 <1>   0.1500 
 24 H        0.7990     4.1380    -0.3170 H     1 <1>   0.0800 
 25 H        0.5700     2.8680     0.8790 H     1 <1>   0.0800 
 26 H       -0.6020     4.1940     0.7460 H     1 <1>   0.0800 
 27 H       -3.3590     0.7330     2.2760 H     1 <1>   0.1500 
 28 H       -6.0390     1.5930     0.2390 H     1 <1>   0.0800 
 29 H       -7.3120     0.7940     1.1210 H     1 <1>   0.0800 
 30 H       -7.8810    -1.5120     0.6030 H     1 <1>   0.0800 
 31 H       -7.0710    -2.3370    -0.7040 H     1 <1>   0.0800 
 32 H       -7.3750     1.5790    -1.7930 H     1 <1>   0.0800 
 33 H       -9.3360    -1.6200    -1.3690 H     1 <1>   0.0800 
 34 H       -8.0970    -0.9100    -2.3570 H     1 <1>   0.0800 
 35 H       -9.7130     0.8300    -1.7950 H     1 <1>   0.0800 
 36 H       -9.6090     0.4350    -0.1010 H     1 <1>   0.0800 
 37 H       -8.9640     4.6910    -1.0070 H     1 <1>   0.3700 
 38 H       -8.5680     3.6360    -2.3270 H     1 <1>   0.3700 
@<TRIPOS>BOND
  1   1   2  1   
  2   2   3  ar  
  3   2   4  ar  
  4   3   5  1   
  5   3   6  ar  
  6   4   7  ar  
  7   4  22  1   
  8   5   8  1   
  9   6   9  ar  
 10   6  23  1   
 11   7   9  ar  
 12   7  10  1   
 13   8  24  1   
 14   8  25  1   
 15   8  26  1   
 16   9  27  1   
 17  10  11  2   
 18  10  12  2   
 19  10  13  am  
 20  13  14  1   
 21  13  15  1   
 22  14  16  1   
 23  14  28  1   
 24  14  29  1   
 25  15  17  1   
 26  15  30  1   
 27  15  31  1   
 28  16  18  1   
 29  16  19  1   
 30  16  32  1   
 31  17  19  1   
 32  17  33  1   
 33  17  34  1   
 34  18  20  2   
 35  18  21  am  
 36  19  35  1   
 37  19  36  1   
 38  21  37  1   
 39  21  38  1   
@<TRIPOS>SUBSTRUCTURE
  1 ****   7 GROUP 4 **** **** 0

# MOE 2024.06 (io_trps.svl 2023.06)
