@<TRIPOS>MOLECULE
NONAME
47 49 1 0 0 
SMALL
USER_CHARGES


@<TRIPOS>ATOM
  1 O       -0.4320     0.4160     1.5400 O.2   1 <1>  -0.5700 
  2 C       -0.6420     1.3180     0.7530 C.2   1 <1>   0.5440 
  3 N        0.3640     1.9730     0.0780 N.am  1 <1>  -0.4770 
  4 C       -1.9190     1.8360     0.3560 C.ar  1 <1>   0.0860 
  5 C        1.7350     1.6680     0.0400 C.ar  1 <1>   0.1170 
  6 C       -0.2250     2.9650    -0.8540 C.3   1 <1>   0.2840 
  7 C       -3.2230     1.5370     0.7500 C.ar  1 <1>   0.0830 
  8 C       -1.7130     2.8070    -0.6080 C.ar  1 <1>  -0.1440 
  9 C        2.6830     2.6780     0.1510 C.ar  1 <1>  -0.1500 
 10 C        2.1660     0.3590    -0.1250 C.ar  1 <1>  -0.1500 
 11 O       -3.4490     0.6300     1.7240 O.3   1 <1>  -0.3630 
 12 C       -4.2990     2.2060     0.1560 C.ar  1 <1>   0.0830 
 13 C       -2.7610     3.4810    -1.2020 C.ar  1 <1>  -0.1500 
 14 C        4.0440     2.3930     0.0930 C.ar  1 <1>   0.0830 
 15 C        3.5120     0.0520    -0.2060 C.ar  1 <1>   0.0830 
 16 C       -3.4760    -0.7230     1.3370 C.3   1 <1>   0.0400 
 17 O       -5.5580     1.8710     0.5590 O.3   1 <1>  -0.3630 
 18 C       -4.0580     3.1740    -0.8180 C.ar  1 <1>  -0.1500 
 19 O        5.0010     3.3600     0.2090 O.3   1 <1>  -0.3630 
 20 C        4.4620     1.0720    -0.0820 C.ar  1 <1>   0.0830 
 21 O        3.8200    -1.2600    -0.3990 O.3   1 <1>  -0.3630 
 22 C       -6.6890     2.6040     0.1480 C.3   1 <1>   0.0400 
 23 C        4.6710     4.7030     0.4850 C.3   1 <1>   0.0400 
 24 O        5.7960     0.7930    -0.1150 O.3   1 <1>  -0.3630 
 25 C        4.7720    -1.5970    -1.3850 C.3   1 <1>   0.0400 
 26 C        6.3810     0.5930     1.1500 C.3   1 <1>   0.0400 
 27 H        0.0330     2.7210    -1.8700 H     1 <1>   0.0800 
 28 H        0.1060     3.9580    -0.6050 H     1 <1>   0.0800 
 29 H        2.3360     3.6800     0.2920 H     1 <1>   0.1500 
 30 H        1.4450    -0.4340    -0.1950 H     1 <1>   0.1500 
 31 H       -2.5830     4.2320    -1.9520 H     1 <1>   0.1500 
 32 H       -3.6710    -1.3170     2.2120 H     1 <1>   0.0800 
 33 H       -2.5220    -0.9900     0.9200 H     1 <1>   0.0800 
 34 H       -4.2600    -0.8600     0.6130 H     1 <1>   0.0800 
 35 H       -4.8660     3.7000    -1.2910 H     1 <1>   0.1500 
 36 H       -7.5490     2.1980     0.6510 H     1 <1>   0.0800 
 37 H       -6.8070     2.5010    -0.9150 H     1 <1>   0.0800 
 38 H       -6.5570     3.6350     0.4270 H     1 <1>   0.0800 
 39 H        5.5870     5.2590     0.5700 H     1 <1>   0.0800 
 40 H        4.1300     4.7460     1.4140 H     1 <1>   0.0800 
 41 H        4.0830     5.0920    -0.3270 H     1 <1>   0.0800 
 42 H        5.7560    -1.5240    -0.9610 H     1 <1>   0.0800 
 43 H        4.5860    -2.6090    -1.6970 H     1 <1>   0.0800 
 44 H        4.6690    -0.9280    -2.2210 H     1 <1>   0.0800 
 45 H        7.4210     0.3640     1.0070 H     1 <1>   0.0800 
 46 H        6.2770     1.4940     1.7280 H     1 <1>   0.0800 
 47 H        5.8830    -0.2270     1.6370 H     1 <1>   0.0800 
@<TRIPOS>BOND
  1   1   2  2   
  2   2   3  am  
  3   2   4  1   
  4   3   5  1   
  5   3   6  1   
  6   4   7  ar  
  7   4   8  ar  
  8   5   9  ar  
  9   5  10  ar  
 10   6   8  1   
 11   6  27  1   
 12   6  28  1   
 13   7  11  1   
 14   7  12  ar  
 15   8  13  ar  
 16   9  14  ar  
 17   9  29  1   
 18  10  15  ar  
 19  10  30  1   
 20  11  16  1   
 21  12  17  1   
 22  12  18  ar  
 23  13  18  ar  
 24  13  31  1   
 25  14  19  1   
 26  14  20  ar  
 27  15  20  ar  
 28  15  21  1   
 29  16  32  1   
 30  16  33  1   
 31  16  34  1   
 32  17  22  1   
 33  18  35  1   
 34  19  23  1   
 35  20  24  1   
 36  21  25  1   
 37  22  36  1   
 38  22  37  1   
 39  22  38  1   
 40  23  39  1   
 41  23  40  1   
 42  23  41  1   
 43  24  26  1   
 44  25  42  1   
 45  25  43  1   
 46  25  44  1   
 47  26  45  1   
 48  26  46  1   
 49  26  47  1   
@<TRIPOS>SUBSTRUCTURE
  1 ****   3 GROUP 4 **** **** 0

# MOE 2024.06 (io_trps.svl 2023.06)
