@<TRIPOS>MOLECULE
NONAME
31 31 1 0 0 
SMALL
USER_CHARGES


@<TRIPOS>ATOM
  1 CL       0.5200     0.5510    -0.7970 Cl    1 <1>  -0.1770 
  2 C       -1.1510     1.0420    -0.5960 C.ar  1 <1>   0.1770 
  3 C       -2.0980     0.1390    -0.1280 C.ar  1 <1>   0.0820 
  4 C       -1.4870     2.3420    -0.9150 C.ar  1 <1>  -0.1500 
  5 O       -1.6910    -1.1290     0.1660 O.3   1 <1>  -0.3630 
  6 C       -3.4130     0.5700     0.0170 C.ar  1 <1>  -0.1500 
  7 C       -2.8040     2.7640    -0.7670 C.ar  1 <1>   0.0830 
  8 C       -2.6000    -2.0960     0.6450 C.3   1 <1>   0.0400 
  9 C       -3.7790     1.8750    -0.2970 C.ar  1 <1>   0.1170 
 10 O       -3.2070     4.0380    -1.0630 O.3   1 <1>  -0.3630 
 11 N       -5.1000     2.3470    -0.1640 N.am  1 <1>  -0.5470 
 12 C       -2.2950     5.0020    -1.5420 C.3   1 <1>   0.0400 
 13 C       -6.2790     1.7940     0.2480 C.2   1 <1>   0.5690 
 14 O       -6.3990     0.6490     0.6160 O.2   1 <1>  -0.5700 
 15 C       -7.5190     2.6860     0.2390 C.3   1 <1>   0.1810 
 16 O       -7.2260     3.9880    -0.2120 O.3   1 <1>  -0.5600 
 17 C       -8.3280     4.8370    -0.2370 C.3   1 <1>   0.0400 
 18 H       -0.7120     2.9910    -1.2700 H     1 <1>   0.1500 
 19 H       -4.1640    -0.1030     0.3740 H     1 <1>   0.1500 
 20 H       -2.0600    -3.0110     0.8060 H     1 <1>   0.0800 
 21 H       -3.3680    -2.2500    -0.0920 H     1 <1>   0.0800 
 22 H       -3.0210    -1.7520     1.5730 H     1 <1>   0.0800 
 23 H       -5.2050     3.3320    -0.4370 H     1 <1>   0.3700 
 24 H       -2.8330     5.9190    -1.7040 H     1 <1>   0.0800 
 25 H       -1.8750     4.6580    -2.4700 H     1 <1>   0.0800 
 26 H       -1.5280     5.1560    -0.8030 H     1 <1>   0.0800 
 27 H       -7.9120     2.7470     1.2380 H     1 <1>   0.0800 
 28 H       -8.2560     2.2530    -0.4120 H     1 <1>   0.0800 
 29 H       -8.0030     5.7990    -0.5930 H     1 <1>   0.0800 
 30 H       -8.7250     4.9360     0.7590 H     1 <1>   0.0800 
 31 H       -9.0720     4.4370    -0.9050 H     1 <1>   0.0800 
@<TRIPOS>BOND
  1   1   2  1   
  2   2   3  ar  
  3   2   4  ar  
  4   3   5  1   
  5   3   6  ar  
  6   4   7  ar  
  7   4  18  1   
  8   5   8  1   
  9   6   9  ar  
 10   6  19  1   
 11   7   9  ar  
 12   7  10  1   
 13   8  20  1   
 14   8  21  1   
 15   8  22  1   
 16   9  11  1   
 17  10  12  1   
 18  11  13  am  
 19  11  23  1   
 20  12  24  1   
 21  12  25  1   
 22  12  26  1   
 23  13  14  2   
 24  13  15  1   
 25  15  16  1   
 26  15  27  1   
 27  15  28  1   
 28  16  17  1   
 29  17  29  1   
 30  17  30  1   
 31  17  31  1   
@<TRIPOS>SUBSTRUCTURE
  1 ****   9 GROUP 4 **** **** 0

# MOE 2024.06 (io_trps.svl 2023.06)
