@<TRIPOS>MOLECULE
NONAME
33 34 1 0 0 
SMALL
USER_CHARGES


@<TRIPOS>ATOM
  1 S       -1.1320     0.2470     1.9090 S.3   1 <1>  -0.0800 
  2 C       -1.9590    -0.1300     0.3940 C.2   1 <1>  -0.0450 
  3 C       -0.1020     1.4320     1.1380 C.2   1 <1>  -0.1100 
  4 C       -3.0120    -1.1130     0.4020 C.2   1 <1>   0.7150 
  5 C       -1.4250     0.6370    -0.5930 C.2   1 <1>  -0.1500 
  6 C       -0.3830     1.5160    -0.1740 C.2   1 <1>  -0.1500 
  7 O       -3.1520    -1.9060     1.3150 O.2   1 <1>  -0.5700 
  8 N       -3.9560    -1.1480    -0.6010 N.am  1 <1>  -0.6600 
  9 C       -4.6870    -2.4230    -0.8560 C.3   1 <1>   0.1400 
 10 C       -4.7930     0.0620    -0.8370 C.3   1 <1>   0.1400 
 11 C       -5.9340    -2.4990     0.0450 C.3   1 <1>   0.3430 
 12 C       -6.0620     0.0020     0.0410 C.3   1 <1>   0.3430 
 13 N       -6.8230    -1.2920    -0.1230 N.4   1 <1>  -0.9590 
 14 C       -7.9800    -1.3680     0.7950 C.3   1 <1>   0.4810 
 15 C       -9.0240    -0.4080     0.2740 C.2   1 <1>  -0.2880 
 16 C      -10.1290    -0.7600    -0.3920 C.2   1 <1>  -0.3000 
 17 H        0.6140     1.9460     1.7550 H     1 <1>   0.1500 
 18 H       -1.7300     0.6090    -1.6240 H     1 <1>   0.1500 
 19 H        0.1120     2.1690    -0.8740 H     1 <1>   0.1500 
 20 H       -4.0410    -3.2610    -0.6440 H     1 <1>   0.0800 
 21 H       -4.9680    -2.4810    -1.8930 H     1 <1>   0.0800 
 22 H       -5.0640     0.1160    -1.8780 H     1 <1>   0.0800 
 23 H       -4.2380     0.9530    -0.5960 H     1 <1>   0.0800 
 24 H       -5.6000    -2.5660     1.0680 H     1 <1>   0.0800 
 25 H       -6.4820    -3.3980    -0.1850 H     1 <1>   0.0800 
 26 H       -6.6980     0.8360    -0.2060 H     1 <1>   0.0800 
 27 H       -5.7610     0.1120     1.0710 H     1 <1>   0.0800 
 28 H       -7.2200    -1.3070    -1.0710 H     1 <1>   0.4500 
 29 H       -7.6960    -1.1220     1.8060 H     1 <1>   0.0800 
 30 H       -8.3870    -2.3670     0.7840 H     1 <1>   0.0800 
 31 H       -8.8020     0.6210     0.4990 H     1 <1>   0.1500 
 32 H      -10.8640    -0.0540    -0.7480 H     1 <1>   0.1500 
 33 H      -10.4120    -1.7710    -0.6400 H     1 <1>   0.1500 
@<TRIPOS>BOND
  1   1   2  1   
  2   1   3  1   
  3   2   4  1   
  4   2   5  2   
  5   3   6  2   
  6   3  17  1   
  7   4   7  2   
  8   4   8  am  
  9   5   6  1   
 10   5  18  1   
 11   6  19  1   
 12   8   9  1   
 13   8  10  1   
 14   9  11  1   
 15   9  20  1   
 16   9  21  1   
 17  10  12  1   
 18  10  22  1   
 19  10  23  1   
 20  11  13  1   
 21  11  24  1   
 22  11  25  1   
 23  12  13  1   
 24  12  26  1   
 25  12  27  1   
 26  13  14  1   
 27  13  28  1   
 28  14  15  1   
 29  14  29  1   
 30  14  30  1   
 31  15  16  2   
 32  15  31  1   
 33  16  32  1   
 34  16  33  1   
@<TRIPOS>SUBSTRUCTURE
  1 ****   8 GROUP 4 **** **** 0

# MOE 2024.06 (io_trps.svl 2023.06)
