@<TRIPOS>MOLECULE
NONAME
53 55 1 0 0 
SMALL
USER_CHARGES


@<TRIPOS>ATOM
  1 O        1.0740    -0.0580    -1.2100 O.2   1 <1>  -0.5700 
  2 C        0.6700    -1.1730    -1.0040 C.2   1 <1>   0.6590 
  3 O        1.0140    -1.8640     0.0740 O.3   1 <1>  -0.4300 
  4 C       -0.2640    -1.8710    -1.9720 C.3   1 <1>   0.0390 
  5 C        1.8560    -1.3210     1.0620 C.3   1 <1>   0.1200 
  6 C       -1.6720    -2.0370    -1.3840 C.2   1 <1>  -0.1240 
  7 C        2.0220    -2.3630     2.1640 C.3   1 <1>  -0.2400 
  8 C       -2.6140    -0.9570    -1.5140 C.2   1 <1>   0.3750 
  9 C       -2.0560    -3.1790    -0.7340 C.2   1 <1>  -0.1690 
 10 N       -3.8240    -1.0170    -1.0670 N.2   1 <1>  -0.5760 
 11 C       -2.2350     0.3450    -2.1980 C.3   1 <1>  -0.1790 
 12 N       -3.3630    -3.2400    -0.2630 N.pl3 1 <1>   0.6010 
 13 C       -1.1930    -4.4130    -0.4500 C.3   1 <1>  -0.1020 
 14 C       -4.2070    -2.1760    -0.4400 C.2   1 <1>  -0.0260 
 15 N       -3.9770    -4.2530     0.3890 N.2   1 <1>  -0.7070 
 16 C       -5.4080    -2.5320     0.1110 C.2   1 <1>  -0.0540 
 17 C       -5.1790    -3.8150     0.6100 C.2   1 <1>   0.1080 
 18 C       -6.6180    -1.7470     0.1640 C.ar  1 <1>   0.0540 
 19 C       -6.1850    -4.6630     1.3590 C.3   1 <1>  -0.0590 
 20 C       -6.5850    -0.4240     0.5900 C.ar  1 <1>  -0.1500 
 21 C       -7.8490    -2.2790    -0.2100 C.ar  1 <1>  -0.1500 
 22 C       -7.7370     0.3500     0.6580 C.ar  1 <1>   0.0830 
 23 C       -9.0080    -1.5280    -0.1440 C.ar  1 <1>  -0.1500 
 24 O       -7.7170     1.6520     1.0690 O.3   1 <1>  -0.3620 
 25 C       -8.9650    -0.2080     0.2940 C.ar  1 <1>   0.0830 
 26 C       -6.5020     2.3520     1.2170 C.3   1 <1>   0.0400 
 27 O      -10.0810     0.5740     0.3800 O.3   1 <1>  -0.3630 
 28 C      -11.3470     0.1080    -0.0290 C.3   1 <1>   0.0400 
 29 H        0.1630    -2.8190    -2.2290 H     1 <1>   0.0800 
 30 H       -0.2940    -1.3130    -2.8880 H     1 <1>   0.0800 
 31 H        1.3990    -0.4230     1.4450 H     1 <1>   0.0800 
 32 H        2.8040    -1.0800     0.6100 H     1 <1>   0.0800 
 33 H        1.0660    -2.6010     2.5950 H     1 <1>   0.0800 
 34 H        2.6590    -1.9740     2.9370 H     1 <1>   0.0800 
 35 H        2.4710    -3.2550     1.7670 H     1 <1>   0.0800 
 36 H       -2.0210     0.1740    -3.2360 H     1 <1>   0.0800 
 37 H       -1.3840     0.7900    -1.7180 H     1 <1>   0.0800 
 38 H       -3.0500     1.0450    -2.1390 H     1 <1>   0.0800 
 39 H       -1.5600    -5.2510    -1.0170 H     1 <1>   0.0800 
 40 H       -1.2580    -4.6640     0.5950 H     1 <1>   0.0800 
 41 H       -0.1560    -4.2700    -0.6760 H     1 <1>   0.0800 
 42 H       -5.6740    -5.2770     2.0780 H     1 <1>   0.0800 
 43 H       -6.7070    -5.2990     0.6690 H     1 <1>   0.0800 
 44 H       -6.8900    -4.0410     1.8780 H     1 <1>   0.0800 
 45 H       -5.6280    -0.0240     0.8640 H     1 <1>   0.1500 
 46 H       -7.8930    -3.2930    -0.5630 H     1 <1>   0.1500 
 47 H       -9.9300    -1.9880    -0.4400 H     1 <1>   0.1500 
 48 H       -6.7330     3.3770     1.4400 H     1 <1>   0.0800 
 49 H       -5.9500     2.2920     0.2950 H     1 <1>   0.0800 
 50 H       -5.9460     1.9180     2.0290 H     1 <1>   0.0800 
 51 H      -12.0540     0.9050     0.1110 H     1 <1>   0.0800 
 52 H      -11.6210    -0.7350     0.5800 H     1 <1>   0.0800 
 53 H      -11.3000    -0.1620    -1.0690 H     1 <1>   0.0800 
@<TRIPOS>BOND
  1   1   2  2   
  2   2   3  1   
  3   2   4  1   
  4   3   5  1   
  5   4   6  1   
  6   4  29  1   
  7   4  30  1   
  8   5   7  1   
  9   5  31  1   
 10   5  32  1   
 11   6   8  1   
 12   6   9  2   
 13   7  33  1   
 14   7  34  1   
 15   7  35  1   
 16   8  10  2   
 17   8  11  1   
 18   9  12  1   
 19   9  13  1   
 20  10  14  1   
 21  11  36  1   
 22  11  37  1   
 23  11  38  1   
 24  12  14  1   
 25  12  15  1   
 26  13  39  1   
 27  13  40  1   
 28  13  41  1   
 29  14  16  2   
 30  15  17  2   
 31  16  17  1   
 32  16  18  1   
 33  17  19  1   
 34  18  20  ar  
 35  18  21  ar  
 36  19  42  1   
 37  19  43  1   
 38  19  44  1   
 39  20  22  ar  
 40  20  45  1   
 41  21  23  ar  
 42  21  46  1   
 43  22  24  1   
 44  22  25  ar  
 45  23  25  ar  
 46  23  47  1   
 47  24  26  1   
 48  25  27  1   
 49  26  48  1   
 50  26  49  1   
 51  26  50  1   
 52  27  28  1   
 53  28  51  1   
 54  28  52  1   
 55  28  53  1   
@<TRIPOS>SUBSTRUCTURE
  1 ****  14 GROUP 4 **** **** 0

# MOE 2024.06 (io_trps.svl 2023.06)
