@<TRIPOS>MOLECULE
NONAME
34 34 1 0 0 
SMALL
USER_CHARGES


@<TRIPOS>ATOM
  1 O        0.1630     1.2750    -1.3470 O.2   1 <1>  -0.5700 
  2 C        0.1650     1.9430    -0.3410 C.2   1 <1>   0.5690 
  3 N        1.2610     2.0950     0.4660 N.am  1 <1>  -0.5470 
  4 C       -1.1170     2.6790     0.0630 C.3   1 <1>  -0.0190 
  5 C        2.5530     1.5510     0.3910 C.ar  1 <1>   0.1170 
  6 C       -2.2490     1.6490     0.2970 C.3   1 <1>  -0.1600 
  7 C       -1.4700     3.7530    -0.9950 C.3   1 <1>  -0.1600 
  8 C        3.5750     2.1680     1.1030 C.ar  1 <1>  -0.1500 
  9 C        2.8630     0.4130    -0.3460 C.ar  1 <1>  -0.1500 
 10 C       -3.5550     2.2390     0.8430 C.3   1 <1>  -0.2400 
 11 C       -2.0510     5.0430    -0.3950 C.3   1 <1>  -0.2400 
 12 C        4.8650     1.6700     1.0780 C.ar  1 <1>  -0.1500 
 13 C        4.1520    -0.0870    -0.3750 C.ar  1 <1>  -0.1500 
 14 C        5.1630     0.5390     0.3360 C.ar  1 <1>  -0.1430 
 15 C        6.5770    -0.0120     0.3040 C.3   1 <1>  -0.0970 
 16 H        1.1300     2.7440     1.2370 H     1 <1>   0.3700 
 17 H       -0.9240     3.1730     0.9980 H     1 <1>   0.0800 
 18 H       -1.8940     0.9120     0.9970 H     1 <1>   0.0800 
 19 H       -2.4560     1.1330    -0.6250 H     1 <1>   0.0800 
 20 H       -2.1520     3.3410    -1.7190 H     1 <1>   0.0800 
 21 H       -0.5760     4.0240    -1.5310 H     1 <1>   0.0800 
 22 H        3.3660     3.0480     1.6820 H     1 <1>   0.1500 
 23 H        2.0970    -0.0950    -0.9020 H     1 <1>   0.1500 
 24 H       -3.3680     2.8320     1.7210 H     1 <1>   0.0800 
 25 H       -4.2290     1.4440     1.1070 H     1 <1>   0.0800 
 26 H       -4.0370     2.8460     0.0990 H     1 <1>   0.0800 
 27 H       -2.9640     4.8570     0.1390 H     1 <1>   0.0800 
 28 H       -2.2610     5.7450    -1.1820 H     1 <1>   0.0800 
 29 H       -1.3450     5.4950     0.2790 H     1 <1>   0.0800 
 30 H        5.6390     2.1660     1.6370 H     1 <1>   0.1500 
 31 H        4.3630    -0.9680    -0.9540 H     1 <1>   0.1500 
 32 H        7.2930     0.7770     0.4490 H     1 <1>   0.0800 
 33 H        6.7760    -0.4800    -0.6430 H     1 <1>   0.0800 
 34 H        6.7010    -0.7410     1.0850 H     1 <1>   0.0800 
@<TRIPOS>BOND
  1   1   2  2   
  2   2   3  am  
  3   2   4  1   
  4   3   5  1   
  5   3  16  1   
  6   4   6  1   
  7   4   7  1   
  8   4  17  1   
  9   5   8  ar  
 10   5   9  ar  
 11   6  10  1   
 12   6  18  1   
 13   6  19  1   
 14   7  11  1   
 15   7  20  1   
 16   7  21  1   
 17   8  12  ar  
 18   8  22  1   
 19   9  13  ar  
 20   9  23  1   
 21  10  24  1   
 22  10  25  1   
 23  10  26  1   
 24  11  27  1   
 25  11  28  1   
 26  11  29  1   
 27  12  14  ar  
 28  12  30  1   
 29  13  14  ar  
 30  13  31  1   
 31  14  15  1   
 32  15  32  1   
 33  15  33  1   
 34  15  34  1   
@<TRIPOS>SUBSTRUCTURE
  1 ****   3 GROUP 4 **** **** 0

# MOE 2024.06 (io_trps.svl 2023.06)
