@<TRIPOS>MOLECULE
NONAME
54 58 1 0 0 
SMALL
USER_CHARGES


@<TRIPOS>ATOM
  1 O        0.0330    -1.1110    -0.6320 O.2   1 <1>  -0.5740 
  2 C        0.7110    -2.1170    -0.5950 C.2   1 <1>   0.6870 
  3 N        0.1200    -3.3640    -0.7790 N.am  1 <1>  -0.4250 
  4 N        2.0780    -2.0180    -0.3650 N.am  1 <1>  -0.4410 
  5 C        0.8650    -4.5320    -0.7170 C.2   1 <1>   0.7000 
  6 C       -1.3520    -3.4400    -1.0450 C.3   1 <1>   0.1330 
  7 C        2.8200    -3.1830    -0.3410 C.2   1 <1>   0.4210 
  8 C        2.7260    -0.6850    -0.1740 C.3   1 <1>   0.0530 
  9 O        0.3440    -5.6270    -0.8360 O.2   1 <1>  -0.5740 
 10 C        2.2730    -4.4110    -0.5020 C.2   1 <1>   0.2710 
 11 C       -2.1360    -3.4730     0.2710 C.3   1 <1>   0.1030 
 12 N        4.1720    -3.3190    -0.1650 N.pl3 1 <1>  -0.7030 
 13 N        3.3400    -5.3100    -0.4130 N.pl3 1 <1>  -0.7670 
 14 N       -3.5790    -3.5620     0.0150 N.3   1 <1>  -0.8130 
 15 C        4.4350    -4.6190    -0.2200 C.cat 1 <1>   1.0690 
 16 C        3.6060    -6.7570    -0.5040 C.3   1 <1>   0.3480 
 17 C       -4.2930    -4.0600     1.2060 C.3   1 <1>   0.1030 
 18 C       -4.1550    -2.2570    -0.3780 C.3   1 <1>   0.1030 
 19 N        5.5350    -5.3660    -0.1410 N.pl3 1 <1>  -0.5790 
 20 C        5.1460    -6.8000    -0.3240 C.3   1 <1>   0.1610 
 21 C       -5.8130    -4.1070     0.9680 C.3   1 <1>   0.1130 
 22 C       -5.6810    -2.3530    -0.5650 C.3   1 <1>   0.1130 
 23 C        6.8460    -4.9420     0.0850 C.ar  1 <1>   0.3050 
 24 O       -6.2910    -2.8480     0.5930 O.3   1 <1>  -0.5640 
 25 C        7.1760    -4.2690     1.2560 C.ar  1 <1>  -0.1570 
 26 C        7.8340    -5.1730    -0.8630 C.ar  1 <1>  -0.1570 
 27 C        8.4690    -3.8240     1.4690 C.ar  1 <1>  -0.1570 
 28 C        9.1260    -4.7280    -0.6520 C.ar  1 <1>  -0.1570 
 29 C        9.4430    -4.0520     0.5130 C.ar  1 <1>  -0.1570 
 30 H       -1.5810    -4.3250    -1.6130 H     1 <1>   0.0730 
 31 H       -1.6520    -2.5890    -1.6300 H     1 <1>   0.0730 
 32 H        2.0100     0.0350     0.1860 H     1 <1>   0.0730 
 33 H        3.1190    -0.3360    -1.1130 H     1 <1>   0.0730 
 34 H        3.5200    -0.7520     0.5470 H     1 <1>   0.0730 
 35 H       -1.9240    -2.5950     0.8580 H     1 <1>   0.0730 
 36 H       -1.8260    -4.3440     0.8220 H     1 <1>   0.0730 
 37 H        4.8700    -2.5870    -0.0480 H     1 <1>   0.4450 
 38 H        3.3080    -7.1450    -1.4640 H     1 <1>   0.0730 
 39 H        3.1000    -7.2920     0.2820 H     1 <1>   0.0730 
 40 H       -4.0920    -3.4230     2.0510 H     1 <1>   0.0730 
 41 H       -3.9470    -5.0520     1.4410 H     1 <1>   0.0730 
 42 H       -3.7170    -1.9260    -1.3020 H     1 <1>   0.0730 
 43 H       -3.9440    -1.5180     0.3770 H     1 <1>   0.0730 
 44 H        5.6210    -7.2160    -1.1960 H     1 <1>   0.0730 
 45 H        5.4150    -7.3790     0.5430 H     1 <1>   0.0730 
 46 H       -6.3230    -4.3970     1.8690 H     1 <1>   0.0730 
 47 H       -6.0500    -4.8120     0.1900 H     1 <1>   0.0730 
 48 H       -5.9180    -3.0070    -1.3850 H     1 <1>   0.0730 
 49 H       -6.0940    -1.3810    -0.7630 H     1 <1>   0.0730 
 50 H        6.4320    -4.0970     2.0120 H     1 <1>   0.1430 
 51 H        7.5990    -5.6950    -1.7730 H     1 <1>   0.1430 
 52 H        8.7260    -3.3040     2.3770 H     1 <1>   0.1430 
 53 H        9.8910    -4.9070    -1.3910 H     1 <1>   0.1430 
 54 H       10.4500    -3.7060     0.6770 H     1 <1>   0.1430 
@<TRIPOS>BOND
  1   1   2  2   
  2   2   3  am  
  3   2   4  am  
  4   3   5  am  
  5   3   6  1   
  6   4   7  1   
  7   4   8  1   
  8   5   9  2   
  9   5  10  1   
 10   6  11  1   
 11   6  30  1   
 12   6  31  1   
 13   7  10  2   
 14   7  12  1   
 15   8  32  1   
 16   8  33  1   
 17   8  34  1   
 18  10  13  1   
 19  11  14  1   
 20  11  35  1   
 21  11  36  1   
 22  12  15  ar  
 23  12  37  1   
 24  13  15  ar  
 25  13  16  1   
 26  14  17  1   
 27  14  18  1   
 28  15  19  ar  
 29  16  20  1   
 30  16  38  1   
 31  16  39  1   
 32  17  21  1   
 33  17  40  1   
 34  17  41  1   
 35  18  22  1   
 36  18  42  1   
 37  18  43  1   
 38  19  20  1   
 39  19  23  1   
 40  20  44  1   
 41  20  45  1   
 42  21  24  1   
 43  21  46  1   
 44  21  47  1   
 45  22  24  1   
 46  22  48  1   
 47  22  49  1   
 48  23  25  ar  
 49  23  26  ar  
 50  25  27  ar  
 51  25  50  1   
 52  26  28  ar  
 53  26  51  1   
 54  27  29  ar  
 55  27  52  1   
 56  28  29  ar  
 57  28  53  1   
 58  29  54  1   
@<TRIPOS>SUBSTRUCTURE
  1 ****  10 GROUP 4 **** **** 0

# MOE 2024.06 (io_trps.svl 2023.06)
