@<TRIPOS>MOLECULE
NONAME
51 53 1 0 0 
SMALL
USER_CHARGES


@<TRIPOS>ATOM
  1 BR      -0.1500     0.6830     0.5630 Br    1 <1>  -0.1110 
  2 C        1.1250    -0.7220     0.2370 C.ar  1 <1>   0.1110 
  3 C        0.9450    -1.9380     0.8650 C.ar  1 <1>  -0.1500 
  4 C        2.1810    -0.4800    -0.6180 C.ar  1 <1>  -0.1500 
  5 C        1.8520    -2.9610     0.6260 C.ar  1 <1>  -0.1440 
  6 C        3.0920    -1.4970    -0.8470 C.ar  1 <1>  -0.1500 
  7 C        2.9350    -2.7380    -0.2260 C.ar  1 <1>   0.0830 
  8 C        1.6520    -4.3100     1.3060 C.3   1 <1>   0.2540 
  9 O        3.8100    -3.7630    -0.4120 O.3   1 <1>  -0.3630 
 10 N        1.0060    -5.2870     0.4020 N.3   1 <1>  -0.8100 
 11 C        4.9520    -3.6260    -1.2280 C.3   1 <1>   0.0400 
 12 C        0.9410    -6.6250     1.0110 C.3   1 <1>   0.1100 
 13 C       -0.3080    -4.8380    -0.1040 C.3   1 <1>   0.1100 
 14 C        0.3580    -7.6610     0.0250 C.3   1 <1>   0.3430 
 15 C       -0.9110    -5.8590    -1.0910 C.3   1 <1>   0.3430 
 16 N       -0.9830    -7.2520    -0.5180 N.4   1 <1>  -0.9590 
 17 C       -2.0590    -7.3530     0.5060 C.3   1 <1>   0.4860 
 18 C       -3.4020    -7.2430    -0.1840 C.ar  1 <1>  -0.1430 
 19 C       -4.1010    -6.0410    -0.1520 C.ar  1 <1>   0.0830 
 20 C       -3.9390    -8.3390    -0.8450 C.ar  1 <1>  -0.1500 
 21 O       -3.5260    -5.0040     0.5110 O.3   1 <1>  -0.3620 
 22 C       -5.3340    -5.9450    -0.7920 C.ar  1 <1>  -0.1500 
 23 C       -5.1640    -8.2360    -1.4790 C.ar  1 <1>  -0.1500 
 24 C       -4.2220    -3.7890     0.7160 C.3   1 <1>   0.0400 
 25 C       -5.8590    -7.0400    -1.4530 C.ar  1 <1>  -0.1500 
 26 H        0.1080    -2.0730     1.5260 H     1 <1>   0.1500 
 27 H        2.2880     0.4800    -1.0890 H     1 <1>   0.1500 
 28 H        3.9140    -1.3030    -1.5100 H     1 <1>   0.1500 
 29 H        1.0550    -4.1840     2.1930 H     1 <1>   0.0800 
 30 H        2.6130    -4.6880     1.6110 H     1 <1>   0.0800 
 31 H        5.4900    -4.5570    -1.2080 H     1 <1>   0.0800 
 32 H        5.5710    -2.8390    -0.8350 H     1 <1>   0.0800 
 33 H        4.6400    -3.4080    -2.2340 H     1 <1>   0.0800 
 34 H        0.3480    -6.5950     1.9090 H     1 <1>   0.0800 
 35 H        1.9370    -6.9350     1.2830 H     1 <1>   0.0800 
 36 H       -0.1920    -3.9080    -0.6320 H     1 <1>   0.0800 
 37 H       -0.9820    -4.6690     0.7170 H     1 <1>   0.0800 
 38 H        0.2840    -8.6180     0.5130 H     1 <1>   0.0800 
 39 H        1.0550    -7.7620    -0.7910 H     1 <1>   0.0800 
 40 H       -0.2890    -5.8690    -1.9710 H     1 <1>   0.0800 
 41 H       -1.8920    -5.5280    -1.3890 H     1 <1>   0.0800 
 42 H       -1.2500    -7.8820    -1.2830 H     1 <1>   0.4500 
 43 H       -1.9540    -6.5730     1.2420 H     1 <1>   0.0800 
 44 H       -2.0020    -8.3040     1.0100 H     1 <1>   0.0800 
 45 H       -3.4210    -9.2820    -0.8710 H     1 <1>   0.1500 
 46 H       -5.9010    -5.0330    -0.7900 H     1 <1>   0.1500 
 47 H       -5.5830    -9.0860    -1.9920 H     1 <1>   0.1500 
 48 H       -5.1400    -3.9950     1.2400 H     1 <1>   0.0800 
 49 H       -4.4190    -3.3300    -0.2370 H     1 <1>   0.0800 
 50 H       -3.6030    -3.1410     1.3100 H     1 <1>   0.0800 
 51 H       -6.8130    -6.9640    -1.9470 H     1 <1>   0.1500 
@<TRIPOS>BOND
  1   1   2  1   
  2   2   3  ar  
  3   2   4  ar  
  4   3   5  ar  
  5   3  26  1   
  6   4   6  ar  
  7   4  27  1   
  8   5   7  ar  
  9   5   8  1   
 10   6   7  ar  
 11   6  28  1   
 12   7   9  1   
 13   8  10  1   
 14   8  29  1   
 15   8  30  1   
 16   9  11  1   
 17  10  12  1   
 18  10  13  1   
 19  11  31  1   
 20  11  32  1   
 21  11  33  1   
 22  12  14  1   
 23  12  34  1   
 24  12  35  1   
 25  13  15  1   
 26  13  36  1   
 27  13  37  1   
 28  14  16  1   
 29  14  38  1   
 30  14  39  1   
 31  15  16  1   
 32  15  40  1   
 33  15  41  1   
 34  16  17  1   
 35  16  42  1   
 36  17  18  1   
 37  17  43  1   
 38  17  44  1   
 39  18  19  ar  
 40  18  20  ar  
 41  19  21  1   
 42  19  22  ar  
 43  20  23  ar  
 44  20  45  1   
 45  21  24  1   
 46  22  25  ar  
 47  22  46  1   
 48  23  25  ar  
 49  23  47  1   
 50  24  48  1   
 51  24  49  1   
 52  24  50  1   
 53  25  51  1   
@<TRIPOS>SUBSTRUCTURE
  1 ****  13 GROUP 4 **** **** 0

# MOE 2024.06 (io_trps.svl 2023.06)
