@<TRIPOS>MOLECULE
NONAME
33 33 1 0 0 
SMALL
USER_CHARGES


@<TRIPOS>ATOM
  1 CL      -0.7190    -1.0400     1.7130 Cl    1 <1>  -0.1770 
  2 C       -0.2120    -2.4300     0.7870 C.ar  1 <1>   0.1770 
  3 C        1.1290    -2.6130     0.5150 C.ar  1 <1>  -0.1500 
  4 C       -1.1680    -3.3220     0.3390 C.ar  1 <1>  -0.1500 
  5 C        1.5440    -3.7170    -0.2230 C.ar  1 <1>   0.1170 
  6 C       -0.7660    -4.4230    -0.3990 C.ar  1 <1>  -0.1500 
  7 N        2.8880    -3.9540    -0.5460 N.am  1 <1>  -0.5470 
  8 C        0.5780    -4.6130    -0.6750 C.ar  1 <1>  -0.1500 
  9 C        4.0350    -3.5550     0.0730 C.2   1 <1>   0.6900 
 10 O        4.0270    -2.9700     1.1370 O.2   1 <1>  -0.5700 
 11 N        5.2080    -3.8460    -0.5400 N.am  1 <1>  -0.7300 
 12 C        6.5450    -3.5530     0.0210 C.3   1 <1>   0.1400 
 13 C        7.5180    -4.6890    -0.3090 C.3   1 <1>  -0.1600 
 14 C        7.1030    -6.0300     0.3180 C.3   1 <1>  -0.1600 
 15 C        8.1350    -7.1240     0.0190 C.3   1 <1>  -0.1600 
 16 C        7.7180    -8.4580     0.6430 C.3   1 <1>  -0.2400 
 17 H        1.8400    -1.8940     0.8780 H     1 <1>   0.1500 
 18 H       -2.2050    -3.1550     0.5670 H     1 <1>   0.1500 
 19 H       -1.4980    -5.1280    -0.7550 H     1 <1>   0.1500 
 20 H        3.0430    -4.6120    -1.3000 H     1 <1>   0.3700 
 21 H        0.8780    -5.4720    -1.2460 H     1 <1>   0.1500 
 22 H        5.2050    -4.2200    -1.4860 H     1 <1>   0.3700 
 23 H        6.4750    -3.4300     1.0900 H     1 <1>   0.0800 
 24 H        6.9050    -2.6290    -0.3990 H     1 <1>   0.0800 
 25 H        8.4880    -4.4150     0.0690 H     1 <1>   0.0800 
 26 H        7.6040    -4.7880    -1.3770 H     1 <1>   0.0800 
 27 H        6.1440    -6.3320    -0.0670 H     1 <1>   0.0800 
 28 H        7.0060    -5.9090     1.3840 H     1 <1>   0.0800 
 29 H        9.0940    -6.8340     0.4130 H     1 <1>   0.0800 
 30 H        8.2350    -7.2470    -1.0460 H     1 <1>   0.0800 
 31 H        7.6320    -8.3630     1.7110 H     1 <1>   0.0800 
 32 H        8.4530    -9.2120     0.4250 H     1 <1>   0.0800 
 33 H        6.7710    -8.7800     0.2470 H     1 <1>   0.0800 
@<TRIPOS>BOND
  1   1   2  1   
  2   2   3  ar  
  3   2   4  ar  
  4   3   5  ar  
  5   3  17  1   
  6   4   6  ar  
  7   4  18  1   
  8   5   7  1   
  9   5   8  ar  
 10   6   8  ar  
 11   6  19  1   
 12   7   9  am  
 13   7  20  1   
 14   8  21  1   
 15   9  10  2   
 16   9  11  am  
 17  11  12  1   
 18  11  22  1   
 19  12  13  1   
 20  12  23  1   
 21  12  24  1   
 22  13  14  1   
 23  13  25  1   
 24  13  26  1   
 25  14  15  1   
 26  14  27  1   
 27  14  28  1   
 28  15  16  1   
 29  15  29  1   
 30  15  30  1   
 31  16  31  1   
 32  16  32  1   
 33  16  33  1   
@<TRIPOS>SUBSTRUCTURE
  1 ****   7 GROUP 4 **** **** 0

# MOE 2024.06 (io_trps.svl 2023.06)
