@<TRIPOS>MOLECULE
NONAME
50 50 1 0 0 
SMALL
USER_CHARGES


@<TRIPOS>ATOM
  1 O        0.4550    -0.7060    -1.4060 O.2   1 <1>  -0.5700 
  2 C        0.3840    -1.7190    -0.7590 C.2   1 <1>   0.5690 
  3 N        1.4160    -2.1210     0.0510 N.am  1 <1>  -0.6600 
  4 C       -0.8770    -2.5420    -0.8820 C.3   1 <1>  -0.1790 
  5 C        1.5480    -3.4730     0.6730 C.3   1 <1>   0.1400 
  6 C        2.5960    -1.2280     0.2740 C.3   1 <1>   0.1400 
  7 C        2.8660    -4.1450     0.2310 C.3   1 <1>   0.3430 
  8 C        3.8900    -1.9180    -0.1870 C.3   1 <1>   0.3430 
  9 N        4.0720    -3.2700     0.4630 N.4   1 <1>  -0.9590 
 10 C        5.3100    -3.9540    -0.0060 C.3   1 <1>   0.3430 
 11 C        6.5530    -3.2600     0.5550 C.3   1 <1>  -0.1600 
 12 C        7.8210    -4.0320     0.1670 C.3   1 <1>  -0.1600 
 13 C        9.0770    -3.3480     0.7220 C.3   1 <1>  -0.1600 
 14 C       10.3410    -4.1230     0.3280 C.3   1 <1>  -0.1600 
 15 C       11.6080    -3.4500     0.8660 C.3   1 <1>  -0.0220 
 16 C       12.8330    -4.2500     0.4520 C.2   1 <1>  -0.2880 
 17 C       13.8050    -3.9150    -0.4060 C.2   1 <1>  -0.2760 
 18 C       14.9680    -4.8520    -0.6870 C.3   1 <1>  -0.1020 
 19 C       13.9080    -2.6210    -1.2030 C.3   1 <1>  -0.1020 
 20 H       -1.2600    -2.7820     0.0910 H     1 <1>   0.0800 
 21 H       -0.6770    -3.4410    -1.4330 H     1 <1>   0.0800 
 22 H       -1.6230    -1.9770    -1.4110 H     1 <1>   0.0800 
 23 H        1.5300    -3.3730     1.7440 H     1 <1>   0.0800 
 24 H        0.7260    -4.1060     0.3920 H     1 <1>   0.0800 
 25 H        2.4830    -0.3020    -0.2650 H     1 <1>   0.0800 
 26 H        2.6630    -0.9820     1.3190 H     1 <1>   0.0800 
 27 H        2.7890    -4.3770    -0.8190 H     1 <1>   0.0800 
 28 H        2.9810    -5.0740     0.7650 H     1 <1>   0.0800 
 29 H        4.7250    -1.2790     0.0460 H     1 <1>   0.0800 
 30 H        3.8500    -2.0310    -1.2580 H     1 <1>   0.0800 
 31 H        4.1580    -3.1190     1.4770 H     1 <1>   0.4500 
 32 H        5.3070    -4.9780     0.3340 H     1 <1>   0.0800 
 33 H        5.3470    -3.9590    -1.0840 H     1 <1>   0.0800 
 34 H        6.6300    -2.2600     0.1660 H     1 <1>   0.0800 
 35 H        6.4910    -3.2150     1.6280 H     1 <1>   0.0800 
 36 H        7.7700    -5.0370     0.5520 H     1 <1>   0.0800 
 37 H        7.8990    -4.0900    -0.9070 H     1 <1>   0.0800 
 38 H        9.1440    -2.3440     0.3370 H     1 <1>   0.0800 
 39 H        9.0170    -3.2930     1.7960 H     1 <1>   0.0800 
 40 H       10.4140    -4.1820    -0.7440 H     1 <1>   0.0800 
 41 H       10.2880    -5.1270     0.7130 H     1 <1>   0.0800 
 42 H       11.5710    -3.4040     1.9410 H     1 <1>   0.0800 
 43 H       11.6600    -2.4410     0.5040 H     1 <1>   0.0800 
 44 H       12.8510    -5.2000     0.9590 H     1 <1>   0.1500 
 45 H       15.8980    -4.3780    -0.4280 H     1 <1>   0.0800 
 46 H       14.9900    -5.1140    -1.7300 H     1 <1>   0.0800 
 47 H       14.8780    -5.7570    -0.1140 H     1 <1>   0.0800 
 48 H       13.9640    -2.8430    -2.2540 H     1 <1>   0.0800 
 49 H       14.7960    -2.0860    -0.9180 H     1 <1>   0.0800 
 50 H       13.0650    -1.9770    -1.0490 H     1 <1>   0.0800 
@<TRIPOS>BOND
  1   1   2  2   
  2   2   3  am  
  3   2   4  1   
  4   3   5  1   
  5   3   6  1   
  6   4  20  1   
  7   4  21  1   
  8   4  22  1   
  9   5   7  1   
 10   5  23  1   
 11   5  24  1   
 12   6   8  1   
 13   6  25  1   
 14   6  26  1   
 15   7   9  1   
 16   7  27  1   
 17   7  28  1   
 18   8   9  1   
 19   8  29  1   
 20   8  30  1   
 21   9  10  1   
 22   9  31  1   
 23  10  11  1   
 24  10  32  1   
 25  10  33  1   
 26  11  12  1   
 27  11  34  1   
 28  11  35  1   
 29  12  13  1   
 30  12  36  1   
 31  12  37  1   
 32  13  14  1   
 33  13  38  1   
 34  13  39  1   
 35  14  15  1   
 36  14  40  1   
 37  14  41  1   
 38  15  16  1   
 39  15  42  1   
 40  15  43  1   
 41  16  17  2   
 42  16  44  1   
 43  17  18  1   
 44  17  19  1   
 45  18  45  1   
 46  18  46  1   
 47  18  47  1   
 48  19  48  1   
 49  19  49  1   
 50  19  50  1   
@<TRIPOS>SUBSTRUCTURE
  1 ****  11 GROUP 4 **** **** 0

# MOE 2024.06 (io_trps.svl 2023.06)
