@<TRIPOS>MOLECULE
NONAME
32 34 1 0 0 
SMALL
USER_CHARGES


@<TRIPOS>ATOM
  1 BR      -0.2350     0.0220    -0.9540 Br    1 <1>  -0.1100 
  2 C       -2.0960     0.1200    -0.4560 C.2   1 <1>   0.1240 
  3 C       -2.6020    -0.8920     0.4100 C.2   1 <1>   0.3760 
  4 C       -2.8780     1.1230    -0.9210 C.2   1 <1>  -0.1810 
  5 N       -3.8360    -0.9110     0.8000 N.2   1 <1>  -0.5760 
  6 N       -4.1930     1.1110    -0.5120 N.pl3 1 <1>   0.6010 
  7 C       -4.6380     0.1120     0.3240 C.2   1 <1>  -0.0260 
  8 N       -5.1670     1.9770    -0.8160 N.2   1 <1>  -0.7070 
  9 C       -5.9480     0.3710     0.5360 C.2   1 <1>  -0.1500 
 10 C       -6.2470     1.5320    -0.1820 C.2   1 <1>   0.2030 
 11 C       -7.5740     2.1450    -0.2020 C.2   1 <1>   0.7160 
 12 O       -7.9610     2.8290    -1.1320 O.2   1 <1>  -0.5700 
 13 N       -8.4370     1.9480     0.8460 N.am  1 <1>  -0.7300 
 14 C       -9.7900     2.5640     0.9690 C.3   1 <1>   0.1400 
 15 C      -10.7910     1.9840    -0.0420 C.3   1 <1>   0.2000 
 16 O      -12.0720     2.4050     0.2920 O.3   1 <1>  -0.5600 
 17 C      -10.8990     0.4630    -0.0510 C.3   1 <1>  -0.1600 
 18 C      -13.0120     1.5810    -0.3190 C.3   1 <1>   0.1200 
 19 C      -12.3380     0.2200    -0.4820 C.3   1 <1>  -0.1600 
 20 H       -1.9240    -1.6590     0.7420 H     1 <1>   0.0600 
 21 H       -2.5700     1.9170    -1.5730 H     1 <1>   0.1500 
 22 H       -6.6220    -0.2120     1.1340 H     1 <1>   0.1500 
 23 H       -8.0930     1.4680     1.6770 H     1 <1>   0.3700 
 24 H       -9.7110     3.6250     0.8060 H     1 <1>   0.0800 
 25 H      -10.1610     2.3950     1.9650 H     1 <1>   0.0800 
 26 H      -10.5770     2.3540    -1.0310 H     1 <1>   0.0800 
 27 H      -10.7400     0.0790     0.9410 H     1 <1>   0.0800 
 28 H      -10.1850     0.0230    -0.7240 H     1 <1>   0.0800 
 29 H      -13.2610     2.0100    -1.2740 H     1 <1>   0.0800 
 30 H      -13.8870     1.5340     0.3060 H     1 <1>   0.0800 
 31 H      -12.8130    -0.5220     0.1350 H     1 <1>   0.0800 
 32 H      -12.3910    -0.0910    -1.5110 H     1 <1>   0.0800 
@<TRIPOS>BOND
  1   1   2  1   
  2   2   3  1   
  3   2   4  2   
  4   3   5  2   
  5   3  20  1   
  6   4   6  1   
  7   4  21  1   
  8   5   7  1   
  9   6   7  1   
 10   6   8  1   
 11   7   9  2   
 12   8  10  2   
 13   9  10  1   
 14   9  22  1   
 15  10  11  1   
 16  11  12  2   
 17  11  13  am  
 18  13  14  1   
 19  13  23  1   
 20  14  15  1   
 21  14  24  1   
 22  14  25  1   
 23  15  16  1   
 24  15  17  1   
 25  15  26  1   
 26  16  18  1   
 27  17  19  1   
 28  17  27  1   
 29  17  28  1   
 30  18  19  1   
 31  18  29  1   
 32  18  30  1   
 33  19  31  1   
 34  19  32  1   
@<TRIPOS>SUBSTRUCTURE
  1 ****  10 GROUP 4 **** **** 0

# MOE 2024.06 (io_trps.svl 2023.06)
