@<TRIPOS>MOLECULE
NONAME
40 41 1 0 0 
SMALL
USER_CHARGES


@<TRIPOS>ATOM
  1 O        0.3300    -0.7450     0.4710 O.2   1 <1>  -0.5700 
  2 C       -0.1930    -1.5900    -0.2260 C.2   1 <1>   0.6340 
  3 O        0.4010    -1.9410    -1.3710 O.3   1 <1>  -0.4300 
  4 C       -1.4440    -2.2400     0.1220 C.ar  1 <1>   0.0860 
  5 C        1.6210    -1.3580    -1.7860 C.3   1 <1>   0.0400 
  6 C       -2.0480    -3.1890    -0.7070 C.ar  1 <1>  -0.1500 
  7 C       -2.1020    -1.9390     1.3160 C.ar  1 <1>  -0.1500 
  8 C       -3.2430    -3.7960    -0.3690 C.ar  1 <1>  -0.1500 
  9 C       -3.2980    -2.5400     1.6630 C.ar  1 <1>  -0.1500 
 10 C       -3.8830    -3.4700     0.8170 C.ar  1 <1>  -0.1440 
 11 C       -5.2060    -4.1170     1.1840 C.3   1 <1>   0.4860 
 12 N       -6.2770    -3.5190     0.3440 N.4   1 <1>  -0.9590 
 13 C       -6.4590    -2.0640     0.6280 C.3   1 <1>   0.3430 
 14 C       -7.5540    -4.2770     0.4650 C.3   1 <1>   0.3430 
 15 C       -7.4640    -1.4700    -0.3580 C.3   1 <1>  -0.1600 
 16 C       -8.5770    -3.7210    -0.5260 C.3   1 <1>  -0.1600 
 17 C       -8.8050    -2.2160    -0.3210 C.3   1 <1>  -0.0800 
 18 C       -9.7580    -1.6650    -1.3870 C.3   1 <1>  -0.2400 
 19 H        1.9040    -1.7930    -2.7280 H     1 <1>   0.0800 
 20 H        2.3730    -1.5590    -1.0430 H     1 <1>   0.0800 
 21 H        1.4810    -0.2960    -1.8950 H     1 <1>   0.0800 
 22 H       -1.5680    -3.4560    -1.6340 H     1 <1>   0.1500 
 23 H       -1.6590    -1.2170     1.9830 H     1 <1>   0.1500 
 24 H       -3.6610    -4.5260    -1.0430 H     1 <1>   0.1500 
 25 H       -3.7590    -2.2730     2.5990 H     1 <1>   0.1500 
 26 H       -5.4180    -3.9600     2.2290 H     1 <1>   0.0800 
 27 H       -5.1410    -5.1780     1.0050 H     1 <1>   0.0800 
 28 H       -5.9600    -3.5850    -0.6310 H     1 <1>   0.4500 
 29 H       -5.5180    -1.5450     0.5310 H     1 <1>   0.0800 
 30 H       -6.8190    -1.9290     1.6350 H     1 <1>   0.0800 
 31 H       -7.9410    -4.1850     1.4680 H     1 <1>   0.0800 
 32 H       -7.3890    -5.3220     0.2580 H     1 <1>   0.0800 
 33 H       -7.0470    -1.4980    -1.3490 H     1 <1>   0.0800 
 34 H       -7.6240    -0.4350    -0.1070 H     1 <1>   0.0800 
 35 H       -9.5090    -4.2430    -0.3920 H     1 <1>   0.0800 
 36 H       -8.2420    -3.9150    -1.5300 H     1 <1>   0.0800 
 37 H       -9.2600    -2.0630     0.6450 H     1 <1>   0.0800 
 38 H       -9.3510    -1.7930    -2.3750 H     1 <1>   0.0800 
 39 H       -9.9360    -0.6160    -1.2260 H     1 <1>   0.0800 
 40 H      -10.7070    -2.1730    -1.3420 H     1 <1>   0.0800 
@<TRIPOS>BOND
  1   1   2  2   
  2   2   3  1   
  3   2   4  1   
  4   3   5  1   
  5   4   6  ar  
  6   4   7  ar  
  7   5  19  1   
  8   5  20  1   
  9   5  21  1   
 10   6   8  ar  
 11   6  22  1   
 12   7   9  ar  
 13   7  23  1   
 14   8  10  ar  
 15   8  24  1   
 16   9  10  ar  
 17   9  25  1   
 18  10  11  1   
 19  11  12  1   
 20  11  26  1   
 21  11  27  1   
 22  12  13  1   
 23  12  14  1   
 24  12  28  1   
 25  13  15  1   
 26  13  29  1   
 27  13  30  1   
 28  14  16  1   
 29  14  31  1   
 30  14  32  1   
 31  15  17  1   
 32  15  33  1   
 33  15  34  1   
 34  16  17  1   
 35  16  35  1   
 36  16  36  1   
 37  17  18  1   
 38  17  37  1   
 39  18  38  1   
 40  18  39  1   
 41  18  40  1   
@<TRIPOS>SUBSTRUCTURE
  1 ****  10 GROUP 4 **** **** 0

# MOE 2024.06 (io_trps.svl 2023.06)
