@<TRIPOS>MOLECULE
NONAME
33 34 1 0 0 
SMALL
USER_CHARGES


@<TRIPOS>ATOM
  1 CL       0.0550    -0.4050    -0.9350 Cl    1 <1>  -0.1770 
  2 C        1.6300    -1.0510    -0.5520 C.ar  1 <1>   0.1770 
  3 C        2.7510    -0.2740    -0.7620 C.ar  1 <1>  -0.1500 
  4 C        1.7260    -2.3320    -0.0440 C.ar  1 <1>  -0.1500 
  5 C        4.0230    -0.7620    -0.4610 C.ar  1 <1>   0.0860 
  6 C        2.9780    -2.8400     0.2550 C.ar  1 <1>  -0.1500 
  7 C        5.2020     0.0610    -0.6760 C.2   1 <1>   0.5440 
  8 C        4.1060    -2.0640     0.0460 C.ar  1 <1>  -0.1500 
  9 O        5.1860     0.9700    -1.4830 O.2   1 <1>  -0.5700 
 10 N        6.3490    -0.1670     0.0260 N.am  1 <1>  -0.7300 
 11 C        7.6490     0.4960    -0.1750 C.3   1 <1>   0.2200 
 12 C        8.7060    -0.5970    -0.4660 C.3   1 <1>   0.2000 
 13 C        7.9210     1.3250     1.0840 C.3   1 <1>  -0.2400 
 14 O        8.7260    -1.5610     0.5490 O.3   1 <1>  -0.5600 
 15 C       10.1540    -0.1440    -0.6050 C.3   1 <1>  -0.1600 
 16 C        9.9750    -2.1780     0.6360 C.3   1 <1>   0.1200 
 17 C       10.9110    -1.4230    -0.3040 C.3   1 <1>  -0.1600 
 18 H        2.6410     0.7190    -1.1610 H     1 <1>   0.1500 
 19 H        0.8370    -2.9170     0.1110 H     1 <1>   0.1500 
 20 H        3.0730    -3.8380     0.6490 H     1 <1>   0.1500 
 21 H        5.0700    -2.4830     0.2760 H     1 <1>   0.1500 
 22 H        6.4170    -0.9490     0.6810 H     1 <1>   0.3700 
 23 H        7.5910     1.1580    -1.0230 H     1 <1>   0.0800 
 24 H        8.4220    -1.1080    -1.3710 H     1 <1>   0.0800 
 25 H        8.0710     0.6830     1.9330 H     1 <1>   0.0800 
 26 H        7.0890     1.9790     1.2750 H     1 <1>   0.0800 
 27 H        8.7940     1.9360     0.9530 H     1 <1>   0.0800 
 28 H       10.3980     0.5990     0.1310 H     1 <1>   0.0800 
 29 H       10.3630     0.2410    -1.5870 H     1 <1>   0.0800 
 30 H        9.8720    -3.2120     0.3540 H     1 <1>   0.0800 
 31 H       10.3050    -2.1070     1.6580 H     1 <1>   0.0800 
 32 H       11.8700    -1.2390     0.1470 H     1 <1>   0.0800 
 33 H       11.0500    -1.9980    -1.2030 H     1 <1>   0.0800 
@<TRIPOS>BOND
  1   1   2  1   
  2   2   3  ar  
  3   2   4  ar  
  4   3   5  ar  
  5   3  18  1   
  6   4   6  ar  
  7   4  19  1   
  8   5   7  1   
  9   5   8  ar  
 10   6   8  ar  
 11   6  20  1   
 12   7   9  2   
 13   7  10  am  
 14   8  21  1   
 15  10  11  1   
 16  10  22  1   
 17  11  12  1   
 18  11  13  1   
 19  11  23  1   
 20  12  14  1   
 21  12  15  1   
 22  12  24  1   
 23  13  25  1   
 24  13  26  1   
 25  13  27  1   
 26  14  16  1   
 27  15  17  1   
 28  15  28  1   
 29  15  29  1   
 30  16  17  1   
 31  16  30  1   
 32  16  31  1   
 33  17  32  1   
 34  17  33  1   
@<TRIPOS>SUBSTRUCTURE
  1 ****  10 GROUP 4 **** **** 0

# MOE 2024.06 (io_trps.svl 2023.06)
