@<TRIPOS>MOLECULE
NONAME
32 33 1 0 0 
SMALL
USER_CHARGES


@<TRIPOS>ATOM
  1 CL       2.0500     1.3320     1.6470 Cl    1 <1>  -0.1770 
  2 C        1.1350     2.3080     0.5190 C.ar  1 <1>   0.1770 
  3 C        1.5390     2.4690    -0.8100 C.ar  1 <1>   0.0860 
  4 C       -0.0120     2.9000     1.0160 C.ar  1 <1>  -0.1500 
  5 C        2.7400     1.8830    -1.3770 C.2   1 <1>   0.5440 
  6 C        0.7110     3.2520    -1.6170 C.ar  1 <1>  -0.1500 
  7 C       -0.8100     3.6750     0.1930 C.ar  1 <1>  -0.1430 
  8 O        2.7490     1.5170    -2.5360 O.2   1 <1>  -0.5700 
  9 N        3.8880     1.7600    -0.6510 N.am  1 <1>  -0.7300 
 10 C       -0.4390     3.8460    -1.1290 C.ar  1 <1>  -0.1500 
 11 C       -2.0720     4.3320     0.7230 C.3   1 <1>  -0.0970 
 12 C        5.1420     1.1380    -1.1080 C.3   1 <1>   0.2200 
 13 C        5.3560    -0.1520    -0.3270 C.3   1 <1>  -0.1600 
 14 C        6.3080     2.0120    -0.6650 C.3   1 <1>  -0.1600 
 15 C        5.9440     0.2710     1.0240 C.3   1 <1>  -0.1600 
 16 C        6.5590     1.6600     0.8060 C.3   1 <1>  -0.1600 
 17 H       -0.2770     2.7460     2.0470 H     1 <1>   0.1500 
 18 H        0.9800     3.3930    -2.6510 H     1 <1>   0.1500 
 19 H        3.8650     1.9470     0.3520 H     1 <1>   0.3700 
 20 H       -1.0470     4.4440    -1.7870 H     1 <1>   0.1500 
 21 H       -2.3740     3.8870     1.6550 H     1 <1>   0.0800 
 22 H       -2.8750     4.2160     0.0170 H     1 <1>   0.0800 
 23 H       -1.8990     5.3810     0.8820 H     1 <1>   0.0800 
 24 H        5.1270     0.9780    -2.1740 H     1 <1>   0.0800 
 25 H        6.0790    -0.7500    -0.8520 H     1 <1>   0.0800 
 26 H        4.4480    -0.7210    -0.2280 H     1 <1>   0.0800 
 27 H        6.1100     3.0590    -0.8160 H     1 <1>   0.0800 
 28 H        7.1730     1.7390    -1.2430 H     1 <1>   0.0800 
 29 H        6.6790    -0.4390     1.3620 H     1 <1>   0.0800 
 30 H        5.1590     0.3340     1.7590 H     1 <1>   0.0800 
 31 H        6.0710     2.3760     1.4430 H     1 <1>   0.0800 
 32 H        7.6130     1.6620     1.0250 H     1 <1>   0.0800 
@<TRIPOS>BOND
  1   1   2  1   
  2   2   3  ar  
  3   2   4  ar  
  4   3   5  1   
  5   3   6  ar  
  6   4   7  ar  
  7   4  17  1   
  8   5   8  2   
  9   5   9  am  
 10   6  10  ar  
 11   6  18  1   
 12   7  10  ar  
 13   7  11  1   
 14   9  12  1   
 15   9  19  1   
 16  10  20  1   
 17  11  21  1   
 18  11  22  1   
 19  11  23  1   
 20  12  13  1   
 21  12  14  1   
 22  12  24  1   
 23  13  15  1   
 24  13  25  1   
 25  13  26  1   
 26  14  16  1   
 27  14  27  1   
 28  14  28  1   
 29  15  16  1   
 30  15  29  1   
 31  15  30  1   
 32  16  31  1   
 33  16  32  1   
@<TRIPOS>SUBSTRUCTURE
  1 ****   5 GROUP 4 **** **** 0

# MOE 2024.06 (io_trps.svl 2023.06)
