@<TRIPOS>MOLECULE
NONAME
29 29 1 0 0 
SMALL
USER_CHARGES


@<TRIPOS>ATOM
  1 BR      -1.2710     1.4650     2.6080 Br    1 <1>  -0.1110 
  2 C       -2.0100     0.7840     0.9680 C.ar  1 <1>   0.1110 
  3 C       -3.3380     1.0370     0.6880 C.ar  1 <1>  -0.1500 
  4 C       -1.1930     0.0640     0.1210 C.ar  1 <1>  -0.1500 
  5 C       -3.9070     0.5570    -0.4960 C.ar  1 <1>   0.0860 
  6 C       -1.7390    -0.4180    -1.0540 C.ar  1 <1>  -0.1500 
  7 C       -5.2950     0.7830    -0.8570 C.2   1 <1>   0.4230 
  8 C       -3.0700    -0.1730    -1.3490 C.ar  1 <1>  -0.1500 
  9 O       -5.7800     0.3810    -1.8830 O.2   1 <1>  -0.5700 
 10 C       -6.2180     1.5620     0.0690 C.3   1 <1>  -0.0990 
 11 C       -7.6310     1.6200    -0.5220 C.3   1 <1>   0.3430 
 12 N       -8.5960     2.3240     0.3820 N.4   1 <1>  -0.9590 
 13 C       -9.9930     2.0810    -0.0940 C.3   1 <1>   0.2630 
 14 C       -8.3330     3.7970     0.4610 C.3   1 <1>   0.2630 
 15 H       -3.9020     1.6050     1.4020 H     1 <1>   0.1500 
 16 H       -0.1620    -0.1120     0.3740 H     1 <1>   0.1500 
 17 H       -1.1290    -0.9840    -1.7380 H     1 <1>   0.1500 
 18 H       -3.4730    -0.5590    -2.2720 H     1 <1>   0.1500 
 19 H       -5.8220     2.5540     0.1830 H     1 <1>   0.0800 
 20 H       -6.2470     1.0660     1.0220 H     1 <1>   0.0800 
 21 H       -7.9670     0.6080    -0.6900 H     1 <1>   0.0800 
 22 H       -7.5970     2.1110    -1.4820 H     1 <1>   0.0800 
 23 H       -8.5110     1.9180     1.3260 H     1 <1>   0.4500 
 24 H      -10.1280     2.4820    -1.0860 H     1 <1>   0.0800 
 25 H      -10.7030     2.5510     0.5670 H     1 <1>   0.0800 
 26 H      -10.2010     1.0230    -0.1220 H     1 <1>   0.0800 
 27 H       -8.3960     4.2420    -0.5200 H     1 <1>   0.0800 
 28 H       -7.3510     3.9850     0.8620 H     1 <1>   0.0800 
 29 H       -9.0580     4.2730     1.1010 H     1 <1>   0.0800 
@<TRIPOS>BOND
  1   1   2  1   
  2   2   3  ar  
  3   2   4  ar  
  4   3   5  ar  
  5   3  15  1   
  6   4   6  ar  
  7   4  16  1   
  8   5   7  1   
  9   5   8  ar  
 10   6   8  ar  
 11   6  17  1   
 12   7   9  2   
 13   7  10  1   
 14   8  18  1   
 15  10  11  1   
 16  10  19  1   
 17  10  20  1   
 18  11  12  1   
 19  11  21  1   
 20  11  22  1   
 21  12  13  1   
 22  12  14  1   
 23  12  23  1   
 24  13  24  1   
 25  13  25  1   
 26  13  26  1   
 27  14  27  1   
 28  14  28  1   
 29  14  29  1   
@<TRIPOS>SUBSTRUCTURE
  1 ****   7 GROUP 4 **** **** 0

# MOE 2024.06 (io_trps.svl 2023.06)
