@<TRIPOS>MOLECULE
NONAME
48 50 1 0 0 
SMALL
USER_CHARGES


@<TRIPOS>ATOM
  1 S       -0.5960    -0.8090     0.9380 S.o2  1 <1>   1.4470 
  2 O       -0.7700     0.6280     0.9080 O.2   1 <1>  -0.6500 
  3 O       -1.1160    -1.5140     2.0910 O.2   1 <1>  -0.6500 
  4 N       -1.4510    -1.4060    -0.4030 N.am  1 <1>  -0.8490 
  5 C        1.1450    -1.1710     0.5640 C.ar  1 <1>  -0.0090 
  6 C       -2.8250    -0.8800    -0.4070 C.3   1 <1>   0.1960 
  7 C       -1.4320    -2.8720    -0.4520 C.3   1 <1>   0.1960 
  8 C        1.7650    -2.3620     0.9400 C.ar  1 <1>   0.0820 
  9 C        1.8970    -0.2410    -0.1460 C.ar  1 <1>  -0.1500 
 10 C       -3.6070    -1.3420    -1.6430 C.3   1 <1>  -0.0190 
 11 C       -2.1350    -3.3770    -1.7160 C.3   1 <1>  -0.1600 
 12 O        1.0330    -3.2860     1.6100 O.3   1 <1>  -0.3630 
 13 C        3.1010    -2.5920     0.6180 C.ar  1 <1>  -0.1500 
 14 C        3.2260    -0.4620    -0.4680 C.ar  1 <1>  -0.1430 
 15 C       -5.0240    -0.7910    -1.5930 C.2   1 <1>   0.5690 
 16 C       -3.5810    -2.8760    -1.7870 C.3   1 <1>  -0.1600 
 17 C        1.6410    -4.2830     2.4030 C.3   1 <1>   0.0400 
 18 C        3.8250    -1.6460    -0.0800 C.ar  1 <1>  -0.1500 
 19 C        4.0120     0.5810    -1.2410 C.3   1 <1>  -0.0970 
 20 O       -5.3690    -0.0040    -2.4410 O.2   1 <1>  -0.5700 
 21 N       -5.8580    -1.1960    -0.5960 N.am  1 <1>  -0.5790 
 22 C       -7.2420    -0.7430    -0.4030 C.3   1 <1>   0.0490 
 23 C       -7.7340    -0.5770     0.9960 C.3   1 <1>  -0.2000 
 24 C       -8.2260    -1.7160     0.1540 C.3   1 <1>  -0.2000 
 25 H       -2.7980     0.1980    -0.4110 H     1 <1>   0.0800 
 26 H       -3.3280    -1.1950     0.4920 H     1 <1>   0.0800 
 27 H       -1.9110    -3.2800     0.4240 H     1 <1>   0.0800 
 28 H       -0.4150    -3.2210    -0.4720 H     1 <1>   0.0800 
 29 H        1.4280     0.6790    -0.4530 H     1 <1>   0.1500 
 30 H       -3.1260    -0.9130    -2.5050 H     1 <1>   0.0800 
 31 H       -2.1230    -4.4530    -1.7230 H     1 <1>   0.0800 
 32 H       -1.5850    -3.0370    -2.5770 H     1 <1>   0.0800 
 33 H        3.5910    -3.5060     0.8960 H     1 <1>   0.1500 
 34 H       -4.0230    -3.1610    -2.7270 H     1 <1>   0.0800 
 35 H       -4.1490    -3.3340    -0.9960 H     1 <1>   0.0800 
 36 H        0.8720    -4.7660     2.9770 H     1 <1>   0.0800 
 37 H        2.3520    -3.8180     3.0640 H     1 <1>   0.0800 
 38 H        2.1210    -4.9990     1.7610 H     1 <1>   0.0800 
 39 H        4.8560    -1.8360    -0.3250 H     1 <1>   0.1500 
 40 H        3.6440     1.5680    -1.0220 H     1 <1>   0.0800 
 41 H        3.9160     0.4020    -2.2960 H     1 <1>   0.0800 
 42 H        5.0530     0.5420    -0.9750 H     1 <1>   0.0800 
 43 H       -5.5340    -1.8740     0.0920 H     1 <1>   0.3700 
 44 H       -7.5720    -0.0420    -1.1550 H     1 <1>   0.1000 
 45 H       -8.4130     0.2290     1.2090 H     1 <1>   0.1000 
 46 H       -7.0620    -0.7780     1.8120 H     1 <1>   0.1000 
 47 H       -7.9020    -2.7150     0.3820 H     1 <1>   0.1000 
 48 H       -9.2410    -1.6810    -0.2030 H     1 <1>   0.1000 
@<TRIPOS>BOND
  1   1   2  2   
  2   1   3  2   
  3   1   4  am  
  4   1   5  1   
  5   4   6  1   
  6   4   7  1   
  7   5   8  ar  
  8   5   9  ar  
  9   6  10  1   
 10   6  25  1   
 11   6  26  1   
 12   7  11  1   
 13   7  27  1   
 14   7  28  1   
 15   8  12  1   
 16   8  13  ar  
 17   9  14  ar  
 18   9  29  1   
 19  10  15  1   
 20  10  16  1   
 21  10  30  1   
 22  11  16  1   
 23  11  31  1   
 24  11  32  1   
 25  12  17  1   
 26  13  18  ar  
 27  13  33  1   
 28  14  18  ar  
 29  14  19  1   
 30  15  20  2   
 31  15  21  am  
 32  16  34  1   
 33  16  35  1   
 34  17  36  1   
 35  17  37  1   
 36  17  38  1   
 37  18  39  1   
 38  19  40  1   
 39  19  41  1   
 40  19  42  1   
 41  21  22  1   
 42  21  43  1   
 43  22  23  1   
 44  22  24  1   
 45  22  44  1   
 46  23  24  1   
 47  23  45  1   
 48  23  46  1   
 49  24  47  1   
 50  24  48  1   
@<TRIPOS>SUBSTRUCTURE
  1 ****   4 GROUP 4 **** **** 0

# MOE 2024.06 (io_trps.svl 2023.06)
