@<TRIPOS>MOLECULE
NONAME
52 53 1 0 0 
SMALL
USER_CHARGES


@<TRIPOS>ATOM
  1 S        0.1210    -0.8090    -0.2990 S.o2  1 <1>   1.4470 
  2 O        0.9150    -1.4800    -1.3060 O.2   1 <1>  -0.6500 
  3 O        0.3450    -1.0490     1.1080 O.2   1 <1>  -0.6500 
  4 N        0.3070     0.8920    -0.5800 N.am  1 <1>  -0.6930 
  5 C       -1.6340    -1.0540    -0.6970 C.ar  1 <1>  -0.0090 
  6 C       -0.4550     1.8080     0.1370 C.ar  1 <1>   0.1990 
  7 C        1.6500     1.3290    -1.0730 C.3   1 <1>   0.2570 
  8 C       -2.0330    -1.5700    -1.9250 C.ar  1 <1>  -0.1500 
  9 C       -2.6280    -0.7000     0.2090 C.ar  1 <1>  -0.1500 
 10 C       -1.4230     2.5900    -0.4970 C.ar  1 <1>  -0.1430 
 11 C       -0.2500     1.9640     1.5030 C.ar  1 <1>  -0.1500 
 12 C        2.7230     1.4470     0.0190 C.2   1 <1>   0.5690 
 13 C       -3.3720    -1.7310    -2.2390 C.ar  1 <1>  -0.1500 
 14 C       -3.9690    -0.8550    -0.0950 C.ar  1 <1>  -0.1500 
 15 C       -2.1510     3.5080     0.2410 C.ar  1 <1>  -0.1500 
 16 C       -1.7020     2.4430    -1.9870 C.3   1 <1>  -0.0960 
 17 C       -0.9780     2.8810     2.2390 C.ar  1 <1>  -0.1430 
 18 O        3.3300     0.4390     0.3000 O.2   1 <1>  -0.5700 
 19 N        3.0120     2.6480     0.6360 N.am  1 <1>  -0.6600 
 20 C       -4.3430    -1.3720    -1.3220 C.ar  1 <1>  -0.1500 
 21 C       -1.9300     3.6550     1.6000 C.ar  1 <1>  -0.1500 
 22 C       -0.7420     3.0420     3.7300 C.3   1 <1>  -0.0970 
 23 C        2.2670     3.9190     0.4060 C.3   1 <1>   0.1400 
 24 C        4.0200     2.6880     1.7330 C.3   1 <1>   0.1400 
 25 C        3.0160     4.7960    -0.5930 C.3   1 <1>  -0.2400 
 26 C        5.4310     2.7850     1.1530 C.3   1 <1>  -0.2400 
 27 H        1.5480     2.2720    -1.5750 H     1 <1>   0.0800 
 28 H        2.0060     0.6300    -1.8080 H     1 <1>   0.0800 
 29 H       -1.2840    -1.8520    -2.6470 H     1 <1>   0.1500 
 30 H       -2.3460    -0.2940     1.1670 H     1 <1>   0.1500 
 31 H        0.4960     1.3580     1.9880 H     1 <1>   0.1500 
 32 H       -3.6570    -2.1350    -3.1950 H     1 <1>   0.1500 
 33 H       -4.7190    -0.5730     0.6230 H     1 <1>   0.1500 
 34 H       -2.9000     4.1160    -0.2340 H     1 <1>   0.1500 
 35 H       -2.0850     1.4590    -2.1910 H     1 <1>   0.0800 
 36 H       -0.7990     2.5870    -2.5520 H     1 <1>   0.0800 
 37 H       -2.4280     3.1630    -2.3190 H     1 <1>   0.0800 
 38 H       -5.3850    -1.4950    -1.5620 H     1 <1>   0.1500 
 39 H       -2.5060     4.3730     2.1580 H     1 <1>   0.1500 
 40 H       -0.0370     2.3130     4.0870 H     1 <1>   0.0800 
 41 H       -1.6670     2.9100     4.2630 H     1 <1>   0.0800 
 42 H       -0.3580     4.0240     3.9360 H     1 <1>   0.0800 
 43 H        2.1410     4.4440     1.3380 H     1 <1>   0.0800 
 44 H        1.2830     3.7190     0.0270 H     1 <1>   0.0800 
 45 H        3.9390     1.7890     2.3220 H     1 <1>   0.0800 
 46 H        3.8320     3.5240     2.3840 H     1 <1>   0.0800 
 47 H        3.9450     5.1340    -0.1740 H     1 <1>   0.0800 
 48 H        2.4220     5.6610    -0.8260 H     1 <1>   0.0800 
 49 H        3.2060     4.2560    -1.5020 H     1 <1>   0.0800 
 50 H        5.6300     1.9350     0.5250 H     1 <1>   0.0800 
 51 H        6.1480     2.7880     1.9530 H     1 <1>   0.0800 
 52 H        5.5530     3.6860     0.5840 H     1 <1>   0.0800 
@<TRIPOS>BOND
  1   1   2  2   
  2   1   3  2   
  3   1   4  am  
  4   1   5  1   
  5   4   6  1   
  6   4   7  1   
  7   5   8  ar  
  8   5   9  ar  
  9   6  10  ar  
 10   6  11  ar  
 11   7  12  1   
 12   7  27  1   
 13   7  28  1   
 14   8  13  ar  
 15   8  29  1   
 16   9  14  ar  
 17   9  30  1   
 18  10  15  ar  
 19  10  16  1   
 20  11  17  ar  
 21  11  31  1   
 22  12  18  2   
 23  12  19  am  
 24  13  20  ar  
 25  13  32  1   
 26  14  20  ar  
 27  14  33  1   
 28  15  21  ar  
 29  15  34  1   
 30  16  35  1   
 31  16  36  1   
 32  16  37  1   
 33  17  21  ar  
 34  17  22  1   
 35  19  23  1   
 36  19  24  1   
 37  20  38  1   
 38  21  39  1   
 39  22  40  1   
 40  22  41  1   
 41  22  42  1   
 42  23  25  1   
 43  23  43  1   
 44  23  44  1   
 45  24  26  1   
 46  24  45  1   
 47  24  46  1   
 48  25  47  1   
 49  25  48  1   
 50  25  49  1   
 51  26  50  1   
 52  26  51  1   
 53  26  52  1   
@<TRIPOS>SUBSTRUCTURE
  1 ****   6 GROUP 4 **** **** 0

# MOE 2024.06 (io_trps.svl 2023.06)
