@<TRIPOS>MOLECULE
NONAME
52 54 1 0 0 
SMALL
USER_CHARGES


@<TRIPOS>ATOM
  1 S       -0.3060    -0.0610    -0.9820 S.o2  1 <1>   1.4470 
  2 O        0.4220     1.0780    -0.4640 O.2   1 <1>  -0.6500 
  3 O       -0.1740    -0.4100    -2.3810 O.2   1 <1>  -0.6500 
  4 N        0.1900    -1.4160    -0.0940 N.am  1 <1>  -0.8490 
  5 C       -2.0560     0.1020    -0.5310 C.ar  1 <1>  -0.0090 
  6 C       -0.4260    -2.6530    -0.5930 C.3   1 <1>   0.1960 
  7 C        1.6500    -1.5330    -0.0760 C.3   1 <1>   0.1960 
  8 C       -2.4340     0.3120     0.7900 C.ar  1 <1>  -0.1500 
  9 C       -3.0650     0.0060    -1.4820 C.ar  1 <1>  -0.1500 
 10 C       -0.0850    -3.8380     0.3240 C.3   1 <1>  -0.0800 
 11 C        2.0810    -2.6760     0.8490 C.3   1 <1>  -0.1600 
 12 C       -3.7660     0.4160     1.1490 C.ar  1 <1>  -0.1500 
 13 C       -4.3980     0.1080    -1.1270 C.ar  1 <1>  -0.1500 
 14 C        1.4370    -4.0070     0.4400 C.3   1 <1>  -0.1600 
 15 C       -0.7310    -5.1310    -0.1890 C.3   1 <1>  -0.2400 
 16 C       -4.7710     0.3100     0.1970 C.ar  1 <1>   0.1170 
 17 N       -6.1090     0.4270     0.5960 N.am  1 <1>  -0.5470 
 18 C       -7.2400    -0.1000     0.0380 C.2   1 <1>   0.6900 
 19 O       -7.1780    -0.9450    -0.8310 O.2   1 <1>  -0.5700 
 20 N       -8.4360     0.3660     0.5040 N.am  1 <1>  -0.5470 
 21 C       -9.7470    -0.0800     0.2720 C.ar  1 <1>   0.1170 
 22 C      -10.8120     0.8210     0.3530 C.ar  1 <1>  -0.1430 
 23 C      -10.0210    -1.4140    -0.0140 C.ar  1 <1>  -0.1500 
 24 C      -12.1090     0.3780     0.1500 C.ar  1 <1>  -0.1500 
 25 C      -10.5810     2.2970     0.6570 C.3   1 <1>  -0.0970 
 26 C      -11.3170    -1.8490    -0.2180 C.ar  1 <1>  -0.1500 
 27 C      -12.3650    -0.9520    -0.1360 C.ar  1 <1>  -0.1500 
 28 H       -0.0820    -2.8570    -1.5950 H     1 <1>   0.0800 
 29 H       -1.4970    -2.5390    -0.6240 H     1 <1>   0.0800 
 30 H        2.0840    -0.6150     0.2860 H     1 <1>   0.0800 
 31 H        2.0150    -1.7050    -1.0760 H     1 <1>   0.0800 
 32 H       -1.6680     0.3910     1.5440 H     1 <1>   0.1500 
 33 H       -2.8060    -0.1530    -2.5160 H     1 <1>   0.1500 
 34 H       -0.4870    -3.6250     1.3010 H     1 <1>   0.0800 
 35 H        1.7960    -2.4290     1.8570 H     1 <1>   0.0800 
 36 H        3.1520    -2.7690     0.8240 H     1 <1>   0.0800 
 37 H       -4.0230     0.5740     2.1810 H     1 <1>   0.1500 
 38 H       -5.1540     0.0300    -1.8890 H     1 <1>   0.1500 
 39 H        1.8410    -4.3180    -0.5090 H     1 <1>   0.0800 
 40 H        1.6710    -4.7630     1.1690 H     1 <1>   0.0800 
 41 H       -0.3650    -5.3780    -1.1700 H     1 <1>   0.0800 
 42 H       -1.8010    -5.0200    -0.2390 H     1 <1>   0.0800 
 43 H       -0.5090    -5.9470     0.4770 H     1 <1>   0.0800 
 44 H       -6.2510     0.8360     1.5130 H     1 <1>   0.3700 
 45 H       -8.3860     1.2680     0.9630 H     1 <1>   0.3700 
 46 H       -9.2170    -2.1240    -0.0770 H     1 <1>   0.1500 
 47 H      -12.9360     1.0640     0.2090 H     1 <1>   0.1500 
 48 H       -9.8930     2.7170    -0.0550 H     1 <1>   0.0800 
 49 H      -10.1850     2.4130     1.6490 H     1 <1>   0.0800 
 50 H      -11.5010     2.8500     0.5950 H     1 <1>   0.0800 
 51 H      -11.5080    -2.8840    -0.4410 H     1 <1>   0.1500 
 52 H      -13.3750    -1.2860    -0.2940 H     1 <1>   0.1500 
@<TRIPOS>BOND
  1   1   2  2   
  2   1   3  2   
  3   1   4  am  
  4   1   5  1   
  5   4   6  1   
  6   4   7  1   
  7   5   8  ar  
  8   5   9  ar  
  9   6  10  1   
 10   6  28  1   
 11   6  29  1   
 12   7  11  1   
 13   7  30  1   
 14   7  31  1   
 15   8  12  ar  
 16   8  32  1   
 17   9  13  ar  
 18   9  33  1   
 19  10  14  1   
 20  10  15  1   
 21  10  34  1   
 22  11  14  1   
 23  11  35  1   
 24  11  36  1   
 25  12  16  ar  
 26  12  37  1   
 27  13  16  ar  
 28  13  38  1   
 29  14  39  1   
 30  14  40  1   
 31  15  41  1   
 32  15  42  1   
 33  15  43  1   
 34  16  17  1   
 35  17  18  am  
 36  17  44  1   
 37  18  19  2   
 38  18  20  am  
 39  20  21  1   
 40  20  45  1   
 41  21  22  ar  
 42  21  23  ar  
 43  22  24  ar  
 44  22  25  1   
 45  23  26  ar  
 46  23  46  1   
 47  24  27  ar  
 48  24  47  1   
 49  25  48  1   
 50  25  49  1   
 51  25  50  1   
 52  26  27  ar  
 53  26  51  1   
 54  27  52  1   
@<TRIPOS>SUBSTRUCTURE
  1 ****  16 GROUP 4 **** **** 0

# MOE 2024.06 (io_trps.svl 2023.06)
