@<TRIPOS>MOLECULE
NONAME
40 41 1 0 0 
SMALL
USER_CHARGES


@<TRIPOS>ATOM
  1 N        0.5490    -0.0900     0.5210 N.4   1 <1>  -0.9590 
  2 C        0.3160     1.3850     0.5000 C.3   1 <1>   0.3430 
  3 C        1.4560    -0.5630    -0.5670 C.3   1 <1>   0.3430 
  4 C       -0.7610    -0.8190     0.4520 C.3   1 <1>   0.2630 
  5 C        1.6490     2.1320     0.5840 C.3   1 <1>  -0.1600 
  6 C        2.7970     0.1680    -0.4890 C.3   1 <1>  -0.1600 
  7 C        2.5870     1.6840    -0.5440 C.3   1 <1>   0.4230 
  8 N        3.9000     2.3970    -0.5200 N.4   1 <1>  -0.9590 
  9 C        4.6770     2.3240     0.7580 C.3   1 <1>   0.4860 
 10 C        3.7860     3.8240    -0.9780 C.3   1 <1>   0.2630 
 11 C        6.1100     2.7030     0.4560 C.ar  1 <1>  -0.1430 
 12 C        6.9460     1.8110    -0.2020 C.ar  1 <1>  -0.1500 
 13 C        6.5980     3.9480     0.8290 C.ar  1 <1>  -0.1500 
 14 C        8.2500     2.1670    -0.4960 C.ar  1 <1>  -0.1500 
 15 C        7.9030     4.3010     0.5330 C.ar  1 <1>  -0.1500 
 16 C        8.7270     3.4130    -0.1320 C.ar  1 <1>  -0.1500 
 17 H        0.9720    -0.3400     1.4300 H     1 <1>   0.4500 
 18 H       -0.3110     1.6700     1.3310 H     1 <1>   0.0800 
 19 H       -0.1970     1.6580    -0.4100 H     1 <1>   0.0800 
 20 H        0.9970    -0.3810    -1.5270 H     1 <1>   0.0800 
 21 H        1.6180    -1.6260    -0.4740 H     1 <1>   0.0800 
 22 H       -1.2660    -0.6050    -0.4770 H     1 <1>   0.0800 
 23 H       -1.4030    -0.5200     1.2660 H     1 <1>   0.0800 
 24 H       -0.6040    -1.8840     0.5190 H     1 <1>   0.0800 
 25 H        2.0810     1.9490     1.5510 H     1 <1>   0.0800 
 26 H        1.4450     3.1850     0.4980 H     1 <1>   0.0800 
 27 H        3.3980    -0.1450    -1.3250 H     1 <1>   0.0800 
 28 H        3.2970    -0.1280     0.4150 H     1 <1>   0.0800 
 29 H        2.1060     1.9090    -1.4840 H     1 <1>   0.0800 
 30 H        4.5220     1.9470    -1.2100 H     1 <1>   0.4500 
 31 H        4.6620     1.3230     1.1570 H     1 <1>   0.0800 
 32 H        4.2630     2.9950     1.4930 H     1 <1>   0.0800 
 33 H        3.2240     4.4080    -0.2670 H     1 <1>   0.0800 
 34 H        3.2950     3.8760    -1.9360 H     1 <1>   0.0800 
 35 H        4.7660     4.2640    -1.0800 H     1 <1>   0.0800 
 36 H        6.6080     0.8300    -0.4890 H     1 <1>   0.1500 
 37 H        5.9800     4.6570     1.3540 H     1 <1>   0.1500 
 38 H        8.9010     1.4770    -1.0070 H     1 <1>   0.1500 
 39 H        8.2830     5.2670     0.8220 H     1 <1>   0.1500 
 40 H        9.7430     3.6880    -0.3600 H     1 <1>   0.1500 
@<TRIPOS>BOND
  1   1   2  1   
  2   1   3  1   
  3   1   4  1   
  4   1  17  1   
  5   2   5  1   
  6   2  18  1   
  7   2  19  1   
  8   3   6  1   
  9   3  20  1   
 10   3  21  1   
 11   4  22  1   
 12   4  23  1   
 13   4  24  1   
 14   5   7  1   
 15   5  25  1   
 16   5  26  1   
 17   6   7  1   
 18   6  27  1   
 19   6  28  1   
 20   7   8  1   
 21   7  29  1   
 22   8   9  1   
 23   8  10  1   
 24   8  30  1   
 25   9  11  1   
 26   9  31  1   
 27   9  32  1   
 28  10  33  1   
 29  10  34  1   
 30  10  35  1   
 31  11  12  ar  
 32  11  13  ar  
 33  12  14  ar  
 34  12  36  1   
 35  13  15  ar  
 36  13  37  1   
 37  14  16  ar  
 38  14  38  1   
 39  15  16  ar  
 40  15  39  1   
 41  16  40  1   
@<TRIPOS>SUBSTRUCTURE
  1 ****   8 GROUP 4 **** **** 0

# MOE 2024.06 (io_trps.svl 2023.06)
