@<TRIPOS>MOLECULE
NONAME
39 39 1 0 0 
SMALL
USER_CHARGES


@<TRIPOS>ATOM
  1 CL       0.3860    -0.5650    -0.0260 Cl    1 <1>  -0.1770 
  2 C       -1.2080    -1.2670     0.0500 C.ar  1 <1>   0.1770 
  3 C       -2.1440    -0.9380    -0.9110 C.ar  1 <1>  -0.1500 
  4 C       -1.5170    -2.1470     1.0700 C.ar  1 <1>  -0.1500 
  5 C       -3.4080    -1.4970    -0.8450 C.ar  1 <1>  -0.1500 
  6 C       -2.7840    -2.6970     1.1280 C.ar  1 <1>  -0.1500 
  7 C       -3.7600    -2.3790     0.1810 C.ar  1 <1>   0.0280 
  8 C       -5.0660    -2.9700     0.2870 C.2   1 <1>  -0.1780 
  9 C       -6.3020    -2.4660     0.0080 C.2   1 <1>   0.1230 
 10 N       -6.4760    -1.1290    -0.4110 N.am  1 <1>  -0.5390 
 11 C       -7.5110    -3.2750     0.1280 C.2   1 <1>   0.6160 
 12 C       -6.1800     0.0410     0.2110 C.2   1 <1>   0.5690 
 13 O       -7.4390    -4.4840     0.2380 O.2   1 <1>  -0.5700 
 14 N       -8.7380    -2.6640     0.1250 N.am  1 <1>  -0.7300 
 15 O       -6.4650     1.0790    -0.3230 O.2   1 <1>  -0.5700 
 16 C       -5.5350     0.0700     1.5770 C.3   1 <1>  -0.1790 
 17 C      -10.0780    -3.2480     0.2310 C.3   1 <1>   0.3000 
 18 C      -10.3250    -4.2030    -0.9380 C.3   1 <1>  -0.2400 
 19 C      -11.0630    -2.0820     0.1530 C.3   1 <1>  -0.2400 
 20 C      -10.2310    -3.9560     1.5770 C.3   1 <1>  -0.2400 
 21 H       -1.8820    -0.2560    -1.6990 H     1 <1>   0.1500 
 22 H       -0.7710    -2.3930     1.8050 H     1 <1>   0.1500 
 23 H       -4.1270    -1.2490    -1.6040 H     1 <1>   0.1500 
 24 H       -3.0260    -3.3830     1.9220 H     1 <1>   0.1500 
 25 H       -5.0270    -3.9820     0.6530 H     1 <1>   0.1500 
 26 H       -6.9870    -0.9880    -1.2850 H     1 <1>   0.3700 
 27 H       -8.7460    -1.6460     0.1480 H     1 <1>   0.3700 
 28 H       -5.8430    -0.7740     2.1640 H     1 <1>   0.0800 
 29 H       -5.8220     0.9700     2.0880 H     1 <1>   0.0800 
 30 H       -4.4670     0.0620     1.4700 H     1 <1>   0.0800 
 31 H      -11.3350    -4.5680    -0.9100 H     1 <1>   0.0800 
 32 H       -9.6680    -5.0520    -0.8810 H     1 <1>   0.0800 
 33 H      -10.1680    -3.7010    -1.8750 H     1 <1>   0.0800 
 34 H      -12.0720    -2.4480     0.2230 H     1 <1>   0.0800 
 35 H      -10.9610    -1.5620    -0.7830 H     1 <1>   0.0800 
 36 H      -10.9010    -1.3930     0.9620 H     1 <1>   0.0800 
 37 H      -10.0130    -3.2830     2.3850 H     1 <1>   0.0800 
 38 H       -9.5700    -4.8020     1.6380 H     1 <1>   0.0800 
 39 H      -11.2370    -4.3160     1.6940 H     1 <1>   0.0800 
@<TRIPOS>BOND
  1   1   2  1   
  2   2   3  ar  
  3   2   4  ar  
  4   3   5  ar  
  5   3  21  1   
  6   4   6  ar  
  7   4  22  1   
  8   5   7  ar  
  9   5  23  1   
 10   6   7  ar  
 11   6  24  1   
 12   7   8  1   
 13   8   9  2   
 14   8  25  1   
 15   9  10  1   
 16   9  11  1   
 17  10  12  am  
 18  10  26  1   
 19  11  13  2   
 20  11  14  am  
 21  12  15  2   
 22  12  16  1   
 23  14  17  1   
 24  14  27  1   
 25  16  28  1   
 26  16  29  1   
 27  16  30  1   
 28  17  18  1   
 29  17  19  1   
 30  17  20  1   
 31  18  31  1   
 32  18  32  1   
 33  18  33  1   
 34  19  34  1   
 35  19  35  1   
 36  19  36  1   
 37  20  37  1   
 38  20  38  1   
 39  20  39  1   
@<TRIPOS>SUBSTRUCTURE
  1 ****   9 GROUP 4 **** **** 0

# MOE 2024.06 (io_trps.svl 2023.06)
