@<TRIPOS>MOLECULE
NONAME
40 43 1 0 0 
SMALL
USER_CHARGES


@<TRIPOS>ATOM
  1 O       -2.0240     0.1600    -1.6200 O.2   1 <1>  -0.5700 
  2 C       -2.5590    -0.7210    -0.9770 C.2   1 <1>   0.7060 
  3 O       -3.8900    -0.6910    -0.8300 O.3   1 <1>  -0.2330 
  4 C       -1.8570    -1.8060    -0.3650 C.2   1 <1>  -0.1240 
  5 C       -4.5790    -1.6340    -0.1340 C.ar  1 <1>   0.0820 
  6 C       -2.4910    -2.7580     0.3280 C.2   1 <1>  -0.1670 
  7 C       -0.3640    -2.0220    -0.4030 C.3   1 <1>  -0.0220 
  8 C       -3.9110    -2.7080     0.4740 C.ar  1 <1>   0.0280 
  9 C       -5.9560    -1.5080    -0.0400 C.ar  1 <1>  -0.1500 
 10 C       -1.5440    -3.7930     0.8840 C.3   1 <1>  -0.0220 
 11 C       -0.1790    -3.3850     0.2940 C.3   1 <1>  -0.1600 
 12 C       -4.6680    -3.6450     1.1770 C.ar  1 <1>  -0.1500 
 13 C       -6.6960    -2.4560     0.6540 C.ar  1 <1>   0.0830 
 14 C       -6.0390    -3.5180     1.2640 C.ar  1 <1>  -0.1500 
 15 O       -8.0430    -2.4260     0.7810 O.3   1 <1>  -0.3630 
 16 C       -8.8630    -1.5220     0.0560 C.3   1 <1>   0.2610 
 17 C       -8.8950    -0.1140     0.6690 C.2   1 <1>   0.4480 
 18 C      -10.2700    -2.1350     0.0140 C.3   1 <1>  -0.1600 
 19 O       -8.1750     0.2670     1.5450 O.2   1 <1>  -0.5700 
 20 C       -9.9270     0.8230     0.0640 C.3   1 <1>  -0.0990 
 21 C      -11.2780    -1.1980    -0.6710 C.3   1 <1>  -0.1600 
 22 C      -11.3190     0.1740     0.0170 C.3   1 <1>  -0.1600 
 23 H        0.1330    -1.2360     0.1390 H     1 <1>   0.0800 
 24 H       -0.0050    -2.0450    -1.4170 H     1 <1>   0.0800 
 25 H       -6.4160    -0.6590    -0.5060 H     1 <1>   0.1500 
 26 H       -1.8220    -4.7830     0.5690 H     1 <1>   0.0800 
 27 H       -1.5300    -3.7400     1.9590 H     1 <1>   0.0800 
 28 H        0.5720    -3.3260     1.0620 H     1 <1>   0.0800 
 29 H        0.1280    -4.1170    -0.4340 H     1 <1>   0.0800 
 30 H       -4.1780    -4.4730     1.6570 H     1 <1>   0.1500 
 31 H       -6.6210    -4.2410     1.8080 H     1 <1>   0.1500 
 32 H       -8.4830    -1.4640    -0.9480 H     1 <1>   0.0800 
 33 H      -10.5970    -2.3270     1.0220 H     1 <1>   0.0800 
 34 H      -10.2340    -3.0720    -0.5150 H     1 <1>   0.0800 
 35 H       -9.6120     1.0830    -0.9300 H     1 <1>   0.0800 
 36 H       -9.9680     1.7260     0.6460 H     1 <1>   0.0800 
 37 H      -12.2580    -1.6440    -0.6380 H     1 <1>   0.0800 
 38 H      -11.0110    -1.0750    -1.7070 H     1 <1>   0.0800 
 39 H      -12.0030     0.8220    -0.5040 H     1 <1>   0.0800 
 40 H      -11.6850     0.0540     1.0240 H     1 <1>   0.0800 
@<TRIPOS>BOND
  1   1   2  2   
  2   2   3  1   
  3   2   4  1   
  4   3   5  1   
  5   4   6  2   
  6   4   7  1   
  7   5   8  ar  
  8   5   9  ar  
  9   6   8  1   
 10   6  10  1   
 11   7  11  1   
 12   7  23  1   
 13   7  24  1   
 14   8  12  ar  
 15   9  13  ar  
 16   9  25  1   
 17  10  11  1   
 18  10  26  1   
 19  10  27  1   
 20  11  28  1   
 21  11  29  1   
 22  12  14  ar  
 23  12  30  1   
 24  13  14  ar  
 25  13  15  1   
 26  14  31  1   
 27  15  16  1   
 28  16  17  1   
 29  16  18  1   
 30  16  32  1   
 31  17  19  2   
 32  17  20  1   
 33  18  21  1   
 34  18  33  1   
 35  18  34  1   
 36  20  22  1   
 37  20  35  1   
 38  20  36  1   
 39  21  22  1   
 40  21  37  1   
 41  21  38  1   
 42  22  39  1   
 43  22  40  1   
@<TRIPOS>SUBSTRUCTURE
  1 ****   9 GROUP 4 **** **** 0

# MOE 2024.06 (io_trps.svl 2023.06)
