@<TRIPOS>MOLECULE
NONAME
58 60 1 0 0 
SMALL
USER_CHARGES


@<TRIPOS>ATOM
  1 O        0.5160    -0.3990     1.2050 O.3   1 <1>  -0.3630 
  2 C        1.3640    -0.7900     0.2150 C.ar  1 <1>   0.0820 
  3 C        0.3260     0.9820     1.4460 C.3   1 <1>   0.1200 
  4 C        1.0330    -1.8840    -0.5920 C.ar  1 <1>   0.0820 
  5 C        2.5550    -0.1110    -0.0150 C.ar  1 <1>  -0.1500 
  6 C       -1.0700     1.2090     2.0320 C.3   1 <1>   0.1200 
  7 O       -0.1010    -2.6100    -0.4270 O.3   1 <1>  -0.3630 
  8 C        1.8750    -2.2560    -1.6250 C.ar  1 <1>  -0.1500 
  9 C        3.4030    -0.4920    -1.0460 C.ar  1 <1>  -0.1430 
 10 O       -2.0200     0.8820     1.0680 O.3   1 <1>  -0.5600 
 11 C       -0.3040    -3.2470     0.8200 C.3   1 <1>   0.1200 
 12 C        3.0550    -1.5670    -1.8510 C.ar  1 <1>  -0.1500 
 13 C        4.6980     0.2700    -1.2930 C.3   1 <1>   0.3170 
 14 C       -3.3100     0.6850     1.5480 C.3   1 <1>   0.1200 
 15 C       -1.6570    -2.8500     1.4170 C.3   1 <1>   0.1200 
 16 N        5.5790     0.1680    -0.1400 N.2   1 <1>  -0.1710 
 17 C       -4.1590     0.1360     0.4050 C.3   1 <1>   0.1200 
 18 O       -2.7000    -3.4270     0.6910 O.3   1 <1>  -0.5600 
 19 O        5.8850     1.1670     0.3880 O.2   1 <1>  -0.1620 
 20 O       -5.4090    -0.2620     0.9340 O.3   1 <1>  -0.3630 
 21 C       -3.9510    -3.3050     1.2950 C.3   1 <1>   0.1200 
 22 C       -6.3480    -0.6730     0.0480 C.ar  1 <1>   0.0820 
 23 C       -5.0620    -3.5730     0.2750 C.3   1 <1>   0.1200 
 24 C       -6.1830    -1.7900    -0.7770 C.ar  1 <1>   0.0820 
 25 C       -7.5230     0.0570    -0.0180 C.ar  1 <1>  -0.1500 
 26 O       -5.0800    -2.5720    -0.7260 O.3   1 <1>  -0.3620 
 27 C       -7.1760    -2.1280    -1.6810 C.ar  1 <1>  -0.1500 
 28 C       -8.5220    -0.2880    -0.9170 C.ar  1 <1>  -0.1430 
 29 C       -8.3410    -1.3830    -1.7500 C.ar  1 <1>  -0.1500 
 30 C       -9.8010     0.5350    -0.9860 C.3   1 <1>   0.3170 
 31 N      -10.7430     0.0860     0.0250 N.2   1 <1>  -0.1710 
 32 O      -11.1040     0.8790     0.8060 O.2   1 <1>  -0.1620 
 33 H        0.4180     1.5180     0.5170 H     1 <1>   0.0800 
 34 H        1.0840     1.3080     2.1340 H     1 <1>   0.0800 
 35 H        2.8330     0.7140     0.6150 H     1 <1>   0.1500 
 36 H       -1.2050     2.2430     2.2980 H     1 <1>   0.0800 
 37 H       -1.2030     0.5890     2.9010 H     1 <1>   0.0800 
 38 H        1.5990    -3.0880    -2.2470 H     1 <1>   0.1500 
 39 H        0.4880    -2.9680     1.4920 H     1 <1>   0.0800 
 40 H       -0.2650    -4.3090     0.6620 H     1 <1>   0.0800 
 41 H        3.6950    -1.8790    -2.6580 H     1 <1>   0.1500 
 42 H        4.4750     1.3050    -1.4870 H     1 <1>   0.0800 
 43 H        5.2110    -0.1310    -2.1480 H     1 <1>   0.0800 
 44 H       -3.6990     1.6260     1.8950 H     1 <1>   0.0800 
 45 H       -3.2740    -0.0320     2.3490 H     1 <1>   0.0800 
 46 H       -1.7660    -1.7800     1.3980 H     1 <1>   0.0800 
 47 H       -1.7140    -3.2020     2.4320 H     1 <1>   0.0800 
 48 H       -3.6740    -0.7170    -0.0340 H     1 <1>   0.0800 
 49 H       -4.3260     0.8900    -0.3420 H     1 <1>   0.0800 
 50 H       -4.0630    -2.3180     1.7070 H     1 <1>   0.0800 
 51 H       -4.0030    -4.0260     2.0910 H     1 <1>   0.0800 
 52 H       -6.0180    -3.5930     0.7670 H     1 <1>   0.0800 
 53 H       -4.8970    -4.5200    -0.2080 H     1 <1>   0.0800 
 54 H       -7.6460     0.8980     0.6400 H     1 <1>   0.1500 
 55 H       -7.0320    -2.9780    -2.3230 H     1 <1>   0.1500 
 56 H       -9.1050    -1.6660    -2.4540 H     1 <1>   0.1500 
 57 H      -10.2590     0.4250    -1.9520 H     1 <1>   0.0800 
 58 H       -9.5750     1.5760    -0.8350 H     1 <1>   0.0800 
@<TRIPOS>BOND
  1   1   2  1   
  2   1   3  1   
  3   2   4  ar  
  4   2   5  ar  
  5   3   6  1   
  6   3  33  1   
  7   3  34  1   
  8   4   7  1   
  9   4   8  ar  
 10   5   9  ar  
 11   5  35  1   
 12   6  10  1   
 13   6  36  1   
 14   6  37  1   
 15   7  11  1   
 16   8  12  ar  
 17   8  38  1   
 18   9  12  ar  
 19   9  13  1   
 20  10  14  1   
 21  11  15  1   
 22  11  39  1   
 23  11  40  1   
 24  12  41  1   
 25  13  16  1   
 26  13  42  1   
 27  13  43  1   
 28  14  17  1   
 29  14  44  1   
 30  14  45  1   
 31  15  18  1   
 32  15  46  1   
 33  15  47  1   
 34  16  19  2   
 35  17  20  1   
 36  17  48  1   
 37  17  49  1   
 38  18  21  1   
 39  20  22  1   
 40  21  23  1   
 41  21  50  1   
 42  21  51  1   
 43  22  24  ar  
 44  22  25  ar  
 45  23  26  1   
 46  23  52  1   
 47  23  53  1   
 48  24  26  1   
 49  24  27  ar  
 50  25  28  ar  
 51  25  54  1   
 52  27  29  ar  
 53  27  55  1   
 54  28  29  ar  
 55  28  30  1   
 56  29  56  1   
 57  30  31  1   
 58  30  57  1   
 59  30  58  1   
 60  31  32  2   
@<TRIPOS>SUBSTRUCTURE
  1 ****  17 GROUP 4 **** **** 0

# MOE 2024.06 (io_trps.svl 2023.06)
