@<TRIPOS>MOLECULE
NONAME
48 49 1 0 0 
SMALL
USER_CHARGES


@<TRIPOS>ATOM
  1 O        1.3670    -0.3450     0.3710 O.3   1 <1>  -0.3630 
  2 C        0.6930    -1.4510     0.8130 C.ar  1 <1>   0.0830 
  3 C        0.7010     0.8960     0.2310 C.3   1 <1>   0.0400 
  4 C       -0.6340    -1.7620     0.4710 C.ar  1 <1>   0.0830 
  5 C        1.4120    -2.3090     1.6410 C.ar  1 <1>  -0.1440 
  6 O       -1.3130    -0.9540    -0.3930 O.3   1 <1>  -0.3620 
  7 C       -1.2170    -2.9090     1.0030 C.ar  1 <1>  -0.1500 
  8 C        0.8140    -3.4490     2.1550 C.ar  1 <1>  -0.1500 
  9 C        2.8520    -1.9960     1.9780 C.3   1 <1>   0.4860 
 10 C       -2.6340    -1.2320    -0.8080 C.3   1 <1>   0.0400 
 11 C       -0.4990    -3.7430     1.8400 C.ar  1 <1>  -0.1500 
 12 N        3.5980    -2.0190     0.7050 N.4   1 <1>  -0.9060 
 13 C        4.9940    -1.5660     0.7740 C.3   1 <1>   0.4230 
 14 C        5.0420    -0.0540     1.0300 C.3   1 <1>  -0.1600 
 15 C        5.6710    -1.9120    -0.5530 C.3   1 <1>  -0.1600 
 16 C        6.4860     0.4660     0.9950 C.3   1 <1>  -0.1600 
 17 C        7.1180    -1.3980    -0.5940 C.3   1 <1>  -0.1600 
 18 C        7.1910     0.1180    -0.3280 C.3   1 <1>  -0.0800 
 19 C        8.6430     0.6290    -0.2880 C.3   1 <1>  -0.1600 
 20 C        9.3790     0.4840    -1.6260 C.3   1 <1>  -0.2400 
 21 H        1.4290     1.6840     0.2970 H     1 <1>   0.0800 
 22 H       -0.0270     1.0020     1.0160 H     1 <1>   0.0800 
 23 H        0.2220     0.9300    -0.7320 H     1 <1>   0.0800 
 24 H       -2.2320    -3.1780     0.7790 H     1 <1>   0.1500 
 25 H        1.3530    -4.1180     2.8050 H     1 <1>   0.1500 
 26 H        3.2490    -2.7250     2.6660 H     1 <1>   0.0800 
 27 H        2.9040    -1.0180     2.4280 H     1 <1>   0.0800 
 28 H       -2.9400    -0.4610    -1.4910 H     1 <1>   0.0800 
 29 H       -3.2800    -1.2320     0.0530 H     1 <1>   0.0800 
 30 H       -2.6520    -2.1860    -1.3050 H     1 <1>   0.0800 
 31 H       -0.9660    -4.6260     2.2440 H     1 <1>   0.1500 
 32 H        3.0630    -1.3950     0.0790 H     1 <1>   0.4500 
 33 H        3.5300    -2.9550     0.2970 H     1 <1>   0.4500 
 34 H        5.5100    -2.0790     1.5700 H     1 <1>   0.0800 
 35 H        4.6260     0.1800     1.9930 H     1 <1>   0.0800 
 36 H        4.4730     0.4640     0.2760 H     1 <1>   0.0800 
 37 H        5.1280    -1.4660    -1.3700 H     1 <1>   0.0800 
 38 H        5.6830    -2.9790    -0.6920 H     1 <1>   0.0800 
 39 H        7.0400     0.0430     1.8170 H     1 <1>   0.0800 
 40 H        6.4790     1.5350     1.1260 H     1 <1>   0.0800 
 41 H        7.5310    -1.6190    -1.5630 H     1 <1>   0.0800 
 42 H        7.7090    -1.9200     0.1390 H     1 <1>   0.0800 
 43 H        6.6790     0.6320    -1.1260 H     1 <1>   0.0800 
 44 H        9.1960     0.1090     0.4770 H     1 <1>   0.0800 
 45 H        8.6370     1.6740    -0.0260 H     1 <1>   0.0800 
 46 H        9.5340    -0.5500    -1.8750 H     1 <1>   0.0800 
 47 H       10.3440     0.9570    -1.5620 H     1 <1>   0.0800 
 48 H        8.8240     0.9570    -2.4170 H     1 <1>   0.0800 
@<TRIPOS>BOND
  1   1   2  1   
  2   1   3  1   
  3   2   4  ar  
  4   2   5  ar  
  5   3  21  1   
  6   3  22  1   
  7   3  23  1   
  8   4   6  1   
  9   4   7  ar  
 10   5   8  ar  
 11   5   9  1   
 12   6  10  1   
 13   7  11  ar  
 14   7  24  1   
 15   8  11  ar  
 16   8  25  1   
 17   9  12  1   
 18   9  26  1   
 19   9  27  1   
 20  10  28  1   
 21  10  29  1   
 22  10  30  1   
 23  11  31  1   
 24  12  13  1   
 25  12  32  1   
 26  12  33  1   
 27  13  14  1   
 28  13  15  1   
 29  13  34  1   
 30  14  16  1   
 31  14  35  1   
 32  14  36  1   
 33  15  17  1   
 34  15  37  1   
 35  15  38  1   
 36  16  18  1   
 37  16  39  1   
 38  16  40  1   
 39  17  18  1   
 40  17  41  1   
 41  17  42  1   
 42  18  19  1   
 43  18  43  1   
 44  19  20  1   
 45  19  44  1   
 46  19  45  1   
 47  20  46  1   
 48  20  47  1   
 49  20  48  1   
@<TRIPOS>SUBSTRUCTURE
  1 ****  12 GROUP 4 **** **** 0

# MOE 2024.06 (io_trps.svl 2023.06)
