@<TRIPOS>MOLECULE
NONAME
27 27 1 0 0 
SMALL
USER_CHARGES


@<TRIPOS>ATOM
  1 BR       0.1710    -0.3360    -0.7440 Br    1 <1>  -0.1110 
  2 C        1.7060     0.7030    -0.2220 C.ar  1 <1>   0.1110 
  3 C        2.8400     0.0470     0.1890 C.ar  1 <1>  -0.1500 
  4 C        1.6180     2.0790    -0.2760 C.ar  1 <1>  -0.1500 
  5 C        3.9560     0.7860     0.5690 C.ar  1 <1>   0.0860 
  6 C        2.7060     2.8680     0.0930 C.ar  1 <1>  -0.1440 
  7 C        3.8640     2.1880     0.5120 C.ar  1 <1>   0.0830 
  8 C        5.1540     0.1080     1.0020 C.2   1 <1>   0.4240 
  9 C        2.6070     4.4220     0.0310 C.3   1 <1>   0.1440 
 10 O        4.9470     2.8850     0.8820 O.3   1 <1>  -0.5320 
 11 O        5.2820    -1.0890     1.0680 O.2   1 <1>  -0.5700 
 12 C        3.6400     4.9980    -0.9550 C.3   1 <1>  -0.2400 
 13 C        2.8010     5.0390     1.4290 C.3   1 <1>  -0.2400 
 14 C        1.2320     4.9190    -0.4610 C.3   1 <1>  -0.2400 
 15 H        2.8640    -1.0290     0.2160 H     1 <1>   0.1500 
 16 H        0.6830     2.4830    -0.6130 H     1 <1>   0.1500 
 17 H        5.9970     0.7100     1.2890 H     1 <1>   0.0600 
 18 H        4.8090     3.8480     0.8160 H     1 <1>   0.4500 
 19 H        3.5140     4.5410    -1.9210 H     1 <1>   0.0800 
 20 H        4.6530     4.8380    -0.6430 H     1 <1>   0.0800 
 21 H        3.5040     6.0600    -1.0670 H     1 <1>   0.0800 
 22 H        3.7840     4.8810     1.8250 H     1 <1>   0.0800 
 23 H        2.0930     4.6110     2.1160 H     1 <1>   0.0800 
 24 H        2.6360     6.1020     1.3980 H     1 <1>   0.0800 
 25 H        0.4480     4.5900     0.1980 H     1 <1>   0.0800 
 26 H        1.0310     4.5610    -1.4560 H     1 <1>   0.0800 
 27 H        1.2010     5.9940    -0.4910 H     1 <1>   0.0800 
@<TRIPOS>BOND
  1   1   2  1   
  2   2   3  ar  
  3   2   4  ar  
  4   3   5  ar  
  5   3  15  1   
  6   4   6  ar  
  7   4  16  1   
  8   5   7  ar  
  9   5   8  1   
 10   6   7  ar  
 11   6   9  1   
 12   7  10  1   
 13   8  11  2   
 14   8  17  1   
 15   9  12  1   
 16   9  13  1   
 17   9  14  1   
 18  10  18  1   
 19  12  19  1   
 20  12  20  1   
 21  12  21  1   
 22  13  22  1   
 23  13  23  1   
 24  13  24  1   
 25  14  25  1   
 26  14  26  1   
 27  14  27  1   
@<TRIPOS>SUBSTRUCTURE
  1 ****   6 GROUP 4 **** **** 0

# MOE 2024.06 (io_trps.svl 2023.06)
