@<TRIPOS>MOLECULE
NONAME
40 41 1 0 0 
SMALL
USER_CHARGES


@<TRIPOS>ATOM
  1 BR       1.0830     1.1190     3.3670 Br    1 <1>  -0.1110 
  2 C        1.8400     1.1440     1.5920 C.ar  1 <1>   0.1110 
  3 C        1.0550     1.5240     0.5130 C.ar  1 <1>   0.0820 
  4 C        3.1650     0.7760     1.4560 C.ar  1 <1>  -0.1500 
  5 O       -0.2380     1.8730     0.7380 O.3   1 <1>  -0.3630 
  6 C        1.6460     1.5240    -0.7460 C.ar  1 <1>  -0.1500 
  7 C        3.7600     0.7830     0.1990 C.ar  1 <1>  -0.0090 
  8 C       -1.1040     2.2250    -0.3170 C.3   1 <1>   0.0400 
  9 C        2.9770     1.1580    -0.8900 C.ar  1 <1>  -0.1500 
 10 S        5.4990     0.3230    -0.0180 S.o2  1 <1>   1.4470 
 11 O        6.1850     0.2380     1.2540 O.2   1 <1>  -0.6500 
 12 O        5.6240    -0.7800    -0.9400 O.2   1 <1>  -0.6500 
 13 N        6.1780     1.6730    -0.8040 N.am  1 <1>  -0.8490 
 14 C        6.4840     2.8110     0.0910 C.3   1 <1>   0.1960 
 15 C        7.3520     1.3310    -1.6290 C.3   1 <1>   0.1960 
 16 C        7.7660     2.6130     0.9480 C.3   1 <1>   0.3430 
 17 C        8.5830     0.9900    -0.7600 C.3   1 <1>   0.3430 
 18 N        8.9580     2.1340     0.1530 N.4   1 <1>  -0.9590 
 19 C       10.0600     1.7550     1.0770 C.3   1 <1>   0.3430 
 20 C       11.3660     1.6370     0.3010 C.3   1 <1>  -0.2400 
 21 H        3.7230     0.4850     2.3290 H     1 <1>   0.1500 
 22 H        1.0900     1.8040    -1.6220 H     1 <1>   0.1500 
 23 H       -2.0700     2.4410     0.1030 H     1 <1>   0.0800 
 24 H       -1.1810     1.3970    -0.9990 H     1 <1>   0.0800 
 25 H       -0.7190     3.0990    -0.8110 H     1 <1>   0.0800 
 26 H        3.4170     1.1610    -1.8740 H     1 <1>   0.1500 
 27 H        5.6460     2.9930     0.7440 H     1 <1>   0.0800 
 28 H        6.6080     3.6960    -0.5100 H     1 <1>   0.0800 
 29 H        7.5910     2.1640    -2.2680 H     1 <1>   0.0800 
 30 H        7.1250     0.5020    -2.2780 H     1 <1>   0.0800 
 31 H        7.5510     1.9010     1.7270 H     1 <1>   0.0800 
 32 H        8.0060     3.5450     1.4340 H     1 <1>   0.0800 
 33 H        9.4100     0.7500    -1.4070 H     1 <1>   0.0800 
 34 H        8.3580     0.1130    -0.1750 H     1 <1>   0.0800 
 35 H        9.2880     2.9140    -0.4300 H     1 <1>   0.4500 
 36 H        9.8300     0.8210     1.5670 H     1 <1>   0.0800 
 37 H       10.1740     2.5130     1.8360 H     1 <1>   0.0800 
 38 H       11.3370     0.8250    -0.4020 H     1 <1>   0.0800 
 39 H       12.1660     1.4360     0.9930 H     1 <1>   0.0800 
 40 H       11.5960     2.5550    -0.2090 H     1 <1>   0.0800 
@<TRIPOS>BOND
  1   1   2  1   
  2   2   3  ar  
  3   2   4  ar  
  4   3   5  1   
  5   3   6  ar  
  6   4   7  ar  
  7   4  21  1   
  8   5   8  1   
  9   6   9  ar  
 10   6  22  1   
 11   7   9  ar  
 12   7  10  1   
 13   8  23  1   
 14   8  24  1   
 15   8  25  1   
 16   9  26  1   
 17  10  11  2   
 18  10  12  2   
 19  10  13  am  
 20  13  14  1   
 21  13  15  1   
 22  14  16  1   
 23  14  27  1   
 24  14  28  1   
 25  15  17  1   
 26  15  29  1   
 27  15  30  1   
 28  16  18  1   
 29  16  31  1   
 30  16  32  1   
 31  17  18  1   
 32  17  33  1   
 33  17  34  1   
 34  18  19  1   
 35  18  35  1   
 36  19  20  1   
 37  19  36  1   
 38  19  37  1   
 39  20  38  1   
 40  20  39  1   
 41  20  40  1   
@<TRIPOS>SUBSTRUCTURE
  1 ****  10 GROUP 4 **** **** 0

# MOE 2024.06 (io_trps.svl 2023.06)
