@<TRIPOS>MOLECULE
NONAME
37 39 1 0 0 
SMALL
USER_CHARGES


@<TRIPOS>ATOM
  1 S        0.0860     0.9910     0.0470 S.3   1 <1>  -0.3320 
  2 C       -1.6660     1.2290    -0.3020 C.ar  1 <1>   0.1020 
  3 C        0.3130    -0.8060     0.4050 C.3   1 <1>  -0.0100 
  4 C       -2.0860     2.5150    -0.5860 C.ar  1 <1>  -0.1500 
  5 C       -2.5720     0.1820    -0.2950 C.ar  1 <1>  -0.1500 
  6 C       -3.4210     2.7520    -0.8570 C.ar  1 <1>  -0.1500 
  7 C       -3.9040     0.4350    -0.5700 C.ar  1 <1>  -0.1500 
  8 C       -4.3630     1.7240    -0.8470 C.ar  1 <1>   0.0280 
  9 C       -5.7390     2.0400    -1.1310 C.2   1 <1>  -0.1780 
 10 C       -6.8940     1.6330    -0.5570 C.2   1 <1>  -0.0380 
 11 N       -8.1210     2.1780    -0.9450 N.pl3 1 <1>  -0.8380 
 12 C       -7.0190     0.6710     0.6440 C.3   1 <1>   0.3380 
 13 C       -9.1890     1.1530    -1.1710 C.3   1 <1>   0.2090 
 14 C       -8.5970     3.1250     0.1100 C.3   1 <1>   0.2090 
 15 O       -6.8830    -0.6270     0.1870 O.3   1 <1>  -0.6800 
 16 C       -8.4460     0.8470     1.2340 C.3   1 <1>  -0.0800 
 17 C       -9.4890     0.4300     0.1640 C.3   1 <1>  -0.1600 
 18 C       -8.6670     2.3650     1.4610 C.3   1 <1>  -0.1600 
 19 H        1.3530    -0.9640     0.6260 H     1 <1>   0.0800 
 20 H        0.0210    -1.3580    -0.4710 H     1 <1>   0.0800 
 21 H       -0.3000    -1.0550     1.2520 H     1 <1>   0.0800 
 22 H       -1.3720     3.3180    -0.5930 H     1 <1>   0.1500 
 23 H       -2.2630    -0.8220    -0.0840 H     1 <1>   0.1500 
 24 H       -3.7460     3.7540    -1.0750 H     1 <1>   0.1500 
 25 H       -4.5920    -0.3870    -0.5810 H     1 <1>   0.1500 
 26 H       -5.8380     2.7580    -1.9250 H     1 <1>   0.1500 
 27 H       -6.2560     0.8580     1.3790 H     1 <1>   0.0800 
 28 H      -10.0760     1.6270    -1.5550 H     1 <1>   0.0800 
 29 H       -8.8420     0.4470    -1.9060 H     1 <1>   0.0800 
 30 H       -7.9130     3.9550     0.1820 H     1 <1>   0.0800 
 31 H       -9.5670     3.5080    -0.1590 H     1 <1>   0.0800 
 32 H       -7.2080    -0.6250    -0.7320 H     1 <1>   0.4000 
 33 H       -8.5570     0.2930     2.1490 H     1 <1>   0.0800 
 34 H      -10.4800     0.6860     0.4950 H     1 <1>   0.0800 
 35 H       -9.4750    -0.6340     0.0100 H     1 <1>   0.0800 
 36 H       -7.9110     2.7490     2.1220 H     1 <1>   0.0800 
 37 H       -9.6220     2.5440     1.9230 H     1 <1>   0.0800 
@<TRIPOS>BOND
  1   1   2  1   
  2   1   3  1   
  3   2   4  ar  
  4   2   5  ar  
  5   3  19  1   
  6   3  20  1   
  7   3  21  1   
  8   4   6  ar  
  9   4  22  1   
 10   5   7  ar  
 11   5  23  1   
 12   6   8  ar  
 13   6  24  1   
 14   7   8  ar  
 15   7  25  1   
 16   8   9  1   
 17   9  10  2   
 18   9  26  1   
 19  10  11  1   
 20  10  12  1   
 21  11  13  1   
 22  11  14  1   
 23  12  15  1   
 24  12  16  1   
 25  12  27  1   
 26  13  17  1   
 27  13  28  1   
 28  13  29  1   
 29  14  18  1   
 30  14  30  1   
 31  14  31  1   
 32  15  32  1   
 33  16  17  1   
 34  16  18  1   
 35  16  33  1   
 36  17  34  1   
 37  17  35  1   
 38  18  36  1   
 39  18  37  1   
@<TRIPOS>SUBSTRUCTURE
  1 ****   9 GROUP 4 **** **** 0

# MOE 2024.06 (io_trps.svl 2023.06)
