@<TRIPOS>MOLECULE
NONAME
40 41 1 0 0 
SMALL
USER_CHARGES


@<TRIPOS>ATOM
  1 S       -0.8100     0.3040     1.3320 S.o2  1 <1>   1.3330 
  2 O       -1.3310     1.2980     2.2410 O.2   1 <1>  -0.6500 
  3 O       -0.4100    -0.9930     1.8250 O.2   1 <1>  -0.6500 
  4 N       -1.9530     0.0670     0.1060 N.am  1 <1>  -0.8490 
  5 C        0.5720     0.9930     0.4460 C.3   1 <1>  -0.1350 
  6 C       -2.7170     1.2930    -0.2040 C.3   1 <1>   0.1960 
  7 C       -2.8880    -1.0220     0.4460 C.3   1 <1>   0.1960 
  8 C       -3.6770     1.0740    -1.3840 C.3   1 <1>   0.1400 
  9 C       -3.8850    -1.3090    -0.6930 C.3   1 <1>   0.1400 
 10 N       -4.6020    -0.0650    -1.1070 N.am  1 <1>  -0.6600 
 11 C       -5.9180     0.1640    -0.8050 C.2   1 <1>   0.6900 
 12 O       -6.2910     1.2830    -0.5080 O.2   1 <1>  -0.5700 
 13 N       -6.7900    -0.8830    -0.8700 N.am  1 <1>  -0.5470 
 14 C       -8.1270    -0.9960    -0.4610 C.ar  1 <1>   0.1170 
 15 C       -8.9440    -1.9380    -1.0760 C.ar  1 <1>  -0.1500 
 16 C       -8.6670    -0.2160     0.5570 C.ar  1 <1>  -0.1500 
 17 C      -10.2630    -2.1010    -0.6910 C.ar  1 <1>  -0.1500 
 18 C       -9.9850    -0.3740     0.9450 C.ar  1 <1>  -0.1500 
 19 C      -10.7930    -1.3140     0.3280 C.ar  1 <1>   0.0820 
 20 O      -12.0750    -1.4060     0.7710 O.3   1 <1>  -0.3620 
 21 C      -12.9830    -2.3090     0.1800 C.3   1 <1>   0.0400 
 22 H        0.3010     1.9250    -0.0070 H     1 <1>   0.0800 
 23 H        0.8930     0.3130    -0.3180 H     1 <1>   0.0800 
 24 H        1.3890     1.1630     1.1200 H     1 <1>   0.0800 
 25 H       -2.0390     2.0910    -0.4520 H     1 <1>   0.0800 
 26 H       -3.2900     1.6030     0.6550 H     1 <1>   0.0800 
 27 H       -3.4320    -0.7690     1.3410 H     1 <1>   0.0800 
 28 H       -2.3360    -1.9260     0.6420 H     1 <1>   0.0800 
 29 H       -3.1070     0.8590    -2.2710 H     1 <1>   0.0800 
 30 H       -4.2340     1.9770    -1.5640 H     1 <1>   0.0800 
 31 H       -4.5800    -2.0580    -0.3600 H     1 <1>   0.0800 
 32 H       -3.3480    -1.7040    -1.5380 H     1 <1>   0.0800 
 33 H       -6.4330    -1.6510    -1.4260 H     1 <1>   0.3700 
 34 H       -8.5480    -2.5490    -1.8660 H     1 <1>   0.1500 
 35 H       -8.0570     0.5180     1.0500 H     1 <1>   0.1500 
 36 H      -10.8610    -2.8380    -1.1920 H     1 <1>   0.1500 
 37 H      -10.3950     0.2340     1.7310 H     1 <1>   0.1500 
 38 H      -13.9310    -2.2000     0.6750 H     1 <1>   0.0800 
 39 H      -12.6140    -3.3110     0.3120 H     1 <1>   0.0800 
 40 H      -13.0850    -2.0680    -0.8630 H     1 <1>   0.0800 
@<TRIPOS>BOND
  1   1   2  2   
  2   1   3  2   
  3   1   4  am  
  4   1   5  1   
  5   4   6  1   
  6   4   7  1   
  7   5  22  1   
  8   5  23  1   
  9   5  24  1   
 10   6   8  1   
 11   6  25  1   
 12   6  26  1   
 13   7   9  1   
 14   7  27  1   
 15   7  28  1   
 16   8  10  1   
 17   8  29  1   
 18   8  30  1   
 19   9  10  1   
 20   9  31  1   
 21   9  32  1   
 22  10  11  am  
 23  11  12  2   
 24  11  13  am  
 25  13  14  1   
 26  13  33  1   
 27  14  15  ar  
 28  14  16  ar  
 29  15  17  ar  
 30  15  34  1   
 31  16  18  ar  
 32  16  35  1   
 33  17  19  ar  
 34  17  36  1   
 35  18  19  ar  
 36  18  37  1   
 37  19  20  1   
 38  20  21  1   
 39  21  38  1   
 40  21  39  1   
 41  21  40  1   
@<TRIPOS>SUBSTRUCTURE
  1 ****  11 GROUP 4 **** **** 0

# MOE 2024.06 (io_trps.svl 2023.06)
