@<TRIPOS>MOLECULE
NONAME
39 39 1 0 0 
SMALL
USER_CHARGES


@<TRIPOS>ATOM
  1 O       -0.6310    -0.4160     0.8310 O.2   1 <1>  -0.5700 
  2 C       -0.7950    -1.5630     0.4910 C.2   1 <1>   0.5690 
  3 N        0.2270    -2.4260     0.2140 N.am  1 <1>  -0.5470 
  4 C       -2.2250    -2.0980     0.3510 C.3   1 <1>  -0.0190 
  5 C        1.6320    -2.3030     0.2320 C.ar  1 <1>   0.1170 
  6 C       -3.0020    -1.3490    -0.7450 C.3   1 <1>  -0.2400 
  7 C       -2.9900    -2.0230     1.6830 C.3   1 <1>  -0.2400 
  8 C        2.3920    -3.3830    -0.2290 C.ar  1 <1>   0.0820 
  9 C        2.2970    -1.1720     0.6880 C.ar  1 <1>  -0.1500 
 10 O        1.7050    -4.4860    -0.6610 O.3   1 <1>  -0.3620 
 11 C        3.7810    -3.3110    -0.2330 C.ar  1 <1>  -0.1500 
 12 C        3.6780    -1.1090     0.6820 C.ar  1 <1>  -0.1500 
 13 C        2.3780    -5.6500    -1.0910 C.3   1 <1>   0.0400 
 14 C        4.4400    -2.1770     0.2220 C.ar  1 <1>   0.1170 
 15 N        5.8450    -2.1460     0.1810 N.am  1 <1>  -0.5470 
 16 C        6.7420    -1.4330     0.9250 C.2   1 <1>   0.5690 
 17 O        6.4340    -0.6850     1.8190 O.2   1 <1>  -0.5700 
 18 C        8.2170    -1.6140     0.6100 C.3   1 <1>  -0.0990 
 19 C        8.6110    -1.0460    -0.7640 C.3   1 <1>  -0.2400 
 20 H       -0.0530    -3.3540    -0.1010 H     1 <1>   0.3700 
 21 H       -2.1720    -3.1330     0.0640 H     1 <1>   0.0800 
 22 H       -3.0930    -0.3070    -0.4900 H     1 <1>   0.0800 
 23 H       -3.9870    -1.7640    -0.8620 H     1 <1>   0.0800 
 24 H       -2.4820    -1.4230    -1.6840 H     1 <1>   0.0800 
 25 H       -3.0830    -0.9980     2.0010 H     1 <1>   0.0800 
 26 H       -2.4590    -2.5660     2.4440 H     1 <1>   0.0800 
 27 H       -3.9740    -2.4450     1.5800 H     1 <1>   0.0800 
 28 H        1.7450    -0.3270     1.0550 H     1 <1>   0.1500 
 29 H        4.3740    -4.1310    -0.5840 H     1 <1>   0.1500 
 30 H        4.1610    -0.2170     1.0370 H     1 <1>   0.1500 
 31 H        1.6390    -6.3850    -1.3570 H     1 <1>   0.0800 
 32 H        2.9850    -6.0210    -0.2840 H     1 <1>   0.0800 
 33 H        2.9780    -5.4110    -1.9500 H     1 <1>   0.0800 
 34 H        6.2660    -2.7670    -0.5050 H     1 <1>   0.3700 
 35 H        8.4570    -2.6600     0.6560 H     1 <1>   0.0800 
 36 H        8.7900    -1.1160     1.3720 H     1 <1>   0.0800 
 37 H        8.0850    -1.5510    -1.5540 H     1 <1>   0.0800 
 38 H        9.6680    -1.1640    -0.9230 H     1 <1>   0.0800 
 39 H        8.3740     0.0040    -0.8080 H     1 <1>   0.0800 
@<TRIPOS>BOND
  1   1   2  2   
  2   2   3  am  
  3   2   4  1   
  4   3   5  1   
  5   3  20  1   
  6   4   6  1   
  7   4   7  1   
  8   4  21  1   
  9   5   8  ar  
 10   5   9  ar  
 11   6  22  1   
 12   6  23  1   
 13   6  24  1   
 14   7  25  1   
 15   7  26  1   
 16   7  27  1   
 17   8  10  1   
 18   8  11  ar  
 19   9  12  ar  
 20   9  28  1   
 21  10  13  1   
 22  11  14  ar  
 23  11  29  1   
 24  12  14  ar  
 25  12  30  1   
 26  13  31  1   
 27  13  32  1   
 28  13  33  1   
 29  14  15  1   
 30  15  16  am  
 31  15  34  1   
 32  16  17  2   
 33  16  18  1   
 34  18  19  1   
 35  18  35  1   
 36  18  36  1   
 37  19  37  1   
 38  19  38  1   
 39  19  39  1   
@<TRIPOS>SUBSTRUCTURE
  1 ****   5 GROUP 4 **** **** 0

# MOE 2024.06 (io_trps.svl 2023.06)
