@<TRIPOS>MOLECULE
NONAME
37 38 1 0 0 
SMALL
USER_CHARGES


@<TRIPOS>ATOM
  1 O        0.8850     0.6350     1.2570 O.2   1 <1>  -0.5700 
  2 C        1.1870    -0.4540     0.8610 C.2   1 <1>   0.4480 
  3 C       -0.0320    -1.6350     0.1140 C.3   1 <1>   0.0610 
  4 C        2.9130    -1.0550     0.9750 C.3   1 <1>  -0.0990 
  5 C        0.8670    -2.1100     0.4900 C.3   1 <1>  -0.1600 
  6 C        0.1330    -3.4510    -0.3270 C.3   1 <1>  -0.1600 
  7 C       -1.4120    -1.4560     0.8130 C.3   1 <1>  -0.1600 
  8 C        3.0740    -2.8660     0.5290 C.3   1 <1>   0.2800 
  9 C        2.1990    -2.3910     0.0670 C.3   1 <1>  -0.1600 
 10 C        1.8860    -4.0980    -0.2370 C.3   1 <1>  -0.1600 
 11 C       -2.5140    -1.2740    -0.2380 C.3   1 <1>  -0.1600 
 12 O        4.2650    -2.9860    -0.1820 O.3   1 <1>  -0.6800 
 13 C       -3.8830    -1.0790     0.4230 C.3   1 <1>  -0.1600 
 14 C       -4.9830    -0.8950    -0.6290 C.3   1 <1>  -0.1600 
 15 C       -6.3510    -0.7000     0.0320 C.3   1 <1>  -0.2400 
 16 H        3.2500    -0.9090     1.9870 H     1 <1>   0.0800 
 17 H        3.5390    -0.4370     0.3460 H     1 <1>   0.0800 
 18 H        0.4970    -2.3650     1.5440 H     1 <1>   0.0800 
 19 H        0.9140    -1.6760    -0.6270 H     1 <1>   0.0800 
 20 H       -0.2420    -3.6010    -1.3270 H     1 <1>   0.0800 
 21 H       -0.4920    -4.0630     0.3100 H     1 <1>   0.0800 
 22 H       -1.3900    -0.5850     1.4460 H     1 <1>   0.0800 
 23 H       -1.6590    -2.3040     1.4300 H     1 <1>   0.0800 
 24 H        2.5500    -2.0970    -0.9730 H     1 <1>   0.0800 
 25 H        2.1080    -2.8080     1.1940 H     1 <1>   0.0800 
 26 H        2.2070    -4.3830    -1.2300 H     1 <1>   0.0800 
 27 H        1.8860    -4.9990     0.3550 H     1 <1>   0.0800 
 28 H       -2.5450    -2.1390    -0.8790 H     1 <1>   0.0800 
 29 H       -2.2840    -0.4150    -0.8450 H     1 <1>   0.0800 
 30 H        4.5900    -3.9040    -0.1270 H     1 <1>   0.4000 
 31 H       -3.8510    -0.2120     1.0610 H     1 <1>   0.0800 
 32 H       -4.1130    -1.9360     1.0330 H     1 <1>   0.0800 
 33 H       -5.0200    -1.7590    -1.2710 H     1 <1>   0.0800 
 34 H       -4.7600    -0.0350    -1.2390 H     1 <1>   0.0800 
 35 H       -6.6040    -1.5580     0.6300 H     1 <1>   0.0800 
 36 H       -7.1080    -0.5720    -0.7210 H     1 <1>   0.0800 
 37 H       -6.3430     0.1720     0.6620 H     1 <1>   0.0800 
@<TRIPOS>BOND
  1   1   2  2   
  2   2   3  1   
  3   2   4  1   
  4   3   5  1   
  5   3   6  1   
  6   3   7  1   
  7   4   8  1   
  8   4  16  1   
  9   4  17  1   
 10   5   9  1   
 11   5  18  1   
 12   5  19  1   
 13   6  10  1   
 14   6  20  1   
 15   6  21  1   
 16   7  11  1   
 17   7  22  1   
 18   7  23  1   
 19   8   9  1   
 20   8  10  1   
 21   8  12  1   
 22   9  24  1   
 23   9  25  1   
 24  10  26  1   
 25  10  27  1   
 26  11  13  1   
 27  11  28  1   
 28  11  29  1   
 29  12  30  1   
 30  13  14  1   
 31  13  31  1   
 32  13  32  1   
 33  14  15  1   
 34  14  33  1   
 35  14  34  1   
 36  15  35  1   
 37  15  36  1   
 38  15  37  1   
@<TRIPOS>SUBSTRUCTURE
  1 ****   3 GROUP 4 **** **** 0

# MOE 2024.06 (io_trps.svl 2023.06)
