@<TRIPOS>MOLECULE
NONAME
46 48 1 0 0 
SMALL
USER_CHARGES


@<TRIPOS>ATOM
  1 S       -0.1320     0.8050     0.3640 S.o2  1 <1>   1.4470 
  2 O       -0.7350     0.4200     1.6160 O.2   1 <1>  -0.6500 
  3 O       -0.8070     1.6350    -0.6020 O.2   1 <1>  -0.6500 
  4 N        0.3210    -0.6380    -0.4520 N.am  1 <1>  -0.7300 
  5 C        1.5740     1.3010     0.5760 C.ar  1 <1>  -0.0090 
  6 C        1.6660    -0.7180    -0.6120 C.2   1 <1>   0.7200 
  7 C       -0.6810    -1.4410    -1.1740 C.3   1 <1>   0.1960 
  8 C        2.4090     0.3670    -0.0090 C.ar  1 <1>   0.0860 
  9 C        2.0910     2.4210     1.2060 C.ar  1 <1>  -0.1500 
 10 O        2.1800    -1.6300    -1.2240 O.2   1 <1>  -0.5700 
 11 C       -1.3560    -2.4080    -0.2000 C.3   1 <1>  -0.1600 
 12 C        3.7870     0.5560     0.0360 C.ar  1 <1>  -0.1500 
 13 C        3.4640     2.6050     1.2490 C.ar  1 <1>  -0.1500 
 14 C       -2.3920    -3.2850    -0.9160 C.3   1 <1>  -0.1600 
 15 C        4.3090     1.6740     0.6650 C.ar  1 <1>  -0.1500 
 16 C       -3.0790    -4.2370     0.0620 C.3   1 <1>   0.1200 
 17 O       -4.0050    -5.0120    -0.6610 O.3   1 <1>  -0.3630 
 18 C       -4.7710    -5.9590    -0.0550 C.ar  1 <1>   0.0830 
 19 C       -5.6430    -6.6930    -0.8540 C.ar  1 <1>  -0.1430 
 20 C       -4.7160    -6.2140     1.3130 C.ar  1 <1>  -0.1500 
 21 C       -6.4420    -7.6690    -0.2800 C.ar  1 <1>  -0.1500 
 22 C       -5.7240    -6.4330    -2.3510 C.3   1 <1>  -0.0970 
 23 C       -5.5190    -7.1910     1.8730 C.ar  1 <1>  -0.1500 
 24 C       -6.3850    -7.9240     1.0800 C.ar  1 <1>  -0.1430 
 25 C       -7.2690    -8.9960     1.6920 C.3   1 <1>  -0.0970 
 26 H       -0.2010    -1.9970    -1.9630 H     1 <1>   0.0800 
 27 H       -1.4130    -0.7880    -1.6190 H     1 <1>   0.0800 
 28 H        1.4320     3.1430     1.6590 H     1 <1>   0.1500 
 29 H       -1.8450    -1.8480     0.5790 H     1 <1>   0.0800 
 30 H       -0.6050    -3.0360     0.2470 H     1 <1>   0.0800 
 31 H        4.4380    -0.1710    -0.4210 H     1 <1>   0.1500 
 32 H        3.8770     3.4720     1.7380 H     1 <1>   0.1500 
 33 H       -1.9050    -3.8650    -1.6820 H     1 <1>   0.0800 
 34 H       -3.1390    -2.6600    -1.3750 H     1 <1>   0.0800 
 35 H        5.3760     1.8210     0.7010 H     1 <1>   0.1500 
 36 H       -3.6130    -3.6870     0.8180 H     1 <1>   0.0800 
 37 H       -2.3640    -4.9010     0.5170 H     1 <1>   0.0800 
 38 H       -4.0570    -5.6670     1.9580 H     1 <1>   0.1500 
 39 H       -7.1170    -8.2360    -0.8960 H     1 <1>   0.1500 
 40 H       -6.0110    -5.4110    -2.5260 H     1 <1>   0.0800 
 41 H       -6.4430    -7.0780    -2.8210 H     1 <1>   0.0800 
 42 H       -4.7620    -6.6020    -2.8010 H     1 <1>   0.0800 
 43 H       -5.4680    -7.3780     2.9310 H     1 <1>   0.1500 
 44 H       -8.2320    -8.5810     1.9270 H     1 <1>   0.0800 
 45 H       -6.8270    -9.3810     2.5940 H     1 <1>   0.0800 
 46 H       -7.3990    -9.8110     1.0040 H     1 <1>   0.0800 
@<TRIPOS>BOND
  1   1   2  2   
  2   1   3  2   
  3   1   4  am  
  4   1   5  1   
  5   4   6  am  
  6   4   7  1   
  7   5   8  ar  
  8   5   9  ar  
  9   6   8  1   
 10   6  10  2   
 11   7  11  1   
 12   7  26  1   
 13   7  27  1   
 14   8  12  ar  
 15   9  13  ar  
 16   9  28  1   
 17  11  14  1   
 18  11  29  1   
 19  11  30  1   
 20  12  15  ar  
 21  12  31  1   
 22  13  15  ar  
 23  13  32  1   
 24  14  16  1   
 25  14  33  1   
 26  14  34  1   
 27  15  35  1   
 28  16  17  1   
 29  16  36  1   
 30  16  37  1   
 31  17  18  1   
 32  18  19  ar  
 33  18  20  ar  
 34  19  21  ar  
 35  19  22  1   
 36  20  23  ar  
 37  20  38  1   
 38  21  24  ar  
 39  21  39  1   
 40  22  40  1   
 41  22  41  1   
 42  22  42  1   
 43  23  24  ar  
 44  23  43  1   
 45  24  25  1   
 46  25  44  1   
 47  25  45  1   
 48  25  46  1   
@<TRIPOS>SUBSTRUCTURE
  1 ****  11 GROUP 4 **** **** 0

# MOE 2024.06 (io_trps.svl 2023.06)
