@<TRIPOS>MOLECULE
NONAME
37 38 1 0 0 
SMALL
USER_CHARGES


@<TRIPOS>ATOM
  1 BR      -1.9700     2.1250    -3.1030 Br    1 <1>  -0.0580 
  2 C       -2.7240     1.3620    -1.5100 C.2   1 <1>   0.0980 
  3 S       -3.9550     0.1450    -1.7540 S.3   1 <1>  -0.0800 
  4 C       -2.4700     1.6010    -0.2130 C.2   1 <1>  -0.1500 
  5 C       -4.1250    -0.0350    -0.0060 C.2   1 <1>  -0.1400 
  6 C       -3.2800     0.7930     0.6500 C.2   1 <1>  -0.1500 
  7 C       -5.1460    -1.0430     0.4770 C.3   1 <1>   0.5230 
  8 N       -6.4830    -0.6510    -0.0460 N.4   1 <1>  -0.9590 
  9 C       -6.9270     0.6650     0.5010 C.3   1 <1>   0.3430 
 10 C       -7.4910    -1.7270     0.1610 C.3   1 <1>   0.3430 
 11 C       -8.2220     1.0930    -0.1870 C.3   1 <1>  -0.1600 
 12 C       -8.7940    -1.3420    -0.5370 C.3   1 <1>  -0.1600 
 13 C       -9.3240     0.0260    -0.0600 C.3   1 <1>  -0.0190 
 14 C      -10.5780     0.4570    -0.8190 C.2   1 <1>   0.6590 
 15 O      -10.7610     0.1470    -1.9660 O.2   1 <1>  -0.5700 
 16 O      -11.4310     1.2030    -0.1350 O.3   1 <1>  -0.4300 
 17 C      -12.6220     1.6790    -0.7190 C.3   1 <1>   0.1200 
 18 C      -13.3650     2.5050     0.3270 C.3   1 <1>  -0.2400 
 19 H       -1.7500     2.3060     0.1660 H     1 <1>   0.1500 
 20 H       -3.1760     0.8810     1.7190 H     1 <1>   0.1500 
 21 H       -5.1570    -1.0700     1.5540 H     1 <1>   0.0800 
 22 H       -4.8760    -2.0200     0.1090 H     1 <1>   0.0800 
 23 H       -6.3570    -0.5230    -1.0600 H     1 <1>   0.4500 
 24 H       -6.1700     1.4140     0.3300 H     1 <1>   0.0800 
 25 H       -7.0910     0.5850     1.5640 H     1 <1>   0.0800 
 26 H       -7.6730    -1.8630     1.2160 H     1 <1>   0.0800 
 27 H       -7.1310    -2.6580    -0.2460 H     1 <1>   0.0800 
 28 H       -8.0230     1.2940    -1.2260 H     1 <1>   0.0800 
 29 H       -8.5650     2.0140     0.2550 H     1 <1>   0.0800 
 30 H       -9.5350    -2.0980    -0.3420 H     1 <1>   0.0800 
 31 H       -8.6300    -1.3260    -1.6010 H     1 <1>   0.0800 
 32 H       -9.5980    -0.0630     0.9770 H     1 <1>   0.0800 
 33 H      -13.2110     0.8330    -1.0330 H     1 <1>   0.0800 
 34 H      -12.3680     2.2800    -1.5760 H     1 <1>   0.0800 
 35 H      -13.6050     1.8960     1.1800 H     1 <1>   0.0800 
 36 H      -14.2810     2.8800    -0.0930 H     1 <1>   0.0800 
 37 H      -12.7640     3.3410     0.6370 H     1 <1>   0.0800 
@<TRIPOS>BOND
  1   1   2  1   
  2   2   3  1   
  3   2   4  2   
  4   3   5  1   
  5   4   6  1   
  6   4  19  1   
  7   5   6  2   
  8   5   7  1   
  9   6  20  1   
 10   7   8  1   
 11   7  21  1   
 12   7  22  1   
 13   8   9  1   
 14   8  10  1   
 15   8  23  1   
 16   9  11  1   
 17   9  24  1   
 18   9  25  1   
 19  10  12  1   
 20  10  26  1   
 21  10  27  1   
 22  11  13  1   
 23  11  28  1   
 24  11  29  1   
 25  12  13  1   
 26  12  30  1   
 27  12  31  1   
 28  13  14  1   
 29  13  32  1   
 30  14  15  2   
 31  14  16  1   
 32  16  17  1   
 33  17  18  1   
 34  17  33  1   
 35  17  34  1   
 36  18  35  1   
 37  18  36  1   
 38  18  37  1   
@<TRIPOS>SUBSTRUCTURE
  1 ****   9 GROUP 4 **** **** 0

# MOE 2024.06 (io_trps.svl 2023.06)
