@<TRIPOS>MOLECULE
NONAME
52 53 1 0 0 
SMALL
USER_CHARGES


@<TRIPOS>ATOM
  1 O       -0.1960     0.2480    -0.1830 O.2   1 <1>  -0.5700 
  2 C       -0.7850    -0.7850    -0.4310 C.2   1 <1>   0.6340 
  3 O       -0.0810    -1.8360    -0.8680 O.3   1 <1>  -0.4300 
  4 C       -2.2160    -0.9370    -0.2770 C.ar  1 <1>   0.0860 
  5 C        1.3200    -1.7710    -1.0480 C.3   1 <1>   0.0400 
  6 C       -3.0120     0.1360     0.1280 C.ar  1 <1>  -0.1500 
  7 C       -2.8710    -2.1440    -0.5180 C.ar  1 <1>  -0.1500 
  8 C       -4.3850     0.0470     0.2880 C.ar  1 <1>   0.1170 
  9 C       -4.2360    -2.2600    -0.3620 C.ar  1 <1>  -0.1500 
 10 N       -5.0250     1.2320     0.7100 N.am  1 <1>  -0.5470 
 11 C       -5.0250    -1.1880     0.0370 C.ar  1 <1>   0.1000 
 12 C       -5.9350     1.9970     0.0440 C.2   1 <1>   0.5690 
 13 N       -6.3950    -1.4330     0.1550 N.pl3 1 <1>  -0.8380 
 14 O       -6.6470     1.5850    -0.8390 O.2   1 <1>  -0.5700 
 15 C       -6.0790     3.4460     0.4740 C.3   1 <1>  -0.0990 
 16 C       -7.1690    -1.0800     1.3810 C.3   1 <1>   0.2090 
 17 C       -7.1660    -1.8060    -1.0700 C.3   1 <1>   0.2090 
 18 C       -4.7950     4.2780     0.2800 C.3   1 <1>  -0.0800 
 19 C       -8.3880    -0.1850     1.0620 C.3   1 <1>   0.3430 
 20 C       -8.3770    -0.8810    -1.3070 C.3   1 <1>   0.3430 
 21 C       -5.0200     5.7130     0.7700 C.3   1 <1>  -0.2400 
 22 C       -4.3530     4.2980    -1.1890 C.3   1 <1>  -0.2400 
 23 N       -9.2320    -0.7030    -0.0760 N.4   1 <1>  -0.9590 
 24 C      -10.3570     0.2330    -0.3650 C.3   1 <1>   0.2630 
 25 H        1.6630    -2.7260    -1.4030 H     1 <1>   0.0800 
 26 H        1.7810    -1.5370    -0.1040 H     1 <1>   0.0800 
 27 H        1.5420    -1.0040    -1.7700 H     1 <1>   0.0800 
 28 H       -2.5250     1.0770     0.3140 H     1 <1>   0.1500 
 29 H       -2.3030    -3.0040    -0.8290 H     1 <1>   0.1500 
 30 H       -4.7060    -3.2090    -0.5460 H     1 <1>   0.1500 
 31 H       -4.4940     1.7430     1.4140 H     1 <1>   0.3700 
 32 H       -6.3690     3.4660     1.5080 H     1 <1>   0.0800 
 33 H       -6.8760     3.8930    -0.0950 H     1 <1>   0.0800 
 34 H       -6.5270    -0.5760     2.0810 H     1 <1>   0.0800 
 35 H       -7.5060    -1.9880     1.8490 H     1 <1>   0.0800 
 36 H       -7.5030    -2.8230    -0.9760 H     1 <1>   0.0800 
 37 H       -6.5200    -1.7530    -1.9300 H     1 <1>   0.0800 
 38 H       -4.0000     3.8490     0.8670 H     1 <1>   0.0800 
 39 H       -8.0250     0.7960     0.8120 H     1 <1>   0.0800 
 40 H       -8.9900    -0.0920     1.9490 H     1 <1>   0.0800 
 41 H       -8.9700    -1.2870    -2.1090 H     1 <1>   0.0800 
 42 H       -8.0100     0.0760    -1.6340 H     1 <1>   0.0800 
 43 H       -5.7970     6.1940     0.2000 H     1 <1>   0.0800 
 44 H       -4.1170     6.2890     0.6630 H     1 <1>   0.0800 
 45 H       -5.3010     5.7210     1.8080 H     1 <1>   0.0800 
 46 H       -5.1270     4.7060    -1.8150 H     1 <1>   0.0800 
 47 H       -4.1220     3.3050    -1.5360 H     1 <1>   0.0800 
 48 H       -3.4690     4.9010    -1.3050 H     1 <1>   0.0800 
 49 H       -9.5980    -1.6260     0.1910 H     1 <1>   0.4500 
 50 H       -9.9710     1.1980    -0.6540 H     1 <1>   0.0800 
 51 H      -10.9770     0.3560     0.5080 H     1 <1>   0.0800 
 52 H      -10.9660    -0.1490    -1.1680 H     1 <1>   0.0800 
@<TRIPOS>BOND
  1   1   2  2   
  2   2   3  1   
  3   2   4  1   
  4   3   5  1   
  5   4   6  ar  
  6   4   7  ar  
  7   5  25  1   
  8   5  26  1   
  9   5  27  1   
 10   6   8  ar  
 11   6  28  1   
 12   7   9  ar  
 13   7  29  1   
 14   8  10  1   
 15   8  11  ar  
 16   9  11  ar  
 17   9  30  1   
 18  10  12  am  
 19  10  31  1   
 20  11  13  1   
 21  12  14  2   
 22  12  15  1   
 23  13  16  1   
 24  13  17  1   
 25  15  18  1   
 26  15  32  1   
 27  15  33  1   
 28  16  19  1   
 29  16  34  1   
 30  16  35  1   
 31  17  20  1   
 32  17  36  1   
 33  17  37  1   
 34  18  21  1   
 35  18  22  1   
 36  18  38  1   
 37  19  23  1   
 38  19  39  1   
 39  19  40  1   
 40  20  23  1   
 41  20  41  1   
 42  20  42  1   
 43  21  43  1   
 44  21  44  1   
 45  21  45  1   
 46  22  46  1   
 47  22  47  1   
 48  22  48  1   
 49  23  24  1   
 50  23  49  1   
 51  24  50  1   
 52  24  51  1   
 53  24  52  1   
@<TRIPOS>SUBSTRUCTURE
  1 ****   8 GROUP 4 **** **** 0

# MOE 2024.06 (io_trps.svl 2023.06)
