@<TRIPOS>MOLECULE
NONAME
41 43 1 0 0 
SMALL
USER_CHARGES


@<TRIPOS>ATOM
  1 O       -0.0080     0.4690     0.4900 O.2   1 <1>  -0.5700 
  2 C       -0.7160     1.4620     0.4610 C.2   1 <1>   0.6900 
  3 N       -1.9290     1.4570     1.1410 N.am  1 <1>  -0.4200 
  4 N       -0.3100     2.5850    -0.2370 N.am  1 <1>  -0.4230 
  5 C       -2.7220     2.5900     1.1770 C.2   1 <1>   0.7150 
  6 C       -2.3520     0.2320     1.8810 C.3   1 <1>   0.0600 
  7 C       -1.1350     3.7030    -0.2550 C.2   1 <1>   0.2900 
  8 C        0.9720     2.6400    -0.9890 C.3   1 <1>   0.0600 
  9 O       -3.7190     2.6290     1.8770 O.2   1 <1>  -0.5700 
 10 C       -2.3110     3.7050     0.4110 C.2   1 <1>  -0.2370 
 11 N       -0.8950     4.8570    -0.8900 N.2   1 <1>  -0.5650 
 12 N       -2.8690     4.9230     0.1660 N.pl3 1 <1>   0.0480 
 13 C       -1.9570     5.5580    -0.6070 C.2   1 <1>   0.2490 
 14 C       -4.1870     5.4390     0.6040 C.3   1 <1>   0.2390 
 15 O       -2.1740     6.8180    -1.0360 O.3   1 <1>  -0.3430 
 16 C       -5.3230     4.9480    -0.2990 C.ar  1 <1>  -0.1440 
 17 C       -1.2040     7.4400    -1.8520 C.3   1 <1>   0.0400 
 18 C       -6.5070     4.4220     0.2170 C.ar  1 <1>  -0.1440 
 19 C       -5.1760     5.0460    -1.6780 C.ar  1 <1>  -0.1500 
 20 C       -7.5010     3.9920    -0.6500 C.ar  1 <1>  -0.1500 
 21 C       -6.7640     4.3010     1.7140 C.3   1 <1>  -0.0970 
 22 C       -6.1730     4.6170    -2.5340 C.ar  1 <1>  -0.1500 
 23 C       -7.3380     4.0860    -2.0190 C.ar  1 <1>  -0.1500 
 24 H       -2.0320    -0.6500     1.3540 H     1 <1>   0.0800 
 25 H       -3.4240     0.1980     1.9750 H     1 <1>   0.0800 
 26 H       -1.9110     0.2360     2.8610 H     1 <1>   0.0800 
 27 H        1.5290     1.7270    -0.8760 H     1 <1>   0.0800 
 28 H        1.5650     3.4590    -0.6220 H     1 <1>   0.0800 
 29 H        0.7650     2.7980    -2.0320 H     1 <1>   0.0800 
 30 H       -4.1630     6.5130     0.5810 H     1 <1>   0.0800 
 31 H       -4.3360     5.1350     1.6220 H     1 <1>   0.0800 
 32 H       -1.5470     8.4290    -2.0940 H     1 <1>   0.0800 
 33 H       -1.0810     6.8590    -2.7490 H     1 <1>   0.0800 
 34 H       -0.2760     7.4900    -1.3090 H     1 <1>   0.0800 
 35 H       -4.2800     5.4600    -2.1070 H     1 <1>   0.1500 
 36 H       -8.4160     3.5780    -0.2630 H     1 <1>   0.1500 
 37 H       -6.1080     3.5660     2.1440 H     1 <1>   0.0800 
 38 H       -7.7760     3.9970     1.9080 H     1 <1>   0.0800 
 39 H       -6.6030     5.2460     2.1990 H     1 <1>   0.0800 
 40 H       -6.0400     4.6960    -3.5990 H     1 <1>   0.1500 
 41 H       -8.1170     3.7490    -2.6800 H     1 <1>   0.1500 
@<TRIPOS>BOND
  1   1   2  2   
  2   2   3  am  
  3   2   4  am  
  4   3   5  am  
  5   3   6  1   
  6   4   7  1   
  7   4   8  1   
  8   5   9  2   
  9   5  10  1   
 10   6  24  1   
 11   6  25  1   
 12   6  26  1   
 13   7  10  2   
 14   7  11  1   
 15   8  27  1   
 16   8  28  1   
 17   8  29  1   
 18  10  12  1   
 19  11  13  2   
 20  12  13  1   
 21  12  14  1   
 22  13  15  1   
 23  14  16  1   
 24  14  30  1   
 25  14  31  1   
 26  15  17  1   
 27  16  18  ar  
 28  16  19  ar  
 29  17  32  1   
 30  17  33  1   
 31  17  34  1   
 32  18  20  ar  
 33  18  21  1   
 34  19  22  ar  
 35  19  35  1   
 36  20  23  ar  
 37  20  36  1   
 38  21  37  1   
 39  21  38  1   
 40  21  39  1   
 41  22  23  ar  
 42  22  40  1   
 43  23  41  1   
@<TRIPOS>SUBSTRUCTURE
  1 ****  10 GROUP 4 **** **** 0

# MOE 2024.06 (io_trps.svl 2023.06)
