@<TRIPOS>MOLECULE
NONAME
68 70 1 0 0 
SMALL
USER_CHARGES


@<TRIPOS>ATOM
  1 N       -0.0460     0.0670    -0.1550 N.pl3 1 <1>  -0.8380 
  2 C       -1.4370    -0.0020    -0.1680 C.2   1 <1>  -0.0380 
  3 C        0.7430     1.2140    -0.7220 C.3   1 <1>   0.2090 
  4 C        0.7440    -1.2100    -0.1570 C.3   1 <1>   0.2090 
  5 C       -2.1170    -0.6900     0.7580 C.2   1 <1>  -0.2880 
  6 C       -2.1820     0.7020    -1.2900 C.3   1 <1>  -0.0220 
  7 C        2.1160     1.3740    -0.0340 C.3   1 <1>   0.2090 
  8 C        2.1000    -1.0450     0.5540 C.3   1 <1>   0.2090 
  9 C       -3.6130    -0.8820     0.8130 C.3   1 <1>   0.6410 
 10 C       -3.6470     0.9830    -0.9070 C.3   1 <1>   0.5030 
 11 N        2.8980     0.0900    -0.0220 N.pl3 1 <1>  -0.8380 
 12 N       -4.2790    -0.2040    -0.3020 N.4   1 <1>  -0.9060 
 13 C       -4.1920    -0.3880     2.1360 C.3   1 <1>  -0.2400 
 14 C       -3.9230    -2.3650     0.6480 C.3   1 <1>  -0.2400 
 15 C       -4.4640     1.2970    -2.1600 C.3   1 <1>  -0.2400 
 16 C       -3.7450     2.1750     0.0500 C.3   1 <1>  -0.2400 
 17 C        4.2890     0.0260     0.0240 C.2   1 <1>  -0.0380 
 18 C        4.9640    -1.0100    -0.4910 C.2   1 <1>  -0.2880 
 19 C        5.0390     1.1570     0.7090 C.3   1 <1>  -0.0220 
 20 C        6.4590    -1.2140    -0.4500 C.3   1 <1>   0.6410 
 21 C        6.5050     1.2260     0.2440 C.3   1 <1>   0.5030 
 22 N        7.1290    -0.1100     0.2420 N.4   1 <1>  -0.9060 
 23 C        7.0400    -1.3740    -1.8520 C.3   1 <1>  -0.2400 
 24 C        6.7600    -2.4650     0.3670 C.3   1 <1>  -0.2400 
 25 C        6.6100     1.8570    -1.1480 C.3   1 <1>  -0.2400 
 26 C        7.3240     2.0670     1.2220 C.3   1 <1>  -0.2400 
 27 H        0.1960     2.1300    -0.5930 H     1 <1>   0.0800 
 28 H        0.8980     1.0530    -1.7750 H     1 <1>   0.0800 
 29 H        0.9230    -1.5110    -1.1740 H     1 <1>   0.0800 
 30 H        0.1880    -1.9920     0.3260 H     1 <1>   0.0800 
 31 H       -1.6100    -1.1840     1.5670 H     1 <1>   0.1500 
 32 H       -2.1300     0.0840    -2.1680 H     1 <1>   0.0800 
 33 H       -1.7200     1.6390    -1.5370 H     1 <1>   0.0800 
 34 H        1.9620     1.7060     0.9770 H     1 <1>   0.0800 
 35 H        2.6680     2.1300    -0.5620 H     1 <1>   0.0800 
 36 H        2.6520    -1.9640     0.4770 H     1 <1>   0.0800 
 37 H        1.9210    -0.8540     1.5980 H     1 <1>   0.0800 
 38 H       -5.2260     0.0310    -0.0130 H     1 <1>   0.4500 
 39 H       -4.3400    -0.9030    -1.0410 H     1 <1>   0.4500 
 40 H       -3.9390     0.6370     2.3240 H     1 <1>   0.0800 
 41 H       -3.7780    -0.9640     2.9450 H     1 <1>   0.0800 
 42 H       -5.2600    -0.5040     2.1630 H     1 <1>   0.0800 
 43 H       -3.5040    -2.7410    -0.2690 H     1 <1>   0.0800 
 44 H       -4.9830    -2.5490     0.6640 H     1 <1>   0.0800 
 45 H       -3.4800    -2.9200     1.4560 H     1 <1>   0.0800 
 46 H       -4.4440     0.4770    -2.8550 H     1 <1>   0.0800 
 47 H       -4.0520     2.1570    -2.6600 H     1 <1>   0.0800 
 48 H       -5.4860     1.5240    -1.9100 H     1 <1>   0.0800 
 49 H       -3.0620     2.0700     0.8730 H     1 <1>   0.0800 
 50 H       -4.7460     2.3020     0.4220 H     1 <1>   0.0800 
 51 H       -3.4680     3.0790    -0.4630 H     1 <1>   0.0800 
 52 H        4.4540    -1.8120    -0.9920 H     1 <1>   0.1500 
 53 H        4.9830     1.0010     1.7710 H     1 <1>   0.0800 
 54 H        4.5830     2.1060     0.5060 H     1 <1>   0.0800 
 55 H        8.0780    -0.0360    -0.1200 H     1 <1>   0.4500 
 56 H        7.1870    -0.4010     1.2160 H     1 <1>   0.4500 
 57 H        6.7930    -0.5420    -2.4820 H     1 <1>   0.0800 
 58 H        6.6220    -2.2500    -2.3150 H     1 <1>   0.0800 
 59 H        8.1070    -1.4950    -1.8220 H     1 <1>   0.0800 
 60 H        6.3390    -2.3850     1.3540 H     1 <1>   0.0800 
 61 H        7.8180    -2.6420     0.4380 H     1 <1>   0.0800 
 62 H        6.3130    -3.3220    -0.1050 H     1 <1>   0.0800 
 63 H        5.9250     1.3960    -1.8360 H     1 <1>   0.0800 
 64 H        7.6110     1.7970    -1.5340 H     1 <1>   0.0800 
 65 H        6.3390     2.8980    -1.0980 H     1 <1>   0.0800 
 66 H        7.3000     1.6480     2.2130 H     1 <1>   0.0800 
 67 H        6.9180     3.0620     1.2800 H     1 <1>   0.0800 
 68 H        8.3470     2.1510     0.9000 H     1 <1>   0.0800 
@<TRIPOS>BOND
  1   1   2  1   
  2   1   3  1   
  3   1   4  1   
  4   2   5  2   
  5   2   6  1   
  6   3   7  1   
  7   3  27  1   
  8   3  28  1   
  9   4   8  1   
 10   4  29  1   
 11   4  30  1   
 12   5   9  1   
 13   5  31  1   
 14   6  10  1   
 15   6  32  1   
 16   6  33  1   
 17   7  11  1   
 18   7  34  1   
 19   7  35  1   
 20   8  11  1   
 21   8  36  1   
 22   8  37  1   
 23   9  12  1   
 24   9  13  1   
 25   9  14  1   
 26  10  12  1   
 27  10  15  1   
 28  10  16  1   
 29  11  17  1   
 30  12  38  1   
 31  12  39  1   
 32  13  40  1   
 33  13  41  1   
 34  13  42  1   
 35  14  43  1   
 36  14  44  1   
 37  14  45  1   
 38  15  46  1   
 39  15  47  1   
 40  15  48  1   
 41  16  49  1   
 42  16  50  1   
 43  16  51  1   
 44  17  18  2   
 45  17  19  1   
 46  18  20  1   
 47  18  52  1   
 48  19  21  1   
 49  19  53  1   
 50  19  54  1   
 51  20  22  1   
 52  20  23  1   
 53  20  24  1   
 54  21  22  1   
 55  21  25  1   
 56  21  26  1   
 57  22  55  1   
 58  22  56  1   
 59  23  57  1   
 60  23  58  1   
 61  23  59  1   
 62  24  60  1   
 63  24  61  1   
 64  24  62  1   
 65  25  63  1   
 66  25  64  1   
 67  25  65  1   
 68  26  66  1   
 69  26  67  1   
 70  26  68  1   
@<TRIPOS>SUBSTRUCTURE
  1 ****   8 GROUP 4 **** **** 0

# MOE 2024.06 (io_trps.svl 2023.06)
