@<TRIPOS>MOLECULE
NONAME
37 38 1 0 0 
SMALL
USER_CHARGES


@<TRIPOS>ATOM
  1 CL       1.6250     0.8020    -1.3300 Cl    1 <1>  -0.1770 
  2 C        1.3360    -0.8260    -0.7620 C.ar  1 <1>   0.1770 
  3 C        2.3910    -1.7130    -0.5870 C.ar  1 <1>  -0.1440 
  4 C        0.0300    -1.1970    -0.4990 C.ar  1 <1>  -0.1500 
  5 C        2.1090    -2.9920    -0.1290 C.ar  1 <1>  -0.1500 
  6 C        3.8370    -1.3130    -0.8670 C.3   1 <1>   0.0890 
  7 C       -0.2370    -2.4780    -0.0480 C.ar  1 <1>  -0.1500 
  8 C        0.8040    -3.3720     0.1360 C.ar  1 <1>  -0.1500 
  9 S        4.7770    -0.9240     0.6140 S.o2  1 <1>   1.3330 
 10 O        4.9760    -2.1280     1.3940 O.2   1 <1>  -0.6500 
 11 O        4.2050     0.2440     1.2490 O.2   1 <1>  -0.6500 
 12 N        6.2930    -0.4870    -0.0170 N.am  1 <1>  -0.8490 
 13 C        7.1940    -1.6360    -0.1630 C.3   1 <1>   0.1960 
 14 C        6.9210     0.6030     0.7400 C.3   1 <1>   0.1960 
 15 C        8.4640    -1.2260    -0.9110 C.3   1 <1>  -0.1600 
 16 C        8.1970     1.0770     0.0380 C.3   1 <1>  -0.1600 
 17 C        9.1850    -0.0770    -0.1860 C.3   1 <1>  -0.0190 
 18 C       10.4210     0.3900    -0.9510 C.2   1 <1>   0.5690 
 19 O       10.3430     0.6980    -2.1120 O.2   1 <1>  -0.5700 
 20 N       11.6070     0.4600    -0.3210 N.am  1 <1>  -0.8000 
 21 H       -0.7640    -0.4880    -0.6440 H     1 <1>   0.1500 
 22 H        2.9050    -3.7020     0.0320 H     1 <1>   0.1500 
 23 H        3.8640    -0.4690    -1.5260 H     1 <1>   0.0800 
 24 H        4.3170    -2.1220    -1.3800 H     1 <1>   0.0800 
 25 H       -1.2500    -2.7770     0.1610 H     1 <1>   0.1500 
 26 H        0.5980    -4.3670     0.4920 H     1 <1>   0.1500 
 27 H        6.7000    -2.4180    -0.7150 H     1 <1>   0.0800 
 28 H        7.4520    -2.0250     0.8090 H     1 <1>   0.0800 
 29 H        7.1420     0.2700     1.7410 H     1 <1>   0.0800 
 30 H        6.2460     1.4400     0.8060 H     1 <1>   0.0800 
 31 H        8.1980    -0.9210    -1.9090 H     1 <1>   0.0800 
 32 H        9.1220    -2.0730    -0.9910 H     1 <1>   0.0800 
 33 H        8.6620     1.8460     0.6290 H     1 <1>   0.0800 
 34 H        7.9270     1.5130    -0.9090 H     1 <1>   0.0800 
 35 H        9.5020    -0.4390     0.7750 H     1 <1>   0.0800 
 36 H       12.4230     0.7780    -0.8460 H     1 <1>   0.3700 
 37 H       11.7590     0.2240     0.6590 H     1 <1>   0.3700 
@<TRIPOS>BOND
  1   1   2  1   
  2   2   3  ar  
  3   2   4  ar  
  4   3   5  ar  
  5   3   6  1   
  6   4   7  ar  
  7   4  21  1   
  8   5   8  ar  
  9   5  22  1   
 10   6   9  1   
 11   6  23  1   
 12   6  24  1   
 13   7   8  ar  
 14   7  25  1   
 15   8  26  1   
 16   9  10  2   
 17   9  11  2   
 18   9  12  am  
 19  12  13  1   
 20  12  14  1   
 21  13  15  1   
 22  13  27  1   
 23  13  28  1   
 24  14  16  1   
 25  14  29  1   
 26  14  30  1   
 27  15  17  1   
 28  15  31  1   
 29  15  32  1   
 30  16  17  1   
 31  16  33  1   
 32  16  34  1   
 33  17  18  1   
 34  17  35  1   
 35  18  19  2   
 36  18  20  am  
 37  20  36  1   
 38  20  37  1   
@<TRIPOS>SUBSTRUCTURE
  1 ****   9 GROUP 4 **** **** 0

# MOE 2024.06 (io_trps.svl 2023.06)
