@<TRIPOS>MOLECULE
NONAME
43 45 1 0 0 
SMALL
USER_CHARGES


@<TRIPOS>ATOM
  1 O        0.6290     0.2590    -0.5930 O.3   1 <1>  -0.3630 
  2 C        1.8440    -0.3430    -0.6680 C.ar  1 <1>   0.0820 
  3 C       -0.0610     0.4570     0.6210 C.3   1 <1>   0.2000 
  4 C        2.5210    -0.8920     0.4180 C.ar  1 <1>  -0.1500 
  5 C        2.4270    -0.4060    -1.9230 C.ar  1 <1>  -0.1500 
  6 C       -1.5290     0.6810     0.2670 C.3   1 <1>  -0.2400 
  7 C        0.5250     1.6790     1.3310 C.3   1 <1>  -0.2400 
  8 C        3.7580    -1.4830     0.2360 C.ar  1 <1>  -0.1500 
  9 C        3.6650    -0.9950    -2.0950 C.ar  1 <1>  -0.1500 
 10 C        4.3620    -1.5370    -1.0180 C.ar  1 <1>   0.0280 
 11 C        5.6550    -2.1270    -1.2280 C.2   1 <1>  -0.1780 
 12 C        6.8020    -1.9620    -0.5310 C.2   1 <1>  -0.0380 
 13 N        7.9800    -2.6130    -0.8930 N.pl3 1 <1>  -0.8380 
 14 C        6.9750    -1.0290     0.6860 C.3   1 <1>   0.3380 
 15 C        9.0130    -1.6200    -1.3270 C.3   1 <1>   0.2090 
 16 C        8.5410    -3.4230     0.2320 C.3   1 <1>   0.2090 
 17 O        6.5840     0.2510     0.3380 O.3   1 <1>  -0.6800 
 18 C        8.4710    -1.0320     1.0880 C.3   1 <1>  -0.0800 
 19 C        9.3230    -0.6600    -0.1520 C.3   1 <1>  -0.1600 
 20 C        8.8330    -2.4950     1.4360 C.3   1 <1>  -0.1600 
 21 H        0.0230    -0.4310     1.2210 H     1 <1>   0.0800 
 22 H        2.1030    -0.8720     1.4050 H     1 <1>   0.1500 
 23 H        1.9010     0.0130    -2.7620 H     1 <1>   0.1500 
 24 H       -1.6350     1.5460    -0.3640 H     1 <1>   0.0800 
 25 H       -2.1050     0.8330     1.1610 H     1 <1>   0.0800 
 26 H       -1.9170    -0.1810    -0.2450 H     1 <1>   0.0800 
 27 H        0.4390     2.5490     0.7050 H     1 <1>   0.0800 
 28 H        1.5600     1.5200     1.5710 H     1 <1>   0.0800 
 29 H       -0.0090     1.8620     2.2460 H     1 <1>   0.0800 
 30 H        4.2600    -1.9190     1.0790 H     1 <1>   0.1500 
 31 H        4.1040    -1.0340    -3.0760 H     1 <1>   0.1500 
 32 H        5.6950    -2.7790    -2.0810 H     1 <1>   0.1500 
 33 H        6.3650    -1.3560     1.5080 H     1 <1>   0.0800 
 34 H        9.9040    -2.1350    -1.6420 H     1 <1>   0.0800 
 35 H        8.6310    -1.0620    -2.1650 H     1 <1>   0.0800 
 36 H        7.8250    -4.1790     0.5090 H     1 <1>   0.0800 
 37 H        9.4410    -3.9170    -0.0920 H     1 <1>   0.0800 
 38 H        5.8270     0.1630    -0.2750 H     1 <1>   0.4000 
 39 H        8.6500    -0.3730     1.9180 H     1 <1>   0.0800 
 40 H       10.3700    -0.7080     0.0850 H     1 <1>   0.0800 
 41 H        9.1090     0.3490    -0.4570 H     1 <1>   0.0800 
 42 H        8.2600    -2.8250     2.2850 H     1 <1>   0.0800 
 43 H        9.8720    -2.5680     1.7010 H     1 <1>   0.0800 
@<TRIPOS>BOND
  1   1   2  1   
  2   1   3  1   
  3   2   4  ar  
  4   2   5  ar  
  5   3   6  1   
  6   3   7  1   
  7   3  21  1   
  8   4   8  ar  
  9   4  22  1   
 10   5   9  ar  
 11   5  23  1   
 12   6  24  1   
 13   6  25  1   
 14   6  26  1   
 15   7  27  1   
 16   7  28  1   
 17   7  29  1   
 18   8  10  ar  
 19   8  30  1   
 20   9  10  ar  
 21   9  31  1   
 22  10  11  1   
 23  11  12  2   
 24  11  32  1   
 25  12  13  1   
 26  12  14  1   
 27  13  15  1   
 28  13  16  1   
 29  14  17  1   
 30  14  18  1   
 31  14  33  1   
 32  15  19  1   
 33  15  34  1   
 34  15  35  1   
 35  16  20  1   
 36  16  36  1   
 37  16  37  1   
 38  17  38  1   
 39  18  19  1   
 40  18  20  1   
 41  18  39  1   
 42  19  40  1   
 43  19  41  1   
 44  20  42  1   
 45  20  43  1   
@<TRIPOS>SUBSTRUCTURE
  1 ****  10 GROUP 4 **** **** 0

# MOE 2024.06 (io_trps.svl 2023.06)
