@<TRIPOS>MOLECULE
NONAME
43 44 1 0 0 
SMALL
USER_CHARGES


@<TRIPOS>ATOM
  1 S        0.0000    -0.5210     1.4940 S.o2  1 <1>   1.4470 
  2 O        0.0490     0.9110     1.7000 O.2   1 <1>  -0.6500 
  3 O       -0.3310    -1.3680     2.6220 O.2   1 <1>  -0.6500 
  4 N       -1.1850    -0.8340     0.3190 N.am  1 <1>  -0.8490 
  5 C        1.5550    -1.0870     0.7270 C.ar  1 <1>  -0.0090 
  6 C       -1.3740    -2.2750     0.1190 C.3   1 <1>   0.1960 
  7 C       -2.4290    -0.1280     0.6430 C.3   1 <1>   0.1960 
  8 C        2.0620    -0.5630    -0.4650 C.ar  1 <1>  -0.1440 
  9 C        2.2760    -2.1000     1.3490 C.ar  1 <1>  -0.1500 
 10 C       -1.8810    -2.5560    -1.2980 C.3   1 <1>  -0.1600 
 11 C       -3.4740    -0.1790    -0.4780 C.3   1 <1>  -0.1600 
 12 C        3.2420    -1.0590    -1.0000 C.ar  1 <1>  -0.1500 
 13 C        1.3520     0.5580    -1.2150 C.3   1 <1>  -0.0970 
 14 C        3.4600    -2.5980     0.8160 C.ar  1 <1>   0.0830 
 15 C       -3.4110    -2.5630    -1.4530 C.3   1 <1>  -0.1600 
 16 C       -4.1740    -1.5400    -0.6000 C.3   1 <1>  -0.1600 
 17 C        3.9440    -2.0710    -0.3730 C.ar  1 <1>  -0.1430 
 18 O        4.1770    -3.5890     1.4090 O.3   1 <1>  -0.3630 
 19 C        5.2360    -2.5940    -0.9850 C.3   1 <1>  -0.0970 
 20 C        3.8070    -4.1360     2.6560 C.3   1 <1>   0.0400 
 21 H       -2.0310    -2.6890     0.8670 H     1 <1>   0.0800 
 22 H       -0.4240    -2.7740     0.2150 H     1 <1>   0.0800 
 23 H       -2.2020     0.9120     0.8110 H     1 <1>   0.0800 
 24 H       -2.8430    -0.5170     1.5590 H     1 <1>   0.0800 
 25 H        1.8910    -2.4990     2.2680 H     1 <1>   0.1500 
 26 H       -1.5180    -3.5210    -1.6030 H     1 <1>   0.0800 
 27 H       -1.4480    -1.8350    -1.9700 H     1 <1>   0.0800 
 28 H       -3.0340     0.1200    -1.4130 H     1 <1>   0.0800 
 29 H       -4.2270     0.5510    -0.2370 H     1 <1>   0.0800 
 30 H        3.6220    -0.6500    -1.9200 H     1 <1>   0.1500 
 31 H        1.2100     1.4090    -0.5740 H     1 <1>   0.0800 
 32 H        0.3940     0.2240    -1.5710 H     1 <1>   0.0800 
 33 H        1.9260     0.8810    -2.0650 H     1 <1>   0.0800 
 34 H       -3.7830    -3.5430    -1.2090 H     1 <1>   0.0800 
 35 H       -3.6390    -2.3900    -2.4910 H     1 <1>   0.0800 
 36 H       -5.1430    -1.3950    -1.0460 H     1 <1>   0.0800 
 37 H       -4.3410    -1.9440     0.3840 H     1 <1>   0.0800 
 38 H        5.4670    -2.0870    -1.9040 H     1 <1>   0.0800 
 39 H        5.1420    -3.6460    -1.1880 H     1 <1>   0.0800 
 40 H        6.0490    -2.4480    -0.2970 H     1 <1>   0.0800 
 41 H        4.5400    -4.8720     2.9280 H     1 <1>   0.0800 
 42 H        2.8410    -4.6000     2.5610 H     1 <1>   0.0800 
 43 H        3.7880    -3.3490     3.3900 H     1 <1>   0.0800 
@<TRIPOS>BOND
  1   1   2  2   
  2   1   3  2   
  3   1   4  am  
  4   1   5  1   
  5   4   6  1   
  6   4   7  1   
  7   5   8  ar  
  8   5   9  ar  
  9   6  10  1   
 10   6  21  1   
 11   6  22  1   
 12   7  11  1   
 13   7  23  1   
 14   7  24  1   
 15   8  12  ar  
 16   8  13  1   
 17   9  14  ar  
 18   9  25  1   
 19  10  15  1   
 20  10  26  1   
 21  10  27  1   
 22  11  16  1   
 23  11  28  1   
 24  11  29  1   
 25  12  17  ar  
 26  12  30  1   
 27  13  31  1   
 28  13  32  1   
 29  13  33  1   
 30  14  17  ar  
 31  14  18  1   
 32  15  16  1   
 33  15  34  1   
 34  15  35  1   
 35  16  36  1   
 36  16  37  1   
 37  17  19  1   
 38  18  20  1   
 39  19  38  1   
 40  19  39  1   
 41  19  40  1   
 42  20  41  1   
 43  20  42  1   
 44  20  43  1   
@<TRIPOS>SUBSTRUCTURE
  1 ****   5 GROUP 4 **** **** 0

# MOE 2024.06 (io_trps.svl 2023.06)
