@<TRIPOS>MOLECULE
NONAME
47 49 1 0 0 
SMALL
USER_CHARGES


@<TRIPOS>ATOM
  1 O       -0.9140     0.3710     0.2350 O.2   1 <1>  -0.5750 
  2 C       -2.1170     0.3290     0.3340 C.2   1 <1>   0.6860 
  3 N       -2.9290     1.3940    -0.0270 N.am  1 <1>  -0.4420 
  4 N       -2.6910    -0.8090     0.8200 N.am  1 <1>  -0.4950 
  5 C       -4.2980     1.2420     0.1330 C.2   1 <1>   0.4200 
  6 C       -2.3490     2.6600    -0.5630 C.3   1 <1>   0.0520 
  7 C       -4.0370    -0.9720     0.9850 C.2   1 <1>   0.6990 
  8 N       -5.2670     2.1470    -0.1510 N.pl3 1 <1>  -0.7040 
  9 C       -4.8870     0.1250     0.6170 C.2   1 <1>   0.2700 
 10 O       -4.4450    -2.0240     1.4340 O.2   1 <1>  -0.5750 
 11 C       -6.4550     1.6260     0.1600 C.cat 1 <1>   1.0690 
 12 N       -6.2750     0.3750     0.6190 N.pl3 1 <1>  -0.7680 
 13 N       -7.5910     2.3440     0.0080 N.pl3 1 <1>  -0.5970 
 14 C       -7.2700    -0.7090     0.8070 C.3   1 <1>   0.4870 
 15 C       -7.7110     3.3900    -1.0490 C.3   1 <1>   0.1600 
 16 C       -8.7960     2.1890     0.8690 C.3   1 <1>   0.1600 
 17 C       -8.0810    -0.8440    -0.4650 C.2   1 <1>  -0.2950 
 18 C       -7.3890     4.7720    -0.4710 C.3   1 <1>  -0.1680 
 19 C       -9.0980     3.4550     1.6800 C.3   1 <1>  -0.1680 
 20 C       -9.4100    -0.7400    -0.5610 C.2   1 <1>  -0.2950 
 21 C       -8.5860     5.4930     0.1690 C.3   1 <1>  -0.1680 
 22 C       -9.6530     4.6090     0.8320 C.3   1 <1>  -0.1680 
 23 C      -10.1870    -0.8820    -1.8550 C.3   1 <1>  -0.1100 
 24 H       -2.0700    -1.5730     1.0780 H     1 <1>   0.3640 
 25 H       -2.5450     3.4690     0.1190 H     1 <1>   0.0720 
 26 H       -2.7830     2.8850    -1.5220 H     1 <1>   0.0720 
 27 H       -1.2830     2.5720    -0.6880 H     1 <1>   0.0720 
 28 H       -5.1470     3.1000    -0.4800 H     1 <1>   0.4440 
 29 H       -6.7810    -1.6470     0.9980 H     1 <1>   0.0720 
 30 H       -7.9020    -0.5040     1.6530 H     1 <1>   0.0720 
 31 H       -7.0240     3.1710    -1.8490 H     1 <1>   0.0720 
 32 H       -8.7000     3.3790    -1.4750 H     1 <1>   0.0720 
 33 H       -9.6450     1.9350     0.2560 H     1 <1>   0.0720 
 34 H       -8.6490     1.3950     1.5730 H     1 <1>   0.0720 
 35 H       -7.4610    -1.0510    -1.3200 H     1 <1>   0.1420 
 36 H       -6.5970     4.6920     0.2530 H     1 <1>   0.0720 
 37 H       -7.0250     5.4000    -1.2660 H     1 <1>   0.0720 
 38 H       -9.8570     3.1950     2.3970 H     1 <1>   0.0720 
 39 H       -8.2340     3.7690     2.2390 H     1 <1>   0.0720 
 40 H      -10.0570    -0.5510     0.2820 H     1 <1>   0.1420 
 41 H       -8.2080     6.1870     0.9020 H     1 <1>   0.0720 
 42 H       -9.0780     6.0840    -0.5850 H     1 <1>   0.0720 
 43 H      -10.3190     4.2170     0.0810 H     1 <1>   0.0720 
 44 H      -10.2490     5.2430     1.4660 H     1 <1>   0.0720 
 45 H      -10.8830    -1.6990    -1.7780 H     1 <1>   0.0720 
 46 H       -9.5270    -1.0740    -2.6820 H     1 <1>   0.0720 
 47 H      -10.7380     0.0190    -2.0580 H     1 <1>   0.0720 
@<TRIPOS>BOND
  1   1   2  2   
  2   2   3  am  
  3   2   4  am  
  4   3   5  1   
  5   3   6  1   
  6   4   7  am  
  7   4  24  1   
  8   5   8  1   
  9   5   9  2   
 10   6  25  1   
 11   6  26  1   
 12   6  27  1   
 13   7   9  1   
 14   7  10  2   
 15   8  11  ar  
 16   8  28  1   
 17   9  12  1   
 18  11  12  ar  
 19  11  13  ar  
 20  12  14  1   
 21  13  15  1   
 22  13  16  1   
 23  14  17  1   
 24  14  29  1   
 25  14  30  1   
 26  15  18  1   
 27  15  31  1   
 28  15  32  1   
 29  16  19  1   
 30  16  33  1   
 31  16  34  1   
 32  17  20  2   
 33  17  35  1   
 34  18  21  1   
 35  18  36  1   
 36  18  37  1   
 37  19  22  1   
 38  19  38  1   
 39  19  39  1   
 40  20  23  1   
 41  20  40  1   
 42  21  22  1   
 43  21  41  1   
 44  21  42  1   
 45  22  43  1   
 46  22  44  1   
 47  23  45  1   
 48  23  46  1   
 49  23  47  1   
@<TRIPOS>SUBSTRUCTURE
  1 ****  11 GROUP 4 **** **** 0

# MOE 2024.06 (io_trps.svl 2023.06)
