@<TRIPOS>MOLECULE
NONAME
36 37 1 0 0 
SMALL
USER_CHARGES


@<TRIPOS>ATOM
  1 F       -1.7460    -0.2900     2.4220 F     1 <1>  -0.1900 
  2 C       -2.4290    -0.3350     1.3110 C.ar  1 <1>   0.1900 
  3 C       -3.4460    -1.2590     1.1930 C.ar  1 <1>  -0.1500 
  4 C       -2.1070     0.5470     0.2990 C.ar  1 <1>  -0.1500 
  5 C       -4.1970    -1.3220     0.0190 C.ar  1 <1>   0.0860 
  6 C       -2.8350     0.4900    -0.8760 C.ar  1 <1>  -0.1500 
  7 C       -5.2870    -2.2750    -0.1190 C.2   1 <1>   0.5440 
  8 C       -3.8610    -0.4330    -1.0090 C.ar  1 <1>  -0.1500 
  9 O       -5.3220    -3.2890     0.5510 O.2   1 <1>  -0.5700 
 10 N       -6.3560    -2.0430    -0.9530 N.am  1 <1>  -0.6600 
 11 C       -7.1080    -3.2140    -1.4920 C.3   1 <1>   0.1400 
 12 C       -7.2240    -0.8600    -0.6960 C.3   1 <1>   0.1400 
 13 C       -8.2220    -3.6160    -0.5080 C.3   1 <1>   0.3430 
 14 C       -8.3630    -1.2460     0.2730 C.3   1 <1>   0.3430 
 15 N       -9.1350    -2.4580    -0.1890 N.4   1 <1>  -0.9590 
 16 C      -10.1620    -2.8640     0.7940 C.3   1 <1>   0.4810 
 17 C      -11.2710    -1.8390     0.7260 C.2   1 <1>  -0.2880 
 18 C      -12.4530    -2.0220     0.1280 C.2   1 <1>  -0.3000 
 19 H       -3.6520    -1.9300     2.0080 H     1 <1>   0.1500 
 20 H       -1.3060     1.2530     0.4300 H     1 <1>   0.1500 
 21 H       -2.6000     1.1610    -1.6860 H     1 <1>   0.1500 
 22 H       -4.4080    -0.4700    -1.9350 H     1 <1>   0.1500 
 23 H       -6.4340    -4.0440    -1.6270 H     1 <1>   0.0800 
 24 H       -7.5250    -2.9690    -2.4540 H     1 <1>   0.0800 
 25 H       -7.6320    -0.5020    -1.6260 H     1 <1>   0.0800 
 26 H       -6.6440    -0.0630    -0.2630 H     1 <1>   0.0800 
 27 H       -7.7510    -3.9700     0.3960 H     1 <1>   0.0800 
 28 H       -8.7880    -4.4300    -0.9280 H     1 <1>   0.0800 
 29 H       -9.0290    -0.4060     0.3820 H     1 <1>   0.0800 
 30 H       -7.9250    -1.4470     1.2380 H     1 <1>   0.0800 
 31 H       -9.6480    -2.2020    -1.0410 H     1 <1>   0.4500 
 32 H       -9.7500    -2.9250     1.7890 H     1 <1>   0.0800 
 33 H      -10.5610    -3.8290     0.5250 H     1 <1>   0.0800 
 34 H      -11.0260    -0.9170     1.2260 H     1 <1>   0.1500 
 35 H      -13.2320    -1.2760     0.1000 H     1 <1>   0.1500 
 36 H      -12.7600    -2.9220    -0.3800 H     1 <1>   0.1500 
@<TRIPOS>BOND
  1   1   2  1   
  2   2   3  ar  
  3   2   4  ar  
  4   3   5  ar  
  5   3  19  1   
  6   4   6  ar  
  7   4  20  1   
  8   5   7  1   
  9   5   8  ar  
 10   6   8  ar  
 11   6  21  1   
 12   7   9  2   
 13   7  10  am  
 14   8  22  1   
 15  10  11  1   
 16  10  12  1   
 17  11  13  1   
 18  11  23  1   
 19  11  24  1   
 20  12  14  1   
 21  12  25  1   
 22  12  26  1   
 23  13  15  1   
 24  13  27  1   
 25  13  28  1   
 26  14  15  1   
 27  14  29  1   
 28  14  30  1   
 29  15  16  1   
 30  15  31  1   
 31  16  17  1   
 32  16  32  1   
 33  16  33  1   
 34  17  18  2   
 35  17  34  1   
 36  18  35  1   
 37  18  36  1   
@<TRIPOS>SUBSTRUCTURE
  1 ****  10 GROUP 4 **** **** 0

# MOE 2024.06 (io_trps.svl 2023.06)
