@<TRIPOS>MOLECULE
NONAME
31 31 1 0 0 
SMALL
USER_CHARGES


@<TRIPOS>ATOM
  1 BR      -0.9070    -0.2320     0.1490 Br    1 <1>  -0.1110 
  2 C       -0.5700     1.6680     0.1320 C.ar  1 <1>   0.1110 
  3 C       -1.6310     2.5530     0.2560 C.ar  1 <1>   0.0830 
  4 C        0.7370     2.0940    -0.0080 C.ar  1 <1>  -0.1500 
  5 O       -2.8890     2.0570     0.4020 O.3   1 <1>  -0.2320 
  6 C       -1.3530     3.9150     0.2470 C.ar  1 <1>  -0.1500 
  7 C        1.0020     3.4540    -0.0230 C.ar  1 <1>  -0.1440 
  8 C       -4.0030     2.5570    -0.1340 C.2   1 <1>   0.8700 
  9 C       -0.0460     4.3560     0.1060 C.ar  1 <1>  -0.1500 
 10 C        2.4260     3.9600    -0.1760 C.3   1 <1>  -0.0960 
 11 O       -4.0170     3.5120    -0.8830 O.2   1 <1>  -0.5700 
 12 O       -5.1190     1.9220     0.2100 O.3   1 <1>  -0.4300 
 13 C       -6.3720     2.3290    -0.2970 C.3   1 <1>   0.1200 
 14 C       -7.4690     1.3940     0.2350 C.3   1 <1>  -0.0800 
 15 C       -7.2370    -0.0620    -0.1970 C.3   1 <1>  -0.2400 
 16 C       -8.8450     1.8640    -0.2520 C.3   1 <1>  -0.2400 
 17 H        1.5270     1.3710    -0.1020 H     1 <1>   0.1500 
 18 H       -2.1440     4.6360     0.3510 H     1 <1>   0.1500 
 19 H        0.1540     5.4140     0.0980 H     1 <1>   0.1500 
 20 H        3.0540     3.2040    -0.6110 H     1 <1>   0.0800 
 21 H        2.8220     4.2270     0.7870 H     1 <1>   0.0800 
 22 H        2.4460     4.8260    -0.8130 H     1 <1>   0.0800 
 23 H       -6.3300     2.2930    -1.3730 H     1 <1>   0.0800 
 24 H       -6.5490     3.3430     0.0190 H     1 <1>   0.0800 
 25 H       -7.4600     1.4440     1.3120 H     1 <1>   0.0800 
 26 H       -7.2200    -0.1410    -1.2700 H     1 <1>   0.0800 
 27 H       -8.0190    -0.6940     0.1840 H     1 <1>   0.0800 
 28 H       -6.2990    -0.4230     0.1870 H     1 <1>   0.0800 
 29 H       -8.8990     1.8310    -1.3270 H     1 <1>   0.0800 
 30 H       -9.0320     2.8730     0.0710 H     1 <1>   0.0800 
 31 H       -9.6180     1.2340     0.1500 H     1 <1>   0.0800 
@<TRIPOS>BOND
  1   1   2  1   
  2   2   3  ar  
  3   2   4  ar  
  4   3   5  1   
  5   3   6  ar  
  6   4   7  ar  
  7   4  17  1   
  8   5   8  1   
  9   6   9  ar  
 10   6  18  1   
 11   7   9  ar  
 12   7  10  1   
 13   8  11  2   
 14   8  12  1   
 15   9  19  1   
 16  10  20  1   
 17  10  21  1   
 18  10  22  1   
 19  12  13  1   
 20  13  14  1   
 21  13  23  1   
 22  13  24  1   
 23  14  15  1   
 24  14  16  1   
 25  14  25  1   
 26  15  26  1   
 27  15  27  1   
 28  15  28  1   
 29  16  29  1   
 30  16  30  1   
 31  16  31  1   
@<TRIPOS>SUBSTRUCTURE
  1 ****   5 GROUP 4 **** **** 0

# MOE 2024.06 (io_trps.svl 2023.06)
