@<TRIPOS>MOLECULE
NONAME
37 38 1 0 0 
SMALL
USER_CHARGES


@<TRIPOS>ATOM
  1 S       -0.7560     0.5430     0.3760 S.3   1 <1>  -0.0800 
  2 C        0.8710     0.3290    -0.1720 C.2   1 <1>   0.4420 
  3 C       -1.0620    -1.1220    -0.0280 C.2   1 <1>   0.3250 
  4 N        1.0830    -0.8640    -0.5900 N.2   1 <1>  -0.3380 
  5 N        1.8020     1.3410    -0.1480 N.am  1 <1>  -0.4940 
  6 N       -0.0040    -1.6770    -0.5080 N.2   1 <1>  -0.3380 
  7 C       -2.3700    -1.6970     0.1900 C.ar  1 <1>   0.0530 
  8 C        1.7340     2.6450     0.2600 C.2   1 <1>   0.5690 
  9 C       -3.4460    -0.9770     0.7250 C.ar  1 <1>  -0.1500 
 10 C       -2.6050    -3.0370    -0.1380 C.ar  1 <1>  -0.1500 
 11 O        0.7230     3.1290     0.7050 O.2   1 <1>  -0.5700 
 12 C        3.0020     3.5320     0.1460 C.3   1 <1>   0.0610 
 13 C       -4.6830    -1.5620     0.9190 C.ar  1 <1>  -0.1500 
 14 C       -3.8380    -3.6340     0.0520 C.ar  1 <1>  -0.1500 
 15 C        3.3970     4.0550     1.5400 C.3   1 <1>  -0.2400 
 16 C        4.2210     2.7830    -0.4390 C.3   1 <1>  -0.2400 
 17 C        2.7120     4.7400    -0.7650 C.3   1 <1>  -0.2400 
 18 C       -4.8770    -2.8880     0.5820 C.ar  1 <1>   0.1010 
 19 S       -6.5140    -3.5790     0.8640 S.3   1 <1>  -0.3310 
 20 C       -6.4490    -5.3420     0.3210 C.3   1 <1>  -0.0100 
 21 H        2.7080     1.0510    -0.5040 H     1 <1>   0.3700 
 22 H       -3.3290     0.0570     0.9970 H     1 <1>   0.1500 
 23 H       -1.8010    -3.6220    -0.5510 H     1 <1>   0.1500 
 24 H       -5.5010    -0.9970     1.3300 H     1 <1>   0.1500 
 25 H       -3.9710    -4.6630    -0.2150 H     1 <1>   0.1500 
 26 H        3.6110     3.2350     2.2020 H     1 <1>   0.0800 
 27 H        2.5910     4.6270     1.9660 H     1 <1>   0.0800 
 28 H        4.2660     4.6860     1.4830 H     1 <1>   0.0800 
 29 H        5.0710     3.4420    -0.4960 H     1 <1>   0.0800 
 30 H        4.0130     2.4300    -1.4340 H     1 <1>   0.0800 
 31 H        4.4940     1.9490     0.1830 H     1 <1>   0.0800 
 32 H        3.5730     5.3780    -0.8450 H     1 <1>   0.0800 
 33 H        1.8970     5.3200    -0.3660 H     1 <1>   0.0800 
 34 H        2.4350     4.4090    -1.7500 H     1 <1>   0.0800 
 35 H       -7.4230    -5.7680     0.4840 H     1 <1>   0.0800 
 36 H       -5.7080    -5.8460     0.9150 H     1 <1>   0.0800 
 37 H       -6.1960    -5.3590    -0.7240 H     1 <1>   0.0800 
@<TRIPOS>BOND
  1   1   2  1   
  2   1   3  1   
  3   2   4  2   
  4   2   5  1   
  5   3   6  2   
  6   3   7  1   
  7   4   6  1   
  8   5   8  am  
  9   5  21  1   
 10   7   9  ar  
 11   7  10  ar  
 12   8  11  2   
 13   8  12  1   
 14   9  13  ar  
 15   9  22  1   
 16  10  14  ar  
 17  10  23  1   
 18  12  15  1   
 19  12  16  1   
 20  12  17  1   
 21  13  18  ar  
 22  13  24  1   
 23  14  18  ar  
 24  14  25  1   
 25  15  26  1   
 26  15  27  1   
 27  15  28  1   
 28  16  29  1   
 29  16  30  1   
 30  16  31  1   
 31  17  32  1   
 32  17  33  1   
 33  17  34  1   
 34  18  19  1   
 35  19  20  1   
 36  20  35  1   
 37  20  36  1   
 38  20  37  1   
@<TRIPOS>SUBSTRUCTURE
  1 ****   1 GROUP 4 **** **** 0

# MOE 2024.06 (io_trps.svl 2023.06)
