@<TRIPOS>MOLECULE
NONAME
47 48 1 0 0 
SMALL
USER_CHARGES


@<TRIPOS>ATOM
  1 S        0.1580    -0.8140    -1.5910 S.o2  1 <1>   1.4470 
  2 O        0.7050    -1.6720    -2.6210 O.2   1 <1>  -0.6500 
  3 O        0.1150     0.6160    -1.8030 O.2   1 <1>  -0.6500 
  4 N        1.0580    -1.1020    -0.1820 N.am  1 <1>  -0.8490 
  5 C       -1.5070    -1.3740    -1.1360 C.ar  1 <1>  -0.0090 
  6 C        1.2640    -2.5390     0.0380 C.3   1 <1>   0.1960 
  7 C        2.3100    -0.3380    -0.2030 C.3   1 <1>   0.1960 
  8 C       -2.0670    -1.0130     0.0820 C.ar  1 <1>  -0.1500 
  9 C       -2.2650    -2.1650    -1.9900 C.ar  1 <1>  -0.1500 
 10 C        1.4410    -2.8300     1.5310 C.3   1 <1>  -0.1600 
 11 C        3.0720    -0.3720     1.1290 C.3   1 <1>  -0.1600 
 12 C       -3.3440    -1.4100     0.4550 C.ar  1 <1>   0.1170 
 13 C       -3.5330    -2.5940    -1.6360 C.ar  1 <1>  -0.1500 
 14 C        2.8920    -2.7760     2.0370 C.3   1 <1>  -0.1600 
 15 C        3.7840    -1.7060     1.3940 C.3   1 <1>  -0.1600 
 16 N       -3.9070    -1.0350     1.6870 N.am  1 <1>  -0.5470 
 17 C       -4.0770    -2.2270    -0.4110 C.ar  1 <1>   0.0820 
 18 C       -3.8820     0.1100     2.4180 C.2   1 <1>   0.5690 
 19 O       -5.3120    -2.6310     0.0040 O.3   1 <1>  -0.3630 
 20 O       -4.4740     0.1640     3.4650 O.2   1 <1>  -0.5700 
 21 C       -3.1550     1.3450     1.9410 C.3   1 <1>  -0.1790 
 22 C       -6.1650    -3.3790    -0.8300 C.3   1 <1>   0.1200 
 23 C       -7.4710    -3.6140    -0.0770 C.3   1 <1>  -0.2400 
 24 H        2.0970    -2.9060    -0.5400 H     1 <1>   0.0800 
 25 H        0.3890    -3.0770    -0.2850 H     1 <1>   0.0800 
 26 H        2.0830     0.6950    -0.4060 H     1 <1>   0.0800 
 27 H        2.9410    -0.6910    -1.0030 H     1 <1>   0.0800 
 28 H       -1.4770    -0.4180     0.7550 H     1 <1>   0.1500 
 29 H       -1.8540    -2.4530    -2.9450 H     1 <1>   0.1500 
 30 H        1.0630    -3.8170     1.7310 H     1 <1>   0.0800 
 31 H        0.8310    -2.1440     2.0930 H     1 <1>   0.0800 
 32 H        2.4160    -0.1100     1.9410 H     1 <1>   0.0800 
 33 H        3.8270     0.3930     1.0750 H     1 <1>   0.0800 
 34 H       -4.0740    -3.2120    -2.3280 H     1 <1>   0.1500 
 35 H        3.3550    -3.7350     1.8770 H     1 <1>   0.0800 
 36 H        2.8650    -2.6140     3.1010 H     1 <1>   0.0800 
 37 H        4.6170    -1.5300     2.0540 H     1 <1>   0.0800 
 38 H        4.1930    -2.0810     0.4710 H     1 <1>   0.0800 
 39 H       -4.6100    -1.6930     2.0320 H     1 <1>   0.3700 
 40 H       -2.1190     1.2850     2.2150 H     1 <1>   0.0800 
 41 H       -3.5830     2.2130     2.4070 H     1 <1>   0.0800 
 42 H       -3.2470     1.4490     0.8760 H     1 <1>   0.0800 
 43 H       -5.6860    -4.3150    -1.0590 H     1 <1>   0.0800 
 44 H       -6.3420    -2.8170    -1.7310 H     1 <1>   0.0800 
 45 H       -7.2840    -4.1640     0.8280 H     1 <1>   0.0800 
 46 H       -8.1480    -4.1820    -0.6890 H     1 <1>   0.0800 
 47 H       -7.9350    -2.6730     0.1630 H     1 <1>   0.0800 
@<TRIPOS>BOND
  1   1   2  2   
  2   1   3  2   
  3   1   4  am  
  4   1   5  1   
  5   4   6  1   
  6   4   7  1   
  7   5   8  ar  
  8   5   9  ar  
  9   6  10  1   
 10   6  24  1   
 11   6  25  1   
 12   7  11  1   
 13   7  26  1   
 14   7  27  1   
 15   8  12  ar  
 16   8  28  1   
 17   9  13  ar  
 18   9  29  1   
 19  10  14  1   
 20  10  30  1   
 21  10  31  1   
 22  11  15  1   
 23  11  32  1   
 24  11  33  1   
 25  12  16  1   
 26  12  17  ar  
 27  13  17  ar  
 28  13  34  1   
 29  14  15  1   
 30  14  35  1   
 31  14  36  1   
 32  15  37  1   
 33  15  38  1   
 34  16  18  am  
 35  16  39  1   
 36  17  19  1   
 37  18  20  2   
 38  18  21  1   
 39  19  22  1   
 40  21  40  1   
 41  21  41  1   
 42  21  42  1   
 43  22  23  1   
 44  22  43  1   
 45  22  44  1   
 46  23  45  1   
 47  23  46  1   
 48  23  47  1   
@<TRIPOS>SUBSTRUCTURE
  1 ****   8 GROUP 4 **** **** 0

# MOE 2024.06 (io_trps.svl 2023.06)
