@<TRIPOS>MOLECULE
NONAME
47 49 1 0 0 
SMALL
USER_CHARGES


@<TRIPOS>ATOM
  1 BR       0.9680     2.7510     0.3720 Br    1 <1>  -0.1110 
  2 C        2.6250     1.7730     0.3780 C.ar  1 <1>   0.1110 
  3 C        3.5390     2.0170     1.3840 C.ar  1 <1>  -0.1500 
  4 C        2.8580     0.8510    -0.6240 C.ar  1 <1>  -0.1500 
  5 C        4.7300     1.3100     1.3810 C.ar  1 <1>  -0.1500 
  6 C        4.0530     0.1510    -0.6160 C.ar  1 <1>  -0.1500 
  7 C        4.9930     0.3780     0.3830 C.ar  1 <1>  -0.1430 
  8 C        6.3100    -0.3850     0.3900 C.3   1 <1>   0.2540 
  9 N        7.4460     0.5420     0.2150 N.3   1 <1>  -0.8100 
 10 C        8.7480    -0.1460     0.3660 C.3   1 <1>   0.1100 
 11 C        7.3850     1.2640    -1.0840 C.3   1 <1>   0.1100 
 12 C        9.9450     0.8300     0.2280 C.3   1 <1>   0.3430 
 13 C        8.5850     2.2210    -1.2840 C.3   1 <1>   0.3430 
 14 N        9.4730     2.2210    -0.0730 N.4   1 <1>  -0.9590 
 15 C       10.5640     3.2350    -0.0850 C.3   1 <1>   0.3430 
 16 C       10.0200     4.6730    -0.0790 C.3   1 <1>  -0.0800 
 17 C       11.2050     5.6590    -0.0690 C.3   1 <1>  -0.0220 
 18 C        9.0720     4.9590     1.1090 C.3   1 <1>  -0.1600 
 19 C       10.7360     7.0820     0.1670 C.2   1 <1>  -0.2880 
 20 C        8.4750     6.3730     1.0260 C.3   1 <1>  -0.0220 
 21 C        9.5280     7.3960     0.6410 C.2   1 <1>  -0.2880 
 22 H        3.3210     2.7400     2.1500 H     1 <1>   0.1500 
 23 H        2.1210     0.6860    -1.3890 H     1 <1>   0.1500 
 24 H        5.4560     1.4860     2.1550 H     1 <1>   0.1500 
 25 H        4.2430    -0.5720    -1.3900 H     1 <1>   0.1500 
 26 H        6.3140    -1.1280    -0.3890 H     1 <1>   0.0800 
 27 H        6.4040    -0.8930     1.3360 H     1 <1>   0.0800 
 28 H        8.8400    -0.9240    -0.3730 H     1 <1>   0.0800 
 29 H        8.7950    -0.6150     1.3350 H     1 <1>   0.0800 
 30 H        6.4810     1.8470    -1.1320 H     1 <1>   0.0800 
 31 H        7.3550     0.5580    -1.8980 H     1 <1>   0.0800 
 32 H       10.5980     0.4830    -0.5550 H     1 <1>   0.0800 
 33 H       10.5040     0.8250     1.1490 H     1 <1>   0.0800 
 34 H        8.2050     3.2120    -1.4670 H     1 <1>   0.0800 
 35 H        9.1450     1.9170    -2.1530 H     1 <1>   0.0800 
 36 H        8.8200     2.4260     0.7000 H     1 <1>   0.4500 
 37 H       11.1850     3.0900    -0.9550 H     1 <1>   0.0800 
 38 H       11.1810     3.1020     0.7890 H     1 <1>   0.0800 
 39 H        9.4800     4.8470    -0.9930 H     1 <1>   0.0800 
 40 H       11.7180     5.6130    -1.0150 H     1 <1>   0.0800 
 41 H       11.9070     5.4050     0.7070 H     1 <1>   0.0800 
 42 H        9.6240     4.8750     2.0300 H     1 <1>   0.0800 
 43 H        8.2580     4.2580     1.1440 H     1 <1>   0.0800 
 44 H       11.4750     7.8260    -0.0820 H     1 <1>   0.1500 
 45 H        8.0520     6.6350     1.9810 H     1 <1>   0.0800 
 46 H        7.6850     6.4000     0.2960 H     1 <1>   0.0800 
 47 H        9.2050     8.4140     0.7880 H     1 <1>   0.1500 
@<TRIPOS>BOND
  1   1   2  1   
  2   2   3  ar  
  3   2   4  ar  
  4   3   5  ar  
  5   3  22  1   
  6   4   6  ar  
  7   4  23  1   
  8   5   7  ar  
  9   5  24  1   
 10   6   7  ar  
 11   6  25  1   
 12   7   8  1   
 13   8   9  1   
 14   8  26  1   
 15   8  27  1   
 16   9  10  1   
 17   9  11  1   
 18  10  12  1   
 19  10  28  1   
 20  10  29  1   
 21  11  13  1   
 22  11  30  1   
 23  11  31  1   
 24  12  14  1   
 25  12  32  1   
 26  12  33  1   
 27  13  14  1   
 28  13  34  1   
 29  13  35  1   
 30  14  15  1   
 31  14  36  1   
 32  15  16  1   
 33  15  37  1   
 34  15  38  1   
 35  16  17  1   
 36  16  18  1   
 37  16  39  1   
 38  17  19  1   
 39  17  40  1   
 40  17  41  1   
 41  18  20  1   
 42  18  42  1   
 43  18  43  1   
 44  19  21  2   
 45  19  44  1   
 46  20  21  1   
 47  20  45  1   
 48  20  46  1   
 49  21  47  1   
@<TRIPOS>SUBSTRUCTURE
  1 ****  11 GROUP 4 **** **** 0

# MOE 2024.06 (io_trps.svl 2023.06)
