@<TRIPOS>MOLECULE
NONAME
37 40 1 0 0 
SMALL
USER_CHARGES


@<TRIPOS>ATOM
  1 O        0.7720    -0.3720     1.1160 O.2   1 <1>  -0.5700 
  2 C        1.6630    -0.7350     0.3910 C.2   1 <1>   0.4950 
  3 C        2.8700     0.0030     0.2030 C.2   1 <1>  -0.1240 
  4 C        1.4810    -2.0120    -0.4130 C.3   1 <1>  -0.0990 
  5 C        3.8870    -0.4050    -0.6570 C.2   1 <1>  -0.0620 
  6 C        3.0390     1.4180     1.0080 C.3   1 <1>   0.0580 
  7 C        2.8170    -2.7090    -0.7680 C.3   1 <1>   0.0000 
  8 O        5.0570     0.3240    -0.9130 O.3   1 <1>  -0.3570 
  9 C        3.7970    -1.7100    -1.4300 C.3   1 <1>  -0.0220 
 10 C        2.5270     2.6890     0.0910 C.3   1 <1>   0.2000 
 11 C        4.5870     1.5960     1.1230 C.3   1 <1>  -0.1600 
 12 C        2.5410    -3.8690    -1.7370 C.3   1 <1>  -0.2400 
 13 C        3.4510    -3.2950     0.5090 C.3   1 <1>  -0.2400 
 14 C        5.2880     1.6830    -0.2580 C.3   1 <1>   0.5600 
 15 O        3.6120     3.5870    -0.1340 O.3   1 <1>  -0.5600 
 16 C        2.3000     2.3600    -1.3920 C.3   1 <1>   0.1200 
 17 O        6.6510     1.8440    -0.1280 O.3   1 <1>  -0.6800 
 18 C        4.5080     2.9230    -1.0480 C.3   1 <1>   0.4800 
 19 O        3.5740     2.4470    -1.9950 O.3   1 <1>  -0.5600 
 20 H        0.9580    -1.7520    -1.3140 H     1 <1>   0.0800 
 21 H        0.8530    -2.6840     0.1440 H     1 <1>   0.0800 
 22 H        2.5650     1.3980     1.9750 H     1 <1>   0.0800 
 23 H        4.7760    -2.1530    -1.4940 H     1 <1>   0.0800 
 24 H        3.4800    -1.4800    -2.4320 H     1 <1>   0.0800 
 25 H        1.6970     3.2090     0.5350 H     1 <1>   0.0800 
 26 H        4.9590     0.7040     1.5920 H     1 <1>   0.0800 
 27 H        4.1710     1.4840     0.3520 H     1 <1>   0.0800 
 28 H        2.0910    -3.5090    -2.6460 H     1 <1>   0.0800 
 29 H        1.8720    -4.5850    -1.2920 H     1 <1>   0.0800 
 30 H        3.4550    -4.3760    -1.9920 H     1 <1>   0.0800 
 31 H        3.6820    -2.5250     1.2230 H     1 <1>   0.0800 
 32 H        4.3640    -3.8140     0.2730 H     1 <1>   0.0800 
 33 H        2.7810    -3.9950     0.9770 H     1 <1>   0.0800 
 34 H        1.6780     3.1150    -1.8380 H     1 <1>   0.0800 
 35 H        1.8630     1.3980    -1.5820 H     1 <1>   0.0800 
 36 H        7.0090     1.0140     0.2320 H     1 <1>   0.4000 
 37 H        5.1840     3.6280    -1.4970 H     1 <1>   0.0800 
@<TRIPOS>BOND
  1   1   2  2   
  2   2   3  1   
  3   2   4  1   
  4   3   5  2   
  5   3   6  1   
  6   4   7  1   
  7   4  20  1   
  8   4  21  1   
  9   5   8  1   
 10   5   9  1   
 11   6  10  1   
 12   6  11  1   
 13   6  22  1   
 14   7   9  1   
 15   7  12  1   
 16   7  13  1   
 17   8  14  1   
 18   9  23  1   
 19   9  24  1   
 20  10  15  1   
 21  10  16  1   
 22  10  25  1   
 23  11  14  1   
 24  11  26  1   
 25  11  27  1   
 26  12  28  1   
 27  12  29  1   
 28  12  30  1   
 29  13  31  1   
 30  13  32  1   
 31  13  33  1   
 32  14  17  1   
 33  14  18  1   
 34  15  18  1   
 35  16  19  1   
 36  16  34  1   
 37  16  35  1   
 38  17  36  1   
 39  18  19  1   
 40  18  37  1   
@<TRIPOS>SUBSTRUCTURE
  1 ****   3 GROUP 4 **** **** 0

# MOE 2024.06 (io_trps.svl 2023.06)
