@<TRIPOS>MOLECULE
NONAME
51 53 1 0 0 
SMALL
USER_CHARGES


@<TRIPOS>ATOM
  1 S       -4.0530    -1.3690     3.2300 S.3   1 <1>  -0.2860 
  2 C       -3.1010    -0.1360     2.3330 C.2   1 <1>   0.2420 
  3 C       -2.8180    -2.6800     3.6970 C.3   1 <1>   0.1310 
  4 N       -1.8180    -0.1370     2.2510 N.2   1 <1>  -0.3380 
  5 N       -3.6740     0.8620     1.6680 N.pl3 1 <1>   0.0480 
  6 C       -3.1180    -3.9790     2.9590 C.2   1 <1>   0.5690 
  7 N       -1.5020     0.8980     1.4770 N.2   1 <1>  -0.3380 
  8 C       -2.6110     1.4930     1.1320 C.2   1 <1>   0.1330 
  9 C       -5.1140     1.1720     1.5100 C.3   1 <1>   0.0960 
 10 O       -3.6560    -4.8710     3.5650 O.2   1 <1>  -0.5700 
 11 N       -2.7920    -4.1740     1.6570 N.am  1 <1>  -0.7300 
 12 C       -2.7050     2.6470     0.2740 C.ar  1 <1>   0.0530 
 13 C       -5.6430     0.6530     0.1690 C.3   1 <1>  -0.2400 
 14 C       -2.1360    -3.2530     0.7150 C.3   1 <1>   0.2200 
 15 C       -3.1820     3.8690     0.7420 C.ar  1 <1>  -0.1500 
 16 C       -2.3260     2.5660    -1.0630 C.ar  1 <1>  -0.1500 
 17 C       -3.1850    -2.6900    -0.2470 C.3   1 <1>  -0.1600 
 18 C       -1.0400    -4.0020    -0.0480 C.3   1 <1>  -0.1600 
 19 C       -3.3000     4.9600    -0.0990 C.ar  1 <1>  -0.1500 
 20 C       -2.4420     3.6550    -1.9070 C.ar  1 <1>  -0.1500 
 21 C       -2.5340    -1.7590    -1.2790 C.3   1 <1>  -0.1600 
 22 C       -0.3790    -3.0840    -1.0880 C.3   1 <1>  -0.1600 
 23 C       -2.9350     4.8580    -1.4310 C.ar  1 <1>  -0.1430 
 24 C       -1.4190    -2.4840    -2.0460 C.3   1 <1>  -0.1600 
 25 C       -3.0620     6.0550    -2.3560 C.3   1 <1>  -0.0970 
 26 H       -2.9150    -2.8310     4.7550 H     1 <1>   0.0800 
 27 H       -1.8290    -2.3280     3.4770 H     1 <1>   0.0800 
 28 H       -5.2500     2.2370     1.5670 H     1 <1>   0.0800 
 29 H       -5.6630     0.7230     2.3190 H     1 <1>   0.0800 
 30 H       -3.0690    -5.0740     1.2650 H     1 <1>   0.3700 
 31 H       -5.1040     1.0980    -0.6490 H     1 <1>   0.0800 
 32 H       -6.6820     0.9080     0.0680 H     1 <1>   0.0800 
 33 H       -5.5530    -0.4170     0.1190 H     1 <1>   0.0800 
 34 H       -1.6750    -2.4450     1.2520 H     1 <1>   0.0800 
 35 H       -3.4550     3.9640     1.7770 H     1 <1>   0.1500 
 36 H       -1.9350     1.6370    -1.4380 H     1 <1>   0.1500 
 37 H       -3.9230    -2.1440     0.3100 H     1 <1>   0.0800 
 38 H       -3.6760    -3.4980    -0.7600 H     1 <1>   0.0800 
 39 H       -1.4650    -4.8540    -0.5500 H     1 <1>   0.0800 
 40 H       -0.2940    -4.3480     0.6450 H     1 <1>   0.0800 
 41 H       -3.6720     5.8930     0.2880 H     1 <1>   0.1500 
 42 H       -2.1430     3.5630    -2.9370 H     1 <1>   0.1500 
 43 H       -2.1170    -0.9040    -0.7730 H     1 <1>   0.0800 
 44 H       -3.2780    -1.4030    -1.9700 H     1 <1>   0.0800 
 45 H        0.3520    -3.6400    -1.6490 H     1 <1>   0.0800 
 46 H        0.1350    -2.2850    -0.5790 H     1 <1>   0.0800 
 47 H       -0.9340    -1.7930    -2.7140 H     1 <1>   0.0800 
 48 H       -1.8500    -3.2710    -2.6410 H     1 <1>   0.0800 
 49 H       -3.8700     6.6910    -2.0420 H     1 <1>   0.0800 
 50 H       -3.2560     5.7340    -3.3640 H     1 <1>   0.0800 
 51 H       -2.1490     6.6230    -2.3430 H     1 <1>   0.0800 
@<TRIPOS>BOND
  1   1   2  1   
  2   1   3  1   
  3   2   4  2   
  4   2   5  1   
  5   3   6  1   
  6   3  26  1   
  7   3  27  1   
  8   4   7  1   
  9   5   8  1   
 10   5   9  1   
 11   6  10  2   
 12   6  11  am  
 13   7   8  2   
 14   8  12  1   
 15   9  13  1   
 16   9  28  1   
 17   9  29  1   
 18  11  14  1   
 19  11  30  1   
 20  12  15  ar  
 21  12  16  ar  
 22  13  31  1   
 23  13  32  1   
 24  13  33  1   
 25  14  17  1   
 26  14  18  1   
 27  14  34  1   
 28  15  19  ar  
 29  15  35  1   
 30  16  20  ar  
 31  16  36  1   
 32  17  21  1   
 33  17  37  1   
 34  17  38  1   
 35  18  22  1   
 36  18  39  1   
 37  18  40  1   
 38  19  23  ar  
 39  19  41  1   
 40  20  23  ar  
 41  20  42  1   
 42  21  24  1   
 43  21  43  1   
 44  21  44  1   
 45  22  24  1   
 46  22  45  1   
 47  22  46  1   
 48  23  25  1   
 49  24  47  1   
 50  24  48  1   
 51  25  49  1   
 52  25  50  1   
 53  25  51  1   
@<TRIPOS>SUBSTRUCTURE
  1 ****   5 GROUP 4 **** **** 0

# MOE 2024.06 (io_trps.svl 2023.06)
