@<TRIPOS>MOLECULE
NONAME
38 39 1 0 0 
SMALL
USER_CHARGES


@<TRIPOS>ATOM
  1 F       -7.2590    -1.0730    -1.8440 F     1 <1>  -0.1900 
  2 C       -6.0800    -1.3550    -1.3550 C.ar  1 <1>   0.1900 
  3 C       -6.0020    -2.0930    -0.1890 C.ar  1 <1>  -0.1500 
  4 C       -4.9570    -0.9030    -2.0210 C.ar  1 <1>  -0.1500 
  5 C       -4.7530    -2.3930     0.3290 C.ar  1 <1>  -0.1500 
  6 C       -3.7120    -1.2070    -1.4960 C.ar  1 <1>  -0.1500 
  7 C       -3.6020    -1.9490    -0.3260 C.ar  1 <1>   0.0830 
  8 O       -2.3430    -2.1990     0.1120 O.3   1 <1>  -0.3630 
  9 C       -2.1090    -2.9750     1.2770 C.3   1 <1>   0.1810 
 10 C       -0.6170    -3.1130     1.5360 C.2   1 <1>   0.6590 
 11 O       -0.1130    -2.7430     2.5660 O.2   1 <1>  -0.5700 
 12 O        0.1090    -3.6700     0.5700 O.3   1 <1>  -0.4300 
 13 C        1.5060    -3.8040     0.6650 C.3   1 <1>   0.2000 
 14 C        2.1530    -2.4600     0.3190 C.3   1 <1>  -0.1600 
 15 C        1.9340    -4.8910    -0.3200 C.3   1 <1>  -0.1600 
 16 C        3.6700    -2.5970     0.2340 C.3   1 <1>   0.3430 
 17 C        3.4560    -4.9830    -0.3970 C.3   1 <1>   0.3430 
 18 N        4.0260    -3.6520    -0.7610 N.4   1 <1>  -0.9590 
 19 C        5.5080    -3.7370    -0.9370 C.3   1 <1>   0.2630 
 20 H       -6.9030    -2.4240     0.2970 H     1 <1>   0.1500 
 21 H       -5.0580    -0.3310    -2.9250 H     1 <1>   0.1500 
 22 H       -4.7020    -2.9650     1.2360 H     1 <1>   0.1500 
 23 H       -2.8190    -0.8690    -1.9900 H     1 <1>   0.1500 
 24 H       -2.5390    -3.9480     1.1300 H     1 <1>   0.0800 
 25 H       -2.5720    -2.4820     2.1120 H     1 <1>   0.0800 
 26 H        1.7560    -4.1010     1.6720 H     1 <1>   0.0800 
 27 H        1.9180    -1.7400     1.0830 H     1 <1>   0.0800 
 28 H        1.7720    -2.0930    -0.6180 H     1 <1>   0.0800 
 29 H        1.5390    -4.6820    -1.2980 H     1 <1>   0.0800 
 30 H        1.5430    -5.8390     0.0060 H     1 <1>   0.0800 
 31 H        4.0620    -2.8610     1.2040 H     1 <1>   0.0800 
 32 H        4.0980    -1.6510    -0.0580 H     1 <1>   0.0800 
 33 H        3.7330    -5.7190    -1.1350 H     1 <1>   0.0800 
 34 H        3.8470    -5.2980     0.5580 H     1 <1>   0.0800 
 35 H        3.6070    -3.3750    -1.6620 H     1 <1>   0.4500 
 36 H        5.9800    -4.0230    -0.0110 H     1 <1>   0.0800 
 37 H        5.9040    -2.7820    -1.2440 H     1 <1>   0.0800 
 38 H        5.7540    -4.4670    -1.6900 H     1 <1>   0.0800 
@<TRIPOS>BOND
  1   1   2  1   
  2   2   3  ar  
  3   2   4  ar  
  4   3   5  ar  
  5   3  20  1   
  6   4   6  ar  
  7   4  21  1   
  8   5   7  ar  
  9   5  22  1   
 10   6   7  ar  
 11   6  23  1   
 12   7   8  1   
 13   8   9  1   
 14   9  10  1   
 15   9  24  1   
 16   9  25  1   
 17  10  11  2   
 18  10  12  1   
 19  12  13  1   
 20  13  14  1   
 21  13  15  1   
 22  13  26  1   
 23  14  16  1   
 24  14  27  1   
 25  14  28  1   
 26  15  17  1   
 27  15  29  1   
 28  15  30  1   
 29  16  18  1   
 30  16  31  1   
 31  16  32  1   
 32  17  18  1   
 33  17  33  1   
 34  17  34  1   
 35  18  19  1   
 36  18  35  1   
 37  19  36  1   
 38  19  37  1   
 39  19  38  1   
@<TRIPOS>SUBSTRUCTURE
  1 ****   8 GROUP 4 **** **** 0

# MOE 2024.06 (io_trps.svl 2023.06)
