@<TRIPOS>MOLECULE
NONAME
33 33 1 0 0 
SMALL
USER_CHARGES


@<TRIPOS>ATOM
  1 CL      -0.1040    -1.1670    -1.1470 Cl    1 <1>  -0.1770 
  2 C       -1.7900    -1.4190    -0.7680 C.ar  1 <1>   0.1770 
  3 C       -2.4540    -2.5000    -1.3160 C.ar  1 <1>  -0.1500 
  4 C       -2.4330    -0.5330     0.0740 C.ar  1 <1>  -0.1500 
  5 C       -3.7920    -2.7070    -1.0190 C.ar  1 <1>  -0.1440 
  6 C       -3.7690    -0.7340     0.3750 C.ar  1 <1>  -0.1500 
  7 C       -4.4550    -1.8210    -0.1700 C.ar  1 <1>   0.0830 
  8 C       -4.5200    -3.8990    -1.6250 C.3   1 <1>  -0.0960 
  9 O       -5.7660    -2.0670     0.0900 O.3   1 <1>  -0.3630 
 10 C       -6.5310    -1.2160     0.9370 C.3   1 <1>   0.1810 
 11 C       -7.9700    -1.7000     1.0630 C.2   1 <1>   0.5690 
 12 O       -8.7580    -1.0160     1.6720 O.2   1 <1>  -0.5700 
 13 N       -8.3390    -2.8760     0.4900 N.am  1 <1>  -0.7300 
 14 C       -9.6900    -3.4870     0.5680 C.3   1 <1>   0.1400 
 15 C      -10.6430    -2.8040    -0.4130 C.3   1 <1>   0.1200 
 16 O      -11.8330    -3.5270    -0.4490 O.3   1 <1>  -0.5600 
 17 C      -12.8150    -2.9510    -1.2480 C.3   1 <1>   0.0400 
 18 H       -1.9180    -3.1670    -1.9670 H     1 <1>   0.1500 
 19 H       -1.8910     0.2990     0.4860 H     1 <1>   0.1500 
 20 H       -4.2500    -0.0340     1.0310 H     1 <1>   0.1500 
 21 H       -3.8690    -4.4700    -2.2610 H     1 <1>   0.0800 
 22 H       -5.3560    -3.5570    -2.2090 H     1 <1>   0.0800 
 23 H       -4.8830    -4.5410    -0.8420 H     1 <1>   0.0800 
 24 H       -6.5280    -0.2270     0.5180 H     1 <1>   0.0800 
 25 H       -6.0770    -1.2070     1.9100 H     1 <1>   0.0800 
 26 H       -7.6270    -3.3930    -0.0340 H     1 <1>   0.3700 
 27 H      -10.0740    -3.3750     1.5680 H     1 <1>   0.0800 
 28 H       -9.6190    -4.5340     0.3340 H     1 <1>   0.0800 
 29 H      -10.2210    -2.7950    -1.4020 H     1 <1>   0.0800 
 30 H      -10.8520    -1.8000    -0.0820 H     1 <1>   0.0800 
 31 H      -13.6860    -3.5830    -1.2150 H     1 <1>   0.0800 
 32 H      -12.4550    -2.8810    -2.2590 H     1 <1>   0.0800 
 33 H      -13.0600    -1.9760    -0.8620 H     1 <1>   0.0800 
@<TRIPOS>BOND
  1   1   2  1   
  2   2   3  ar  
  3   2   4  ar  
  4   3   5  ar  
  5   3  18  1   
  6   4   6  ar  
  7   4  19  1   
  8   5   7  ar  
  9   5   8  1   
 10   6   7  ar  
 11   6  20  1   
 12   7   9  1   
 13   8  21  1   
 14   8  22  1   
 15   8  23  1   
 16   9  10  1   
 17  10  11  1   
 18  10  24  1   
 19  10  25  1   
 20  11  12  2   
 21  11  13  am  
 22  13  14  1   
 23  13  26  1   
 24  14  15  1   
 25  14  27  1   
 26  14  28  1   
 27  15  16  1   
 28  15  29  1   
 29  15  30  1   
 30  16  17  1   
 31  17  31  1   
 32  17  32  1   
 33  17  33  1   
@<TRIPOS>SUBSTRUCTURE
  1 ****   9 GROUP 4 **** **** 0

# MOE 2024.06 (io_trps.svl 2023.06)
