@<TRIPOS>MOLECULE
NONAME
53 55 1 0 0 
SMALL
USER_CHARGES


@<TRIPOS>ATOM
  1 O        0.1130     0.6740    -0.4780 O.2   1 <1>  -0.5700 
  2 C        0.0250     1.7550     0.0760 C.2   1 <1>   0.5440 
  3 N        1.1180     2.2500     0.7640 N.am  1 <1>  -0.6600 
  4 C       -1.2240     2.4850    -0.0130 C.ar  1 <1>   0.0860 
  5 C        2.3370     1.4210     0.9880 C.3   1 <1>   0.1400 
  6 C        1.2440     3.6700     1.1980 C.3   1 <1>   0.1400 
  7 C       -1.9300     2.8690     1.1280 C.ar  1 <1>  -0.1500 
  8 C       -1.7660     2.8260    -1.2520 C.ar  1 <1>  -0.1500 
  9 C        3.5370     2.0610     0.2850 C.3   1 <1>  -0.1600 
 10 C        2.4440     4.3200     0.5040 C.3   1 <1>  -0.1600 
 11 C       -3.1130     3.5760     1.0350 C.ar  1 <1>  -0.1500 
 12 C       -2.9500     3.5330    -1.3540 C.ar  1 <1>  -0.1500 
 13 C        3.7410     3.5190     0.7300 C.3   1 <1>  -0.0190 
 14 C       -3.6330     3.9180    -0.2030 C.ar  1 <1>   0.0830 
 15 C        4.9410     4.1450     0.0210 C.2   1 <1>   0.5690 
 16 O       -4.7920     4.6140    -0.2110 O.3   1 <1>  -0.3630 
 17 O        4.8080     4.5760    -1.0990 O.2   1 <1>  -0.5700 
 18 N        6.1270     4.1810     0.6900 N.am  1 <1>  -0.7300 
 19 C       -5.4270     4.9840    -1.4150 C.3   1 <1>   0.0400 
 20 C        7.4240     4.7170     0.2220 C.3   1 <1>   0.2200 
 21 C        7.3290     6.2220    -0.0630 C.3   1 <1>  -0.1600 
 22 C        7.9320     3.9400    -0.9990 C.3   1 <1>  -0.1600 
 23 C        8.6810     6.7750    -0.5410 C.3   1 <1>  -0.1600 
 24 C        9.2830     4.4920    -1.4780 C.3   1 <1>  -0.1600 
 25 C        9.1950     5.9990    -1.7620 C.3   1 <1>  -0.1600 
 26 H        2.1940     0.4200     0.6170 H     1 <1>   0.0800 
 27 H        2.5220     1.3550     2.0460 H     1 <1>   0.0800 
 28 H        1.3770     3.6990     2.2660 H     1 <1>   0.0800 
 29 H        0.3590     4.2300     0.9550 H     1 <1>   0.0800 
 30 H       -1.5400     2.6020     2.0950 H     1 <1>   0.1500 
 31 H       -1.2420     2.5220    -2.1410 H     1 <1>   0.1500 
 32 H        3.3740     2.0250    -0.7790 H     1 <1>   0.0800 
 33 H        4.4200     1.4860     0.4990 H     1 <1>   0.0800 
 34 H        2.5690     5.3230     0.8710 H     1 <1>   0.0800 
 35 H        2.2360     4.3850    -0.5510 H     1 <1>   0.0800 
 36 H       -3.6480     3.8680     1.9210 H     1 <1>   0.1500 
 37 H       -3.3260     3.7730    -2.3300 H     1 <1>   0.1500 
 38 H        3.9440     3.5220     1.7860 H     1 <1>   0.0800 
 39 H        6.1640     3.7820     1.6260 H     1 <1>   0.3700 
 40 H       -6.3290     5.5130    -1.1670 H     1 <1>   0.0800 
 41 H       -5.6650     4.0950    -1.9710 H     1 <1>   0.0800 
 42 H       -4.7690     5.6250    -1.9740 H     1 <1>   0.0800 
 43 H        8.1380     4.5800     1.0160 H     1 <1>   0.0800 
 44 H        7.0250     6.7400     0.8280 H     1 <1>   0.0800 
 45 H        6.5950     6.4000    -0.8290 H     1 <1>   0.0800 
 46 H        7.2220     4.0250    -1.8030 H     1 <1>   0.0800 
 47 H        8.0380     2.9000    -0.7480 H     1 <1>   0.0800 
 48 H        9.4010     6.7040     0.2560 H     1 <1>   0.0800 
 49 H        8.5720     7.8150    -0.7960 H     1 <1>   0.0800 
 50 H        9.5860     3.9750    -2.3720 H     1 <1>   0.0800 
 51 H       10.0310     4.3150    -0.7240 H     1 <1>   0.0800 
 52 H       10.1640     6.3700    -2.0450 H     1 <1>   0.0800 
 53 H        8.5260     6.1620    -2.5910 H     1 <1>   0.0800 
@<TRIPOS>BOND
  1   1   2  2   
  2   2   3  am  
  3   2   4  1   
  4   3   5  1   
  5   3   6  1   
  6   4   7  ar  
  7   4   8  ar  
  8   5   9  1   
  9   5  26  1   
 10   5  27  1   
 11   6  10  1   
 12   6  28  1   
 13   6  29  1   
 14   7  11  ar  
 15   7  30  1   
 16   8  12  ar  
 17   8  31  1   
 18   9  13  1   
 19   9  32  1   
 20   9  33  1   
 21  10  13  1   
 22  10  34  1   
 23  10  35  1   
 24  11  14  ar  
 25  11  36  1   
 26  12  14  ar  
 27  12  37  1   
 28  13  15  1   
 29  13  38  1   
 30  14  16  1   
 31  15  17  2   
 32  15  18  am  
 33  16  19  1   
 34  18  20  1   
 35  18  39  1   
 36  19  40  1   
 37  19  41  1   
 38  19  42  1   
 39  20  21  1   
 40  20  22  1   
 41  20  43  1   
 42  21  23  1   
 43  21  44  1   
 44  21  45  1   
 45  22  24  1   
 46  22  46  1   
 47  22  47  1   
 48  23  25  1   
 49  23  48  1   
 50  23  49  1   
 51  24  25  1   
 52  24  50  1   
 53  24  51  1   
 54  25  52  1   
 55  25  53  1   
@<TRIPOS>SUBSTRUCTURE
  1 ****  10 GROUP 4 **** **** 0

# MOE 2024.06 (io_trps.svl 2023.06)
