@<TRIPOS>MOLECULE
NONAME
47 49 1 0 0 
SMALL
USER_CHARGES


@<TRIPOS>ATOM
  1 S        0.2800     0.3000    -0.4780 S.o2  1 <1>   1.5760 
  2 O        0.0980    -0.7710     0.4750 O.2   1 <1>  -0.6500 
  3 O        0.4530     0.0110    -1.8830 O.2   1 <1>  -0.6500 
  4 N       -0.9960     1.3840    -0.2980 N.am  1 <1>  -0.8490 
  5 N        1.5620     1.2690     0.0310 N.am  1 <1>  -0.8490 
  6 C       -2.2300     0.8820    -0.9030 C.3   1 <1>   0.1960 
  7 C       -1.2180     1.7860     1.1060 C.3   1 <1>   0.1960 
  8 C        1.8220     2.3630    -0.9230 C.3   1 <1>   0.1960 
  9 C        2.7780     0.4640     0.2090 C.3   1 <1>   0.1960 
 10 C       -3.3610     1.9340    -0.8330 C.3   1 <1>   0.1200 
 11 C       -2.6650     2.2400     1.4050 C.3   1 <1>   0.1200 
 12 C        2.9510     3.2820    -0.4310 C.3   1 <1>   0.1400 
 13 C        3.9570     1.3100     0.7260 C.3   1 <1>   0.1400 
 14 O       -3.2680     2.7960     0.2740 O.3   1 <1>  -0.5600 
 15 N        4.1940     2.4960    -0.1540 N.am  1 <1>  -0.6600 
 16 C        5.3660     2.7140    -0.8490 C.2   1 <1>   0.5440 
 17 O        5.3450     3.4460    -1.8200 O.2   1 <1>  -0.5700 
 18 C        6.6140     2.0810    -0.4630 C.ar  1 <1>   0.0860 
 19 C        7.3700     1.3670    -1.3900 C.ar  1 <1>  -0.1500 
 20 C        7.1030     2.1630     0.8410 C.ar  1 <1>  -0.1500 
 21 C        8.5510     0.7440    -1.0290 C.ar  1 <1>  -0.1500 
 22 C        8.2830     1.5420     1.2070 C.ar  1 <1>  -0.1500 
 23 C        9.0130     0.8240     0.2740 C.ar  1 <1>  -0.1440 
 24 C       10.3100     0.1440     0.6720 C.3   1 <1>  -0.0970 
 25 H       -2.5420    -0.0140    -0.3930 H     1 <1>   0.0800 
 26 H       -2.0570     0.6250    -1.9350 H     1 <1>   0.0800 
 27 H       -0.5440     2.5930     1.3360 H     1 <1>   0.0800 
 28 H       -0.9830     0.9790     1.7780 H     1 <1>   0.0800 
 29 H        0.9310     2.9540    -1.0510 H     1 <1>   0.0800 
 30 H        2.0930     1.9640    -1.8870 H     1 <1>   0.0800 
 31 H        3.0550     0.0070    -0.7280 H     1 <1>   0.0800 
 32 H        2.5870    -0.3240     0.9170 H     1 <1>   0.0800 
 33 H       -4.3180     1.4440    -0.7980 H     1 <1>   0.0800 
 34 H       -3.3310     2.5510    -1.7130 H     1 <1>   0.0800 
 35 H       -2.6700     2.9800     2.1850 H     1 <1>   0.0800 
 36 H       -3.2610     1.4040     1.7260 H     1 <1>   0.0800 
 37 H        2.6370     3.7740     0.4720 H     1 <1>   0.0800 
 38 H        3.1360     4.0420    -1.1700 H     1 <1>   0.0800 
 39 H        4.8310     0.6870     0.7720 H     1 <1>   0.0800 
 40 H        3.7360     1.6500     1.7220 H     1 <1>   0.0800 
 41 H        7.0200     1.3080    -2.4060 H     1 <1>   0.1500 
 42 H        6.5470     2.7250     1.5700 H     1 <1>   0.1500 
 43 H        9.1120     0.2000    -1.7690 H     1 <1>   0.1500 
 44 H        8.6360     1.6230     2.2210 H     1 <1>   0.1500 
 45 H       11.1340     0.8200     0.5270 H     1 <1>   0.0800 
 46 H       10.4730    -0.7350     0.0740 H     1 <1>   0.0800 
 47 H       10.2800    -0.1510     1.7050 H     1 <1>   0.0800 
@<TRIPOS>BOND
  1   1   2  2   
  2   1   3  2   
  3   1   4  am  
  4   1   5  am  
  5   4   6  1   
  6   4   7  1   
  7   5   8  1   
  8   5   9  1   
  9   6  10  1   
 10   6  25  1   
 11   6  26  1   
 12   7  11  1   
 13   7  27  1   
 14   7  28  1   
 15   8  12  1   
 16   8  29  1   
 17   8  30  1   
 18   9  13  1   
 19   9  31  1   
 20   9  32  1   
 21  10  14  1   
 22  10  33  1   
 23  10  34  1   
 24  11  14  1   
 25  11  35  1   
 26  11  36  1   
 27  12  15  1   
 28  12  37  1   
 29  12  38  1   
 30  13  15  1   
 31  13  39  1   
 32  13  40  1   
 33  15  16  am  
 34  16  17  2   
 35  16  18  1   
 36  18  19  ar  
 37  18  20  ar  
 38  19  21  ar  
 39  19  41  1   
 40  20  22  ar  
 41  20  42  1   
 42  21  23  ar  
 43  21  43  1   
 44  22  23  ar  
 45  22  44  1   
 46  23  24  1   
 47  24  45  1   
 48  24  46  1   
 49  24  47  1   
@<TRIPOS>SUBSTRUCTURE
  1 ****   9 GROUP 4 **** **** 0

# MOE 2024.06 (io_trps.svl 2023.06)
