@<TRIPOS>MOLECULE
NONAME
41 42 1 0 0 
SMALL
USER_CHARGES


@<TRIPOS>ATOM
  1 I       -0.7730     0.1070    -0.1900 I     1 <1>  -0.0810 
  2 C        1.3230     0.3400     0.1090 C.ar  1 <1>   0.0810 
  3 C        1.7600     1.1030     1.1760 C.ar  1 <1>  -0.1500 
  4 C        2.1910    -0.2770    -0.7720 C.ar  1 <1>  -0.1500 
  5 C        3.1240     1.2480     1.3610 C.ar  1 <1>  -0.1500 
  6 C        3.5540    -0.1240    -0.5750 C.ar  1 <1>  -0.1500 
  7 C        4.0230     0.6410     0.4940 C.ar  1 <1>   0.0830 
  8 O        5.3400     0.8400     0.7550 O.3   1 <1>  -0.3630 
  9 C        6.3420     0.2720    -0.0560 C.3   1 <1>   0.1200 
 10 C        7.7020     0.6860     0.5060 C.3   1 <1>  -0.1600 
 11 C        8.8500     0.1100    -0.3330 C.3   1 <1>  -0.1600 
 12 C       10.2110     0.5320     0.2370 C.3   1 <1>  -0.1600 
 13 C       11.3710    -0.0280    -0.5930 C.3   1 <1>   0.0210 
 14 C       12.7010     0.4180    -0.0090 C.2   1 <1>  -0.1810 
 15 C       13.3940     1.5880    -0.3190 C.2   1 <1>   0.1080 
 16 C       13.4710    -0.2040     0.9100 C.2   1 <1>  -0.3320 
 17 N       14.5030     1.6920     0.3420 N.2   1 <1>  -0.7070 
 18 C       12.9520     2.6450    -1.3050 C.3   1 <1>  -0.0590 
 19 N       14.5500     0.5840     1.1010 N.pl3 1 <1>   0.3000 
 20 C       13.2630    -1.5170     1.6460 C.3   1 <1>  -0.0600 
 21 H        1.0580     1.5710     1.8440 H     1 <1>   0.1500 
 22 H        1.8140    -0.8630    -1.5920 H     1 <1>   0.1500 
 23 H        3.5020     1.8340     2.1800 H     1 <1>   0.1500 
 24 H        4.2280    -0.6030    -1.2590 H     1 <1>   0.1500 
 25 H        6.2170     0.6430    -1.0590 H     1 <1>   0.0800 
 26 H        6.2310    -0.7980    -0.0350 H     1 <1>   0.0800 
 27 H        7.7840     0.3300     1.5190 H     1 <1>   0.0800 
 28 H        7.7650     1.7600     0.5120 H     1 <1>   0.0800 
 29 H        8.7630     0.4610    -1.3470 H     1 <1>   0.0800 
 30 H        8.7840    -0.9650    -0.3410 H     1 <1>   0.0800 
 31 H       10.3060     0.1790     1.2500 H     1 <1>   0.0800 
 32 H       10.2780     1.6060     0.2570 H     1 <1>   0.0800 
 33 H       11.2960     0.3110    -1.6110 H     1 <1>   0.0800 
 34 H       11.3290    -1.1020    -0.6020 H     1 <1>   0.0800 
 35 H       11.9410     2.9400    -1.1000 H     1 <1>   0.0800 
 36 H       13.0170     2.2560    -2.3040 H     1 <1>   0.0800 
 37 H       13.5890     3.5060    -1.2250 H     1 <1>   0.0800 
 38 H       15.3300     0.3960     1.7400 H     1 <1>   0.2700 
 39 H       12.3220    -1.9590     1.3750 H     1 <1>   0.0800 
 40 H       13.2640    -1.3490     2.7080 H     1 <1>   0.0800 
 41 H       14.0490    -2.2080     1.3990 H     1 <1>   0.0800 
@<TRIPOS>BOND
  1   1   2  1   
  2   2   3  ar  
  3   2   4  ar  
  4   3   5  ar  
  5   3  21  1   
  6   4   6  ar  
  7   4  22  1   
  8   5   7  ar  
  9   5  23  1   
 10   6   7  ar  
 11   6  24  1   
 12   7   8  1   
 13   8   9  1   
 14   9  10  1   
 15   9  25  1   
 16   9  26  1   
 17  10  11  1   
 18  10  27  1   
 19  10  28  1   
 20  11  12  1   
 21  11  29  1   
 22  11  30  1   
 23  12  13  1   
 24  12  31  1   
 25  12  32  1   
 26  13  14  1   
 27  13  33  1   
 28  13  34  1   
 29  14  15  1   
 30  14  16  2   
 31  15  17  2   
 32  15  18  1   
 33  16  19  1   
 34  16  20  1   
 35  17  19  1   
 36  18  35  1   
 37  18  36  1   
 38  18  37  1   
 39  19  38  1   
 40  20  39  1   
 41  20  40  1   
 42  20  41  1   
@<TRIPOS>SUBSTRUCTURE
  1 ****  10 GROUP 4 **** **** 0

# MOE 2024.06 (io_trps.svl 2023.06)
