@<TRIPOS>MOLECULE
NONAME
49 52 1 0 0 
SMALL
USER_CHARGES


@<TRIPOS>ATOM
  1 S        1.0030    -0.0470    -0.7100 S.3   1 <1>  -0.0800 
  2 C        1.8870     1.2640     0.0550 C.2   1 <1>   0.1660 
  3 C       -0.5260     0.7040    -0.2830 C.2   1 <1>  -0.1400 
  4 N        3.2360     1.2940     0.0920 N.2   1 <1>  -0.5760 
  5 C        1.0440     2.1910     0.5840 C.2   1 <1>  -0.0860 
  6 C       -0.3380     1.8550     0.3730 C.2   1 <1>  -0.1810 
  7 C       -1.8590     0.0840    -0.6450 C.3   1 <1>   0.3000 
  8 C        3.7340     2.3290     0.6800 C.2   1 <1>   0.6510 
  9 C        1.6470     3.3020     1.2400 C.2   1 <1>   0.7160 
 10 C       -1.5490     2.6520     0.8200 C.3   1 <1>   0.0210 
 11 O       -2.8920     0.7790     0.0170 O.3   1 <1>  -0.5600 
 12 S        5.5130     2.3880     0.7890 S.3   1 <1>  -0.3710 
 13 N        3.0250     3.3690     1.2450 N.am  1 <1>  -0.4200 
 14 O        0.9790     4.1640     1.7970 O.2   1 <1>  -0.5700 
 15 C       -2.8310     2.1830     0.0760 C.3   1 <1>   0.2800 
 16 C        6.0720     0.8770    -0.1230 C.3   1 <1>   0.2080 
 17 C        3.6820     4.5960     1.7790 C.3   1 <1>   0.2840 
 18 C       -4.0780     2.6130     0.8500 C.3   1 <1>  -0.2400 
 19 C       -2.9100     2.7460    -1.3520 C.3   1 <1>  -0.2400 
 20 C        7.5940     0.7890    -0.1550 C.2   1 <1>  -0.2880 
 21 C        3.8840     5.6140     0.6630 C.ar  1 <1>  -0.1440 
 22 C        8.4880     1.6280     0.3810 C.2   1 <1>  -0.3000 
 23 C        2.8280     6.4110     0.2450 C.ar  1 <1>  -0.1500 
 24 C        5.1220     5.7630     0.0540 C.ar  1 <1>  -0.1500 
 25 C        3.0040     7.3350    -0.7700 C.ar  1 <1>  -0.1500 
 26 C        5.3000     6.6860    -0.9610 C.ar  1 <1>  -0.1500 
 27 C        4.2400     7.4730    -1.3750 C.ar  1 <1>  -0.1500 
 28 H       -1.8980    -0.9420    -0.3240 H     1 <1>   0.0800 
 29 H       -2.0310     0.1320    -1.7050 H     1 <1>   0.0800 
 30 H       -1.3930     3.6990     0.6350 H     1 <1>   0.0800 
 31 H       -1.6710     2.5240     1.8800 H     1 <1>   0.0800 
 32 H        5.6700     0.9450    -1.1190 H     1 <1>   0.0800 
 33 H        5.6460     0.0280     0.3820 H     1 <1>   0.0800 
 34 H        4.6220     4.3570     2.2410 H     1 <1>   0.0800 
 35 H        3.0720     5.0360     2.5490 H     1 <1>   0.0800 
 36 H       -4.0710     2.1800     1.8340 H     1 <1>   0.0800 
 37 H       -4.9640     2.2900     0.3340 H     1 <1>   0.0800 
 38 H       -4.1090     3.6830     0.9470 H     1 <1>   0.0800 
 39 H       -2.0170     2.5290    -1.9080 H     1 <1>   0.0800 
 40 H       -3.0180     3.8150    -1.3190 H     1 <1>   0.0800 
 41 H       -3.7610     2.3370    -1.8670 H     1 <1>   0.0800 
 42 H        7.9120    -0.0870    -0.6950 H     1 <1>   0.1500 
 43 H        8.2470     2.5200     0.9320 H     1 <1>   0.1500 
 44 H        9.5530     1.4880     0.3100 H     1 <1>   0.1500 
 45 H        1.8590     6.3190     0.7060 H     1 <1>   0.1500 
 46 H        5.9600     5.1620     0.3630 H     1 <1>   0.1500 
 47 H        2.1780     7.9470    -1.0890 H     1 <1>   0.1500 
 48 H        6.2630     6.7920    -1.4290 H     1 <1>   0.1500 
 49 H        4.3780     8.1910    -2.1640 H     1 <1>   0.1500 
@<TRIPOS>BOND
  1   1   2  1   
  2   1   3  1   
  3   2   4  1   
  4   2   5  2   
  5   3   6  2   
  6   3   7  1   
  7   4   8  2   
  8   5   6  1   
  9   5   9  1   
 10   6  10  1   
 11   7  11  1   
 12   7  28  1   
 13   7  29  1   
 14   8  12  1   
 15   8  13  1   
 16   9  13  am  
 17   9  14  2   
 18  10  15  1   
 19  10  30  1   
 20  10  31  1   
 21  11  15  1   
 22  12  16  1   
 23  13  17  1   
 24  15  18  1   
 25  15  19  1   
 26  16  20  1   
 27  16  32  1   
 28  16  33  1   
 29  17  21  1   
 30  17  34  1   
 31  17  35  1   
 32  18  36  1   
 33  18  37  1   
 34  18  38  1   
 35  19  39  1   
 36  19  40  1   
 37  19  41  1   
 38  20  22  2   
 39  20  42  1   
 40  21  23  ar  
 41  21  24  ar  
 42  22  43  1   
 43  22  44  1   
 44  23  25  ar  
 45  23  45  1   
 46  24  26  ar  
 47  24  46  1   
 48  25  27  ar  
 49  25  47  1   
 50  26  27  ar  
 51  26  48  1   
 52  27  49  1   
@<TRIPOS>SUBSTRUCTURE
  1 ****   9 GROUP 4 **** **** 0

# MOE 2024.06 (io_trps.svl 2023.06)
