@<TRIPOS>MOLECULE
NONAME
37 37 1 0 0 
SMALL
USER_CHARGES


@<TRIPOS>ATOM
  1 BR      -0.1260    -0.1680    -1.0240 Br    1 <1>  -0.1110 
  2 C        1.5680    -0.9050    -0.4960 C.ar  1 <1>   0.1110 
  3 C        2.7170    -0.4520    -1.1150 C.ar  1 <1>  -0.1500 
  4 C        1.6010    -1.8680     0.4930 C.ar  1 <1>  -0.1500 
  5 C        3.9330    -0.9880    -0.7290 C.ar  1 <1>  -0.1500 
  6 C        2.8260    -2.3930     0.8640 C.ar  1 <1>  -0.1500 
  7 C        4.0170    -1.9740     0.2620 C.ar  1 <1>   0.0860 
  8 C        5.2890    -2.5500     0.6600 C.2   1 <1>   0.5440 
  9 O        5.4520    -2.9670     1.7900 O.2   1 <1>  -0.5700 
 10 N        6.3150    -2.6470    -0.2370 N.am  1 <1>  -0.7300 
 11 C        7.6540    -3.2280     0.0330 C.3   1 <1>   0.2200 
 12 C        8.7270    -2.1340    -0.2300 C.3   1 <1>  -0.0800 
 13 C        7.8690    -4.5350    -0.7950 C.3   1 <1>  -0.0800 
 14 C       10.1590    -2.6100     0.0690 C.3   1 <1>  -0.2400 
 15 C        8.4690    -0.8640     0.6040 C.3   1 <1>  -0.2400 
 16 C        6.5910    -5.1550    -1.3950 C.3   1 <1>  -0.2400 
 17 C        8.5400    -5.6160     0.0720 C.3   1 <1>  -0.2400 
 18 H        2.6560     0.3040    -1.8770 H     1 <1>   0.1500 
 19 H        0.6890    -2.1970     0.9600 H     1 <1>   0.1500 
 20 H        4.8330    -0.6300    -1.1980 H     1 <1>   0.1500 
 21 H        2.8720    -3.1430     1.6360 H     1 <1>   0.1500 
 22 H        6.1440    -2.4250    -1.2150 H     1 <1>   0.3700 
 23 H        7.6980    -3.4830     1.0790 H     1 <1>   0.0800 
 24 H        8.6850    -1.8650    -1.2720 H     1 <1>   0.0800 
 25 H        8.5280    -4.3160    -1.6170 H     1 <1>   0.0800 
 26 H       10.2390    -2.9440     1.0890 H     1 <1>   0.0800 
 27 H       10.8600    -1.8070    -0.0800 H     1 <1>   0.0800 
 28 H       10.4460    -3.4130    -0.5850 H     1 <1>   0.0800 
 29 H        8.4430    -1.1050     1.6530 H     1 <1>   0.0800 
 30 H        7.5310    -0.4110     0.3390 H     1 <1>   0.0800 
 31 H        9.2430    -0.1360     0.4380 H     1 <1>   0.0800 
 32 H        5.8740    -5.3650    -0.6190 H     1 <1>   0.0800 
 33 H        6.8220    -6.0760    -1.9010 H     1 <1>   0.0800 
 34 H        6.1430    -4.4930    -2.1130 H     1 <1>   0.0800 
 35 H        7.8870    -5.9030     0.8790 H     1 <1>   0.0800 
 36 H        9.4610    -5.2630     0.4960 H     1 <1>   0.0800 
 37 H        8.7570    -6.4900    -0.5170 H     1 <1>   0.0800 
@<TRIPOS>BOND
  1   1   2  1   
  2   2   3  ar  
  3   2   4  ar  
  4   3   5  ar  
  5   3  18  1   
  6   4   6  ar  
  7   4  19  1   
  8   5   7  ar  
  9   5  20  1   
 10   6   7  ar  
 11   6  21  1   
 12   7   8  1   
 13   8   9  2   
 14   8  10  am  
 15  10  11  1   
 16  10  22  1   
 17  11  12  1   
 18  11  13  1   
 19  11  23  1   
 20  12  14  1   
 21  12  15  1   
 22  12  24  1   
 23  13  16  1   
 24  13  17  1   
 25  13  25  1   
 26  14  26  1   
 27  14  27  1   
 28  14  28  1   
 29  15  29  1   
 30  15  30  1   
 31  15  31  1   
 32  16  32  1   
 33  16  33  1   
 34  16  34  1   
 35  17  35  1   
 36  17  36  1   
 37  17  37  1   
@<TRIPOS>SUBSTRUCTURE
  1 ****   8 GROUP 4 **** **** 0

# MOE 2024.06 (io_trps.svl 2023.06)
