@<TRIPOS>MOLECULE
NONAME
30 31 1 0 0 
SMALL
USER_CHARGES


@<TRIPOS>ATOM
  1 O       -1.5710     0.1870    -1.6680 O.2   1 <1>  -0.5700 
  2 C       -1.8150     0.9380    -0.7590 C.2   1 <1>   0.5690 
  3 N       -2.8750     0.8660     0.1030 N.am  1 <1>  -0.2370 
  4 C       -0.9500     2.1420    -0.4640 C.3   1 <1>  -0.0990 
  5 C       -3.7630    -0.2260     0.2040 C.ar  1 <1>   0.1170 
  6 C       -2.8800     1.9460     0.9390 C.2   1 <1>   0.5690 
  7 C       -1.6800     2.8340     0.6980 C.3   1 <1>  -0.0990 
  8 C       -3.3110    -1.4900     0.5950 C.ar  1 <1>   0.0830 
  9 C       -5.1110    -0.0540    -0.0850 C.ar  1 <1>  -0.1500 
 10 O       -3.7200     2.2170     1.7570 O.2   1 <1>  -0.5700 
 11 O       -2.0000    -1.6670     0.9050 O.3   1 <1>  -0.3630 
 12 C       -4.1950    -2.5550     0.6860 C.ar  1 <1>  -0.1500 
 13 C       -5.9980    -1.1220     0.0040 C.ar  1 <1>   0.0830 
 14 C       -1.2860    -2.5910     0.1130 C.3   1 <1>   0.0400 
 15 C       -5.5320    -2.3690     0.3870 C.ar  1 <1>  -0.1500 
 16 O       -7.3270    -1.0230    -0.2610 O.3   1 <1>  -0.3630 
 17 C       -7.9250     0.2310    -0.5060 C.3   1 <1>   0.0400 
 18 H       -0.8930     2.7740    -1.3310 H     1 <1>   0.0800 
 19 H        0.0350     1.8190    -0.1760 H     1 <1>   0.0800 
 20 H       -2.0040     3.8230     0.4300 H     1 <1>   0.0800 
 21 H       -1.0710     2.8700     1.5830 H     1 <1>   0.0800 
 22 H       -5.4460     0.9230    -0.3740 H     1 <1>   0.1500 
 23 H       -3.8450    -3.5210     0.9990 H     1 <1>   0.1500 
 24 H       -1.6280    -3.5860     0.3320 H     1 <1>   0.0800 
 25 H       -0.2420    -2.5010     0.3510 H     1 <1>   0.0800 
 26 H       -1.4460    -2.3570    -0.9260 H     1 <1>   0.0800 
 27 H       -6.2250    -3.1880     0.4540 H     1 <1>   0.1500 
 28 H       -8.9830     0.0780    -0.6250 H     1 <1>   0.0800 
 29 H       -7.5120     0.6450    -1.4090 H     1 <1>   0.0800 
 30 H       -7.7410     0.8760     0.3350 H     1 <1>   0.0800 
@<TRIPOS>BOND
  1   1   2  2   
  2   2   3  am  
  3   2   4  1   
  4   3   5  1   
  5   3   6  am  
  6   4   7  1   
  7   4  18  1   
  8   4  19  1   
  9   5   8  ar  
 10   5   9  ar  
 11   6   7  1   
 12   6  10  2   
 13   7  20  1   
 14   7  21  1   
 15   8  11  1   
 16   8  12  ar  
 17   9  13  ar  
 18   9  22  1   
 19  11  14  1   
 20  12  15  ar  
 21  12  23  1   
 22  13  15  ar  
 23  13  16  1   
 24  14  24  1   
 25  14  25  1   
 26  14  26  1   
 27  15  27  1   
 28  16  17  1   
 29  17  28  1   
 30  17  29  1   
 31  17  30  1   
@<TRIPOS>SUBSTRUCTURE
  1 ****   5 GROUP 4 **** **** 0

# MOE 2024.06 (io_trps.svl 2023.06)
