@<TRIPOS>MOLECULE
NONAME
34 34 1 0 0 
SMALL
USER_CHARGES


@<TRIPOS>ATOM
  1 I       -0.7520    -0.8210     0.8820 I     1 <1>  -0.0810 
  2 C       -1.2190     1.2100     0.4480 C.ar  1 <1>   0.0810 
  3 C       -0.3500     2.1950     0.8780 C.ar  1 <1>  -0.1500 
  4 C       -2.3780     1.4890    -0.2510 C.ar  1 <1>  -0.1500 
  5 C       -0.6550     3.5180     0.5940 C.ar  1 <1>  -0.1440 
  6 C       -2.6760     2.8110    -0.5320 C.ar  1 <1>  -0.1500 
  7 C       -1.8170     3.8280    -0.1130 C.ar  1 <1>   0.0830 
  8 C        0.2670     4.6260     1.0580 C.3   1 <1>   0.4870 
  9 O       -2.0520     5.1430    -0.3730 O.3   1 <1>  -0.3630 
 10 N        0.7490     5.3240    -0.1500 N.4   1 <1>  -0.9060 
 11 C       -3.2970     5.5810    -0.8760 C.3   1 <1>   0.1200 
 12 C        1.5330     6.5370     0.0890 C.3   1 <1>   0.4230 
 13 C       -3.2670     7.1050    -0.9420 C.3   1 <1>  -0.2400 
 14 C        0.6120     7.6390     0.6050 C.3   1 <1>  -0.2400 
 15 C        2.1600     6.9370    -1.2400 C.3   1 <1>  -0.2400 
 16 H        0.5360     1.9170     1.4240 H     1 <1>   0.1500 
 17 H       -3.0310     0.6940    -0.5680 H     1 <1>   0.1500 
 18 H       -3.5770     3.0210    -1.0790 H     1 <1>   0.1500 
 19 H        1.0940     4.2200     1.6170 H     1 <1>   0.0800 
 20 H       -0.2860     5.3030     1.6880 H     1 <1>   0.0800 
 21 H       -0.1070     5.5650    -0.6730 H     1 <1>   0.4500 
 22 H        1.2650     4.6620    -0.7340 H     1 <1>   0.4500 
 23 H       -4.0740     5.2450    -0.2100 H     1 <1>   0.0800 
 24 H       -3.4410     5.1630    -1.8570 H     1 <1>   0.0800 
 25 H        2.3150     6.3410     0.8070 H     1 <1>   0.0800 
 26 H       -3.1080     7.5200     0.0370 H     1 <1>   0.0800 
 27 H       -4.2100     7.4660    -1.3110 H     1 <1>   0.0800 
 28 H       -2.4940     7.4380    -1.6110 H     1 <1>   0.0800 
 29 H       -0.1940     7.8260    -0.0830 H     1 <1>   0.0800 
 30 H        1.1720     8.5520     0.7150 H     1 <1>   0.0800 
 31 H        0.2090     7.3930     1.5700 H     1 <1>   0.0800 
 32 H        1.4080     7.1400    -1.9820 H     1 <1>   0.0800 
 33 H        2.8200     6.1680    -1.5980 H     1 <1>   0.0800 
 34 H        2.7450     7.8310    -1.1080 H     1 <1>   0.0800 
@<TRIPOS>BOND
  1   1   2  1   
  2   2   3  ar  
  3   2   4  ar  
  4   3   5  ar  
  5   3  16  1   
  6   4   6  ar  
  7   4  17  1   
  8   5   7  ar  
  9   5   8  1   
 10   6   7  ar  
 11   6  18  1   
 12   7   9  1   
 13   8  10  1   
 14   8  19  1   
 15   8  20  1   
 16   9  11  1   
 17  10  12  1   
 18  10  21  1   
 19  10  22  1   
 20  11  13  1   
 21  11  23  1   
 22  11  24  1   
 23  12  14  1   
 24  12  15  1   
 25  12  25  1   
 26  13  26  1   
 27  13  27  1   
 28  13  28  1   
 29  14  29  1   
 30  14  30  1   
 31  14  31  1   
 32  15  32  1   
 33  15  33  1   
 34  15  34  1   
@<TRIPOS>SUBSTRUCTURE
  1 ****   5 GROUP 4 **** **** 0

# MOE 2024.06 (io_trps.svl 2023.06)
