@<TRIPOS>MOLECULE
NONAME
47 50 1 0 0 
SMALL
USER_CHARGES


@<TRIPOS>ATOM
  1 O        1.2210     3.2650     2.5890 O.2   1 <1>  -0.5700 
  2 C        0.6230     2.8560     1.6220 C.2   1 <1>   0.5690 
  3 N        1.2420     2.1660     0.6310 N.am  1 <1>  -0.7300 
  4 C       -0.8730     3.1270     1.5210 C.3   1 <1>   0.1810 
  5 C        2.6730     1.8130     0.5610 C.3   1 <1>   0.2200 
  6 O       -1.4240     2.5800     0.3290 O.3   1 <1>  -0.3630 
  7 C        3.3160     2.4410    -0.6940 C.3   1 <1>  -0.0800 
  8 C        2.8400     0.2790     0.5100 C.3   1 <1>  -0.0800 
  9 C       -2.7430     2.7080     0.0420 C.ar  1 <1>   0.0820 
 10 C        4.8230     2.1110    -0.6880 C.3   1 <1>  -0.1600 
 11 C        2.6900     1.8600    -1.9830 C.3   1 <1>  -0.1600 
 12 C        4.3480    -0.0480     0.5150 C.3   1 <1>  -0.1600 
 13 C        2.2150    -0.3010    -0.7790 C.3   1 <1>  -0.1600 
 14 C       -3.1810     2.1390    -1.1430 C.ar  1 <1>  -0.1500 
 15 C       -3.6540     3.3680     0.8630 C.ar  1 <1>  -0.1500 
 16 C        5.0290     0.5840    -0.7150 C.3   1 <1>  -0.0800 
 17 C        2.8800     0.3300    -2.0180 C.3   1 <1>  -0.0800 
 18 C       -4.5110     2.2180    -1.5190 C.ar  1 <1>  -0.1440 
 19 C       -4.9840     3.4500     0.4890 C.ar  1 <1>  -0.1500 
 20 C        4.3880     0.0120    -1.9940 C.3   1 <1>  -0.1600 
 21 C       -5.4100     2.8770    -0.6970 C.ar  1 <1>  -0.1500 
 22 C       -4.9880     1.5950    -2.8190 C.3   1 <1>  -0.0970 
 23 H        0.6760     1.8490    -0.1590 H     1 <1>   0.3700 
 24 H       -1.0380     4.1890     1.5170 H     1 <1>   0.0800 
 25 H       -1.3690     2.6790     2.3620 H     1 <1>   0.0800 
 26 H        3.1670     2.1940     1.4390 H     1 <1>   0.0800 
 27 H        3.1850     3.5090    -0.6650 H     1 <1>   0.0800 
 28 H        2.3790    -0.1590     1.3790 H     1 <1>   0.0800 
 29 H        5.2820     2.5250     0.1930 H     1 <1>   0.0800 
 30 H        5.2980     2.5590    -1.5430 H     1 <1>   0.0800 
 31 H        3.1600     2.3020    -2.8440 H     1 <1>   0.0800 
 32 H        1.6430     2.1010    -2.0330 H     1 <1>   0.0800 
 33 H        4.4910    -1.1140     0.5040 H     1 <1>   0.0800 
 34 H        4.8000     0.3310     1.4160 H     1 <1>   0.0800 
 35 H        1.1560    -0.1170    -0.7970 H     1 <1>   0.0800 
 36 H        2.3540    -1.3680    -0.7990 H     1 <1>   0.0800 
 37 H       -2.4680     1.6340    -1.7680 H     1 <1>   0.1500 
 38 H       -3.3540     3.8210     1.7880 H     1 <1>   0.1500 
 39 H        6.0820     0.3580    -0.7050 H     1 <1>   0.0800 
 40 H        2.4390    -0.0720    -2.9140 H     1 <1>   0.0800 
 41 H       -5.6900     3.9590     1.1210 H     1 <1>   0.1500 
 42 H        4.5360    -1.0530    -2.0310 H     1 <1>   0.0800 
 43 H        4.8630     0.4370    -2.8610 H     1 <1>   0.0800 
 44 H       -6.4470     2.9480    -0.9780 H     1 <1>   0.1500 
 45 H       -4.2600     0.9020    -3.1990 H     1 <1>   0.0800 
 46 H       -5.1500     2.3640    -3.5530 H     1 <1>   0.0800 
 47 H       -5.9100     1.0650    -2.6590 H     1 <1>   0.0800 
@<TRIPOS>BOND
  1   1   2  2   
  2   2   3  am  
  3   2   4  1   
  4   3   5  1   
  5   3  23  1   
  6   4   6  1   
  7   4  24  1   
  8   4  25  1   
  9   5   7  1   
 10   5   8  1   
 11   5  26  1   
 12   6   9  1   
 13   7  10  1   
 14   7  11  1   
 15   7  27  1   
 16   8  12  1   
 17   8  13  1   
 18   8  28  1   
 19   9  14  ar  
 20   9  15  ar  
 21  10  16  1   
 22  10  29  1   
 23  10  30  1   
 24  11  17  1   
 25  11  31  1   
 26  11  32  1   
 27  12  16  1   
 28  12  33  1   
 29  12  34  1   
 30  13  17  1   
 31  13  35  1   
 32  13  36  1   
 33  14  18  ar  
 34  14  37  1   
 35  15  19  ar  
 36  15  38  1   
 37  16  20  1   
 38  16  39  1   
 39  17  20  1   
 40  17  40  1   
 41  18  21  ar  
 42  18  22  1   
 43  19  21  ar  
 44  19  41  1   
 45  20  42  1   
 46  20  43  1   
 47  21  44  1   
 48  22  45  1   
 49  22  46  1   
 50  22  47  1   
@<TRIPOS>SUBSTRUCTURE
  1 ****   3 GROUP 4 **** **** 0

# MOE 2024.06 (io_trps.svl 2023.06)
