@<TRIPOS>MOLECULE
NONAME
43 44 1 0 0 
SMALL
USER_CHARGES


@<TRIPOS>ATOM
  1 O        0.1320    -0.4500    -0.0020 O.3   1 <1>  -0.3630 
  2 C       -1.1140    -0.9840    -0.0010 C.ar  1 <1>   0.0830 
  3 C        1.2830    -1.2530     0.0000 C.3   1 <1>   0.1200 
  4 C       -2.1730    -0.1160    -0.0030 C.ar  1 <1>  -0.1500 
  5 C       -1.3580    -2.3710     0.0040 C.ar  1 <1>  -0.1500 
  6 C        2.4870    -0.3110    -0.0030 C.3   1 <1>  -0.1600 
  7 C       -3.5050    -0.5710    -0.0020 C.ar  1 <1>   0.0000 
  8 C       -2.6430    -2.8390     0.0050 C.ar  1 <1>  -0.1500 
  9 C        3.7940    -1.0950     0.0000 C.3   1 <1>   0.3430 
 10 C       -3.7470    -1.9620     0.0030 C.ar  1 <1>   0.0000 
 11 C       -4.6090     0.3070    -0.0040 C.ar  1 <1>  -0.1500 
 12 N        4.9250    -0.1380    -0.0040 N.4   1 <1>  -0.9060 
 13 C       -5.0800    -2.4180     0.0040 C.ar  1 <1>  -0.1500 
 14 C       -5.8920    -0.1640    -0.0030 C.ar  1 <1>  -0.1500 
 15 C        6.2460    -0.8100    -0.0020 C.3   1 <1>   0.3430 
 16 C       -6.1310    -1.5430     0.0010 C.ar  1 <1>  -0.1500 
 17 C        7.3410     0.2530    -0.0070 C.3   1 <1>  -0.1600 
 18 C        8.7310    -0.3970    -0.0040 C.3   1 <1>  -0.1600 
 19 C        9.8320     0.6660    -0.0100 C.3   1 <1>  -0.2400 
 20 H        1.2640    -1.8700    -0.8830 H     1 <1>   0.0800 
 21 H        1.2640    -1.8640     0.8880 H     1 <1>   0.0800 
 22 H       -1.9920     0.9420    -0.0070 H     1 <1>   0.1500 
 23 H       -0.5480    -3.0730     0.0060 H     1 <1>   0.1500 
 24 H        2.4320     0.3100     0.8740 H     1 <1>   0.0800 
 25 H        2.4320     0.3040    -0.8840 H     1 <1>   0.0800 
 26 H       -2.8360    -3.8960     0.0090 H     1 <1>   0.1500 
 27 H        3.8410    -1.7260    -0.8740 H     1 <1>   0.0800 
 28 H        3.8410    -1.7200     0.8780 H     1 <1>   0.0800 
 29 H       -4.4190     1.3650    -0.0080 H     1 <1>   0.1500 
 30 H        4.8590     0.4780     0.8170 H     1 <1>   0.4500 
 31 H        4.8580     0.4720    -0.8300 H     1 <1>   0.4500 
 32 H       -5.2580    -3.4790     0.0070 H     1 <1>   0.1500 
 33 H       -6.7300     0.5110    -0.0050 H     1 <1>   0.1500 
 34 H        6.3460    -1.4360    -0.8750 H     1 <1>   0.0800 
 35 H        6.3470    -1.4280     0.8770 H     1 <1>   0.0800 
 36 H       -7.1470    -1.8980     0.0030 H     1 <1>   0.1500 
 37 H        7.2500     0.8760     0.8670 H     1 <1>   0.0800 
 38 H        7.2490     0.8680    -0.8850 H     1 <1>   0.0800 
 39 H        8.8490    -1.0230    -0.8740 H     1 <1>   0.0800 
 40 H        8.8500    -1.0160     0.8700 H     1 <1>   0.0800 
 41 H        9.7620     1.2850    -0.8870 H     1 <1>   0.0800 
 42 H       10.7990     0.1940    -0.0080 H     1 <1>   0.0800 
 43 H        9.7630     1.2930     0.8630 H     1 <1>   0.0800 
@<TRIPOS>BOND
  1   1   2  1   
  2   1   3  1   
  3   2   4  ar  
  4   2   5  ar  
  5   3   6  1   
  6   3  20  1   
  7   3  21  1   
  8   4   7  ar  
  9   4  22  1   
 10   5   8  ar  
 11   5  23  1   
 12   6   9  1   
 13   6  24  1   
 14   6  25  1   
 15   7  10  ar  
 16   7  11  ar  
 17   8  10  ar  
 18   8  26  1   
 19   9  12  1   
 20   9  27  1   
 21   9  28  1   
 22  10  13  ar  
 23  11  14  ar  
 24  11  29  1   
 25  12  15  1   
 26  12  30  1   
 27  12  31  1   
 28  13  16  ar  
 29  13  32  1   
 30  14  16  ar  
 31  14  33  1   
 32  15  17  1   
 33  15  34  1   
 34  15  35  1   
 35  16  36  1   
 36  17  18  1   
 37  17  37  1   
 38  17  38  1   
 39  18  19  1   
 40  18  39  1   
 41  18  40  1   
 42  19  41  1   
 43  19  42  1   
 44  19  43  1   
@<TRIPOS>SUBSTRUCTURE
  1 ****   1 GROUP 4 **** **** 0

# MOE 2024.06 (io_trps.svl 2023.06)
