@<TRIPOS>MOLECULE
NONAME
32 32 1 0 0 
SMALL
USER_CHARGES


@<TRIPOS>ATOM
  1 BR      -0.4170    -0.6630     1.0400 Br    1 <1>  -0.1110 
  2 C        1.3500    -1.2630     0.5770 C.ar  1 <1>   0.1110 
  3 C        2.3810    -0.3450     0.5470 C.ar  1 <1>  -0.1500 
  4 C        1.5470    -2.5980     0.2850 C.ar  1 <1>  -0.1500 
  5 C        3.6500    -0.7890     0.2120 C.ar  1 <1>  -0.1500 
  6 C        2.8240    -3.0200    -0.0470 C.ar  1 <1>  -0.1500 
  7 C        3.8940    -2.1270    -0.0890 C.ar  1 <1>  -0.0090 
  8 S        5.5660    -2.6840    -0.5220 S.o2  1 <1>   1.4470 
  9 O        6.0810    -1.8820    -1.6080 O.2   1 <1>  -0.6500 
 10 O        5.6120    -4.1260    -0.5870 O.2   1 <1>  -0.6500 
 11 N        6.4550    -2.3120     0.8540 N.am  1 <1>  -0.9140 
 12 C        7.8610    -2.0050     0.6310 C.3   1 <1>   0.1960 
 13 C        8.6490    -3.2690     0.2720 C.3   1 <1>  -0.1600 
 14 C       10.1510    -2.9690     0.1700 C.3   1 <1>  -0.1600 
 15 C       10.9410    -4.2320    -0.1950 C.3   1 <1>  -0.1600 
 16 C       12.4390    -3.9330    -0.2970 C.3   1 <1>  -0.2400 
 17 H        2.1940     0.6880     0.7790 H     1 <1>   0.1500 
 18 H        0.7220    -3.2870     0.3170 H     1 <1>   0.1500 
 19 H        4.4670    -0.0870     0.1830 H     1 <1>   0.1500 
 20 H        2.9920    -4.0600    -0.2790 H     1 <1>   0.1500 
 21 H        6.4140    -3.1670     1.4050 H     1 <1>   0.4200 
 22 H        8.2640    -1.5900     1.5400 H     1 <1>   0.0800 
 23 H        7.9660    -1.2600    -0.1410 H     1 <1>   0.0800 
 24 H        8.3110    -3.6520    -0.6760 H     1 <1>   0.0800 
 25 H        8.4900    -4.0200     1.0250 H     1 <1>   0.0800 
 26 H       10.5080    -2.5850     1.1100 H     1 <1>   0.0800 
 27 H       10.3150    -2.2180    -0.5840 H     1 <1>   0.0800 
 28 H       10.5920    -4.6170    -1.1380 H     1 <1>   0.0800 
 29 H       10.7810    -4.9890     0.5540 H     1 <1>   0.0800 
 30 H       12.6240    -3.1950    -1.0580 H     1 <1>   0.0800 
 31 H       12.9750    -4.8300    -0.5550 H     1 <1>   0.0800 
 32 H       12.8160    -3.5680     0.6420 H     1 <1>   0.0800 
@<TRIPOS>BOND
  1   1   2  1   
  2   2   3  ar  
  3   2   4  ar  
  4   3   5  ar  
  5   3  17  1   
  6   4   6  ar  
  7   4  18  1   
  8   5   7  ar  
  9   5  19  1   
 10   6   7  ar  
 11   6  20  1   
 12   7   8  1   
 13   8   9  2   
 14   8  10  2   
 15   8  11  am  
 16  11  12  1   
 17  11  21  1   
 18  12  13  1   
 19  12  22  1   
 20  12  23  1   
 21  13  14  1   
 22  13  24  1   
 23  13  25  1   
 24  14  15  1   
 25  14  26  1   
 26  14  27  1   
 27  15  16  1   
 28  15  28  1   
 29  15  29  1   
 30  16  30  1   
 31  16  31  1   
 32  16  32  1   
@<TRIPOS>SUBSTRUCTURE
  1 ****   8 GROUP 4 **** **** 0

# MOE 2024.06 (io_trps.svl 2023.06)
