@<TRIPOS>MOLECULE
NONAME
31 31 1 0 0 
SMALL
USER_CHARGES


@<TRIPOS>ATOM
  1 BR      -0.3260     0.2780     0.7370 Br    1 <1>  -0.1110 
  2 C        1.4110     1.0130     0.3450 C.ar  1 <1>   0.1110 
  3 C        1.5570     2.3840     0.2930 C.ar  1 <1>  -0.1500 
  4 C        2.4650     0.1500     0.1250 C.ar  1 <1>  -0.1500 
  5 C        2.8050     2.9160     0.0130 C.ar  1 <1>  -0.1440 
  6 C        3.7150     0.6750    -0.1600 C.ar  1 <1>  -0.1440 
  7 C        3.8920     2.0640    -0.2160 C.ar  1 <1>   0.1170 
  8 C        2.9660     4.4310    -0.0250 C.3   1 <1>  -0.0960 
  9 C        4.8680    -0.2920    -0.4050 C.3   1 <1>  -0.0960 
 10 N        5.1420     2.6210    -0.5250 N.am  1 <1>  -0.5470 
 11 C        6.2770     2.6150     0.2350 C.2   1 <1>   0.5690 
 12 O        6.3400     2.0790     1.3140 O.2   1 <1>  -0.5700 
 13 C        7.5100     3.3370    -0.3190 C.3   1 <1>  -0.0190 
 14 C        8.7270     2.4020    -0.3980 C.3   1 <1>  -0.2400 
 15 C        7.8530     4.5790     0.5200 C.3   1 <1>  -0.2400 
 16 H        0.7040     3.0130     0.4750 H     1 <1>   0.1500 
 17 H        2.3010    -0.9100     0.1810 H     1 <1>   0.1500 
 18 H        2.0540     4.9240     0.2580 H     1 <1>   0.0800 
 19 H        3.2320     4.7500    -1.0160 H     1 <1>   0.0800 
 20 H        3.7370     4.7330     0.6620 H     1 <1>   0.0800 
 21 H        4.5070    -1.2910    -0.5660 H     1 <1>   0.0800 
 22 H        5.5220    -0.3000     0.4490 H     1 <1>   0.0800 
 23 H        5.4300     0.0050    -1.2710 H     1 <1>   0.0800 
 24 H        5.1620     3.1890    -1.3670 H     1 <1>   0.3700 
 25 H        7.2890     3.6670    -1.3180 H     1 <1>   0.0800 
 26 H        8.9990     2.0600     0.5870 H     1 <1>   0.0800 
 27 H        9.5700     2.9110    -0.8310 H     1 <1>   0.0800 
 28 H        8.4960     1.5430    -1.0020 H     1 <1>   0.0800 
 29 H        8.0940     4.2890     1.5290 H     1 <1>   0.0800 
 30 H        7.0130     5.2500     0.5520 H     1 <1>   0.0800 
 31 H        8.6950     5.1000     0.1000 H     1 <1>   0.0800 
@<TRIPOS>BOND
  1   1   2  1   
  2   2   3  ar  
  3   2   4  ar  
  4   3   5  ar  
  5   3  16  1   
  6   4   6  ar  
  7   4  17  1   
  8   5   7  ar  
  9   5   8  1   
 10   6   7  ar  
 11   6   9  1   
 12   7  10  1   
 13   8  18  1   
 14   8  19  1   
 15   8  20  1   
 16   9  21  1   
 17   9  22  1   
 18   9  23  1   
 19  10  11  am  
 20  10  24  1   
 21  11  12  2   
 22  11  13  1   
 23  13  14  1   
 24  13  15  1   
 25  13  25  1   
 26  14  26  1   
 27  14  27  1   
 28  14  28  1   
 29  15  29  1   
 30  15  30  1   
 31  15  31  1   
@<TRIPOS>SUBSTRUCTURE
  1 ****   7 GROUP 4 **** **** 0

# MOE 2024.06 (io_trps.svl 2023.06)
