@<TRIPOS>MOLECULE
NONAME
41 43 1 0 0 
SMALL
USER_CHARGES


@<TRIPOS>ATOM
  1 CL       0.9190    -1.3130     1.5920 Cl    1 <1>  -0.1770 
  2 C        0.4800    -2.5960     0.4910 C.ar  1 <1>   0.1770 
  3 C        1.1970    -2.7770    -0.6940 C.ar  1 <1>   0.0860 
  4 C       -0.5810    -3.4090     0.8420 C.ar  1 <1>  -0.1500 
  5 C        2.2990    -1.9180    -1.0550 C.2   1 <1>   0.5440 
  6 C        0.8020    -3.8180    -1.5390 C.ar  1 <1>  -0.1500 
  7 C       -0.9290    -4.4280    -0.0210 C.ar  1 <1>   0.1900 
  8 O        2.1250    -1.0780    -1.9170 O.2   1 <1>  -0.5700 
  9 N        3.5480    -2.0450    -0.4830 N.am  1 <1>  -0.6600 
 10 C       -0.2560    -4.6480    -1.2090 C.ar  1 <1>  -0.1500 
 11 F       -1.9240    -5.2080     0.2940 F     1 <1>  -0.1900 
 12 C        3.8800    -3.0730     0.5560 C.3   1 <1>   0.1400 
 13 C        4.6600    -1.1160    -0.8700 C.3   1 <1>   0.1400 
 14 C        5.0430    -2.6310     1.4560 C.3   1 <1>   0.1400 
 15 C        6.0470    -1.7600    -0.7100 C.3   1 <1>   0.1400 
 16 N        6.2740    -2.3170     0.6630 N.am  1 <1>  -0.6600 
 17 C        7.5260    -2.6090     1.1590 C.2   1 <1>   0.5690 
 18 O        7.6460    -3.0910     2.2660 O.2   1 <1>  -0.5700 
 19 C        8.8050    -2.3070     0.3310 C.3   1 <1>   0.2610 
 20 O        8.7660    -2.9290    -0.9270 O.3   1 <1>  -0.5600 
 21 C       10.1170    -2.8280     0.9220 C.3   1 <1>  -0.1600 
 22 C        9.2530    -4.2300    -0.8290 C.3   1 <1>   0.1200 
 23 C       10.2240    -4.2330     0.3500 C.3   1 <1>  -0.1600 
 24 H       -1.1210    -3.2550     1.7590 H     1 <1>   0.1500 
 25 H        1.3340    -3.9660    -2.4640 H     1 <1>   0.1500 
 26 H       -0.5620    -5.4500    -1.8590 H     1 <1>   0.1500 
 27 H        4.1500    -3.9920     0.0660 H     1 <1>   0.0800 
 28 H        3.0240    -3.2640     1.1770 H     1 <1>   0.0800 
 29 H        4.6050    -0.2340    -0.2560 H     1 <1>   0.0800 
 30 H        4.5390    -0.8090    -1.8950 H     1 <1>   0.0800 
 31 H        5.2510    -3.4160     2.1630 H     1 <1>   0.0800 
 32 H        4.7510    -1.7580     2.0120 H     1 <1>   0.0800 
 33 H        6.7960    -1.0210    -0.9330 H     1 <1>   0.0800 
 34 H        6.1460    -2.5540    -1.4300 H     1 <1>   0.0800 
 35 H        8.8660    -1.2460     0.1770 H     1 <1>   0.0800 
 36 H       10.1320    -2.8110     1.9970 H     1 <1>   0.0800 
 37 H       10.9250    -2.2200     0.5560 H     1 <1>   0.0800 
 38 H        9.7360    -4.4870    -1.7560 H     1 <1>   0.0800 
 39 H        8.4210    -4.8890    -0.6490 H     1 <1>   0.0800 
 40 H        9.9100    -4.9660     1.0730 H     1 <1>   0.0800 
 41 H       11.2270    -4.4590     0.0330 H     1 <1>   0.0800 
@<TRIPOS>BOND
  1   1   2  1   
  2   2   3  ar  
  3   2   4  ar  
  4   3   5  1   
  5   3   6  ar  
  6   4   7  ar  
  7   4  24  1   
  8   5   8  2   
  9   5   9  am  
 10   6  10  ar  
 11   6  25  1   
 12   7  10  ar  
 13   7  11  1   
 14   9  12  1   
 15   9  13  1   
 16  10  26  1   
 17  12  14  1   
 18  12  27  1   
 19  12  28  1   
 20  13  15  1   
 21  13  29  1   
 22  13  30  1   
 23  14  16  1   
 24  14  31  1   
 25  14  32  1   
 26  15  16  1   
 27  15  33  1   
 28  15  34  1   
 29  16  17  am  
 30  17  18  2   
 31  17  19  1   
 32  19  20  1   
 33  19  21  1   
 34  19  35  1   
 35  20  22  1   
 36  21  23  1   
 37  21  36  1   
 38  21  37  1   
 39  22  23  1   
 40  22  38  1   
 41  22  39  1   
 42  23  40  1   
 43  23  41  1   
@<TRIPOS>SUBSTRUCTURE
  1 ****  12 GROUP 4 **** **** 0

# MOE 2024.06 (io_trps.svl 2023.06)
