@<TRIPOS>MOLECULE
NONAME
42 45 1 0 0 
SMALL
USER_CHARGES


@<TRIPOS>ATOM
  1 S       -1.0390    -0.3760     1.6980 S.3   1 <1>  -0.3610 
  2 C       -1.8250    -1.4340     0.5690 C.cat 1 <1>   0.8400 
  3 C        0.6510    -0.7120     1.0720 C.3   1 <1>   0.1310 
  4 N       -3.1210    -1.5070     0.6980 N.pl3 1 <1>  -0.7940 
  5 N       -0.9560    -2.0080    -0.2590 N.pl3 1 <1>  -0.7250 
  6 C        0.3810    -1.6860    -0.0570 C.2   1 <1>   0.8900 
  7 C       -4.1820    -2.2900     0.0360 C.3   1 <1>   0.4100 
  8 C       -1.2740    -2.9170    -1.3880 C.3   1 <1>   0.3300 
  9 O        1.2730    -2.1330    -0.7200 O.2   1 <1>  -0.5700 
 10 C       -4.9220    -1.4130    -0.9990 C.3   1 <1>  -0.0800 
 11 C       -5.1880    -2.7990     1.0920 C.3   1 <1>  -0.0800 
 12 C       -1.2500    -4.3630    -0.8990 C.3   1 <1>  -0.2400 
 13 C       -5.6450    -0.2340    -0.3060 C.3   1 <1>  -0.1600 
 14 C       -5.9790    -2.2840    -1.7110 C.3   1 <1>  -0.1600 
 15 C       -5.9160    -1.6220     1.7840 C.3   1 <1>  -0.1600 
 16 C       -6.2450    -3.6700     0.3770 C.3   1 <1>  -0.1600 
 17 C       -6.6510    -0.7680     0.7320 C.3   1 <1>  -0.0800 
 18 C       -6.9880    -2.8330    -0.6830 C.3   1 <1>  -0.0800 
 19 C       -7.6880    -1.6510     0.0120 C.3   1 <1>  -0.1600 
 20 H        1.0820     0.2060     0.7200 H     1 <1>   0.0800 
 21 H        1.2320    -1.1570     1.8590 H     1 <1>   0.0800 
 22 H       -3.5350    -0.9050     1.4140 H     1 <1>   0.4500 
 23 H       -3.7590    -3.1440    -0.4560 H     1 <1>   0.0800 
 24 H       -2.2330    -2.6730    -1.8080 H     1 <1>   0.0800 
 25 H       -0.5530    -2.7960    -2.1820 H     1 <1>   0.0800 
 26 H       -4.2260    -1.0390    -1.7290 H     1 <1>   0.0800 
 27 H       -4.6770    -3.4010     1.8230 H     1 <1>   0.0800 
 28 H       -1.5240    -5.0200    -1.7050 H     1 <1>   0.0800 
 29 H       -1.9370    -4.5150    -0.0870 H     1 <1>   0.0800 
 30 H       -0.2580    -4.6300    -0.5780 H     1 <1>   0.0800 
 31 H       -4.9380     0.4230     0.1710 H     1 <1>   0.0800 
 32 H       -6.1690     0.3510    -1.0430 H     1 <1>   0.0800 
 33 H       -6.5000    -1.6970    -2.4480 H     1 <1>   0.0800 
 34 H       -5.5060    -3.1010    -2.2280 H     1 <1>   0.0800 
 35 H       -6.6310    -2.0070     2.4910 H     1 <1>   0.0800 
 36 H       -5.2280    -1.0100     2.3390 H     1 <1>   0.0800 
 37 H       -5.7760    -4.5190    -0.0910 H     1 <1>   0.0800 
 38 H       -6.9510    -4.0510     1.0960 H     1 <1>   0.0800 
 39 H       -7.1530     0.0550     1.2140 H     1 <1>   0.0800 
 40 H       -7.7230    -3.4440    -1.1820 H     1 <1>   0.0800 
 41 H       -8.2240    -1.0650    -0.7150 H     1 <1>   0.0800 
 42 H       -8.4090    -2.0190     0.7210 H     1 <1>   0.0800 
@<TRIPOS>BOND
  1   1   2  1   
  2   1   3  1   
  3   2   4  ar  
  4   2   5  ar  
  5   3   6  1   
  6   3  20  1   
  7   3  21  1   
  8   4   7  1   
  9   4  22  1   
 10   5   6  1   
 11   5   8  1   
 12   6   9  2   
 13   7  10  1   
 14   7  11  1   
 15   7  23  1   
 16   8  12  1   
 17   8  24  1   
 18   8  25  1   
 19  10  13  1   
 20  10  14  1   
 21  10  26  1   
 22  11  15  1   
 23  11  16  1   
 24  11  27  1   
 25  12  28  1   
 26  12  29  1   
 27  12  30  1   
 28  13  17  1   
 29  13  31  1   
 30  13  32  1   
 31  14  18  1   
 32  14  33  1   
 33  14  34  1   
 34  15  17  1   
 35  15  35  1   
 36  15  36  1   
 37  16  18  1   
 38  16  37  1   
 39  16  38  1   
 40  17  19  1   
 41  17  39  1   
 42  18  19  1   
 43  18  40  1   
 44  19  41  1   
 45  19  42  1   
@<TRIPOS>SUBSTRUCTURE
  1 ****   7 GROUP 4 **** **** 0

# MOE 2024.06 (io_trps.svl 2023.06)
