@<TRIPOS>MOLECULE
NONAME
52 56 1 0 0 
SMALL
USER_CHARGES


@<TRIPOS>ATOM
  1 S        0.2090    -0.0030    -1.5640 S.o   1 <1>   0.3680 
  2 O        0.5230     1.2780    -2.2870 O.2   1 <1>  -0.5000 
  3 N        1.3640    -0.1940    -0.2930 N.am  1 <1>  -0.6020 
  4 C       -1.3980     0.1730    -0.6940 C.3   1 <1>   0.1930 
  5 C        2.1360     1.0330    -0.0220 C.3   1 <1>   0.1100 
  6 C        2.2880    -1.3060    -0.5550 C.3   1 <1>   0.1100 
  7 C       -1.3930     1.3620     0.2950 C.3   1 <1>  -0.1600 
  8 C       -2.5260     0.4100    -1.7250 C.3   1 <1>  -0.1600 
  9 C       -1.7320    -1.1130     0.0980 C.3   1 <1>  -0.1600 
 10 C        3.0910     0.8750     1.1750 C.3   1 <1>   0.2090 
 11 C        3.2330    -1.5690     0.6320 C.3   1 <1>   0.2090 
 12 C       -2.7550     1.5030     1.0010 C.3   1 <1>  -0.0800 
 13 C       -3.8960     0.5420    -1.0330 C.3   1 <1>  -0.0800 
 14 C       -3.0960    -0.9900     0.8050 C.3   1 <1>  -0.0800 
 15 N        3.9560    -0.3370     1.0600 N.pl3 1 <1>  -0.8380 
 16 C       -3.8510     1.7300    -0.0550 C.3   1 <1>  -0.1600 
 17 C       -3.0560     0.2060     1.7740 C.3   1 <1>  -0.1600 
 18 C       -4.1920    -0.7500    -0.2500 C.3   1 <1>  -0.1600 
 19 C        5.2660    -0.1730     0.6220 C.ar  1 <1>   0.1000 
 20 C        5.5620     0.2340    -0.6740 C.ar  1 <1>  -0.1500 
 21 C        6.3140    -0.4240     1.4970 C.ar  1 <1>  -0.1500 
 22 C        6.8740     0.3860    -1.0850 C.ar  1 <1>  -0.1500 
 23 C        7.6280    -0.2730     1.0920 C.ar  1 <1>  -0.1500 
 24 C        7.9100     0.1330    -0.2010 C.ar  1 <1>  -0.1500 
 25 H        1.4590     1.8430     0.1780 H     1 <1>   0.0800 
 26 H        2.7050     1.2990    -0.8950 H     1 <1>   0.0800 
 27 H        2.8730    -1.0900    -1.4320 H     1 <1>   0.0800 
 28 H        1.7200    -2.1980    -0.7460 H     1 <1>   0.0800 
 29 H       -1.1600     2.2680    -0.2360 H     1 <1>   0.0800 
 30 H       -0.6280     1.2110     1.0360 H     1 <1>   0.0800 
 31 H       -2.5520    -0.4060    -2.4250 H     1 <1>   0.0800 
 32 H       -2.3150     1.3060    -2.2830 H     1 <1>   0.0800 
 33 H       -0.9640    -1.2920     0.8300 H     1 <1>   0.0800 
 34 H       -1.7460    -1.9550    -0.5710 H     1 <1>   0.0800 
 35 H        2.5120     0.8020     2.0790 H     1 <1>   0.0800 
 36 H        3.7110     1.7510     1.2530 H     1 <1>   0.0800 
 37 H        3.9480    -2.3250     0.3590 H     1 <1>   0.0800 
 38 H        2.6610    -1.9410     1.4640 H     1 <1>   0.0800 
 39 H       -2.7280     2.3360     1.6830 H     1 <1>   0.0800 
 40 H       -4.6630     0.7060    -1.7710 H     1 <1>   0.0800 
 41 H       -3.3070    -1.8940     1.3500 H     1 <1>   0.0800 
 42 H       -3.6530     2.6400    -0.5960 H     1 <1>   0.0800 
 43 H       -4.8060     1.8400     0.4280 H     1 <1>   0.0800 
 44 H       -4.0020     0.2960     2.2800 H     1 <1>   0.0800 
 45 H       -2.3010     0.0440     2.5240 H     1 <1>   0.0800 
 46 H       -4.2370    -1.5860    -0.9270 H     1 <1>   0.0800 
 47 H       -5.1500    -0.6710     0.2330 H     1 <1>   0.0800 
 48 H        4.7610     0.4280    -1.3610 H     1 <1>   0.1500 
 49 H        6.0830    -0.7370     2.4980 H     1 <1>   0.1500 
 50 H        7.0900     0.7020    -2.0900 H     1 <1>   0.1500 
 51 H        8.4290    -0.4710     1.7820 H     1 <1>   0.1500 
 52 H        8.9310     0.2510    -0.5190 H     1 <1>   0.1500 
@<TRIPOS>BOND
  1   1   2  2   
  2   1   3  am  
  3   1   4  1   
  4   3   5  1   
  5   3   6  1   
  6   4   7  1   
  7   4   8  1   
  8   4   9  1   
  9   5  10  1   
 10   5  25  1   
 11   5  26  1   
 12   6  11  1   
 13   6  27  1   
 14   6  28  1   
 15   7  12  1   
 16   7  29  1   
 17   7  30  1   
 18   8  13  1   
 19   8  31  1   
 20   8  32  1   
 21   9  14  1   
 22   9  33  1   
 23   9  34  1   
 24  10  15  1   
 25  10  35  1   
 26  10  36  1   
 27  11  15  1   
 28  11  37  1   
 29  11  38  1   
 30  12  16  1   
 31  12  17  1   
 32  12  39  1   
 33  13  16  1   
 34  13  18  1   
 35  13  40  1   
 36  14  17  1   
 37  14  18  1   
 38  14  41  1   
 39  15  19  1   
 40  16  42  1   
 41  16  43  1   
 42  17  44  1   
 43  17  45  1   
 44  18  46  1   
 45  18  47  1   
 46  19  20  ar  
 47  19  21  ar  
 48  20  22  ar  
 49  20  48  1   
 50  21  23  ar  
 51  21  49  1   
 52  22  24  ar  
 53  22  50  1   
 54  23  24  ar  
 55  23  51  1   
 56  24  52  1   
@<TRIPOS>SUBSTRUCTURE
  1 ****   3 GROUP 4 **** **** 0

# MOE 2024.06 (io_trps.svl 2023.06)
