@<TRIPOS>MOLECULE
NONAME
32 33 1 0 0 
SMALL
USER_CHARGES


@<TRIPOS>ATOM
  1 CL      -0.0880     0.1190     0.7100 Cl    1 <1>  -0.1770 
  2 C        1.4130     0.8890     0.2440 C.ar  1 <1>   0.1770 
  3 C        1.4890     2.2710     0.1280 C.ar  1 <1>   0.0820 
  4 C        2.5070     0.0860     0.0000 C.ar  1 <1>  -0.1500 
  5 O        0.3710     3.0050     0.3850 O.3   1 <1>  -0.3630 
  6 C        2.7030     2.8380    -0.2450 C.ar  1 <1>  -0.1500 
  7 C        3.7170     0.6670    -0.3730 C.ar  1 <1>   0.0830 
  8 C        0.3800     4.4150     0.3200 C.3   1 <1>   0.0400 
  9 C        3.8230     2.0520    -0.4980 C.ar  1 <1>  -0.0090 
 10 O        4.8270    -0.0790    -0.6220 O.3   1 <1>  -0.3630 
 11 S        5.3870     2.8160    -0.9960 S.o2  1 <1>   1.4470 
 12 C        4.7570    -1.4810    -0.7790 C.3   1 <1>   0.0400 
 13 O        5.7970     2.3200    -2.2910 O.2   1 <1>  -0.6500 
 14 O        5.3060     4.2450    -0.7810 O.2   1 <1>  -0.6500 
 15 N        6.4960     2.1940     0.0990 N.am  1 <1>  -0.7890 
 16 C        7.8190     2.7410    -0.0590 C.3   1 <1>   0.1310 
 17 C        8.7870     2.5300     1.0530 C.3   1 <1>  -0.2000 
 18 C        8.2110     3.8930     0.7990 C.3   1 <1>  -0.2000 
 19 H        2.3890    -0.9740     0.1110 H     1 <1>   0.1500 
 20 H        2.8020     3.9040    -0.3470 H     1 <1>   0.1500 
 21 H       -0.6040     4.7660     0.5740 H     1 <1>   0.0800 
 22 H        0.6260     4.7180    -0.6830 H     1 <1>   0.0800 
 23 H        1.0960     4.7950     1.0260 H     1 <1>   0.0800 
 24 H        5.7270    -1.8350    -1.0780 H     1 <1>   0.0800 
 25 H        4.0350    -1.7140    -1.5430 H     1 <1>   0.0800 
 26 H        4.4820    -1.9270     0.1610 H     1 <1>   0.0800 
 27 H        6.5450     1.2090    -0.1600 H     1 <1>   0.4200 
 28 H        8.1850     2.7050    -1.0740 H     1 <1>   0.1000 
 29 H        9.8250     2.3690     0.8200 H     1 <1>   0.1000 
 30 H        8.4660     1.9940     1.9290 H     1 <1>   0.1000 
 31 H        7.4720     4.2930     1.4720 H     1 <1>   0.1000 
 32 H        8.8450     4.6530     0.3780 H     1 <1>   0.1000 
@<TRIPOS>BOND
  1   1   2  1   
  2   2   3  ar  
  3   2   4  ar  
  4   3   5  1   
  5   3   6  ar  
  6   4   7  ar  
  7   4  19  1   
  8   5   8  1   
  9   6   9  ar  
 10   6  20  1   
 11   7   9  ar  
 12   7  10  1   
 13   8  21  1   
 14   8  22  1   
 15   8  23  1   
 16   9  11  1   
 17  10  12  1   
 18  11  13  2   
 19  11  14  2   
 20  11  15  am  
 21  12  24  1   
 22  12  25  1   
 23  12  26  1   
 24  15  16  1   
 25  15  27  1   
 26  16  17  1   
 27  16  18  1   
 28  16  28  1   
 29  17  18  1   
 30  17  29  1   
 31  17  30  1   
 32  18  31  1   
 33  18  32  1   
@<TRIPOS>SUBSTRUCTURE
  1 ****   9 GROUP 4 **** **** 0

# MOE 2024.06 (io_trps.svl 2023.06)
