@<TRIPOS>MOLECULE
NONAME
46 48 1 0 0 
SMALL
USER_CHARGES


@<TRIPOS>ATOM
  1 F       -2.2480     1.3050    -0.3680 F     1 <1>  -0.1900 
  2 C       -3.5350     1.4110    -0.1960 C.ar  1 <1>   0.1900 
  3 C       -4.1880     0.4780     0.5840 C.ar  1 <1>  -0.1500 
  4 C       -4.2090     2.4530    -0.8010 C.ar  1 <1>  -0.1500 
  5 C       -5.5550     0.6020     0.7580 C.ar  1 <1>  -0.1500 
  6 C       -5.5760     2.5610    -0.6160 C.ar  1 <1>  -0.1500 
  7 C       -6.2880     1.6410     0.1700 C.ar  1 <1>   0.0860 
  8 C       -7.7210     1.7250     0.3870 C.2   1 <1>   0.4230 
  9 O       -8.3340     0.8950     1.0090 O.2   1 <1>  -0.5700 
 10 C       -8.5230     2.9000    -0.1790 C.3   1 <1>  -0.0990 
 11 C      -10.0120     2.8730     0.2320 C.3   1 <1>  -0.1600 
 12 C      -10.7970     4.0500    -0.3460 C.3   1 <1>   0.3430 
 13 N      -12.1910     4.0430     0.1810 N.4   1 <1>  -0.9590 
 14 C      -13.0060     2.9490    -0.4520 C.3   1 <1>   0.3430 
 15 C      -12.7970     5.4050     0.0130 C.3   1 <1>   0.3430 
 16 C      -14.3170     2.6790     0.2870 C.3   1 <1>  -0.0170 
 17 C      -14.0690     5.5990     0.8410 C.3   1 <1>  -0.0170 
 18 C      -15.3980     3.6640    -0.1310 C.ar  1 <1>  -0.1430 
 19 C      -15.2820     5.0250     0.1270 C.ar  1 <1>  -0.1430 
 20 C      -16.5210     3.1870    -0.7910 C.ar  1 <1>  -0.1500 
 21 C      -16.2920     5.8860    -0.2790 C.ar  1 <1>  -0.1500 
 22 C      -17.5220     4.0510    -1.1940 C.ar  1 <1>  -0.1500 
 23 C      -17.4070     5.4030    -0.9380 C.ar  1 <1>  -0.1500 
 24 H       -3.6350    -0.3230     1.0410 H     1 <1>   0.1500 
 25 H       -3.6660     3.1600    -1.4030 H     1 <1>   0.1500 
 26 H       -6.0690    -0.1240     1.3660 H     1 <1>   0.1500 
 27 H       -6.0810     3.3780    -1.0970 H     1 <1>   0.1500 
 28 H       -8.4500     2.8700    -1.2520 H     1 <1>   0.0800 
 29 H       -8.0760     3.8140     0.1710 H     1 <1>   0.0800 
 30 H      -10.0660     2.8980     1.3070 H     1 <1>   0.0800 
 31 H      -10.4330     1.9440    -0.1090 H     1 <1>   0.0800 
 32 H      -10.8060     4.0010    -1.4240 H     1 <1>   0.0800 
 33 H      -10.3070     4.9660    -0.0550 H     1 <1>   0.0800 
 34 H      -12.1370     3.8460     1.1900 H     1 <1>   0.4500 
 35 H      -12.4370     2.0340    -0.4460 H     1 <1>   0.0800 
 36 H      -13.2220     3.1930    -1.4800 H     1 <1>   0.0800 
 37 H      -13.0200     5.5880    -1.0260 H     1 <1>   0.0800 
 38 H      -12.0810     6.1450     0.3320 H     1 <1>   0.0800 
 39 H      -14.1730     2.6990     1.3520 H     1 <1>   0.0800 
 40 H      -14.6370     1.6840     0.0340 H     1 <1>   0.0800 
 41 H      -14.2140     6.6560     0.9770 H     1 <1>   0.0800 
 42 H      -13.9640     5.1690     1.8210 H     1 <1>   0.0800 
 43 H      -16.6360     2.1370    -0.9990 H     1 <1>   0.1500 
 44 H      -16.2280     6.9430    -0.0870 H     1 <1>   0.1500 
 45 H      -18.3910     3.6720    -1.7050 H     1 <1>   0.1500 
 46 H      -18.1860     6.0770    -1.2480 H     1 <1>   0.1500 
@<TRIPOS>BOND
  1   1   2  1   
  2   2   3  ar  
  3   2   4  ar  
  4   3   5  ar  
  5   3  24  1   
  6   4   6  ar  
  7   4  25  1   
  8   5   7  ar  
  9   5  26  1   
 10   6   7  ar  
 11   6  27  1   
 12   7   8  1   
 13   8   9  2   
 14   8  10  1   
 15  10  11  1   
 16  10  28  1   
 17  10  29  1   
 18  11  12  1   
 19  11  30  1   
 20  11  31  1   
 21  12  13  1   
 22  12  32  1   
 23  12  33  1   
 24  13  14  1   
 25  13  15  1   
 26  13  34  1   
 27  14  16  1   
 28  14  35  1   
 29  14  36  1   
 30  15  17  1   
 31  15  37  1   
 32  15  38  1   
 33  16  18  1   
 34  16  39  1   
 35  16  40  1   
 36  17  19  1   
 37  17  41  1   
 38  17  42  1   
 39  18  19  ar  
 40  18  20  ar  
 41  19  21  ar  
 42  20  22  ar  
 43  20  43  1   
 44  21  23  ar  
 45  21  44  1   
 46  22  23  ar  
 47  22  45  1   
 48  23  46  1   
@<TRIPOS>SUBSTRUCTURE
  1 ****  11 GROUP 4 **** **** 0

# MOE 2024.06 (io_trps.svl 2023.06)
