@<TRIPOS>MOLECULE
NONAME
42 43 1 0 0 
SMALL
USER_CHARGES


@<TRIPOS>ATOM
  1 S       -5.6190     6.7750    -0.0530 S.3   1 <1>  -0.4600 
  2 C       -7.0070     6.7910     1.1490 C.3   1 <1>   0.2110 
  3 C       -4.9740     5.0800     0.0060 C.3   1 <1>   0.0700 
  4 C       -8.0140     5.6880     0.8630 C.2   1 <1>   0.5690 
  5 C       -7.8050     8.0830     0.9620 C.3   1 <1>  -0.0990 
  6 C       -3.6650     5.0550    -0.7870 C.3   1 <1>   0.3430 
  7 O       -7.7410     4.5180     0.9920 O.2   1 <1>  -0.5700 
  8 N       -9.2170     6.2130     0.4730 N.am  1 <1>  -0.2370 
  9 C       -9.1550     7.5830     0.5050 C.2   1 <1>   0.5690 
 10 N       -3.1050     3.6750    -0.8570 N.4   1 <1>  -0.8530 
 11 C      -10.3490     5.4570     0.0850 C.ar  1 <1>   0.1170 
 12 O      -10.0400     8.3460     0.2230 O.2   1 <1>  -0.5700 
 13 C      -10.7940     4.3880     0.8570 C.ar  1 <1>  -0.1500 
 14 C      -11.0430     5.7630    -1.0810 C.ar  1 <1>  -0.1500 
 15 C      -11.8960     3.6420     0.4780 C.ar  1 <1>  -0.1500 
 16 C      -12.1450     5.0210    -1.4650 C.ar  1 <1>  -0.1500 
 17 C      -12.5800     3.9570    -0.6930 C.ar  1 <1>   0.0830 
 18 O      -13.6690     3.2810    -1.1420 O.3   1 <1>  -0.3630 
 19 C      -14.1870     2.1810    -0.4300 C.3   1 <1>   0.1200 
 20 C      -15.3980     1.6450    -1.1950 C.3   1 <1>  -0.1600 
 21 C      -16.0220     0.4400    -0.4810 C.3   1 <1>  -0.2400 
 22 H       -6.5950     6.7010     2.1380 H     1 <1>   0.0800 
 23 H       -5.7160     4.4440    -0.4450 H     1 <1>   0.0800 
 24 H       -4.8290     4.8280     1.0420 H     1 <1>   0.0800 
 25 H       -7.3800     8.7340     0.2200 H     1 <1>   0.0800 
 26 H       -7.9160     8.6090     1.8920 H     1 <1>   0.0800 
 27 H       -2.9570     5.7180    -0.3160 H     1 <1>   0.0800 
 28 H       -3.8560     5.4210    -1.7840 H     1 <1>   0.0800 
 29 H       -2.9040     3.3060     0.0800 H     1 <1>   0.4500 
 30 H       -2.2290     3.6630    -1.3940 H     1 <1>   0.4500 
 31 H       -3.7630     3.0330    -1.3170 H     1 <1>   0.4500 
 32 H      -10.2750     4.1310     1.7630 H     1 <1>   0.1500 
 33 H      -10.7270     6.5900    -1.6930 H     1 <1>   0.1500 
 34 H      -12.2050     2.8250     1.1010 H     1 <1>   0.1500 
 35 H      -12.6790     5.2640    -2.3660 H     1 <1>   0.1500 
 36 H      -14.4750     2.5160     0.5510 H     1 <1>   0.0800 
 37 H      -13.4200     1.4290    -0.3600 H     1 <1>   0.0800 
 38 H      -15.0890     1.3510    -2.1830 H     1 <1>   0.0800 
 39 H      -16.1340     2.4260    -1.2820 H     1 <1>   0.0800 
 40 H      -15.3070    -0.3600    -0.3970 H     1 <1>   0.0800 
 41 H      -16.8700     0.0820    -1.0390 H     1 <1>   0.0800 
 42 H      -16.3540     0.7160     0.5050 H     1 <1>   0.0800 
@<TRIPOS>BOND
  1   1   2  1   
  2   1   3  1   
  3   2   4  1   
  4   2   5  1   
  5   2  22  1   
  6   3   6  1   
  7   3  23  1   
  8   3  24  1   
  9   4   7  2   
 10   4   8  am  
 11   5   9  1   
 12   5  25  1   
 13   5  26  1   
 14   6  10  1   
 15   6  27  1   
 16   6  28  1   
 17   8   9  am  
 18   8  11  1   
 19   9  12  2   
 20  10  29  1   
 21  10  30  1   
 22  10  31  1   
 23  11  13  ar  
 24  11  14  ar  
 25  13  15  ar  
 26  13  32  1   
 27  14  16  ar  
 28  14  33  1   
 29  15  17  ar  
 30  15  34  1   
 31  16  17  ar  
 32  16  35  1   
 33  17  18  1   
 34  18  19  1   
 35  19  20  1   
 36  19  36  1   
 37  19  37  1   
 38  20  21  1   
 39  20  38  1   
 40  20  39  1   
 41  21  40  1   
 42  21  41  1   
 43  21  42  1   
@<TRIPOS>SUBSTRUCTURE
  1 ****  11 GROUP 4 **** **** 0

# MOE 2024.06 (io_trps.svl 2023.06)
