@<TRIPOS>MOLECULE
NONAME
43 44 1 0 0 
SMALL
USER_CHARGES


@<TRIPOS>ATOM
  1 F       -0.4020     3.1090     0.1790 F     1 <1>  -0.3400 
  2 C       -0.6110     2.1120    -0.6830 C.3   1 <1>   0.6800 
  3 F        0.0430     1.0780    -0.1540 F     1 <1>  -0.3400 
  4 C       -0.0090     2.4370    -2.0730 C.3   1 <1>   0.6000 
  5 C       -2.1180     1.7950    -0.7290 C.3   1 <1>   0.1200 
  6 F        1.2290     2.9240    -2.0040 F     1 <1>  -0.3400 
  7 F       -0.7120     3.3850    -2.6920 F     1 <1>  -0.3400 
  8 O       -2.6220     1.3800     0.5300 O.3   1 <1>  -0.3630 
  9 C       -3.9300     1.0480     0.6870 C.ar  1 <1>   0.0830 
 10 C       -4.8820     1.1310    -0.3270 C.ar  1 <1>  -0.1500 
 11 C       -4.3100     0.6050     1.9430 C.ar  1 <1>  -0.1500 
 12 C       -6.1920     0.7680    -0.0720 C.ar  1 <1>  -0.1500 
 13 C       -5.6220     0.2420     2.1910 C.ar  1 <1>  -0.1500 
 14 C       -6.5740     0.3160     1.1850 C.ar  1 <1>   0.1000 
 15 N       -7.8990    -0.0460     1.4480 N.pl3 1 <1>  -0.6000 
 16 C       -8.6620    -1.0260     0.8500 C.2   1 <1>  -0.0380 
 17 C       -9.9800    -1.1940     1.1170 C.2   1 <1>  -0.1360 
 18 C       -7.9730    -1.9520    -0.1540 C.3   1 <1>  -0.0220 
 19 C      -10.8140    -2.1710     0.5190 C.2   1 <1>   0.4950 
 20 C       -8.6980    -3.3090    -0.3240 C.3   1 <1>   0.0000 
 21 O      -11.9830    -2.3010     0.7930 O.2   1 <1>  -0.5700 
 22 C      -10.2120    -3.0830    -0.5340 C.3   1 <1>  -0.0990 
 23 C       -8.1210    -4.0520    -1.5400 C.3   1 <1>  -0.2400 
 24 C       -8.4690    -4.1850     0.9230 C.3   1 <1>  -0.2400 
 25 H        0.0090     1.5790    -2.7190 H     1 <1>   0.0800 
 26 H       -2.2970     1.0050    -1.4360 H     1 <1>   0.0800 
 27 H       -2.6570     2.6730    -1.0360 H     1 <1>   0.0800 
 28 H       -4.6310     1.4760    -1.3110 H     1 <1>   0.1500 
 29 H       -3.5720     0.5450     2.7230 H     1 <1>   0.1500 
 30 H       -6.9340     0.8370    -0.8460 H     1 <1>   0.1500 
 31 H       -5.9090    -0.1050     3.1670 H     1 <1>   0.1500 
 32 H       -8.3310     0.4800     2.2160 H     1 <1>   0.4000 
 33 H      -10.4780    -0.5610     1.8250 H     1 <1>   0.1500 
 34 H       -6.9610    -2.1400     0.1600 H     1 <1>   0.0800 
 35 H       -7.9290    -1.4430    -1.1000 H     1 <1>   0.0800 
 36 H      -10.3850    -2.6270    -1.4920 H     1 <1>   0.0800 
 37 H      -10.7320    -4.0230    -0.5210 H     1 <1>   0.0800 
 38 H       -8.2620    -3.4790    -2.4390 H     1 <1>   0.0800 
 39 H       -8.6060    -5.0040    -1.6670 H     1 <1>   0.0800 
 40 H       -7.0670    -4.2240    -1.4110 H     1 <1>   0.0800 
 41 H       -8.9700    -5.1320     0.8200 H     1 <1>   0.0800 
 42 H       -7.4190    -4.3750     1.0630 H     1 <1>   0.0800 
 43 H       -8.8390    -3.7060     1.8120 H     1 <1>   0.0800 
@<TRIPOS>BOND
  1   1   2  1   
  2   2   3  1   
  3   2   4  1   
  4   2   5  1   
  5   4   6  1   
  6   4   7  1   
  7   4  25  1   
  8   5   8  1   
  9   5  26  1   
 10   5  27  1   
 11   8   9  1   
 12   9  10  ar  
 13   9  11  ar  
 14  10  12  ar  
 15  10  28  1   
 16  11  13  ar  
 17  11  29  1   
 18  12  14  ar  
 19  12  30  1   
 20  13  14  ar  
 21  13  31  1   
 22  14  15  1   
 23  15  16  1   
 24  15  32  1   
 25  16  17  2   
 26  16  18  1   
 27  17  19  1   
 28  17  33  1   
 29  18  20  1   
 30  18  34  1   
 31  18  35  1   
 32  19  21  2   
 33  19  22  1   
 34  20  22  1   
 35  20  23  1   
 36  20  24  1   
 37  22  36  1   
 38  22  37  1   
 39  23  38  1   
 40  23  39  1   
 41  23  40  1   
 42  24  41  1   
 43  24  42  1   
 44  24  43  1   
@<TRIPOS>SUBSTRUCTURE
  1 ****  12 GROUP 4 **** **** 0

# MOE 2024.06 (io_trps.svl 2023.06)
