@<TRIPOS>MOLECULE
NONAME
33 35 1 0 0 
SMALL
USER_CHARGES


@<TRIPOS>ATOM
  1 I       -0.2940    -0.3390     0.2720 I     1 <1>  -0.0810 
  2 C        1.7660     0.2330     0.2480 C.ar  1 <1>   0.0810 
  3 C        2.7710    -0.7160     0.0490 C.ar  1 <1>   0.1170 
  4 C        2.0270     1.5800     0.4190 C.ar  1 <1>  -0.1500 
  5 N        2.5250    -2.0930    -0.0970 N.am  1 <1>  -0.5470 
  6 C        4.0780    -0.2410     0.0150 C.ar  1 <1>  -0.1500 
  7 C        3.3400     2.0180     0.3850 C.ar  1 <1>  -0.1500 
  8 C        3.0520    -2.9490    -1.0240 C.2   1 <1>   0.5690 
  9 C        4.3620     1.1060     0.1810 C.ar  1 <1>  -0.1500 
 10 O        3.7090    -2.5350    -1.9530 O.2   1 <1>  -0.5700 
 11 C        2.9240    -4.4720    -0.9320 C.3   1 <1>  -0.0190 
 12 C        1.8100    -5.1650    -0.1110 C.3   1 <1>  -0.1860 
 13 C        4.1630    -4.9930    -0.1970 C.3   1 <1>   0.2000 
 14 C        0.6470    -4.3350     0.3630 C.2   1 <1>   0.9060 
 15 C        2.6200    -5.7830     1.0360 C.3   1 <1>   0.2000 
 16 O        3.7280    -4.9590     1.1060 O.3   1 <1>  -0.5600 
 17 C        4.3590    -6.5040    -0.3910 C.3   1 <1>  -0.1600 
 18 O        0.7690    -3.6210     1.3620 O.co2 1 <1>  -0.9000 
 19 O       -0.3980    -4.3870    -0.2860 O.co2 1 <1>  -0.9000 
 20 C        3.2900    -7.0720     0.5510 C.3   1 <1>  -0.1600 
 21 H        1.2210     2.2750     0.5720 H     1 <1>   0.1500 
 22 H        1.8530    -2.5140     0.5800 H     1 <1>   0.3700 
 23 H        4.8780    -0.9410    -0.1440 H     1 <1>   0.1500 
 24 H        3.5650     3.0620     0.5150 H     1 <1>   0.1500 
 25 H        5.3840     1.4410     0.1490 H     1 <1>   0.1500 
 26 H        2.9120    -4.8460    -1.9390 H     1 <1>   0.0800 
 27 H        1.3740    -5.9520    -0.6970 H     1 <1>   0.0800 
 28 H        5.0530    -4.4010    -0.3290 H     1 <1>   0.0800 
 29 H        2.1100    -5.8450     1.9830 H     1 <1>   0.0800 
 30 H        5.3450    -6.7920    -0.0730 H     1 <1>   0.0800 
 31 H        4.2090    -6.7960    -1.4150 H     1 <1>   0.0800 
 32 H        2.5980    -7.7320     0.0590 H     1 <1>   0.0800 
 33 H        3.7400    -7.5780     1.3860 H     1 <1>   0.0800 
@<TRIPOS>BOND
  1   1   2  1   
  2   2   3  ar  
  3   2   4  ar  
  4   3   5  1   
  5   3   6  ar  
  6   4   7  ar  
  7   4  21  1   
  8   5   8  am  
  9   5  22  1   
 10   6   9  ar  
 11   6  23  1   
 12   7   9  ar  
 13   7  24  1   
 14   8  10  2   
 15   8  11  1   
 16   9  25  1   
 17  11  12  1   
 18  11  13  1   
 19  11  26  1   
 20  12  14  1   
 21  12  15  1   
 22  12  27  1   
 23  13  16  1   
 24  13  17  1   
 25  13  28  1   
 26  14  18  ar  
 27  14  19  ar  
 28  15  16  1   
 29  15  20  1   
 30  15  29  1   
 31  17  20  1   
 32  17  30  1   
 33  17  31  1   
 34  20  32  1   
 35  20  33  1   
@<TRIPOS>SUBSTRUCTURE
  1 ****   5 GROUP 4 **** **** 0

# MOE 2024.06 (io_trps.svl 2023.06)
