@<TRIPOS>MOLECULE
NONAME
38 41 1 0 0 
SMALL
USER_CHARGES


@<TRIPOS>ATOM
  1 O        0.1550     0.3600    -0.7300 O.2   1 <1>  -0.5700 
  2 C        0.3800     1.4600    -0.2970 C.2   1 <1>   0.5690 
  3 N        1.6070     2.0780    -0.1080 N.am  1 <1>  -0.2370 
  4 C       -0.6630     2.4130     0.1900 C.3   1 <1>  -0.0190 
  5 C        2.8730     1.4490    -0.1290 C.ar  1 <1>   0.1170 
  6 C        1.3830     3.4250     0.1420 C.2   1 <1>   0.5690 
  7 C       -2.1430     2.7680     0.1120 C.3   1 <1>   0.4180 
  8 C       -0.0300     3.7250    -0.2590 C.3   1 <1>  -0.0190 
  9 C        3.9830     2.1130    -0.6370 C.ar  1 <1>  -0.1500 
 10 C        3.0450     0.1610     0.3670 C.ar  1 <1>  -0.1500 
 11 O        2.1630     4.2420     0.5590 O.2   1 <1>  -0.5700 
 12 O       -2.0180     3.9330     0.8670 O.3   1 <1>  -0.5600 
 13 C       -2.5930     3.4220    -1.1810 C.2   1 <1>  -0.2880 
 14 C       -3.1420     1.8270     0.7690 C.3   1 <1>  -0.2400 
 15 C       -1.1840     4.7010     0.0520 C.3   1 <1>   0.3380 
 16 C        5.2580     1.5490    -0.6300 C.ar  1 <1>   0.0860 
 17 C        4.2920    -0.4350     0.3610 C.ar  1 <1>  -0.1500 
 18 C       -2.0520     4.6390    -1.1880 C.2   1 <1>  -0.2880 
 19 C        6.4150     2.2690    -1.1260 C.2   1 <1>   0.6340 
 20 C        5.3840     0.2530    -0.1330 C.ar  1 <1>  -0.1500 
 21 O        7.2220     1.7580    -1.8670 O.2   1 <1>  -0.5700 
 22 O        6.6460     3.5330    -0.7560 O.3   1 <1>  -0.4300 
 23 C        6.1740     4.1010     0.4510 C.3   1 <1>   0.0400 
 24 H       -0.5260     2.3020     1.2570 H     1 <1>   0.0800 
 25 H        0.0670     3.7420    -1.3340 H     1 <1>   0.0800 
 26 H        3.8650     3.0980    -1.0520 H     1 <1>   0.1500 
 27 H        2.2030    -0.3850     0.7570 H     1 <1>   0.1500 
 28 H       -3.2390     2.9070    -1.8700 H     1 <1>   0.1500 
 29 H       -2.8330     1.5890     1.7710 H     1 <1>   0.0800 
 30 H       -3.2080     0.9180     0.2010 H     1 <1>   0.0800 
 31 H       -4.1120     2.2880     0.7960 H     1 <1>   0.0800 
 32 H       -0.9700     5.6670     0.4770 H     1 <1>   0.0800 
 33 H        4.4110    -1.4370     0.7390 H     1 <1>   0.1500 
 34 H       -2.1080     5.4600    -1.8820 H     1 <1>   0.1500 
 35 H        6.3550    -0.2160    -0.1390 H     1 <1>   0.1500 
 36 H        6.7540     4.9840     0.6520 H     1 <1>   0.0800 
 37 H        6.3010     3.3940     1.2520 H     1 <1>   0.0800 
 38 H        5.1390     4.3710     0.3410 H     1 <1>   0.0800 
@<TRIPOS>BOND
  1   1   2  2   
  2   2   3  am  
  3   2   4  1   
  4   3   5  1   
  5   3   6  am  
  6   4   7  1   
  7   4   8  1   
  8   4  24  1   
  9   5   9  ar  
 10   5  10  ar  
 11   6   8  1   
 12   6  11  2   
 13   7  12  1   
 14   7  13  1   
 15   7  14  1   
 16   8  15  1   
 17   8  25  1   
 18   9  16  ar  
 19   9  26  1   
 20  10  17  ar  
 21  10  27  1   
 22  12  15  1   
 23  13  18  2   
 24  13  28  1   
 25  14  29  1   
 26  14  30  1   
 27  14  31  1   
 28  15  18  1   
 29  15  32  1   
 30  16  19  1   
 31  16  20  ar  
 32  17  20  ar  
 33  17  33  1   
 34  18  34  1   
 35  19  21  2   
 36  19  22  1   
 37  20  35  1   
 38  22  23  1   
 39  23  36  1   
 40  23  37  1   
 41  23  38  1   
@<TRIPOS>SUBSTRUCTURE
  1 ****   3 GROUP 4 **** **** 0

# MOE 2024.06 (io_trps.svl 2023.06)
