@<TRIPOS>MOLECULE
NONAME
38 39 1 0 0 
SMALL
USER_CHARGES


@<TRIPOS>ATOM
  1 O        0.1920    -0.7570     0.8540 O.3   1 <1>  -0.3630 
  2 C       -0.9890    -1.1180     0.3050 C.ar  1 <1>   0.0820 
  3 C        1.2940    -0.7990    -0.0140 C.3   1 <1>   0.1200 
  4 C       -1.3930    -2.4500     0.3590 C.ar  1 <1>  -0.1440 
  5 C       -1.7890    -0.1530    -0.3050 C.ar  1 <1>  -0.1440 
  6 C        2.5300    -0.3950     0.7930 C.3   1 <1>   0.3430 
  7 C       -2.5850    -2.8170    -0.2430 C.ar  1 <1>  -0.1500 
  8 C       -0.5670    -3.5130     1.0700 C.3   1 <1>  -0.0970 
  9 C       -2.9770    -0.5440    -0.9000 C.ar  1 <1>  -0.1500 
 10 C       -1.4020     1.3190    -0.3280 C.3   1 <1>  -0.0960 
 11 N        3.7770    -0.3720    -0.0390 N.4   1 <1>  -0.9590 
 12 C       -3.3710    -1.8700    -0.8740 C.ar  1 <1>  -0.1500 
 13 C        4.1930    -1.7020    -0.5550 C.3   1 <1>   0.3430 
 14 C        4.9450     0.1480     0.7140 C.3   1 <1>   0.3430 
 15 C        5.6660    -1.5310    -0.9000 C.3   1 <1>  -0.1600 
 16 C        6.1520    -0.3310    -0.0820 C.3   1 <1>  -0.1600 
 17 H        1.1120    -0.1100    -0.8190 H     1 <1>   0.0800 
 18 H        1.3800    -1.8020    -0.3930 H     1 <1>   0.0800 
 19 H        2.6520    -1.0870     1.6090 H     1 <1>   0.0800 
 20 H        2.3570     0.5860     1.2030 H     1 <1>   0.0800 
 21 H       -2.9140    -3.8410    -0.2220 H     1 <1>   0.1500 
 22 H        0.2320    -3.8460     0.4340 H     1 <1>   0.0800 
 23 H       -1.1790    -4.3590     1.3250 H     1 <1>   0.0800 
 24 H       -0.1550    -3.1170     1.9810 H     1 <1>   0.0800 
 25 H       -3.6070     0.1810    -1.3850 H     1 <1>   0.1500 
 26 H       -0.9440     1.6000     0.6040 H     1 <1>   0.0800 
 27 H       -2.2710     1.9350    -0.4680 H     1 <1>   0.0800 
 28 H       -0.7150     1.5070    -1.1320 H     1 <1>   0.0800 
 29 H        3.6410     0.2490    -0.8490 H     1 <1>   0.4500 
 30 H       -4.2960    -2.1640    -1.3400 H     1 <1>   0.1500 
 31 H        3.6140    -2.0000    -1.4150 H     1 <1>   0.0800 
 32 H        4.0900    -2.4430     0.2220 H     1 <1>   0.0800 
 33 H        4.9690    -0.2900     1.6990 H     1 <1>   0.0800 
 34 H        4.9230     1.2230     0.7990 H     1 <1>   0.0800 
 35 H        5.7740    -1.3370    -1.9530 H     1 <1>   0.0800 
 36 H        6.2130    -2.4260    -0.6600 H     1 <1>   0.0800 
 37 H        6.9570    -0.5980     0.5810 H     1 <1>   0.0800 
 38 H        6.4940     0.4550    -0.7340 H     1 <1>   0.0800 
@<TRIPOS>BOND
  1   1   2  1   
  2   1   3  1   
  3   2   4  ar  
  4   2   5  ar  
  5   3   6  1   
  6   3  17  1   
  7   3  18  1   
  8   4   7  ar  
  9   4   8  1   
 10   5   9  ar  
 11   5  10  1   
 12   6  11  1   
 13   6  19  1   
 14   6  20  1   
 15   7  12  ar  
 16   7  21  1   
 17   8  22  1   
 18   8  23  1   
 19   8  24  1   
 20   9  12  ar  
 21   9  25  1   
 22  10  26  1   
 23  10  27  1   
 24  10  28  1   
 25  11  13  1   
 26  11  14  1   
 27  11  29  1   
 28  12  30  1   
 29  13  15  1   
 30  13  31  1   
 31  13  32  1   
 32  14  16  1   
 33  14  33  1   
 34  14  34  1   
 35  15  16  1   
 36  15  35  1   
 37  15  36  1   
 38  16  37  1   
 39  16  38  1   
@<TRIPOS>SUBSTRUCTURE
  1 ****   3 GROUP 4 **** **** 0

# MOE 2024.06 (io_trps.svl 2023.06)
