@<TRIPOS>MOLECULE
NONAME
41 42 1 0 0 
SMALL
USER_CHARGES


@<TRIPOS>ATOM
  1 S        0.3080    -1.3870    -1.4250 S.3   1 <1>  -0.4600 
  2 C        1.8460    -0.4780    -1.7260 C.3   1 <1>   0.0700 
  3 C        0.8840    -2.8610    -0.5450 C.3   1 <1>   0.0700 
  4 C        2.5960    -0.3100    -0.3980 C.3   1 <1>   0.3430 
  5 C        1.7380    -2.4240     0.6540 C.3   1 <1>   0.3430 
  6 N        2.9460    -1.6300     0.2430 N.4   1 <1>  -0.9590 
  7 C        3.8640    -1.4300     1.3980 C.3   1 <1>   0.4860 
  8 C        5.1810    -0.8990     0.8720 C.ar  1 <1>  -0.1430 
  9 C        6.0490    -1.7320     0.1840 C.ar  1 <1>  -0.1500 
 10 C        5.5290     0.4290     1.0610 C.ar  1 <1>  -0.1500 
 11 C        7.2480    -1.2550    -0.3180 C.ar  1 <1>   0.0820 
 12 C        6.7220     0.9310     0.5700 C.ar  1 <1>   0.0820 
 13 O        7.9910    -2.1740    -0.9940 O.3   1 <1>  -0.3630 
 14 C        7.6130     0.0800    -0.1000 C.ar  1 <1>   0.0820 
 15 O        6.9260     2.2560     0.8030 O.3   1 <1>  -0.3630 
 16 C        8.7430    -1.7960    -2.1290 C.3   1 <1>   0.0400 
 17 O        8.8320     0.5340    -0.4920 O.3   1 <1>  -0.3630 
 18 C        7.5600     3.0660    -0.1660 C.3   1 <1>   0.0400 
 19 C        9.8510     0.3970     0.4740 C.3   1 <1>   0.0400 
 20 H        1.5720     0.4770    -2.1400 H     1 <1>   0.0800 
 21 H        2.4240    -1.0300    -2.4470 H     1 <1>   0.0800 
 22 H        1.4400    -3.4660    -1.2390 H     1 <1>   0.0800 
 23 H        0.0070    -3.3960    -0.2230 H     1 <1>   0.0800 
 24 H        1.9850     0.2710     0.2740 H     1 <1>   0.0800 
 25 H        3.4970     0.2500    -0.5910 H     1 <1>   0.0800 
 26 H        2.0500    -3.3080     1.1870 H     1 <1>   0.0800 
 27 H        1.1250    -1.8360     1.3180 H     1 <1>   0.0800 
 28 H        3.4780    -2.1690    -0.4520 H     1 <1>   0.4500 
 29 H        4.0390    -2.3670     1.9030 H     1 <1>   0.0800 
 30 H        3.4370    -0.7350     2.1030 H     1 <1>   0.0800 
 31 H        5.8190    -2.7710     0.0230 H     1 <1>   0.1500 
 32 H        4.8830     1.1050     1.5950 H     1 <1>   0.1500 
 33 H        8.1950    -1.0580    -2.6890 H     1 <1>   0.0800 
 34 H        9.6890    -1.4020    -1.8070 H     1 <1>   0.0800 
 35 H        8.9040    -2.6710    -2.7320 H     1 <1>   0.0800 
 36 H        7.2650     4.0850     0.0030 H     1 <1>   0.0800 
 37 H        7.2550     2.7510    -1.1480 H     1 <1>   0.0800 
 38 H        8.6260     2.9770    -0.0530 H     1 <1>   0.0800 
 39 H       10.7640     0.7840     0.0590 H     1 <1>   0.0800 
 40 H        9.5770     0.9560     1.3510 H     1 <1>   0.0800 
 41 H        9.9660    -0.6460     0.7140 H     1 <1>   0.0800 
@<TRIPOS>BOND
  1   1   2  1   
  2   1   3  1   
  3   2   4  1   
  4   2  20  1   
  5   2  21  1   
  6   3   5  1   
  7   3  22  1   
  8   3  23  1   
  9   4   6  1   
 10   4  24  1   
 11   4  25  1   
 12   5   6  1   
 13   5  26  1   
 14   5  27  1   
 15   6   7  1   
 16   6  28  1   
 17   7   8  1   
 18   7  29  1   
 19   7  30  1   
 20   8   9  ar  
 21   8  10  ar  
 22   9  11  ar  
 23   9  31  1   
 24  10  12  ar  
 25  10  32  1   
 26  11  13  1   
 27  11  14  ar  
 28  12  14  ar  
 29  12  15  1   
 30  13  16  1   
 31  14  17  1   
 32  15  18  1   
 33  16  33  1   
 34  16  34  1   
 35  16  35  1   
 36  17  19  1   
 37  18  36  1   
 38  18  37  1   
 39  18  38  1   
 40  19  39  1   
 41  19  40  1   
 42  19  41  1   
@<TRIPOS>SUBSTRUCTURE
  1 ****   8 GROUP 4 **** **** 0

# MOE 2024.06 (io_trps.svl 2023.06)
