@<TRIPOS>MOLECULE
NONAME
22 22 1 0 0 
SMALL
USER_CHARGES


@<TRIPOS>ATOM
  1 O       -0.1260     0.3030    -0.1090 O.2   1 <1>  -0.5700 
  2 C       -0.4370     1.4750    -0.0140 C.2   1 <1>   0.8050 
  3 O        0.5350     2.3940     0.0120 O.3   1 <1>  -0.4300 
  4 C       -1.7920     1.9510     0.0740 C.2   1 <1>  -0.2370 
  5 C        1.9010     2.0390    -0.0680 C.3   1 <1>   0.0400 
  6 N       -2.9210     1.1620     0.0640 N.pl3 1 <1>   0.0480 
  7 C       -2.2050     3.2560     0.1830 C.2   1 <1>  -0.1500 
  8 C       -4.0060     1.9780     0.1650 C.2   1 <1>  -0.3320 
  9 C       -2.9530    -0.3140    -0.0390 C.3   1 <1>   0.0160 
 10 C       -3.5920     3.2700     0.2400 C.2   1 <1>  -0.1500 
 11 C       -5.4480     1.4990     0.1890 C.3   1 <1>  -0.0600 
 12 H        2.4890     2.9380    -0.0280 H     1 <1>   0.0800 
 13 H        2.0730     1.5240    -0.9970 H     1 <1>   0.0800 
 14 H        2.1440     1.3990     0.7630 H     1 <1>   0.0800 
 15 H       -1.5780     4.1300     0.2200 H     1 <1>   0.1500 
 16 H       -2.4140    -0.7370     0.7890 H     1 <1>   0.0800 
 17 H       -2.4840    -0.6140    -0.9580 H     1 <1>   0.0800 
 18 H       -3.9640    -0.6720    -0.0240 H     1 <1>   0.0800 
 19 H       -4.2010     4.1530     0.3270 H     1 <1>   0.1500 
 20 H       -5.6100     0.8490     1.0290 H     1 <1>   0.0800 
 21 H       -5.6800     0.9720    -0.7190 H     1 <1>   0.0800 
 22 H       -6.1150     2.3390     0.2750 H     1 <1>   0.0800 
@<TRIPOS>BOND
  1   1   2  2   
  2   2   3  1   
  3   2   4  1   
  4   3   5  1   
  5   4   6  1   
  6   4   7  2   
  7   5  12  1   
  8   5  13  1   
  9   5  14  1   
 10   6   8  1   
 11   6   9  1   
 12   7  10  1   
 13   7  15  1   
 14   8  10  2   
 15   8  11  1   
 16   9  16  1   
 17   9  17  1   
 18   9  18  1   
 19  10  19  1   
 20  11  20  1   
 21  11  21  1   
 22  11  22  1   
@<TRIPOS>SUBSTRUCTURE
  1 ****   4 GROUP 4 **** **** 0

# MOE 2024.06 (io_trps.svl 2023.06)
