@<TRIPOS>MOLECULE
NONAME
44 45 1 0 0 
SMALL
USER_CHARGES


@<TRIPOS>ATOM
  1 S       -0.1250     0.2000     0.5620 S.o2  1 <1>   1.4470 
  2 O       -0.4230     0.2400     1.9790 O.2   1 <1>  -0.6500 
  3 O       -0.4890    -0.9890    -0.1790 O.2   1 <1>  -0.6500 
  4 N       -0.8960     1.5340    -0.1660 N.am  1 <1>  -0.8490 
  5 C        1.6430     0.4810     0.2680 C.ar  1 <1>  -0.0090 
  6 C       -1.0010     2.7360     0.7030 C.3   1 <1>   0.2760 
  7 C       -2.2130     1.1150    -0.6790 C.3   1 <1>   0.1960 
  8 C        2.5830     0.3000     1.2790 C.ar  1 <1>  -0.1500 
  9 C        2.1080     0.8750    -0.9820 C.ar  1 <1>  -0.1500 
 10 C       -1.7150     3.8780    -0.0550 C.3   1 <1>  -0.1600 
 11 C        0.3910     3.2280     1.1740 C.3   1 <1>  -0.1600 
 12 C       -2.8910     2.2230    -1.4820 C.3   1 <1>  -0.1600 
 13 C        3.9300     0.5180     1.0530 C.ar  1 <1>  -0.1500 
 14 C        3.4540     1.0920    -1.2130 C.ar  1 <1>  -0.1500 
 15 C       -3.0730     3.4690    -0.6240 C.3   1 <1>  -0.1600 
 16 C        0.3890     4.5360     1.9830 C.3   1 <1>  -0.2400 
 17 C        4.3810     0.9210    -0.1960 C.ar  1 <1>   0.1990 
 18 N        5.7220     1.1440    -0.4350 N.am  1 <1>  -0.7570 
 19 S        6.5810     2.4810     0.2030 S.o2  1 <1>   1.3330 
 20 O        7.9610     2.1740    -0.0700 O.2   1 <1>  -0.6500 
 21 O        6.1150     2.6830     1.5510 O.2   1 <1>  -0.6500 
 22 C        6.0510     3.8130    -0.8500 C.3   1 <1>  -0.1350 
 23 H       -1.5910     2.4880     1.5720 H     1 <1>   0.0800 
 24 H       -2.8430     0.8170     0.1430 H     1 <1>   0.0800 
 25 H       -2.1020     0.2700    -1.3380 H     1 <1>   0.0800 
 26 H        2.2520    -0.0100     2.2570 H     1 <1>   0.1500 
 27 H        1.3980     1.0120    -1.7820 H     1 <1>   0.1500 
 28 H       -1.0800     4.2170    -0.8540 H     1 <1>   0.0800 
 29 H       -1.8820     4.7080     0.6060 H     1 <1>   0.0800 
 30 H        1.0320     3.3540     0.3200 H     1 <1>   0.0800 
 31 H        0.8270     2.4940     1.8240 H     1 <1>   0.0800 
 32 H       -3.8490     1.8770    -1.8270 H     1 <1>   0.0800 
 33 H       -2.2890     2.4490    -2.3450 H     1 <1>   0.0800 
 34 H        4.6370     0.3860     1.8530 H     1 <1>   0.1500 
 35 H        3.7930     1.3930    -2.1880 H     1 <1>   0.1500 
 36 H       -3.4830     4.2690    -1.2160 H     1 <1>   0.0800 
 37 H       -3.7570     3.2590     0.1810 H     1 <1>   0.0800 
 38 H        0.1520     5.3810     1.3620 H     1 <1>   0.0800 
 39 H        1.3660     4.7020     2.4030 H     1 <1>   0.0800 
 40 H       -0.3200     4.4790     2.7910 H     1 <1>   0.0800 
 41 H        6.3280     0.3320    -0.3520 H     1 <1>   0.4200 
 42 H        6.2820     3.5910    -1.8730 H     1 <1>   0.0800 
 43 H        6.5500     4.7210    -0.5730 H     1 <1>   0.0800 
 44 H        4.9930     3.9590    -0.7560 H     1 <1>   0.0800 
@<TRIPOS>BOND
  1   1   2  2   
  2   1   3  2   
  3   1   4  am  
  4   1   5  1   
  5   4   6  1   
  6   4   7  1   
  7   5   8  ar  
  8   5   9  ar  
  9   6  10  1   
 10   6  11  1   
 11   6  23  1   
 12   7  12  1   
 13   7  24  1   
 14   7  25  1   
 15   8  13  ar  
 16   8  26  1   
 17   9  14  ar  
 18   9  27  1   
 19  10  15  1   
 20  10  28  1   
 21  10  29  1   
 22  11  16  1   
 23  11  30  1   
 24  11  31  1   
 25  12  15  1   
 26  12  32  1   
 27  12  33  1   
 28  13  17  ar  
 29  13  34  1   
 30  14  17  ar  
 31  14  35  1   
 32  15  36  1   
 33  15  37  1   
 34  16  38  1   
 35  16  39  1   
 36  16  40  1   
 37  17  18  1   
 38  18  19  am  
 39  18  41  1   
 40  19  20  2   
 41  19  21  2   
 42  19  22  1   
 43  22  42  1   
 44  22  43  1   
 45  22  44  1   
@<TRIPOS>SUBSTRUCTURE
  1 ****   5 GROUP 4 **** **** 0

# MOE 2024.06 (io_trps.svl 2023.06)
