@<TRIPOS>MOLECULE
NONAME
52 54 1 0 0 
SMALL
USER_CHARGES


@<TRIPOS>ATOM
  1 CL       3.8560    -1.2190     2.7710 Cl    1 <1>  -0.1770 
  2 C        3.6610    -0.1350     1.4120 C.ar  1 <1>   0.1770 
  3 C        4.6340     0.8040     1.0870 C.ar  1 <1>  -0.1440 
  4 C        2.4940    -0.2590     0.6810 C.ar  1 <1>  -0.1500 
  5 C        4.4150     1.6420    -0.0110 C.ar  1 <1>   0.1170 
  6 C        5.9270     0.9360     1.8980 C.3   1 <1>  -0.0970 
  7 C        2.2800     0.5710    -0.4020 C.ar  1 <1>  -0.1500 
  8 N        5.3820     2.6030    -0.3470 N.am  1 <1>  -0.5470 
  9 C        3.2340     1.5120    -0.7390 C.ar  1 <1>  -0.1500 
 10 C        5.6160     3.3710    -1.4510 C.2   1 <1>   0.5690 
 11 O        4.9440     3.3620    -2.4530 O.2   1 <1>  -0.5700 
 12 C        6.8370     4.2890    -1.3750 C.3   1 <1>   0.1710 
 13 N        7.8750     3.8160    -0.4080 N.3   1 <1>  -0.8100 
 14 C        8.8240     4.9050    -0.0850 C.3   1 <1>   0.1100 
 15 C        8.6270     2.6630    -0.9670 C.3   1 <1>   0.1100 
 16 C        9.9110     4.4650     0.9170 C.3   1 <1>   0.2090 
 17 C        9.7150     2.1390    -0.0080 C.3   1 <1>   0.2090 
 18 N       10.6130     3.2250     0.4790 N.pl3 1 <1>  -0.8380 
 19 C       11.8770     3.3510    -0.1010 C.ar  1 <1>   0.1000 
 20 C       13.0350     3.0150     0.6090 C.ar  1 <1>  -0.1430 
 21 C       11.9910     3.8230    -1.4030 C.ar  1 <1>  -0.1500 
 22 C       14.2830     3.1600     0.0070 C.ar  1 <1>  -0.1430 
 23 C       12.8760     2.4970     2.0390 C.3   1 <1>  -0.0970 
 24 C       13.2260     3.9620    -2.0000 C.ar  1 <1>  -0.1500 
 25 C       14.3680     3.6320    -1.2950 C.ar  1 <1>  -0.1500 
 26 C       15.5820     2.8220     0.7270 C.3   1 <1>  -0.0970 
 27 H        1.7640    -0.9970     0.9610 H     1 <1>   0.1500 
 28 H        6.0050     0.1970     2.6730 H     1 <1>   0.0800 
 29 H        5.9700     1.9050     2.3620 H     1 <1>   0.0800 
 30 H        6.7780     0.8190     1.2530 H     1 <1>   0.0800 
 31 H        1.3760     0.4880    -0.9810 H     1 <1>   0.1500 
 32 H        6.1380     2.7250     0.3350 H     1 <1>   0.3700 
 33 H        3.0490     2.1530    -1.5810 H     1 <1>   0.1500 
 34 H        6.4810     5.2570    -1.0700 H     1 <1>   0.0800 
 35 H        7.2630     4.3890    -2.3580 H     1 <1>   0.0800 
 36 H        8.2860     5.7330     0.3430 H     1 <1>   0.0800 
 37 H        9.3040     5.2530    -0.9830 H     1 <1>   0.0800 
 38 H        9.0970     2.9480    -1.8920 H     1 <1>   0.0800 
 39 H        7.9490     1.8560    -1.1830 H     1 <1>   0.0800 
 40 H        9.4560     4.2850     1.8740 H     1 <1>   0.0800 
 41 H       10.6300     5.2570     1.0370 H     1 <1>   0.0800 
 42 H       10.3020     1.3890    -0.5090 H     1 <1>   0.0800 
 43 H        9.2450     1.6750     0.8410 H     1 <1>   0.0800 
 44 H       11.1060     4.0810    -1.9470 H     1 <1>   0.1500 
 45 H       12.4980     3.2870     2.6610 H     1 <1>   0.0800 
 46 H       13.7920     2.1370     2.4620 H     1 <1>   0.0800 
 47 H       12.1690     1.6880     2.0510 H     1 <1>   0.0800 
 48 H       13.3020     4.3270    -3.0090 H     1 <1>   0.1500 
 49 H       15.3250     3.7460    -1.7710 H     1 <1>   0.1500 
 50 H       15.6090     1.7720     0.9580 H     1 <1>   0.0800 
 51 H       15.6550     3.3880     1.6370 H     1 <1>   0.0800 
 52 H       16.4360     3.0550     0.1180 H     1 <1>   0.0800 
@<TRIPOS>BOND
  1   1   2  1   
  2   2   3  ar  
  3   2   4  ar  
  4   3   5  ar  
  5   3   6  1   
  6   4   7  ar  
  7   4  27  1   
  8   5   8  1   
  9   5   9  ar  
 10   6  28  1   
 11   6  29  1   
 12   6  30  1   
 13   7   9  ar  
 14   7  31  1   
 15   8  10  am  
 16   8  32  1   
 17   9  33  1   
 18  10  11  2   
 19  10  12  1   
 20  12  13  1   
 21  12  34  1   
 22  12  35  1   
 23  13  14  1   
 24  13  15  1   
 25  14  16  1   
 26  14  36  1   
 27  14  37  1   
 28  15  17  1   
 29  15  38  1   
 30  15  39  1   
 31  16  18  1   
 32  16  40  1   
 33  16  41  1   
 34  17  18  1   
 35  17  42  1   
 36  17  43  1   
 37  18  19  1   
 38  19  20  ar  
 39  19  21  ar  
 40  20  22  ar  
 41  20  23  1   
 42  21  24  ar  
 43  21  44  1   
 44  22  25  ar  
 45  22  26  1   
 46  23  45  1   
 47  23  46  1   
 48  23  47  1   
 49  24  25  ar  
 50  24  48  1   
 51  25  49  1   
 52  26  50  1   
 53  26  51  1   
 54  26  52  1   
@<TRIPOS>SUBSTRUCTURE
  1 ****  15 GROUP 4 **** **** 0

# MOE 2024.06 (io_trps.svl 2023.06)
