@<TRIPOS>MOLECULE
NONAME
33 34 1 0 0 
SMALL
USER_CHARGES


@<TRIPOS>ATOM
  1 O       -0.8030     0.5170     1.7420 O.2   1 <1>  -0.5700 
  2 C       -0.7720     1.4550     0.9830 C.2   1 <1>   0.5690 
  3 N       -1.8090     1.9470     0.2450 N.am  1 <1>  -0.4770 
  4 C        0.4940     2.2300     0.7370 C.3   1 <1>  -0.0990 
  5 C       -3.1110     1.4190     0.1300 C.ar  1 <1>   0.1170 
  6 C       -1.3700     3.0760    -0.6010 C.3   1 <1>   0.1400 
  7 C        0.0330     3.4330    -0.0940 C.3   1 <1>  -0.1600 
  8 C       -3.3240     0.0460     0.0790 C.ar  1 <1>  -0.1500 
  9 C       -4.2220     2.2530     0.0560 C.ar  1 <1>  -0.1500 
 10 C       -4.5980    -0.4750    -0.0530 C.ar  1 <1>  -0.1500 
 11 C       -5.4960     1.7330    -0.0770 C.ar  1 <1>  -0.1500 
 12 C       -5.7050     0.3600    -0.1390 C.ar  1 <1>   0.1170 
 13 N       -6.9790    -0.2190    -0.2630 N.am  1 <1>  -0.5470 
 14 C       -8.1570     0.2910    -0.7310 C.2   1 <1>   0.5690 
 15 O       -8.2850     1.4080    -1.1660 O.2   1 <1>  -0.5700 
 16 C       -9.3700    -0.6220    -0.7140 C.3   1 <1>  -0.0990 
 17 C       -9.8660    -0.9340     0.7070 C.3   1 <1>  -0.2400 
 18 H        1.1770     1.6120     0.1840 H     1 <1>   0.0800 
 19 H        0.9400     2.5300     1.6680 H     1 <1>   0.0800 
 20 H       -2.0370     3.9140    -0.5060 H     1 <1>   0.0800 
 21 H       -1.3370     2.7520    -1.6270 H     1 <1>   0.0800 
 22 H        0.7040     3.6450    -0.9080 H     1 <1>   0.0800 
 23 H       -0.0360     4.3030     0.5350 H     1 <1>   0.0800 
 24 H       -2.4810    -0.6190     0.1450 H     1 <1>   0.1500 
 25 H       -4.0980     3.3180     0.1110 H     1 <1>   0.1500 
 26 H       -4.7260    -1.5400    -0.0900 H     1 <1>   0.1500 
 27 H       -6.3330     2.4060    -0.1270 H     1 <1>   0.1500 
 28 H       -7.0260    -1.1920     0.0310 H     1 <1>   0.3700 
 29 H       -9.1270    -1.5350    -1.2260 H     1 <1>   0.0800 
 30 H      -10.1620    -0.1440    -1.2640 H     1 <1>   0.0800 
 31 H       -9.1090    -1.4480     1.2740 H     1 <1>   0.0800 
 32 H      -10.7440    -1.5540     0.6650 H     1 <1>   0.0800 
 33 H      -10.1160    -0.0200     1.2180 H     1 <1>   0.0800 
@<TRIPOS>BOND
  1   1   2  2   
  2   2   3  am  
  3   2   4  1   
  4   3   5  1   
  5   3   6  1   
  6   4   7  1   
  7   4  18  1   
  8   4  19  1   
  9   5   8  ar  
 10   5   9  ar  
 11   6   7  1   
 12   6  20  1   
 13   6  21  1   
 14   7  22  1   
 15   7  23  1   
 16   8  10  ar  
 17   8  24  1   
 18   9  11  ar  
 19   9  25  1   
 20  10  12  ar  
 21  10  26  1   
 22  11  12  ar  
 23  11  27  1   
 24  12  13  1   
 25  13  14  am  
 26  13  28  1   
 27  14  15  2   
 28  14  16  1   
 29  16  17  1   
 30  16  29  1   
 31  16  30  1   
 32  17  31  1   
 33  17  32  1   
 34  17  33  1   
@<TRIPOS>SUBSTRUCTURE
  1 ****   9 GROUP 4 **** **** 0

# MOE 2024.06 (io_trps.svl 2023.06)
