@<TRIPOS>MOLECULE
NONAME
44 46 1 0 0 
SMALL
USER_CHARGES


@<TRIPOS>ATOM
  1 O        0.0180     0.7530    -1.6960 O.2   1 <1>  -0.5700 
  2 C       -0.0800     1.6330    -0.8620 C.2   1 <1>   0.6160 
  3 N        1.0200     1.9380    -0.1070 N.am  1 <1>  -0.7300 
  4 C       -1.3120     2.3470    -0.6690 C.2   1 <1>   0.0790 
  5 C        2.3590     1.3300    -0.2540 C.3   1 <1>   0.2200 
  6 C       -2.4820     1.5560    -0.8850 C.1   1 <1>   0.4920 
  7 C       -1.3490     3.6600    -0.3070 C.2   1 <1>  -0.1040 
  8 C        3.4280     2.4330    -0.4090 C.3   1 <1>  -0.0800 
  9 C        2.6260     0.4570     0.9770 C.3   1 <1>  -0.1600 
 10 N       -3.4380     0.9470    -1.0220 N.1   1 <1>  -0.5570 
 11 C       -2.4570     4.5270    -0.0310 C.2   1 <1>  -0.0460 
 12 C        4.8370     1.8140    -0.4450 C.3   1 <1>  -0.1600 
 13 C        3.2060     3.2780    -1.6750 C.3   1 <1>  -0.2400 
 14 C        4.0340    -0.1520     0.9350 C.3   1 <1>  -0.1600 
 15 C       -2.3240     5.9120     0.2780 C.ar  1 <1>   0.0000 
 16 C       -3.7990     4.2670     0.0100 C.2   1 <1>  -0.3020 
 17 C        5.1020     0.9380     0.7870 C.3   1 <1>  -0.1600 
 18 C       -3.6040     6.4110     0.4930 C.ar  1 <1>  -0.1520 
 19 C       -1.2320     6.7820     0.3910 C.ar  1 <1>  -0.1500 
 20 N       -4.4950     5.3870     0.3220 N.pl3 1 <1>   0.0330 
 21 C       -3.8190     7.7500     0.8230 C.ar  1 <1>  -0.1500 
 22 C       -1.4410     8.1040     0.7150 C.ar  1 <1>  -0.1500 
 23 C       -2.7340     8.5890     0.9320 C.ar  1 <1>  -0.1500 
 24 H        0.9370     2.5850     0.6750 H     1 <1>   0.3700 
 25 H        2.3810     0.7040    -1.1310 H     1 <1>   0.0800 
 26 H       -0.4070     4.1660    -0.2090 H     1 <1>   0.1500 
 27 H        3.3770     3.0810     0.4490 H     1 <1>   0.0800 
 28 H        2.5280     1.0490     1.8700 H     1 <1>   0.0800 
 29 H        1.9000    -0.3370     1.0110 H     1 <1>   0.0800 
 30 H        4.9420     1.2120    -1.3330 H     1 <1>   0.0800 
 31 H        5.5770     2.5950    -0.4890 H     1 <1>   0.0800 
 32 H        3.2200     2.6530    -2.5510 H     1 <1>   0.0800 
 33 H        3.9770     4.0220    -1.7700 H     1 <1>   0.0800 
 34 H        2.2580     3.7840    -1.6350 H     1 <1>   0.0800 
 35 H        4.2120    -0.7140     1.8360 H     1 <1>   0.0800 
 36 H        4.1030    -0.8330     0.1030 H     1 <1>   0.0800 
 37 H       -4.3100     3.3370    -0.1650 H     1 <1>   0.1500 
 38 H        6.0730     0.4810     0.7010 H     1 <1>   0.0800 
 39 H        5.1080     1.5550     1.6700 H     1 <1>   0.0800 
 40 H       -0.2380     6.4160     0.2230 H     1 <1>   0.1500 
 41 H       -5.5130     5.4710     0.4160 H     1 <1>   0.2700 
 42 H       -4.8180     8.1140     0.9860 H     1 <1>   0.1500 
 43 H       -0.6080     8.7790     0.8050 H     1 <1>   0.1500 
 44 H       -2.8720     9.6260     1.1850 H     1 <1>   0.1500 
@<TRIPOS>BOND
  1   1   2  2   
  2   2   3  am  
  3   2   4  1   
  4   3   5  1   
  5   3  24  1   
  6   4   6  1   
  7   4   7  2   
  8   5   8  1   
  9   5   9  1   
 10   5  25  1   
 11   6  10  3   
 12   7  11  1   
 13   7  26  1   
 14   8  12  1   
 15   8  13  1   
 16   8  27  1   
 17   9  14  1   
 18   9  28  1   
 19   9  29  1   
 20  11  15  1   
 21  11  16  2   
 22  12  17  1   
 23  12  30  1   
 24  12  31  1   
 25  13  32  1   
 26  13  33  1   
 27  13  34  1   
 28  14  17  1   
 29  14  35  1   
 30  14  36  1   
 31  15  18  ar  
 32  15  19  ar  
 33  16  20  1   
 34  16  37  1   
 35  17  38  1   
 36  17  39  1   
 37  18  20  1   
 38  18  21  ar  
 39  19  22  ar  
 40  19  40  1   
 41  20  41  1   
 42  21  23  ar  
 43  21  42  1   
 44  22  23  ar  
 45  22  43  1   
 46  23  44  1   
@<TRIPOS>SUBSTRUCTURE
  1 ****   7 GROUP 4 **** **** 0

# MOE 2024.06 (io_trps.svl 2023.06)
