@<TRIPOS>MOLECULE
NONAME
49 51 1 0 0 
SMALL
USER_CHARGES


@<TRIPOS>ATOM
  1 F        2.8530     1.0440     0.7440 F     1 <1>  -0.1900 
  2 C        3.2250    -0.2090     0.7010 C.ar  1 <1>   0.1900 
  3 C        2.9340    -1.0300     1.7720 C.ar  1 <1>  -0.1500 
  4 C        3.8960    -0.6670    -0.4160 C.ar  1 <1>  -0.1500 
  5 C        3.3290    -2.3560     1.7160 C.ar  1 <1>  -0.1500 
  6 C        4.2860    -1.9950    -0.4560 C.ar  1 <1>  -0.1500 
  7 C        4.0060    -2.8590     0.6040 C.ar  1 <1>   0.1170 
  8 N        4.3910    -4.2130     0.5470 N.am  1 <1>  -0.4770 
  9 C        4.8320    -5.0130     1.5630 C.2   1 <1>   0.5690 
 10 C        4.3330    -4.9740    -0.7180 C.3   1 <1>   0.1400 
 11 O        4.9990    -4.6980     2.7150 O.2   1 <1>  -0.5700 
 12 C        5.1050    -6.4100     1.0820 C.3   1 <1>  -0.0990 
 13 C        4.4120    -6.4450    -0.2860 C.3   1 <1>  -0.0190 
 14 C        5.1030    -7.3540    -1.2970 C.2   1 <1>   0.5690 
 15 O        5.8490    -6.8870    -2.1190 O.2   1 <1>  -0.5700 
 16 N        4.8860    -8.6940    -1.2730 N.am  1 <1>  -0.5470 
 17 C        4.1100    -9.4360    -0.3740 C.ar  1 <1>   0.1170 
 18 C        4.7090   -10.0280     0.7420 C.ar  1 <1>  -0.1430 
 19 C        2.7370    -9.5920    -0.5860 C.ar  1 <1>  -0.1430 
 20 C        3.9310   -10.7380     1.6410 C.ar  1 <1>  -0.1500 
 21 C        6.2100    -9.9330     1.0120 C.3   1 <1>  -0.0170 
 22 C        1.9800   -10.3070     0.3270 C.ar  1 <1>  -0.1500 
 23 C        2.0260    -9.0150    -1.8090 C.3   1 <1>  -0.0170 
 24 C        2.5720   -10.8750     1.4390 C.ar  1 <1>  -0.1500 
 25 C        6.9550   -11.0720     0.3120 C.3   1 <1>  -0.2400 
 26 C        2.1180    -9.9820    -2.9910 C.3   1 <1>  -0.2400 
 27 H        2.4140    -0.6400     2.6280 H     1 <1>   0.1500 
 28 H        4.1080     0.0030    -1.2290 H     1 <1>   0.1500 
 29 H        3.1110    -3.0070     2.5430 H     1 <1>   0.1500 
 30 H        4.8180    -2.3570    -1.3160 H     1 <1>   0.1500 
 31 H        5.1780    -4.6960    -1.3250 H     1 <1>   0.0800 
 32 H        3.4190    -4.7700    -1.2490 H     1 <1>   0.0800 
 33 H        4.6980    -7.1400     1.7580 H     1 <1>   0.0800 
 34 H        6.1670    -6.5380     0.9890 H     1 <1>   0.0800 
 35 H        3.4020    -6.7860    -0.1460 H     1 <1>   0.0800 
 36 H        5.4220    -9.2200    -1.9620 H     1 <1>   0.3700 
 37 H        4.3810   -11.1960     2.5050 H     1 <1>   0.1500 
 38 H        6.3910    -9.9910     2.0710 H     1 <1>   0.0800 
 39 H        6.6020    -8.9900     0.6780 H     1 <1>   0.0800 
 40 H        0.9220   -10.4330     0.1760 H     1 <1>   0.1500 
 41 H        2.4480    -8.0670    -2.0880 H     1 <1>   0.0800 
 42 H        0.9890    -8.8410    -1.5770 H     1 <1>   0.0800 
 43 H        1.9750   -11.4280     2.1440 H     1 <1>   0.1500 
 44 H        6.5930   -12.0230     0.6620 H     1 <1>   0.0800 
 45 H        8.0090   -11.0070     0.5180 H     1 <1>   0.0800 
 46 H        6.8070   -11.0180    -0.7510 H     1 <1>   0.0800 
 47 H        3.1470   -10.1470    -3.2590 H     1 <1>   0.0800 
 48 H        1.6010    -9.5780    -3.8430 H     1 <1>   0.0800 
 49 H        1.6750   -10.9280    -2.7330 H     1 <1>   0.0800 
@<TRIPOS>BOND
  1   1   2  1   
  2   2   3  ar  
  3   2   4  ar  
  4   3   5  ar  
  5   3  27  1   
  6   4   6  ar  
  7   4  28  1   
  8   5   7  ar  
  9   5  29  1   
 10   6   7  ar  
 11   6  30  1   
 12   7   8  1   
 13   8   9  am  
 14   8  10  1   
 15   9  11  2   
 16   9  12  1   
 17  10  13  1   
 18  10  31  1   
 19  10  32  1   
 20  12  13  1   
 21  12  33  1   
 22  12  34  1   
 23  13  14  1   
 24  13  35  1   
 25  14  15  2   
 26  14  16  am  
 27  16  17  1   
 28  16  36  1   
 29  17  18  ar  
 30  17  19  ar  
 31  18  20  ar  
 32  18  21  1   
 33  19  22  ar  
 34  19  23  1   
 35  20  24  ar  
 36  20  37  1   
 37  21  25  1   
 38  21  38  1   
 39  21  39  1   
 40  22  24  ar  
 41  22  40  1   
 42  23  26  1   
 43  23  41  1   
 44  23  42  1   
 45  24  43  1   
 46  25  44  1   
 47  25  45  1   
 48  25  46  1   
 49  26  47  1   
 50  26  48  1   
 51  26  49  1   
@<TRIPOS>SUBSTRUCTURE
  1 ****  13 GROUP 4 **** **** 0

# MOE 2024.06 (io_trps.svl 2023.06)
