@<TRIPOS>MOLECULE
NONAME
47 48 1 0 0 
SMALL
USER_CHARGES


@<TRIPOS>ATOM
  1 CL       0.0790    -0.1750     0.0040 Cl    1 <1>  -0.1770 
  2 C        1.8210     0.0220     0.0310 C.ar  1 <1>   0.1770 
  3 C        2.3570     1.2980     0.1540 C.ar  1 <1>  -0.1440 
  4 C        2.6310    -1.1020    -0.0720 C.ar  1 <1>  -0.1440 
  5 C        3.7360     1.4460     0.1740 C.ar  1 <1>  -0.1500 
  6 C        1.4550     2.5190     0.2660 C.3   1 <1>  -0.0960 
  7 C        4.0050    -0.9330    -0.0500 C.ar  1 <1>  -0.1500 
  8 C        2.0340    -2.4960    -0.2060 C.3   1 <1>  -0.0960 
  9 C        4.5640     0.3300     0.0720 C.ar  1 <1>   0.0830 
 10 O        5.9190     0.3940     0.0830 O.3   1 <1>  -0.3630 
 11 C        6.5990     1.6330     0.1560 C.3   1 <1>   0.1200 
 12 C        8.1130     1.3820     0.1380 C.3   1 <1>   0.2000 
 13 O        8.4010     0.4380     1.1190 O.3   1 <1>  -0.6800 
 14 C        8.9130     2.6800     0.3870 C.3   1 <1>   0.1100 
 15 N       10.3480     2.6140     0.0010 N.3   1 <1>  -0.8100 
 16 C       10.9830     3.9480     0.1170 C.3   1 <1>   0.1100 
 17 C       11.1010     1.6110     0.8050 C.3   1 <1>   0.1100 
 18 C       12.4560     3.9440    -0.3640 C.3   1 <1>   0.3430 
 19 C       12.6340     1.6950     0.6170 C.3   1 <1>   0.3430 
 20 N       12.9690     2.5480    -0.5680 N.4   1 <1>  -0.9590 
 21 C       14.4060     2.4920    -0.9580 C.3   1 <1>   0.2630 
 22 H        4.1470     2.4310     0.2700 H     1 <1>   0.1500 
 23 H        0.8250     2.4310     1.1340 H     1 <1>   0.0800 
 24 H        0.8310     2.5960    -0.6070 H     1 <1>   0.0800 
 25 H        2.0300     3.4220     0.3540 H     1 <1>   0.0800 
 26 H        4.6610    -1.7810    -0.1280 H     1 <1>   0.1500 
 27 H        1.4200    -2.7160     0.6490 H     1 <1>   0.0800 
 28 H        2.8050    -3.2420    -0.2730 H     1 <1>   0.0800 
 29 H        1.4270    -2.5510    -1.0920 H     1 <1>   0.0800 
 30 H        6.3140     2.1260     1.0690 H     1 <1>   0.0800 
 31 H        6.3090     2.2310    -0.6910 H     1 <1>   0.0800 
 32 H        8.3850     0.9710    -0.8190 H     1 <1>   0.0800 
 33 H        7.7060    -0.2550     1.0820 H     1 <1>   0.4000 
 34 H        8.8170     2.9600     1.4230 H     1 <1>   0.0800 
 35 H        8.4540     3.4570    -0.2010 H     1 <1>   0.0800 
 36 H       10.9490     4.2750     1.1430 H     1 <1>   0.0800 
 37 H       10.4320     4.6650    -0.4680 H     1 <1>   0.0800 
 38 H       10.7900     0.6240     0.5100 H     1 <1>   0.0800 
 39 H       10.8660     1.7190     1.8510 H     1 <1>   0.0800 
 40 H       13.0630     4.4610     0.3600 H     1 <1>   0.0800 
 41 H       12.5190     4.4880    -1.2910 H     1 <1>   0.0800 
 42 H       13.0260     0.7000     0.4880 H     1 <1>   0.0800 
 43 H       13.0770     2.1130     1.5050 H     1 <1>   0.0800 
 44 H       12.3660     2.1690    -1.3180 H     1 <1>   0.4500 
 45 H       15.0240     2.8850    -0.1680 H     1 <1>   0.0800 
 46 H       14.5730     3.0740    -1.8510 H     1 <1>   0.0800 
 47 H       14.7000     1.4740    -1.1540 H     1 <1>   0.0800 
@<TRIPOS>BOND
  1   1   2  1   
  2   2   3  ar  
  3   2   4  ar  
  4   3   5  ar  
  5   3   6  1   
  6   4   7  ar  
  7   4   8  1   
  8   5   9  ar  
  9   5  22  1   
 10   6  23  1   
 11   6  24  1   
 12   6  25  1   
 13   7   9  ar  
 14   7  26  1   
 15   8  27  1   
 16   8  28  1   
 17   8  29  1   
 18   9  10  1   
 19  10  11  1   
 20  11  12  1   
 21  11  30  1   
 22  11  31  1   
 23  12  13  1   
 24  12  14  1   
 25  12  32  1   
 26  13  33  1   
 27  14  15  1   
 28  14  34  1   
 29  14  35  1   
 30  15  16  1   
 31  15  17  1   
 32  16  18  1   
 33  16  36  1   
 34  16  37  1   
 35  17  19  1   
 36  17  38  1   
 37  17  39  1   
 38  18  20  1   
 39  18  40  1   
 40  18  41  1   
 41  19  20  1   
 42  19  42  1   
 43  19  43  1   
 44  20  21  1   
 45  20  44  1   
 46  21  45  1   
 47  21  46  1   
 48  21  47  1   
@<TRIPOS>SUBSTRUCTURE
  1 ****  11 GROUP 4 **** **** 0

# MOE 2024.06 (io_trps.svl 2023.06)
