@<TRIPOS>MOLECULE
NONAME
47 51 1 0 0 
SMALL
USER_CHARGES


@<TRIPOS>ATOM
  1 O       -1.0900     2.5670    -0.8630 O.2   1 <1>  -0.5700 
  2 C       -0.6330     3.3550    -0.0780 C.2   1 <1>   0.5690 
  3 N       -1.1700     3.7220     1.1330 N.am  1 <1>  -0.4200 
  4 C        0.5820     4.2100    -0.2930 C.3   1 <1>  -0.0190 
  5 C       -0.2880     4.5080     1.8360 C.2   1 <1>   0.5690 
  6 C       -2.5050     3.3080     1.6150 C.3   1 <1>   0.1400 
  7 C        1.8250     4.1360    -1.2170 C.3   1 <1>   0.2070 
  8 C        1.0470     4.3700     1.1630 C.3   1 <1>  -0.0190 
  9 O       -0.5160     5.1440     2.8310 O.2   1 <1>  -0.5700 
 10 C       -3.5970     4.1140     0.9070 C.3   1 <1>   0.1400 
 11 C        2.2190     5.6230    -1.2420 C.ar  1 <1>  -0.1440 
 12 C        3.0220     3.4910    -0.4960 C.ar  1 <1>  -0.1440 
 13 C        2.3750     5.1710     1.1850 C.3   1 <1>   0.2070 
 14 N       -4.9340     3.5990     1.2860 N.am  1 <1>  -0.7300 
 15 C        2.4450     6.1750     0.0200 C.ar  1 <1>  -0.1440 
 16 C        2.3060     6.4140    -2.3750 C.ar  1 <1>  -0.1500 
 17 C        3.3490     4.0710     0.7310 C.ar  1 <1>  -0.1440 
 18 C        3.7770     2.4420    -0.9920 C.ar  1 <1>  -0.1500 
 19 C       -5.7130     2.7130     0.6250 C.2   1 <1>   0.5690 
 20 C        2.7420     7.5200     0.1470 C.ar  1 <1>  -0.1500 
 21 C        2.6090     7.7590    -2.2430 C.ar  1 <1>  -0.1500 
 22 C        4.4390     3.6130     1.4510 C.ar  1 <1>  -0.1500 
 23 C        4.8620     1.9810    -0.2650 C.ar  1 <1>  -0.1500 
 24 O       -6.7840     2.4050     1.0760 O.2   1 <1>  -0.5700 
 25 C       -5.2540     2.0960    -0.6730 C.3   1 <1>  -0.1790 
 26 C        2.8220     8.3100    -0.9890 C.ar  1 <1>  -0.1500 
 27 C        5.1940     2.5660     0.9480 C.ar  1 <1>  -0.1500 
 28 H        0.0930     5.1270    -0.5860 H     1 <1>   0.0800 
 29 H       -2.5670     3.4630     2.6780 H     1 <1>   0.0800 
 30 H       -2.6360     2.2600     1.4070 H     1 <1>   0.0800 
 31 H        1.6180     3.7390    -2.1950 H     1 <1>   0.0800 
 32 H        1.3240     3.3940     1.5320 H     1 <1>   0.0800 
 33 H       -3.4710     4.0370    -0.1590 H     1 <1>   0.0800 
 34 H       -3.5250     5.1510     1.1880 H     1 <1>   0.0800 
 35 H        2.6210     5.5790     2.1490 H     1 <1>   0.0800 
 36 H       -5.3370     3.9610     2.1550 H     1 <1>   0.3700 
 37 H        2.1360     5.9930    -3.3500 H     1 <1>   0.1500 
 38 H        3.5320     1.9910    -1.9380 H     1 <1>   0.1500 
 39 H        2.9190     7.9520     1.1160 H     1 <1>   0.1500 
 40 H        2.6800     8.3800    -3.1190 H     1 <1>   0.1500 
 41 H        4.6980     4.0590     2.3950 H     1 <1>   0.1500 
 42 H        5.4540     1.1680    -0.6460 H     1 <1>   0.1500 
 43 H       -5.2120     2.8490    -1.4380 H     1 <1>   0.0800 
 44 H       -5.9480     1.3340    -0.9750 H     1 <1>   0.0800 
 45 H       -4.2840     1.6520    -0.5510 H     1 <1>   0.0800 
 46 H        3.0560     9.3560    -0.8970 H     1 <1>   0.1500 
 47 H        6.0430     2.2040     1.5010 H     1 <1>   0.1500 
@<TRIPOS>BOND
  1   1   2  2   
  2   2   3  am  
  3   2   4  1   
  4   3   5  am  
  5   3   6  1   
  6   4   7  1   
  7   4   8  1   
  8   4  28  1   
  9   5   8  1   
 10   5   9  2   
 11   6  10  1   
 12   6  29  1   
 13   6  30  1   
 14   7  11  1   
 15   7  12  1   
 16   7  31  1   
 17   8  13  1   
 18   8  32  1   
 19  10  14  1   
 20  10  33  1   
 21  10  34  1   
 22  11  15  ar  
 23  11  16  ar  
 24  12  17  ar  
 25  12  18  ar  
 26  13  15  1   
 27  13  17  1   
 28  13  35  1   
 29  14  19  am  
 30  14  36  1   
 31  15  20  ar  
 32  16  21  ar  
 33  16  37  1   
 34  17  22  ar  
 35  18  23  ar  
 36  18  38  1   
 37  19  24  2   
 38  19  25  1   
 39  20  26  ar  
 40  20  39  1   
 41  21  26  ar  
 42  21  40  1   
 43  22  27  ar  
 44  22  41  1   
 45  23  27  ar  
 46  23  42  1   
 47  25  43  1   
 48  25  44  1   
 49  25  45  1   
 50  26  46  1   
 51  27  47  1   
@<TRIPOS>SUBSTRUCTURE
  1 ****   4 GROUP 4 **** **** 0

# MOE 2024.06 (io_trps.svl 2023.06)
