@<TRIPOS>MOLECULE
NONAME
54 56 1 0 0 
SMALL
USER_CHARGES


@<TRIPOS>ATOM
  1 O        0.8890     0.4520     0.6450 O.2   1 <1>  -0.5700 
  2 C        0.6460     1.6080     0.4180 C.2   1 <1>   0.6590 
  3 O       -0.5490     2.1410     0.6120 O.3   1 <1>  -0.4300 
  4 C        1.7100     2.5490    -0.1210 C.3   1 <1>  -0.0190 
  5 C       -1.6250     1.3800     1.1140 C.3   1 <1>   0.1200 
  6 C        2.8960     1.7240    -0.6590 C.3   1 <1>   0.3430 
  7 C        2.1620     3.5790     0.9330 C.3   1 <1>  -0.1600 
  8 C       -2.8400     2.2960     1.2220 C.3   1 <1>  -0.2400 
  9 N        4.2140     2.4370    -0.5330 N.4   1 <1>  -0.9590 
 10 C        3.2390     4.5230     0.3610 C.3   1 <1>  -0.1600 
 11 C        4.0980     3.9070    -0.7530 C.3   1 <1>   0.3430 
 12 C        5.2580     1.8090    -1.3880 C.3   1 <1>   0.4860 
 13 C        6.6070     2.3960    -1.0200 C.ar  1 <1>  -0.1440 
 14 C        7.2100     3.3310    -1.8510 C.ar  1 <1>  -0.1500 
 15 C        7.2490     2.0090     0.1490 C.ar  1 <1>  -0.1500 
 16 C        8.4310     3.8800    -1.5070 C.ar  1 <1>  -0.1500 
 17 C        8.4730     2.5590     0.4920 C.ar  1 <1>  -0.1500 
 18 C        9.0690     3.5040    -0.3370 C.ar  1 <1>   0.0820 
 19 O       10.2580     4.0980    -0.0800 O.3   1 <1>  -0.3620 
 20 C       11.0490     3.7270     1.0300 C.3   1 <1>   0.2640 
 21 C       12.3190     4.5640     1.0370 C.ar  1 <1>  -0.1440 
 22 C       12.2420     5.9420     1.1730 C.ar  1 <1>  -0.1500 
 23 C       13.5630     3.9630     0.9150 C.ar  1 <1>  -0.1500 
 24 C       13.3930     6.7100     1.1930 C.ar  1 <1>  -0.1500 
 25 C       14.7160     4.7300     0.9340 C.ar  1 <1>  -0.1500 
 26 C       14.6310     6.1040     1.0750 C.ar  1 <1>  -0.1500 
 27 H        1.2680     3.0750    -0.9480 H     1 <1>   0.0800 
 28 H       -1.3490     0.9900     2.0800 H     1 <1>   0.0800 
 29 H       -1.8150     0.5650     0.4360 H     1 <1>   0.0800 
 30 H        2.7020     1.4820    -1.6910 H     1 <1>   0.0800 
 31 H        2.9610     0.7940    -0.1160 H     1 <1>   0.0800 
 32 H        2.5600     3.0550     1.7870 H     1 <1>   0.0800 
 33 H        1.3190     4.1560     1.2770 H     1 <1>   0.0800 
 34 H       -2.6360     3.1090     1.8950 H     1 <1>   0.0800 
 35 H       -3.6780     1.7400     1.6030 H     1 <1>   0.0800 
 36 H       -3.1020     2.6850     0.2540 H     1 <1>   0.0800 
 37 H        4.5390     2.3300     0.4370 H     1 <1>   0.4500 
 38 H        3.8790     4.8560     1.1600 H     1 <1>   0.0800 
 39 H        2.7650     5.4030    -0.0390 H     1 <1>   0.0800 
 40 H        3.6360     4.0910    -1.7090 H     1 <1>   0.0800 
 41 H        5.0710     4.3740    -0.7500 H     1 <1>   0.0800 
 42 H        5.0480     1.9910    -2.4300 H     1 <1>   0.0800 
 43 H        5.2800     0.7430    -1.2250 H     1 <1>   0.0800 
 44 H        6.7450     3.6410    -2.7720 H     1 <1>   0.1500 
 45 H        6.8120     1.2740     0.8040 H     1 <1>   0.1500 
 46 H        8.9050     4.6060    -2.1450 H     1 <1>   0.1500 
 47 H        8.9460     2.2410     1.4020 H     1 <1>   0.1500 
 48 H       11.2800     2.6800     0.9440 H     1 <1>   0.0800 
 49 H       10.4850     3.9100     1.9260 H     1 <1>   0.0800 
 50 H       11.2820     6.4200     1.2600 H     1 <1>   0.1500 
 51 H       13.6430     2.8960     0.8020 H     1 <1>   0.1500 
 52 H       13.3240     7.7780     1.2990 H     1 <1>   0.1500 
 53 H       15.6770     4.2580     0.8390 H     1 <1>   0.1500 
 54 H       15.5270     6.7000     1.0900 H     1 <1>   0.1500 
@<TRIPOS>BOND
  1   1   2  2   
  2   2   3  1   
  3   2   4  1   
  4   3   5  1   
  5   4   6  1   
  6   4   7  1   
  7   4  27  1   
  8   5   8  1   
  9   5  28  1   
 10   5  29  1   
 11   6   9  1   
 12   6  30  1   
 13   6  31  1   
 14   7  10  1   
 15   7  32  1   
 16   7  33  1   
 17   8  34  1   
 18   8  35  1   
 19   8  36  1   
 20   9  11  1   
 21   9  12  1   
 22   9  37  1   
 23  10  11  1   
 24  10  38  1   
 25  10  39  1   
 26  11  40  1   
 27  11  41  1   
 28  12  13  1   
 29  12  42  1   
 30  12  43  1   
 31  13  14  ar  
 32  13  15  ar  
 33  14  16  ar  
 34  14  44  1   
 35  15  17  ar  
 36  15  45  1   
 37  16  18  ar  
 38  16  46  1   
 39  17  18  ar  
 40  17  47  1   
 41  18  19  1   
 42  19  20  1   
 43  20  21  1   
 44  20  48  1   
 45  20  49  1   
 46  21  22  ar  
 47  21  23  ar  
 48  22  24  ar  
 49  22  50  1   
 50  23  25  ar  
 51  23  51  1   
 52  24  26  ar  
 53  24  52  1   
 54  25  26  ar  
 55  25  53  1   
 56  26  54  1   
@<TRIPOS>SUBSTRUCTURE
  1 ****  15 GROUP 4 **** **** 0

# MOE 2024.06 (io_trps.svl 2023.06)
