@<TRIPOS>MOLECULE
NONAME
45 45 1 0 0 
SMALL
USER_CHARGES


@<TRIPOS>ATOM
  1 N        0.3500    -0.5880    -0.0370 N.4   1 <1>  -0.9590 
  2 C        1.6130     0.2430     0.0160 C.3   1 <1>   0.3430 
  3 C       -0.8270     0.1870     0.4680 C.3   1 <1>   0.3430 
  4 C        0.4640    -1.8730     0.7190 C.3   1 <1>   0.3430 
  5 C        2.8320    -0.3860    -0.7210 C.3   1 <1>   0.3430 
  6 C       -1.2430     1.2250    -0.5680 C.3   1 <1>  -0.2400 
  7 C       -0.5460    -2.8720     0.1680 C.3   1 <1>  -0.2400 
  8 N        4.0690     0.4770    -0.7760 N.4   1 <1>  -0.9590 
  9 C        4.7380     0.6990     0.5460 C.3   1 <1>   0.4860 
 10 C        3.8930     1.7650    -1.5330 C.3   1 <1>   0.2630 
 11 C        6.1370     1.2150     0.2790 C.ar  1 <1>  -0.1440 
 12 C        7.1640     0.3720    -0.1420 C.ar  1 <1>  -0.1440 
 13 C        6.3860     2.5700     0.4540 C.ar  1 <1>  -0.1500 
 14 C        8.4140     0.9110    -0.4060 C.ar  1 <1>  -0.1500 
 15 C        6.9890    -1.1330    -0.3200 C.3   1 <1>  -0.0970 
 16 C        7.6380     3.0930     0.1920 C.ar  1 <1>  -0.1500 
 17 C        8.6520     2.2630    -0.2430 C.ar  1 <1>  -0.1500 
 18 H        0.1200    -0.8320    -1.0130 H     1 <1>   0.4500 
 19 H        1.8740     0.4140     1.0470 H     1 <1>   0.0800 
 20 H        1.4130     1.2000    -0.4370 H     1 <1>   0.0800 
 21 H       -0.5930     0.6670     1.4050 H     1 <1>   0.0800 
 22 H       -1.6610    -0.4770     0.6360 H     1 <1>   0.0800 
 23 H        0.2880    -1.7090     1.7710 H     1 <1>   0.0800 
 24 H        1.4510    -2.2910     0.6040 H     1 <1>   0.0800 
 25 H        2.5330    -0.6110    -1.7320 H     1 <1>   0.0800 
 26 H        3.0830    -1.3180    -0.2400 H     1 <1>   0.0800 
 27 H       -0.4960     1.9840    -0.7030 H     1 <1>   0.0800 
 28 H       -2.1390     1.7150    -0.2260 H     1 <1>   0.0800 
 29 H       -1.4700     0.7600    -1.5110 H     1 <1>   0.0800 
 30 H       -1.5580    -2.5430     0.3210 H     1 <1>   0.0800 
 31 H       -0.4320    -3.8080     0.6860 H     1 <1>   0.0800 
 32 H       -0.3810    -3.0560    -0.8790 H     1 <1>   0.0800 
 33 H        4.7950    -0.0360    -1.3060 H     1 <1>   0.4500 
 34 H        4.8060    -0.2240     1.0980 H     1 <1>   0.0800 
 35 H        4.1910     1.4150     1.1370 H     1 <1>   0.0800 
 36 H        3.2390     2.4380    -1.0030 H     1 <1>   0.0800 
 37 H        3.4830     1.5760    -2.5120 H     1 <1>   0.0800 
 38 H        4.8470     2.2540    -1.6620 H     1 <1>   0.0800 
 39 H        5.6170     3.2410     0.7980 H     1 <1>   0.1500 
 40 H        9.2230     0.2820    -0.7380 H     1 <1>   0.1500 
 41 H        6.5090    -1.3510    -1.2560 H     1 <1>   0.0800 
 42 H        6.4220    -1.5570     0.4890 H     1 <1>   0.0800 
 43 H        7.9490    -1.6210    -0.3220 H     1 <1>   0.0800 
 44 H        7.8300     4.1450     0.3280 H     1 <1>   0.1500 
 45 H        9.6290     2.6670    -0.4490 H     1 <1>   0.1500 
@<TRIPOS>BOND
  1   1   2  1   
  2   1   3  1   
  3   1   4  1   
  4   1  18  1   
  5   2   5  1   
  6   2  19  1   
  7   2  20  1   
  8   3   6  1   
  9   3  21  1   
 10   3  22  1   
 11   4   7  1   
 12   4  23  1   
 13   4  24  1   
 14   5   8  1   
 15   5  25  1   
 16   5  26  1   
 17   6  27  1   
 18   6  28  1   
 19   6  29  1   
 20   7  30  1   
 21   7  31  1   
 22   7  32  1   
 23   8   9  1   
 24   8  10  1   
 25   8  33  1   
 26   9  11  1   
 27   9  34  1   
 28   9  35  1   
 29  10  36  1   
 30  10  37  1   
 31  10  38  1   
 32  11  12  ar  
 33  11  13  ar  
 34  12  14  ar  
 35  12  15  1   
 36  13  16  ar  
 37  13  39  1   
 38  14  17  ar  
 39  14  40  1   
 40  15  41  1   
 41  15  42  1   
 42  15  43  1   
 43  16  17  ar  
 44  16  44  1   
 45  17  45  1   
@<TRIPOS>SUBSTRUCTURE
  1 ****   8 GROUP 4 **** **** 0

# MOE 2024.06 (io_trps.svl 2023.06)
