@<TRIPOS>MOLECULE
NONAME
41 42 1 0 0 
SMALL
USER_CHARGES


@<TRIPOS>ATOM
  1 F       -0.7540     0.7730    -1.6940 F     1 <1>  -0.1900 
  2 C       -1.4780     1.3050    -0.7400 C.ar  1 <1>   0.1900 
  3 C       -0.8940     1.9520     0.3560 C.ar  1 <1>   0.0830 
  4 C       -2.8500     1.1900    -0.8780 C.ar  1 <1>  -0.1500 
  5 O        0.4360     2.1270     0.5990 O.3   1 <1>  -0.3630 
  6 C       -1.7460     2.4830     1.3140 C.ar  1 <1>  -0.1500 
  7 C       -3.6760     1.7290     0.0930 C.ar  1 <1>  -0.1500 
  8 C        1.4420     1.6500    -0.2650 C.3   1 <1>   0.1200 
  9 C       -3.1220     2.3740     1.1870 C.ar  1 <1>  -0.1500 
 10 C        2.7990     2.0270     0.3290 C.3   1 <1>  -0.1600 
 11 C        3.9490     1.5440    -0.5650 C.3   1 <1>  -0.1600 
 12 C        5.3090     1.9270     0.0340 C.3   1 <1>  -0.1600 
 13 C        6.4690     1.4590    -0.8510 C.3   1 <1>   0.0210 
 14 C        7.7980     1.8640    -0.2380 C.2   1 <1>  -0.1810 
 15 C        8.4780     3.0630    -0.4460 C.2   1 <1>   0.1080 
 16 C        8.5800     1.1690     0.6180 C.2   1 <1>  -0.3320 
 17 N        9.5900     3.1180     0.2150 N.2   1 <1>  -0.7070 
 18 C        8.0200     4.1990    -1.3320 C.3   1 <1>  -0.0590 
 19 N        9.6520     1.9480     0.8720 N.pl3 1 <1>   0.3000 
 20 C        8.3880    -0.2050     1.2350 C.3   1 <1>  -0.0600 
 21 H       -3.2620     0.6850    -1.7340 H     1 <1>   0.1500 
 22 H       -1.3220     2.9850     2.1650 H     1 <1>   0.1500 
 23 H       -4.7460     1.6460    -0.0010 H     1 <1>   0.1500 
 24 H        1.3090     2.1110    -1.2280 H     1 <1>   0.0800 
 25 H        1.3450     0.5810    -0.3430 H     1 <1>   0.0800 
 26 H       -3.7640     2.7940     1.9430 H     1 <1>   0.1500 
 27 H        2.8900     1.5800     1.3040 H     1 <1>   0.0800 
 28 H        2.8500     3.0970     0.4340 H     1 <1>   0.0800 
 29 H        3.8510     1.9860    -1.5420 H     1 <1>   0.0800 
 30 H        3.8940     0.4740    -0.6720 H     1 <1>   0.0800 
 31 H        5.4140     1.4840     1.0090 H     1 <1>   0.0800 
 32 H        5.3650     2.9950     0.1510 H     1 <1>   0.0800 
 33 H        6.3820     1.8870    -1.8340 H     1 <1>   0.0800 
 34 H        6.4370     0.3900    -0.9580 H     1 <1>   0.0800 
 35 H        6.9980     4.4460    -1.1160 H     1 <1>   0.0800 
 36 H        8.1110     3.9110    -2.3620 H     1 <1>   0.0800 
 37 H        8.6310     5.0660    -1.1570 H     1 <1>   0.0800 
 38 H       10.4390     1.7110     1.4870 H     1 <1>   0.2700 
 39 H        7.4480    -0.6290     0.9320 H     1 <1>   0.0800 
 40 H        8.3960    -0.1330     2.3080 H     1 <1>   0.0800 
 41 H        9.1770    -0.8650     0.9220 H     1 <1>   0.0800 
@<TRIPOS>BOND
  1   1   2  1   
  2   2   3  ar  
  3   2   4  ar  
  4   3   5  1   
  5   3   6  ar  
  6   4   7  ar  
  7   4  21  1   
  8   5   8  1   
  9   6   9  ar  
 10   6  22  1   
 11   7   9  ar  
 12   7  23  1   
 13   8  10  1   
 14   8  24  1   
 15   8  25  1   
 16   9  26  1   
 17  10  11  1   
 18  10  27  1   
 19  10  28  1   
 20  11  12  1   
 21  11  29  1   
 22  11  30  1   
 23  12  13  1   
 24  12  31  1   
 25  12  32  1   
 26  13  14  1   
 27  13  33  1   
 28  13  34  1   
 29  14  15  1   
 30  14  16  2   
 31  15  17  2   
 32  15  18  1   
 33  16  19  1   
 34  16  20  1   
 35  17  19  1   
 36  18  35  1   
 37  18  36  1   
 38  18  37  1   
 39  19  38  1   
 40  20  39  1   
 41  20  40  1   
 42  20  41  1   
@<TRIPOS>SUBSTRUCTURE
  1 ****  10 GROUP 4 **** **** 0

# MOE 2024.06 (io_trps.svl 2023.06)
