@<TRIPOS>MOLECULE
NONAME
48 50 1 0 0 
SMALL
USER_CHARGES


@<TRIPOS>ATOM
  1 O        6.4230     1.2930    -3.3860 O.3   1 <1>  -0.5320 
  2 C        6.9790     1.6920    -2.2330 C.ar  1 <1>   0.0820 
  3 C        6.2750     1.5860    -1.0450 C.ar  1 <1>  -0.1500 
  4 C        8.2620     2.2080    -2.2450 C.ar  1 <1>  -0.1500 
  5 C        6.8550     2.0000     0.1450 C.ar  1 <1>  -0.1430 
  6 C        8.8470     2.6170    -1.0600 C.ar  1 <1>  -0.1500 
  7 C        8.1460     2.5130     0.1300 C.ar  1 <1>  -0.1500 
  8 C        6.0760     1.8980     1.4470 C.3   1 <1>   0.2530 
  9 N        4.8900     2.7760     1.4010 N.3   1 <1>  -0.8100 
 10 C        4.0140     2.5900     2.5790 C.3   1 <1>   0.1100 
 11 C        5.2590     4.2080     1.2400 C.3   1 <1>   0.1100 
 12 C        2.7230     3.4440     2.4830 C.3   1 <1>   0.3430 
 13 C        4.0270     5.1450     1.2520 C.3   1 <1>   0.3430 
 14 N        2.7560     4.3540     1.2890 N.4   1 <1>  -0.9590 
 15 C        1.5380     5.1600     1.0830 C.3   1 <1>   0.4810 
 16 C        0.4500     4.2090     0.6470 C.2   1 <1>  -0.2880 
 17 C        0.0150     4.0790    -0.6190 C.2   1 <1>  -0.1780 
 18 C       -1.0090     3.1870    -1.1190 C.ar  1 <1>   0.0280 
 19 C       -1.1260     2.9640    -2.4890 C.ar  1 <1>  -0.1500 
 20 C       -1.9020     2.5240    -0.2790 C.ar  1 <1>  -0.1500 
 21 C       -2.0870     2.1110    -3.0010 C.ar  1 <1>  -0.1500 
 22 C       -2.8640     1.6690    -0.7840 C.ar  1 <1>  -0.1500 
 23 C       -2.9580     1.4590    -2.1480 C.ar  1 <1>  -0.1500 
 24 H        5.5480     0.8840    -3.2700 H     1 <1>   0.4500 
 25 H        5.2770     1.1870    -1.0400 H     1 <1>   0.1500 
 26 H        8.7940     2.2820    -3.1770 H     1 <1>   0.1500 
 27 H        9.8470     3.0150    -1.0660 H     1 <1>   0.1500 
 28 H        8.6160     2.8340     1.0440 H     1 <1>   0.1500 
 29 H        6.7040     2.1650     2.2800 H     1 <1>   0.0800 
 30 H        5.7630     0.8760     1.5780 H     1 <1>   0.0800 
 31 H        3.7350     1.5530     2.6610 H     1 <1>   0.0800 
 32 H        4.5480     2.8540     3.4770 H     1 <1>   0.0800 
 33 H        5.9370     4.5050     2.0220 H     1 <1>   0.0800 
 34 H        5.7730     4.3410     0.3030 H     1 <1>   0.0800 
 35 H        2.6100     4.0180     3.3870 H     1 <1>   0.0800 
 36 H        1.8780     2.7790     2.4090 H     1 <1>   0.0800 
 37 H        4.0540     5.7640     0.3700 H     1 <1>   0.0800 
 38 H        4.0830     5.7930     2.1110 H     1 <1>   0.0800 
 39 H        2.8430     3.7050     0.4920 H     1 <1>   0.4500 
 40 H        1.2570     5.6820     1.9830 H     1 <1>   0.0800 
 41 H        1.7080     5.8820     0.3010 H     1 <1>   0.0800 
 42 H        0.0500     3.6310     1.4590 H     1 <1>   0.1500 
 43 H        0.4530     4.6830    -1.3960 H     1 <1>   0.1500 
 44 H       -0.4590     3.4610    -3.1690 H     1 <1>   0.1500 
 45 H       -1.8590     2.6750     0.7830 H     1 <1>   0.1500 
 46 H       -2.1590     1.9530    -4.0630 H     1 <1>   0.1500 
 47 H       -3.5440     1.1660    -0.1180 H     1 <1>   0.1500 
 48 H       -3.7070     0.7950    -2.5430 H     1 <1>   0.1500 
@<TRIPOS>BOND
  1   1   2  1   
  2   1  24  1   
  3   2   3  ar  
  4   2   4  ar  
  5   3   5  ar  
  6   3  25  1   
  7   4   6  ar  
  8   4  26  1   
  9   5   7  ar  
 10   5   8  1   
 11   6   7  ar  
 12   6  27  1   
 13   7  28  1   
 14   8   9  1   
 15   8  29  1   
 16   8  30  1   
 17   9  10  1   
 18   9  11  1   
 19  10  12  1   
 20  10  31  1   
 21  10  32  1   
 22  11  13  1   
 23  11  33  1   
 24  11  34  1   
 25  12  14  1   
 26  12  35  1   
 27  12  36  1   
 28  13  14  1   
 29  13  37  1   
 30  13  38  1   
 31  14  15  1   
 32  14  39  1   
 33  15  16  1   
 34  15  40  1   
 35  15  41  1   
 36  16  17  2   
 37  16  42  1   
 38  17  18  1   
 39  17  43  1   
 40  18  19  ar  
 41  18  20  ar  
 42  19  21  ar  
 43  19  44  1   
 44  20  22  ar  
 45  20  45  1   
 46  21  23  ar  
 47  21  46  1   
 48  22  23  ar  
 49  22  47  1   
 50  23  48  1   
@<TRIPOS>SUBSTRUCTURE
  1 ****  14 GROUP 4 **** **** 0

# MOE 2024.06 (io_trps.svl 2023.06)
