@<TRIPOS>MOLECULE
NONAME
31 32 1 0 0 
SMALL
USER_CHARGES


@<TRIPOS>ATOM
  1 CL      -0.8580     0.0120    -2.4590 Cl    1 <1>  -0.1770 
  2 C       -1.7210    -0.9370    -1.2580 C.ar  1 <1>   0.1770 
  3 C       -3.1050    -0.9500    -1.2520 C.ar  1 <1>   0.1770 
  4 C       -0.9900    -1.6720    -0.3260 C.ar  1 <1>   0.1170 
  5 CL      -4.0120    -0.0210    -2.4240 Cl    1 <1>  -0.1770 
  6 C       -3.8000    -1.6980    -0.3200 C.ar  1 <1>  -0.1500 
  7 N        0.4170    -1.6350    -0.3660 N.am  1 <1>  -0.5470 
  8 C       -1.7040    -2.4280     0.6030 C.ar  1 <1>  -0.1500 
  9 C       -3.0900    -2.4410     0.6090 C.ar  1 <1>  -0.1500 
 10 C        1.3600    -1.9270     0.5730 C.2   1 <1>   0.6900 
 11 O        1.0660    -2.2400     1.7080 O.2   1 <1>  -0.5700 
 12 N        2.6570    -1.8410     0.1960 N.am  1 <1>  -0.7300 
 13 C        3.8140    -2.1040     1.0680 C.3   1 <1>   0.2200 
 14 C        4.7850    -0.9360     0.9560 C.3   1 <1>  -0.1600 
 15 C        4.6040    -3.2730     0.4940 C.3   1 <1>  -0.1600 
 16 C        5.5890    -1.1820    -0.3270 C.3   1 <1>  -0.1600 
 17 C        5.4730    -2.6830    -0.6230 C.3   1 <1>  -0.1600 
 18 H       -4.8750    -1.6990    -0.3240 H     1 <1>   0.1500 
 19 H        0.8000    -1.1820    -1.1930 H     1 <1>   0.3700 
 20 H       -1.1790    -3.0190     1.3320 H     1 <1>   0.1500 
 21 H       -3.6160    -3.0320     1.3420 H     1 <1>   0.1500 
 22 H        2.9010    -1.6810    -0.7770 H     1 <1>   0.3700 
 23 H        3.5000    -2.2790     2.0850 H     1 <1>   0.0800 
 24 H        5.4540    -0.9700     1.7980 H     1 <1>   0.0800 
 25 H        4.2810     0.0150     0.9580 H     1 <1>   0.0800 
 26 H        3.9640    -4.0680     0.1520 H     1 <1>   0.0800 
 27 H        5.2440    -3.6600     1.2670 H     1 <1>   0.0800 
 28 H        6.6160    -0.8850    -0.1970 H     1 <1>   0.0800 
 29 H        5.1660    -0.6170    -1.1400 H     1 <1>   0.0800 
 30 H        4.9960    -2.8300    -1.5760 H     1 <1>   0.0800 
 31 H        6.4400    -3.1560    -0.6440 H     1 <1>   0.0800 
@<TRIPOS>BOND
  1   1   2  1   
  2   2   3  ar  
  3   2   4  ar  
  4   3   5  1   
  5   3   6  ar  
  6   4   7  1   
  7   4   8  ar  
  8   6   9  ar  
  9   6  18  1   
 10   7  10  am  
 11   7  19  1   
 12   8   9  ar  
 13   8  20  1   
 14   9  21  1   
 15  10  11  2   
 16  10  12  am  
 17  12  13  1   
 18  12  22  1   
 19  13  14  1   
 20  13  15  1   
 21  13  23  1   
 22  14  16  1   
 23  14  24  1   
 24  14  25  1   
 25  15  17  1   
 26  15  26  1   
 27  15  27  1   
 28  16  17  1   
 29  16  28  1   
 30  16  29  1   
 31  17  30  1   
 32  17  31  1   
@<TRIPOS>SUBSTRUCTURE
  1 ****   7 GROUP 4 **** **** 0

# MOE 2024.06 (io_trps.svl 2023.06)
