@<TRIPOS>MOLECULE
NONAME
48 50 1 0 0 
SMALL
USER_CHARGES


@<TRIPOS>ATOM
  1 CL      -0.2400     0.0400     2.5780 Cl    1 <1>  -0.1770 
  2 C        1.1760     0.1110     1.5580 C.ar  1 <1>   0.1770 
  3 C        1.3760     1.2060     0.7300 C.ar  1 <1>  -0.1440 
  4 C        2.0680    -0.9440     1.5900 C.ar  1 <1>  -0.1500 
  5 C        2.5070     1.2350    -0.0750 C.ar  1 <1>  -0.1500 
  6 C        0.3820     2.3500     0.7110 C.3   1 <1>   0.4870 
  7 C        3.1880    -0.9080     0.7790 C.ar  1 <1>  -0.1500 
  8 C        3.4060     0.1800    -0.0500 C.ar  1 <1>  -0.1500 
  9 N       -0.4870     2.2110    -0.4890 N.4   1 <1>  -0.9590 
 10 C       -1.2590     3.4830    -0.7370 C.3   1 <1>   0.3430 
 11 C       -1.4100     1.0230    -0.3500 C.3   1 <1>   0.3430 
 12 C       -2.2350     3.3460    -1.9230 C.3   1 <1>   0.1400 
 13 C       -2.3940     0.8960    -1.5330 C.3   1 <1>   0.1400 
 14 N       -3.1360     2.1740    -1.7190 N.am  1 <1>  -0.6600 
 15 C       -4.2450     2.3610    -0.9470 C.2   1 <1>   0.6900 
 16 O       -4.1730     3.1130     0.0060 O.2   1 <1>  -0.5700 
 17 N       -5.3670     1.6600    -1.2630 N.am  1 <1>  -0.5470 
 18 C       -6.6010     1.5320    -0.6060 C.ar  1 <1>   0.1170 
 19 C       -7.7060     1.1140    -1.3400 C.ar  1 <1>  -0.1500 
 20 C       -6.7690     1.7870     0.7520 C.ar  1 <1>  -0.1500 
 21 C       -8.9410     0.9580    -0.7370 C.ar  1 <1>  -0.1500 
 22 C       -8.0020     1.6330     1.3610 C.ar  1 <1>  -0.1500 
 23 C       -9.1000     1.2150     0.6140 C.ar  1 <1>   0.0830 
 24 O      -10.3460     1.0370     1.1290 O.3   1 <1>  -0.3620 
 25 C      -10.6130     1.3120     2.4860 C.3   1 <1>   0.0400 
 26 H        1.8900    -1.7820     2.2420 H     1 <1>   0.1500 
 27 H        2.7110     2.0710    -0.7230 H     1 <1>   0.1500 
 28 H        0.9240     3.2810     0.6690 H     1 <1>   0.0800 
 29 H       -0.2150     2.3500     1.6080 H     1 <1>   0.0800 
 30 H        3.8930    -1.7240     0.7950 H     1 <1>   0.1500 
 31 H        4.2850     0.2030    -0.6740 H     1 <1>   0.1500 
 32 H        0.1290     2.0350    -1.2910 H     1 <1>   0.4500 
 33 H       -0.5800     4.2970    -0.9300 H     1 <1>   0.0800 
 34 H       -1.8350     3.7330     0.1400 H     1 <1>   0.0800 
 35 H       -1.9870     1.1220     0.5560 H     1 <1>   0.0800 
 36 H       -0.8330     0.1160    -0.2730 H     1 <1>   0.0800 
 37 H       -1.6930     3.2330    -2.8450 H     1 <1>   0.0800 
 38 H       -2.8280     4.2430    -1.9970 H     1 <1>   0.0800 
 39 H       -3.0870     0.0960    -1.3300 H     1 <1>   0.0800 
 40 H       -1.8610     0.6500    -2.4350 H     1 <1>   0.0800 
 41 H       -5.3340     1.2640    -2.1980 H     1 <1>   0.3700 
 42 H       -7.6070     0.9110    -2.3900 H     1 <1>   0.1500 
 43 H       -5.9350     2.1070     1.3480 H     1 <1>   0.1500 
 44 H       -9.7920     0.6360    -1.3090 H     1 <1>   0.1500 
 45 H       -8.0870     1.8420     2.4100 H     1 <1>   0.1500 
 46 H      -11.6540     1.1190     2.6670 H     1 <1>   0.0800 
 47 H      -10.3930     2.3470     2.6820 H     1 <1>   0.0800 
 48 H      -10.0090     0.6660     3.0980 H     1 <1>   0.0800 
@<TRIPOS>BOND
  1   1   2  1   
  2   2   3  ar  
  3   2   4  ar  
  4   3   5  ar  
  5   3   6  1   
  6   4   7  ar  
  7   4  26  1   
  8   5   8  ar  
  9   5  27  1   
 10   6   9  1   
 11   6  28  1   
 12   6  29  1   
 13   7   8  ar  
 14   7  30  1   
 15   8  31  1   
 16   9  10  1   
 17   9  11  1   
 18   9  32  1   
 19  10  12  1   
 20  10  33  1   
 21  10  34  1   
 22  11  13  1   
 23  11  35  1   
 24  11  36  1   
 25  12  14  1   
 26  12  37  1   
 27  12  38  1   
 28  13  14  1   
 29  13  39  1   
 30  13  40  1   
 31  14  15  am  
 32  15  16  2   
 33  15  17  am  
 34  17  18  1   
 35  17  41  1   
 36  18  19  ar  
 37  18  20  ar  
 38  19  21  ar  
 39  19  42  1   
 40  20  22  ar  
 41  20  43  1   
 42  21  23  ar  
 43  21  44  1   
 44  22  23  ar  
 45  22  45  1   
 46  23  24  1   
 47  24  25  1   
 48  25  46  1   
 49  25  47  1   
 50  25  48  1   
@<TRIPOS>SUBSTRUCTURE
  1 ****  15 GROUP 4 **** **** 0

# MOE 2024.06 (io_trps.svl 2023.06)
