@<TRIPOS>MOLECULE
NONAME
38 40 1 0 0 
SMALL
USER_CHARGES


@<TRIPOS>ATOM
  1 S       -0.8500     0.8080    -1.1780 S.3   1 <1>  -0.3710 
  2 C        0.6810     1.6990    -1.0270 C.2   1 <1>   0.6510 
  3 C       -1.3330     0.5100     0.5920 C.3   1 <1>   0.2110 
  4 N        1.4610     1.8900    -1.9930 N.2   1 <1>  -0.6960 
  5 N        1.0320     2.1940     0.1940 N.am  1 <1>  -0.4200 
  6 C       -2.7670    -0.0160     0.6870 C.2   1 <1>   0.5690 
  7 C       -1.1470     1.8250     1.3490 C.3   1 <1>  -0.0990 
  8 C        2.6180     2.6280    -1.4830 C.3   1 <1>   0.0860 
  9 C        0.2950     2.2810     1.3370 C.2   1 <1>   0.5690 
 10 C        2.3560     2.8080     0.0230 C.3   1 <1>   0.1400 
 11 O       -3.1840    -0.3470     1.7710 O.2   1 <1>  -0.5700 
 12 N       -3.5470    -0.0910    -0.4260 N.am  1 <1>  -0.7300 
 13 O        0.7580     2.7370     2.3520 O.2   1 <1>  -0.5700 
 14 C       -4.9420    -0.5880    -0.4650 C.3   1 <1>   0.1400 
 15 C       -5.9110     0.5920    -0.5360 C.3   1 <1>  -0.0170 
 16 C       -7.3450     0.0900    -0.5950 C.ar  1 <1>  -0.1440 
 17 C       -8.0000    -0.0350    -1.8100 C.ar  1 <1>  -0.1500 
 18 C       -8.0080    -0.2520     0.5740 C.ar  1 <1>  -0.1500 
 19 C       -9.3040    -0.4970    -1.8570 C.ar  1 <1>  -0.1500 
 20 C       -9.3120    -0.7150     0.5280 C.ar  1 <1>  -0.1500 
 21 C       -9.9610    -0.8370    -0.6880 C.ar  1 <1>  -0.1500 
 22 H       -0.6630    -0.2400     0.9720 H     1 <1>   0.0800 
 23 H       -1.4540     1.6880     2.3710 H     1 <1>   0.0800 
 24 H       -1.7660     2.5900     0.9180 H     1 <1>   0.0800 
 25 H        2.6950     3.5810    -1.9780 H     1 <1>   0.0800 
 26 H        3.5210     2.0660    -1.6520 H     1 <1>   0.0800 
 27 H        3.0900     2.2890     0.6140 H     1 <1>   0.0800 
 28 H        2.3310     3.8490     0.2970 H     1 <1>   0.0800 
 29 H       -3.1360     0.1800    -1.3260 H     1 <1>   0.3700 
 30 H       -5.1480    -1.1690     0.4190 H     1 <1>   0.0800 
 31 H       -5.0730    -1.2250    -1.3230 H     1 <1>   0.0800 
 32 H       -5.6990     1.1860    -1.4070 H     1 <1>   0.0800 
 33 H       -5.7850     1.2090     0.3360 H     1 <1>   0.0800 
 34 H       -7.5010     0.2260    -2.7270 H     1 <1>   0.1500 
 35 H       -7.5110    -0.1620     1.5250 H     1 <1>   0.1500 
 36 H       -9.8080    -0.5910    -2.8030 H     1 <1>   0.1500 
 37 H       -9.8210    -0.9790     1.4390 H     1 <1>   0.1500 
 38 H      -10.9740    -1.1960    -0.7240 H     1 <1>   0.1500 
@<TRIPOS>BOND
  1   1   2  1   
  2   1   3  1   
  3   2   4  2   
  4   2   5  1   
  5   3   6  1   
  6   3   7  1   
  7   3  22  1   
  8   4   8  1   
  9   5   9  am  
 10   5  10  1   
 11   6  11  2   
 12   6  12  am  
 13   7   9  1   
 14   7  23  1   
 15   7  24  1   
 16   8  10  1   
 17   8  25  1   
 18   8  26  1   
 19   9  13  2   
 20  10  27  1   
 21  10  28  1   
 22  12  14  1   
 23  12  29  1   
 24  14  15  1   
 25  14  30  1   
 26  14  31  1   
 27  15  16  1   
 28  15  32  1   
 29  15  33  1   
 30  16  17  ar  
 31  16  18  ar  
 32  17  19  ar  
 33  17  34  1   
 34  18  20  ar  
 35  18  35  1   
 36  19  21  ar  
 37  19  36  1   
 38  20  21  ar  
 39  20  37  1   
 40  21  38  1   
@<TRIPOS>SUBSTRUCTURE
  1 ****  12 GROUP 4 **** **** 0

# MOE 2024.06 (io_trps.svl 2023.06)
