@<TRIPOS>MOLECULE
NONAME
36 37 1 0 0 
SMALL
USER_CHARGES


@<TRIPOS>ATOM
  1 F        0.8360    -0.2290    -1.2170 F     1 <1>  -0.1900 
  2 C        0.7630    -1.4410    -0.7310 C.ar  1 <1>   0.1900 
  3 C        1.7010    -1.8670     0.2100 C.ar  1 <1>   0.0540 
  4 C       -0.2730    -2.2370    -1.1820 C.ar  1 <1>  -0.1500 
  5 C        2.7910    -1.0350     0.6700 C.2   1 <1>   0.4620 
  6 C        1.5350    -3.1640     0.7010 C.ar  1 <1>  -0.1500 
  7 C       -0.4030    -3.5190    -0.6790 C.ar  1 <1>  -0.1500 
  8 N        3.1270    -0.9630     1.9630 N.2   1 <1>  -0.2270 
  9 N        3.5540    -0.3150    -0.0840 N.2   1 <1>  -0.7070 
 10 C        0.5020    -3.9780     0.2640 C.ar  1 <1>  -0.1500 
 11 N        4.1210    -0.1750     2.0390 N.2   1 <1>  -0.4180 
 12 N        4.3770     0.2060     0.8010 N.pl3 1 <1>   0.5800 
 13 C        5.4220     1.1580     0.4290 C.3   1 <1>   0.1570 
 14 C        6.7860     0.6070     0.7680 C.2   1 <1>   0.5690 
 15 O        7.3930     1.1940     1.6340 O.2   1 <1>  -0.5700 
 16 N        7.3470    -0.4600     0.0970 N.am  1 <1>  -0.6600 
 17 C        8.7290    -0.9040     0.4330 C.3   1 <1>   0.1400 
 18 C        6.6830    -1.2380    -0.9880 C.3   1 <1>   0.1400 
 19 C        9.7290    -0.1950    -0.4780 C.3   1 <1>  -0.2400 
 20 C        6.1590    -2.5630    -0.4350 C.3   1 <1>  -0.2400 
 21 H       -0.9660    -1.8560    -1.9110 H     1 <1>   0.1500 
 22 H        2.2280    -3.5390     1.4350 H     1 <1>   0.1500 
 23 H       -1.2040    -4.1550    -1.0160 H     1 <1>   0.1500 
 24 H        0.4010    -4.9750     0.6600 H     1 <1>   0.1500 
 25 H        5.2560     2.0660     0.9750 H     1 <1>   0.0800 
 26 H        5.3580     1.3650    -0.6200 H     1 <1>   0.0800 
 27 H        8.8170    -1.9700     0.3170 H     1 <1>   0.0800 
 28 H        8.9500    -0.6700     1.4620 H     1 <1>   0.0800 
 29 H        7.3890    -1.4300    -1.7780 H     1 <1>   0.0800 
 30 H        5.8700    -0.6800    -1.4160 H     1 <1>   0.0800 
 31 H        9.5470    -0.4380    -1.5080 H     1 <1>   0.0800 
 32 H       10.7270    -0.5020    -0.2250 H     1 <1>   0.0800 
 33 H        9.6580     0.8700    -0.3410 H     1 <1>   0.0800 
 34 H        6.9700    -3.2030    -0.1410 H     1 <1>   0.0800 
 35 H        5.5900    -3.0690    -1.1950 H     1 <1>   0.0800 
 36 H        5.5190    -2.3960     0.4120 H     1 <1>   0.0800 
@<TRIPOS>BOND
  1   1   2  1   
  2   2   3  ar  
  3   2   4  ar  
  4   3   5  1   
  5   3   6  ar  
  6   4   7  ar  
  7   4  21  1   
  8   5   8  1   
  9   5   9  2   
 10   6  10  ar  
 11   6  22  1   
 12   7  10  ar  
 13   7  23  1   
 14   8  11  2   
 15   9  12  1   
 16  10  24  1   
 17  11  12  1   
 18  12  13  1   
 19  13  14  1   
 20  13  25  1   
 21  13  26  1   
 22  14  15  2   
 23  14  16  am  
 24  16  17  1   
 25  16  18  1   
 26  17  19  1   
 27  17  27  1   
 28  17  28  1   
 29  18  20  1   
 30  18  29  1   
 31  18  30  1   
 32  19  31  1   
 33  19  32  1   
 34  19  33  1   
 35  20  34  1   
 36  20  35  1   
 37  20  36  1   
@<TRIPOS>SUBSTRUCTURE
  1 ****   9 GROUP 4 **** **** 0

# MOE 2024.06 (io_trps.svl 2023.06)
