@<TRIPOS>MOLECULE
NONAME
41 41 1 0 0 
SMALL
USER_CHARGES


@<TRIPOS>ATOM
  1 O        6.0820     0.5270    -1.5780 O.2   1 <1>  -0.5700 
  2 C        5.8950     0.6820    -0.3880 C.2   1 <1>   0.7800 
  3 O        6.9370     0.6650     0.4560 O.3   1 <1>  -0.2320 
  4 N        4.6370     0.8150     0.1490 N.am  1 <1>  -0.6600 
  5 C        8.2500     0.6510     0.1000 C.ar  1 <1>   0.0830 
  6 C        4.3770     1.1240     1.5850 C.3   1 <1>   0.0600 
  7 C        3.4230     0.8850    -0.7150 C.3   1 <1>   0.0600 
  8 C        8.8420    -0.3690    -0.6460 C.ar  1 <1>  -0.1440 
  9 C        9.0220     1.7040     0.5590 C.ar  1 <1>  -0.1500 
 10 C       10.1980    -0.2930    -0.9260 C.ar  1 <1>  -0.1500 
 11 C        8.0710    -1.5700    -1.1580 C.3   1 <1>   0.4860 
 12 C       10.3760     1.7730     0.2810 C.ar  1 <1>  -0.1440 
 13 C       10.9690     0.7660    -0.4700 C.ar  1 <1>  -0.1430 
 14 N        7.4750    -2.2880     0.0030 N.4   1 <1>  -0.9590 
 15 C       11.1790     2.9560     0.8030 C.3   1 <1>  -0.0970 
 16 C       12.4530     0.8030    -0.8090 C.3   1 <1>  -0.0970 
 17 C        8.5270    -2.9460     0.8360 C.3   1 <1>   0.2630 
 18 C        6.4140    -3.2380    -0.4390 C.3   1 <1>   0.2630 
 19 H        5.2790     1.0780     2.1700 H     1 <1>   0.0800 
 20 H        3.6710     0.4180     1.9870 H     1 <1>   0.0800 
 21 H        3.9660     2.1150     1.6730 H     1 <1>   0.0800 
 22 H        3.6600     0.6420    -1.7370 H     1 <1>   0.0800 
 23 H        3.0160     1.8810    -0.6880 H     1 <1>   0.0800 
 24 H        2.6800     0.1920    -0.3610 H     1 <1>   0.0800 
 25 H        8.5510     2.4790     1.1380 H     1 <1>   0.1500 
 26 H       10.6720    -1.0640    -1.5100 H     1 <1>   0.1500 
 27 H        8.7310    -2.2270    -1.6980 H     1 <1>   0.0800 
 28 H        7.3020    -1.2460    -1.8380 H     1 <1>   0.0800 
 29 H        7.0430    -1.5420     0.5720 H     1 <1>   0.4500 
 30 H       10.5570     3.6300     1.3640 H     1 <1>   0.0800 
 31 H       11.6080     3.5020    -0.0180 H     1 <1>   0.0800 
 32 H       11.9690     2.6130     1.4470 H     1 <1>   0.0800 
 33 H       12.7420    -0.0490    -1.3970 H     1 <1>   0.0800 
 34 H       13.0380     0.8040     0.0920 H     1 <1>   0.0800 
 35 H       12.6790     1.6910    -1.3730 H     1 <1>   0.0800 
 36 H        9.0350    -3.7070     0.2660 H     1 <1>   0.0800 
 37 H        8.0840    -3.4020     1.7060 H     1 <1>   0.0800 
 38 H        9.2530    -2.2180     1.1630 H     1 <1>   0.0800 
 39 H        6.8370    -4.0100    -1.0620 H     1 <1>   0.0800 
 40 H        5.6570    -2.7150    -1.0020 H     1 <1>   0.0800 
 41 H        5.9470    -3.7000     0.4160 H     1 <1>   0.0800 
@<TRIPOS>BOND
  1   1   2  2   
  2   2   3  1   
  3   2   4  am  
  4   3   5  1   
  5   4   6  1   
  6   4   7  1   
  7   5   8  ar  
  8   5   9  ar  
  9   6  19  1   
 10   6  20  1   
 11   6  21  1   
 12   7  22  1   
 13   7  23  1   
 14   7  24  1   
 15   8  10  ar  
 16   8  11  1   
 17   9  12  ar  
 18   9  25  1   
 19  10  13  ar  
 20  10  26  1   
 21  11  14  1   
 22  11  27  1   
 23  11  28  1   
 24  12  13  ar  
 25  12  15  1   
 26  13  16  1   
 27  14  17  1   
 28  14  18  1   
 29  14  29  1   
 30  15  30  1   
 31  15  31  1   
 32  15  32  1   
 33  16  33  1   
 34  16  34  1   
 35  16  35  1   
 36  17  36  1   
 37  17  37  1   
 38  17  38  1   
 39  18  39  1   
 40  18  40  1   
 41  18  41  1   
@<TRIPOS>SUBSTRUCTURE
  1 ****   5 GROUP 4 **** **** 0

# MOE 2024.06 (io_trps.svl 2023.06)
