@<TRIPOS>MOLECULE
NONAME
25 25 1 0 0 
SMALL
USER_CHARGES


@<TRIPOS>ATOM
  1 CL       0.2870     0.1070     0.0480 Cl    1 <1>  -0.1770 
  2 C        2.0270    -0.0200     0.0090 C.ar  1 <1>   0.1770 
  3 C        2.6200    -1.2560     0.1750 C.ar  1 <1>  -0.1500 
  4 C        2.7870     1.1140    -0.1860 C.ar  1 <1>  -0.1500 
  5 C        4.0080    -1.3780     0.1490 C.ar  1 <1>  -0.1440 
  6 C        4.1630     1.0000    -0.2130 C.ar  1 <1>  -0.1500 
  7 C        4.7920    -0.2330    -0.0500 C.ar  1 <1>   0.1170 
  8 C        4.6670    -2.7510     0.3200 C.3   1 <1>   1.1640 
  9 N        6.1970    -0.3020    -0.0700 N.am  1 <1>  -0.5470 
 10 F        3.8140    -3.7060     0.6730 F     1 <1>  -0.3400 
 11 F        5.2530    -3.1730    -0.7930 F     1 <1>  -0.3400 
 12 F        5.6130    -2.7430     1.2550 F     1 <1>  -0.3400 
 13 C        7.0920     0.3810    -0.8470 C.2   1 <1>   0.5690 
 14 O        6.7670     1.1860    -1.6820 O.2   1 <1>  -0.5700 
 15 C        8.5680     0.0870    -0.6470 C.3   1 <1>  -0.0990 
 16 C        9.0820     0.5010     0.7420 C.3   1 <1>  -0.2400 
 17 H        1.9780    -2.1080     0.3200 H     1 <1>   0.1500 
 18 H        2.3070     2.0680    -0.3160 H     1 <1>   0.1500 
 19 H        4.7570     1.8850    -0.3650 H     1 <1>   0.1500 
 20 H        6.6260    -0.9710     0.5730 H     1 <1>   0.3700 
 21 H        9.1240     0.6180    -1.3990 H     1 <1>   0.0800 
 22 H        8.7360    -0.9630    -0.8020 H     1 <1>   0.0800 
 23 H        8.9150     1.5530     0.8980 H     1 <1>   0.0800 
 24 H       10.1390     0.3090     0.8150 H     1 <1>   0.0800 
 25 H        8.5800    -0.0480     1.5190 H     1 <1>   0.0800 
@<TRIPOS>BOND
  1   1   2  1   
  2   2   3  ar  
  3   2   4  ar  
  4   3   5  ar  
  5   3  17  1   
  6   4   6  ar  
  7   4  18  1   
  8   5   7  ar  
  9   5   8  1   
 10   6   7  ar  
 11   6  19  1   
 12   7   9  1   
 13   8  10  1   
 14   8  11  1   
 15   8  12  1   
 16   9  13  am  
 17   9  20  1   
 18  13  14  2   
 19  13  15  1   
 20  15  16  1   
 21  15  21  1   
 22  15  22  1   
 23  16  23  1   
 24  16  24  1   
 25  16  25  1   
@<TRIPOS>SUBSTRUCTURE
  1 ****   7 GROUP 4 **** **** 0

# MOE 2024.06 (io_trps.svl 2023.06)
