@<TRIPOS>MOLECULE
NONAME
38 40 1 0 0 
SMALL
USER_CHARGES


@<TRIPOS>ATOM
  1 S       -0.0320     0.3880    -1.3560 S.o2  1 <1>   1.4470 
  2 O        0.4410    -0.9570    -1.1130 O.2   1 <1>  -0.6500 
  3 O        0.2870     1.0400    -2.6090 O.2   1 <1>  -0.6500 
  4 N        0.5810     1.3710    -0.1190 N.am  1 <1>  -0.8490 
  5 C       -1.8240     0.4340    -1.0660 C.ar  1 <1>  -0.0090 
  6 C        2.0240     1.1630     0.0560 C.3   1 <1>   0.1960 
  7 C        0.2860     2.7900    -0.3480 C.3   1 <1>   0.1960 
  8 C       -2.3520     0.0950     0.1710 C.ar  1 <1>  -0.1500 
  9 C       -2.7090     0.8070    -2.0770 C.ar  1 <1>  -0.1500 
 10 C        2.5480     1.9440     1.2740 C.3   1 <1>  -0.0800 
 11 C        0.7210     3.6210     0.8620 C.3   1 <1>  -0.1600 
 12 C       -3.7230     0.1220     0.4220 C.ar  1 <1>   0.0280 
 13 C       -4.0730     0.8440    -1.8560 C.ar  1 <1>  -0.1500 
 14 C        2.2160     3.4390     1.1510 C.3   1 <1>  -0.1600 
 15 C        4.0600     1.7470     1.4420 C.3   1 <1>  -0.2400 
 16 C       -4.5820     0.5040    -0.6140 C.ar  1 <1>   0.0820 
 17 C       -4.3000    -0.2220     1.6840 C.2   1 <1>  -0.1780 
 18 O       -5.9210     0.5460    -0.4180 O.3   1 <1>  -0.2320 
 19 C       -5.6410    -0.1660     1.8290 C.2   1 <1>  -0.1360 
 20 C       -6.4910     0.2300     0.7500 C.2   1 <1>   0.7060 
 21 O       -7.6990     0.2930     0.8440 O.2   1 <1>  -0.5700 
 22 H        2.5470     1.4710    -0.8350 H     1 <1>   0.0800 
 23 H        2.2230     0.1150     0.2140 H     1 <1>   0.0800 
 24 H       -0.7720     2.9240    -0.5010 H     1 <1>   0.0800 
 25 H        0.8000     3.1360    -1.2310 H     1 <1>   0.0800 
 26 H       -1.6800    -0.1970     0.9600 H     1 <1>   0.1500 
 27 H       -2.3200     1.0710    -3.0480 H     1 <1>   0.1500 
 28 H        2.0600     1.5510     2.1490 H     1 <1>   0.0800 
 29 H        0.1430     3.3190     1.7180 H     1 <1>   0.0800 
 30 H        0.5140     4.6600     0.6750 H     1 <1>   0.0800 
 31 H       -4.7470     1.1340    -2.6440 H     1 <1>   0.1500 
 32 H        2.7860     3.8710     0.3470 H     1 <1>   0.0800 
 33 H        2.4760     3.9510     2.0610 H     1 <1>   0.0800 
 34 H        4.5920     2.1170     0.5820 H     1 <1>   0.0800 
 35 H        4.2880     0.7020     1.5630 H     1 <1>   0.0800 
 36 H        4.4100     2.2710     2.3140 H     1 <1>   0.0800 
 37 H       -3.6410    -0.5180     2.4820 H     1 <1>   0.1500 
 38 H       -6.1380    -0.4110     2.7480 H     1 <1>   0.1500 
@<TRIPOS>BOND
  1   1   2  2   
  2   1   3  2   
  3   1   4  am  
  4   1   5  1   
  5   4   6  1   
  6   4   7  1   
  7   5   8  ar  
  8   5   9  ar  
  9   6  10  1   
 10   6  22  1   
 11   6  23  1   
 12   7  11  1   
 13   7  24  1   
 14   7  25  1   
 15   8  12  ar  
 16   8  26  1   
 17   9  13  ar  
 18   9  27  1   
 19  10  14  1   
 20  10  15  1   
 21  10  28  1   
 22  11  14  1   
 23  11  29  1   
 24  11  30  1   
 25  12  16  ar  
 26  12  17  1   
 27  13  16  ar  
 28  13  31  1   
 29  14  32  1   
 30  14  33  1   
 31  15  34  1   
 32  15  35  1   
 33  15  36  1   
 34  16  18  1   
 35  17  19  2   
 36  17  37  1   
 37  18  20  1   
 38  19  20  1   
 39  19  38  1   
 40  20  21  2   
@<TRIPOS>SUBSTRUCTURE
  1 ****   8 GROUP 4 **** **** 0

# MOE 2024.06 (io_trps.svl 2023.06)
