@<TRIPOS>MOLECULE
NONAME
33 33 1 0 0 
SMALL
USER_CHARGES


@<TRIPOS>ATOM
  1 S        0.0520    -0.2330    -0.0030 S.o2  1 <1>   1.4470 
  2 O        0.3890    -1.0340    -1.1580 O.2   1 <1>  -0.6500 
  3 O        0.0670    -0.8190     1.3190 O.2   1 <1>  -0.6500 
  4 N       -1.5510     0.1500    -0.3310 N.am  1 <1>  -0.9140 
  5 C        0.8990     1.3710    -0.0060 C.ar  1 <1>  -0.0090 
  6 C       -2.4800    -0.8490     0.1600 C.3   1 <1>   0.1960 
  7 C        2.2860     1.4250    -0.1010 C.ar  1 <1>   0.0830 
  8 C        0.2020     2.5700     0.1090 C.ar  1 <1>  -0.1500 
  9 C       -3.8810    -0.5010    -0.3390 C.3   1 <1>  -0.1600 
 10 O        2.9510     0.2450    -0.1820 O.3   1 <1>  -0.3620 
 11 C        2.9450     2.6520    -0.1040 C.ar  1 <1>  -0.1500 
 12 C        0.8510     3.7940     0.1100 C.ar  1 <1>  -0.1430 
 13 C       -4.9180    -1.5160     0.1560 C.3   1 <1>  -0.2400 
 14 C        4.3550     0.1730    -0.2930 C.3   1 <1>   0.0400 
 15 C        2.2280     3.8280    -0.0020 C.ar  1 <1>  -0.1500 
 16 C        0.0570     5.0820     0.2310 C.3   1 <1>  -0.0970 
 17 H       -1.5780     0.0950    -1.3470 H     1 <1>   0.4200 
 18 H       -2.4680    -0.8570     1.2390 H     1 <1>   0.0800 
 19 H       -2.1920    -1.8270    -0.1930 H     1 <1>   0.0800 
 20 H       -0.8700     2.5520     0.2030 H     1 <1>   0.1500 
 21 H       -3.8890    -0.4900    -1.4150 H     1 <1>   0.0800 
 22 H       -4.1500     0.4780     0.0180 H     1 <1>   0.0800 
 23 H        4.0140     2.7130    -0.1840 H     1 <1>   0.1500 
 24 H       -4.6820    -2.5030    -0.2010 H     1 <1>   0.0800 
 25 H       -5.8960    -1.2480    -0.2040 H     1 <1>   0.0800 
 26 H       -4.9440    -1.5330     1.2320 H     1 <1>   0.0800 
 27 H        4.6300    -0.8650    -0.3470 H     1 <1>   0.0800 
 28 H        4.7980     0.6230     0.5770 H     1 <1>   0.0800 
 29 H        4.6610     0.6780    -1.1910 H     1 <1>   0.0800 
 30 H        2.7480     4.7710    -0.0070 H     1 <1>   0.1500 
 31 H       -0.8190     4.9290     0.8360 H     1 <1>   0.0800 
 32 H       -0.2490     5.4140    -0.7440 H     1 <1>   0.0800 
 33 H        0.6530     5.8510     0.6890 H     1 <1>   0.0800 
@<TRIPOS>BOND
  1   1   2  2   
  2   1   3  2   
  3   1   4  am  
  4   1   5  1   
  5   4   6  1   
  6   4  17  1   
  7   5   7  ar  
  8   5   8  ar  
  9   6   9  1   
 10   6  18  1   
 11   6  19  1   
 12   7  10  1   
 13   7  11  ar  
 14   8  12  ar  
 15   8  20  1   
 16   9  13  1   
 17   9  21  1   
 18   9  22  1   
 19  10  14  1   
 20  11  15  ar  
 21  11  23  1   
 22  12  15  ar  
 23  12  16  1   
 24  13  24  1   
 25  13  25  1   
 26  13  26  1   
 27  14  27  1   
 28  14  28  1   
 29  14  29  1   
 30  15  30  1   
 31  16  31  1   
 32  16  32  1   
 33  16  33  1   
@<TRIPOS>SUBSTRUCTURE
  1 ****   5 GROUP 4 **** **** 0

# MOE 2024.06 (io_trps.svl 2023.06)
