@<TRIPOS>MOLECULE
NONAME
43 46 1 0 0 
SMALL
USER_CHARGES


@<TRIPOS>ATOM
  1 N       -0.0970    -0.0890     0.0430 N.ar  1 <1>  -0.6200 
  2 C       -0.2250    -1.4270     0.1200 C.ar  1 <1>   0.6200 
  3 C       -1.1560     0.6210    -0.1910 C.ar  1 <1>   0.4100 
  4 N       -1.3520    -2.0740    -0.0230 N.ar  1 <1>  -0.6200 
  5 C        0.9870    -2.1840     0.3820 C.ar  1 <1>   0.0000 
  6 N       -1.0040     1.9800    -0.2800 N.pl3 1 <1>  -0.8690 
  7 C       -2.4310     0.0310    -0.3610 C.ar  1 <1>   0.0000 
  8 C       -2.4660    -1.3620    -0.2670 C.ar  1 <1>   0.3100 
  9 C        0.9320    -3.4800     0.9020 C.ar  1 <1>   0.1600 
 10 C        2.2590    -1.6730     0.1340 C.ar  1 <1>  -0.1500 
 11 C        0.2470     2.7340    -0.0900 C.3   1 <1>   0.2890 
 12 C       -3.6350     0.7220    -0.6100 C.ar  1 <1>  -0.1500 
 13 C       -3.6890    -2.0290    -0.4280 C.ar  1 <1>  -0.1500 
 14 N        1.9680    -4.2580     1.1800 N.ar  1 <1>  -0.6200 
 15 C        3.3510    -2.4640     0.4150 C.ar  1 <1>  -0.1500 
 16 C       -0.0560     3.9850     0.7390 C.3   1 <1>  -0.1600 
 17 C        0.8140     3.1020    -1.4640 C.3   1 <1>  -0.1600 
 18 C       -4.8210     0.0500    -0.7640 C.ar  1 <1>  -0.1500 
 19 C       -4.8490    -1.3420    -0.6720 C.ar  1 <1>  -0.1500 
 20 C        3.1540    -3.7320     0.9300 C.ar  1 <1>   0.1600 
 21 C        1.1890     4.8740     0.8790 C.3   1 <1>  -0.1600 
 22 C        2.0600     3.9910    -1.3340 C.3   1 <1>  -0.1600 
 23 C        1.7630     5.2430    -0.4960 C.3   1 <1>  -0.1600 
 24 H       -1.7980     2.5520    -0.5580 H     1 <1>   0.4000 
 25 H       -0.0380    -3.9020     1.1040 H     1 <1>   0.1500 
 26 H        2.3880    -0.6830    -0.2680 H     1 <1>   0.1500 
 27 H        0.9680     2.1330     0.4400 H     1 <1>   0.0800 
 28 H       -3.6210     1.7940    -0.6790 H     1 <1>   0.1500 
 29 H       -3.6880    -3.1010    -0.3530 H     1 <1>   0.1500 
 30 H        4.3480    -2.1030     0.2370 H     1 <1>   0.1500 
 31 H       -0.3920     3.6860     1.7170 H     1 <1>   0.0800 
 32 H       -0.8370     4.5510     0.2650 H     1 <1>   0.0800 
 33 H        0.0650     3.6250    -2.0320 H     1 <1>   0.0800 
 34 H        1.0710     2.1990    -1.9900 H     1 <1>   0.0800 
 35 H       -5.7370     0.5840    -0.9540 H     1 <1>   0.1500 
 36 H       -5.7840    -1.8620    -0.7950 H     1 <1>   0.1500 
 37 H        4.0140    -4.3440     1.1460 H     1 <1>   0.1500 
 38 H        1.9390     4.3500     1.4480 H     1 <1>   0.0800 
 39 H        0.9350     5.7710     1.4170 H     1 <1>   0.0800 
 40 H        2.3990     4.2830    -2.3130 H     1 <1>   0.0800 
 41 H        2.8500     3.4290    -0.8660 H     1 <1>   0.0800 
 42 H        2.6680     5.8130    -0.3680 H     1 <1>   0.0800 
 43 H        1.0570     5.8630    -1.0220 H     1 <1>   0.0800 
@<TRIPOS>BOND
  1   1   2  ar  
  2   1   3  ar  
  3   2   4  ar  
  4   2   5  1   
  5   3   6  1   
  6   3   7  ar  
  7   4   8  ar  
  8   5   9  ar  
  9   5  10  ar  
 10   6  11  1   
 11   6  24  1   
 12   7   8  ar  
 13   7  12  ar  
 14   8  13  ar  
 15   9  14  ar  
 16   9  25  1   
 17  10  15  ar  
 18  10  26  1   
 19  11  16  1   
 20  11  17  1   
 21  11  27  1   
 22  12  18  ar  
 23  12  28  1   
 24  13  19  ar  
 25  13  29  1   
 26  14  20  ar  
 27  15  20  ar  
 28  15  30  1   
 29  16  21  1   
 30  16  31  1   
 31  16  32  1   
 32  17  22  1   
 33  17  33  1   
 34  17  34  1   
 35  18  19  ar  
 36  18  35  1   
 37  19  36  1   
 38  20  37  1   
 39  21  23  1   
 40  21  38  1   
 41  21  39  1   
 42  22  23  1   
 43  22  40  1   
 44  22  41  1   
 45  23  42  1   
 46  23  43  1   
@<TRIPOS>SUBSTRUCTURE
  1 ****   1 GROUP 4 **** **** 0

# MOE 2024.06 (io_trps.svl 2023.06)
