@<TRIPOS>MOLECULE
NONAME
41 42 1 0 0 
SMALL
USER_CHARGES


@<TRIPOS>ATOM
  1 O        6.5970    -6.6470     0.2600 O.3   1 <1>  -0.6800 
  2 C        6.9440    -5.6270    -0.6210 C.3   1 <1>   0.3440 
  3 C        8.2160    -4.9630    -0.1220 C.ar  1 <1>  -0.1440 
  4 C        5.7810    -4.6130    -0.6930 C.3   1 <1>   0.3430 
  5 C        8.3550    -4.5850     1.2080 C.ar  1 <1>  -0.1500 
  6 C        9.2580    -4.7190    -1.0060 C.ar  1 <1>  -0.1500 
  7 N        4.4590    -5.2980    -0.5500 N.4   1 <1>  -0.9060 
  8 C        9.5140    -3.9670     1.6430 C.ar  1 <1>  -0.1500 
  9 C       10.4160    -4.1010    -0.5700 C.ar  1 <1>  -0.1500 
 10 C        3.3640    -4.4550    -0.0380 C.3   1 <1>   0.4860 
 11 C       10.5450    -3.7230     0.7540 C.ar  1 <1>  -0.1500 
 12 C        2.1410    -5.3380     0.0200 C.ar  1 <1>  -0.1440 
 13 C        1.9140    -6.1450     1.1250 C.ar  1 <1>  -0.1500 
 14 C        1.2410    -5.3570    -1.0350 C.ar  1 <1>  -0.1500 
 15 C        0.8020    -6.9670     1.1690 C.ar  1 <1>  -0.1500 
 16 C        0.1310    -6.1800    -0.9860 C.ar  1 <1>  -0.1500 
 17 C       -0.0940    -6.9910     0.1140 C.ar  1 <1>  -0.1440 
 18 C       -1.3170    -7.8940     0.1650 C.3   1 <1>  -0.0170 
 19 C       -2.5020    -7.1580     0.7930 C.3   1 <1>  -0.2400 
 20 H        7.4120    -7.1410     0.5030 H     1 <1>   0.4000 
 21 H        7.1100    -6.0730    -1.5870 H     1 <1>   0.0800 
 22 H        5.8330    -4.0580    -1.6150 H     1 <1>   0.0800 
 23 H        5.9120    -3.9150     0.1170 H     1 <1>   0.0800 
 24 H        7.5700    -4.7690     1.9210 H     1 <1>   0.1500 
 25 H        9.1860    -5.0050    -2.0420 H     1 <1>   0.1500 
 26 H        4.6190    -6.0770     0.1130 H     1 <1>   0.4500 
 27 H        4.1560    -5.7560    -1.4170 H     1 <1>   0.4500 
 28 H        9.6200    -3.6760     2.6750 H     1 <1>   0.1500 
 29 H       11.2230    -3.9130    -1.2590 H     1 <1>   0.1500 
 30 H        3.1850    -3.6220    -0.6980 H     1 <1>   0.0800 
 31 H        3.5990    -4.0820     0.9450 H     1 <1>   0.0800 
 32 H       11.4480    -3.2430     1.0930 H     1 <1>   0.1500 
 33 H        2.5900    -6.1470     1.9640 H     1 <1>   0.1500 
 34 H        1.3840    -4.7350    -1.9020 H     1 <1>   0.1500 
 35 H        0.6310    -7.5890     2.0310 H     1 <1>   0.1500 
 36 H       -0.5670    -6.1880    -1.8070 H     1 <1>   0.1500 
 37 H       -1.0950    -8.7760     0.7410 H     1 <1>   0.0800 
 38 H       -1.5770    -8.2120    -0.8290 H     1 <1>   0.0800 
 39 H       -2.2600    -6.8500     1.7950 H     1 <1>   0.0800 
 40 H       -3.3620    -7.8020     0.8280 H     1 <1>   0.0800 
 41 H       -2.7460    -6.2840     0.2140 H     1 <1>   0.0800 
@<TRIPOS>BOND
  1   1   2  1   
  2   1  20  1   
  3   2   3  1   
  4   2   4  1   
  5   2  21  1   
  6   3   5  ar  
  7   3   6  ar  
  8   4   7  1   
  9   4  22  1   
 10   4  23  1   
 11   5   8  ar  
 12   5  24  1   
 13   6   9  ar  
 14   6  25  1   
 15   7  10  1   
 16   7  26  1   
 17   7  27  1   
 18   8  11  ar  
 19   8  28  1   
 20   9  11  ar  
 21   9  29  1   
 22  10  12  1   
 23  10  30  1   
 24  10  31  1   
 25  11  32  1   
 26  12  13  ar  
 27  12  14  ar  
 28  13  15  ar  
 29  13  33  1   
 30  14  16  ar  
 31  14  34  1   
 32  15  17  ar  
 33  15  35  1   
 34  16  17  ar  
 35  16  36  1   
 36  17  18  1   
 37  18  19  1   
 38  18  37  1   
 39  18  38  1   
 40  19  39  1   
 41  19  40  1   
 42  19  41  1   
@<TRIPOS>SUBSTRUCTURE
  1 ****   7 GROUP 4 **** **** 0

# MOE 2024.06 (io_trps.svl 2023.06)
