@<TRIPOS>MOLECULE
NONAME
30 32 1 0 0 
SMALL
USER_CHARGES


@<TRIPOS>ATOM
  1 O       -0.9710    -0.5560    -0.0150 O.2   1 <1>  -0.5700 
  2 C       -1.9130    -1.2820     0.0750 C.2   1 <1>   0.4480 
  3 C       -1.9760    -2.6860    -0.5000 C.3   1 <1>   0.0610 
  4 C       -3.2060    -0.8350     0.6980 C.3   1 <1>  -0.0190 
  5 C       -3.0150    -2.6280    -1.6340 C.3   1 <1>   0.3430 
  6 C       -2.4020    -3.6430     0.6260 C.3   1 <1>   0.1100 
  7 C       -0.6200    -3.1510    -1.0730 C.3   1 <1>  -0.2400 
  8 C       -4.2200    -0.7330    -0.4400 C.3   1 <1>   0.3430 
  9 C       -3.6110    -1.8220     1.7970 C.3   1 <1>   0.1100 
 10 N       -4.3380    -1.9890    -1.2680 N.4   1 <1>  -0.9590 
 11 N       -3.6390    -3.2020     1.2940 N.3   1 <1>  -0.8100 
 12 C       -5.3050    -2.9730    -0.6640 C.3   1 <1>   0.3430 
 13 C       -4.8980    -3.6440     0.6690 C.3   1 <1>   0.1100 
 14 H       -3.0720     0.1380     1.1360 H     1 <1>   0.0800 
 15 H       -2.5750    -2.0580    -2.4360 H     1 <1>   0.0800 
 16 H       -3.1840    -3.6250    -2.0060 H     1 <1>   0.0800 
 17 H       -1.6190    -3.6760     1.3670 H     1 <1>   0.0800 
 18 H       -2.5250    -4.6440     0.2490 H     1 <1>   0.0800 
 19 H       -0.2860    -2.4870    -1.8510 H     1 <1>   0.0800 
 20 H       -0.6880    -4.1470    -1.4760 H     1 <1>   0.0800 
 21 H        0.1300    -3.1500    -0.3000 H     1 <1>   0.0800 
 22 H       -3.9050     0.0750    -1.0820 H     1 <1>   0.0800 
 23 H       -5.1840    -0.4680    -0.0360 H     1 <1>   0.0800 
 24 H       -2.8870    -1.7680     2.5940 H     1 <1>   0.0800 
 25 H       -4.5680    -1.5590     2.2160 H     1 <1>   0.0800 
 26 H       -4.7680    -1.7010    -2.1590 H     1 <1>   0.4500 
 27 H       -5.4950    -3.7590    -1.3760 H     1 <1>   0.0800 
 28 H       -6.2490    -2.4790    -0.5030 H     1 <1>   0.0800 
 29 H       -5.6970    -3.4970     1.3760 H     1 <1>   0.0800 
 30 H       -4.8440    -4.7080     0.5090 H     1 <1>   0.0800 
@<TRIPOS>BOND
  1   1   2  2   
  2   2   3  1   
  3   2   4  1   
  4   3   5  1   
  5   3   6  1   
  6   3   7  1   
  7   4   8  1   
  8   4   9  1   
  9   4  14  1   
 10   5  10  1   
 11   5  15  1   
 12   5  16  1   
 13   6  11  1   
 14   6  17  1   
 15   6  18  1   
 16   7  19  1   
 17   7  20  1   
 18   7  21  1   
 19   8  10  1   
 20   8  22  1   
 21   8  23  1   
 22   9  11  1   
 23   9  24  1   
 24   9  25  1   
 25  10  12  1   
 26  10  26  1   
 27  11  13  1   
 28  12  13  1   
 29  12  27  1   
 30  12  28  1   
 31  13  29  1   
 32  13  30  1   
@<TRIPOS>SUBSTRUCTURE
  1 ****   3 GROUP 4 **** **** 0

# MOE 2024.06 (io_trps.svl 2023.06)
