@<TRIPOS>MOLECULE
NONAME
37 38 1 0 0 
SMALL
USER_CHARGES


@<TRIPOS>ATOM
  1 O        0.3100    -0.9630    -1.6380 O.2   1 <1>  -0.5700 
  2 C        0.2200    -1.8350    -0.8050 C.2   1 <1>   0.4950 
  3 C        1.2930    -2.2020     0.0700 C.2   1 <1>   0.0290 
  4 C       -1.1360    -2.5180    -0.7310 C.3   1 <1>  -0.0990 
  5 C        1.0710    -3.2620     1.0140 C.2   1 <1>   0.4950 
  6 C        2.4960    -1.5300    -0.0240 C.2   1 <1>  -0.0500 
  7 C       -1.0600    -3.9570    -0.2050 C.3   1 <1>   0.0000 
  8 O        1.9050    -3.6870     1.7830 O.2   1 <1>  -0.5700 
  9 C       -0.2870    -3.9390     1.1210 C.3   1 <1>  -0.0990 
 10 N        3.5990    -1.7420     0.7340 N.pl3 1 <1>  -0.8690 
 11 C       -2.4790    -4.4940     0.0340 C.3   1 <1>  -0.2400 
 12 C       -0.3610    -4.8720    -1.2270 C.3   1 <1>  -0.2400 
 13 C        4.9100    -1.0320     0.6350 C.3   1 <1>   0.3530 
 14 C        6.1050    -1.9740     0.4660 C.ar  1 <1>   0.1670 
 15 N        7.2790    -1.4980     0.8690 N.ar  1 <1>  -0.6200 
 16 C        5.9430    -3.2390    -0.0870 C.ar  1 <1>  -0.1500 
 17 C        8.3150    -2.3090     0.7230 C.ar  1 <1>   0.1600 
 18 C        7.0320    -4.0720    -0.2330 C.ar  1 <1>  -0.1500 
 19 C        8.2480    -3.5830     0.1880 C.ar  1 <1>  -0.1500 
 20 H       -1.7650    -1.9230    -0.0940 H     1 <1>   0.0800 
 21 H       -1.5800    -2.5150    -1.7120 H     1 <1>   0.0800 
 22 H        2.5840    -0.7520    -0.7710 H     1 <1>   0.1500 
 23 H       -0.1460    -4.9470     1.4680 H     1 <1>   0.0800 
 24 H       -0.8520    -3.4180     1.8720 H     1 <1>   0.0800 
 25 H        3.5710    -2.4730     1.4700 H     1 <1>   0.4000 
 26 H       -3.0070    -3.8840     0.7470 H     1 <1>   0.0800 
 27 H       -2.4440    -5.5000     0.4140 H     1 <1>   0.0800 
 28 H       -3.0410    -4.5010    -0.8840 H     1 <1>   0.0800 
 29 H       -0.9100    -4.8890    -2.1530 H     1 <1>   0.0800 
 30 H       -0.3080    -5.8810    -0.8550 H     1 <1>   0.0800 
 31 H        0.6410    -4.5460    -1.4430 H     1 <1>   0.0800 
 32 H        4.8900    -0.3490    -0.1950 H     1 <1>   0.0800 
 33 H        5.0530    -0.4560     1.5330 H     1 <1>   0.0800 
 34 H        4.9720    -3.5730    -0.4050 H     1 <1>   0.1500 
 35 H        9.2710    -1.9370     1.0490 H     1 <1>   0.1500 
 36 H        6.9330    -5.0570    -0.6560 H     1 <1>   0.1500 
 37 H        9.1370    -4.1810     0.1040 H     1 <1>   0.1500 
@<TRIPOS>BOND
  1   1   2  2   
  2   2   3  1   
  3   2   4  1   
  4   3   5  1   
  5   3   6  2   
  6   4   7  1   
  7   4  20  1   
  8   4  21  1   
  9   5   8  2   
 10   5   9  1   
 11   6  10  1   
 12   6  22  1   
 13   7   9  1   
 14   7  11  1   
 15   7  12  1   
 16   9  23  1   
 17   9  24  1   
 18  10  13  1   
 19  10  25  1   
 20  11  26  1   
 21  11  27  1   
 22  11  28  1   
 23  12  29  1   
 24  12  30  1   
 25  12  31  1   
 26  13  14  1   
 27  13  32  1   
 28  13  33  1   
 29  14  15  ar  
 30  14  16  ar  
 31  15  17  ar  
 32  16  18  ar  
 33  16  34  1   
 34  17  19  ar  
 35  17  35  1   
 36  18  19  ar  
 37  18  36  1   
 38  19  37  1   
@<TRIPOS>SUBSTRUCTURE
  1 ****   6 GROUP 4 **** **** 0

# MOE 2024.06 (io_trps.svl 2023.06)
