@<TRIPOS>MOLECULE
NONAME
43 44 1 0 0 
SMALL
USER_CHARGES


@<TRIPOS>ATOM
  1 N        0.2120     0.3330    -0.6870 N.4   1 <1>  -0.9590 
  2 C       -0.9050    -0.4940    -1.2670 C.3   1 <1>   0.3430 
  3 C       -0.0160     1.8130    -0.6590 C.3   1 <1>   0.3430 
  4 C        1.5080     0.0570    -1.3830 C.3   1 <1>   0.4860 
  5 C       -2.0070    -0.8780    -0.2360 C.3   1 <1>   0.3430 
  6 C       -1.4230     2.2270    -0.2230 C.3   1 <1>  -0.1600 
  7 C        2.6060     0.5500    -0.4650 C.ar  1 <1>  -0.1440 
  8 N       -2.8060     0.2570     0.3670 N.4   1 <1>  -0.9590 
  9 C       -2.0220     1.4050     0.9160 C.3   1 <1>   0.3430 
 10 C        3.0160    -0.1870     0.6440 C.ar  1 <1>  -0.1440 
 11 C        3.1940     1.7790    -0.7340 C.ar  1 <1>  -0.1500 
 12 C       -3.7120    -0.2800     1.4390 C.3   1 <1>   0.2630 
 13 C        3.9830     0.3450     1.4820 C.ar  1 <1>  -0.1500 
 14 C        2.4650    -1.5680     0.9790 C.3   1 <1>  -0.0970 
 15 C        4.1620     2.2990     0.1050 C.ar  1 <1>  -0.1440 
 16 C        4.5480     1.5780     1.2190 C.ar  1 <1>  -0.1500 
 17 C        4.8070     3.6440    -0.1830 C.3   1 <1>  -0.0970 
 18 H        0.4240     0.0390     0.2770 H     1 <1>   0.4500 
 19 H       -0.4920    -1.4150    -1.6470 H     1 <1>   0.0800 
 20 H       -1.3510     0.0200    -2.1030 H     1 <1>   0.0800 
 21 H        0.1750     2.2300    -1.6350 H     1 <1>   0.0800 
 22 H        0.7000     2.2570     0.0180 H     1 <1>   0.0800 
 23 H        1.5540     0.5670    -2.3320 H     1 <1>   0.0800 
 24 H        1.6370    -0.9990    -1.5540 H     1 <1>   0.0800 
 25 H       -1.5380    -1.4370     0.5570 H     1 <1>   0.0800 
 26 H       -2.6930    -1.5520    -0.7250 H     1 <1>   0.0800 
 27 H       -2.0850     2.2480    -1.0710 H     1 <1>   0.0800 
 28 H       -1.3460     3.2460     0.1160 H     1 <1>   0.0800 
 29 H       -3.4320     0.6420    -0.3600 H     1 <1>   0.4500 
 30 H       -2.6900     2.0440     1.4750 H     1 <1>   0.0800 
 31 H       -1.2540     1.0640     1.5920 H     1 <1>   0.0800 
 32 H        2.9090     2.3480    -1.6030 H     1 <1>   0.1500 
 33 H       -3.1360    -0.6890     2.2550 H     1 <1>   0.0800 
 34 H       -4.3470    -1.0580     1.0440 H     1 <1>   0.0800 
 35 H       -4.3430     0.5040     1.8270 H     1 <1>   0.0800 
 36 H        4.3170    -0.1990     2.3500 H     1 <1>   0.1500 
 37 H        2.4060    -2.1830     0.1000 H     1 <1>   0.0800 
 38 H        1.4970    -1.4930     1.4380 H     1 <1>   0.0800 
 39 H        3.1180    -2.0710     1.6720 H     1 <1>   0.0800 
 40 H        5.2980     1.9710     1.8840 H     1 <1>   0.1500 
 41 H        4.3840     4.3990     0.4570 H     1 <1>   0.0800 
 42 H        4.6580     3.9340    -1.2070 H     1 <1>   0.0800 
 43 H        5.8660     3.5930     0.0000 H     1 <1>   0.0800 
@<TRIPOS>BOND
  1   1   2  1   
  2   1   3  1   
  3   1   4  1   
  4   1  18  1   
  5   2   5  1   
  6   2  19  1   
  7   2  20  1   
  8   3   6  1   
  9   3  21  1   
 10   3  22  1   
 11   4   7  1   
 12   4  23  1   
 13   4  24  1   
 14   5   8  1   
 15   5  25  1   
 16   5  26  1   
 17   6   9  1   
 18   6  27  1   
 19   6  28  1   
 20   7  10  ar  
 21   7  11  ar  
 22   8   9  1   
 23   8  12  1   
 24   8  29  1   
 25   9  30  1   
 26   9  31  1   
 27  10  13  ar  
 28  10  14  1   
 29  11  15  ar  
 30  11  32  1   
 31  12  33  1   
 32  12  34  1   
 33  12  35  1   
 34  13  16  ar  
 35  13  36  1   
 36  14  37  1   
 37  14  38  1   
 38  14  39  1   
 39  15  16  ar  
 40  15  17  1   
 41  16  40  1   
 42  17  41  1   
 43  17  42  1   
 44  17  43  1   
@<TRIPOS>SUBSTRUCTURE
  1 ****   1 GROUP 4 **** **** 0

# MOE 2024.06 (io_trps.svl 2023.06)
