@<TRIPOS>MOLECULE
NONAME
47 49 1 0 0 
SMALL
USER_CHARGES


@<TRIPOS>ATOM
  1 O        0.1320     0.1840     0.5900 O.2   1 <1>  -0.5700 
  2 C        1.1810     0.7800     0.5090 C.2   1 <1>   0.4950 
  3 C        2.4300     0.1150     0.5670 C.2   1 <1>  -0.1360 
  4 C        1.1680     2.2900     0.4110 C.3   1 <1>   0.0420 
  5 C        3.6550     0.7050     0.5910 C.2   1 <1>  -0.0380 
  6 C        0.0090     2.7210    -0.4590 C.2   1 <1>   0.6590 
  7 C        2.4950     2.8350    -0.1510 C.3   1 <1>   0.0640 
  8 N        4.8480     0.0160     0.6700 N.pl3 1 <1>  -0.8380 
  9 C        3.7250     2.2280     0.5450 C.3   1 <1>  -0.0220 
 10 O        0.0230     2.5780    -1.6580 O.2   1 <1>  -0.5700 
 11 O       -1.0100     3.2870     0.1770 O.3   1 <1>  -0.4300 
 12 C        2.5230     4.3620    -0.1050 C.ar  1 <1>  -0.1430 
 13 C        6.1450     0.5770     1.1810 C.3   1 <1>   0.2090 
 14 C        5.0000    -1.4180     0.2600 C.3   1 <1>   0.2090 
 15 C       -2.1760     3.7220    -0.4860 C.3   1 <1>   0.1200 
 16 C        2.5720     5.0510     1.1000 C.ar  1 <1>  -0.1500 
 17 C        2.4850     5.0820    -1.2900 C.ar  1 <1>  -0.1500 
 18 C        7.2880     0.3000     0.1890 C.3   1 <1>   0.1200 
 19 C        6.2160    -1.5990    -0.6690 C.3   1 <1>   0.1200 
 20 C       -3.1340     2.5390    -0.6160 C.3   1 <1>  -0.2400 
 21 C        2.5920     6.4350     1.1170 C.ar  1 <1>  -0.1500 
 22 C        2.5050     6.4660    -1.2740 C.ar  1 <1>  -0.1500 
 23 O        7.3800    -1.0680    -0.0960 O.3   1 <1>  -0.5600 
 24 C        2.5610     7.1430    -0.0700 C.ar  1 <1>  -0.1500 
 25 H        2.3400    -0.9510     0.6200 H     1 <1>   0.1500 
 26 H        1.0130     2.6750     1.4000 H     1 <1>   0.0800 
 27 H        2.5600     2.5250    -1.1810 H     1 <1>   0.0800 
 28 H        4.5900     2.5360    -0.0140 H     1 <1>   0.0800 
 29 H        3.8210     2.5980     1.5490 H     1 <1>   0.0800 
 30 H        6.3820     0.1070     2.1190 H     1 <1>   0.0800 
 31 H        6.0750     1.6330     1.3600 H     1 <1>   0.0800 
 32 H        4.1250    -1.7560    -0.2630 H     1 <1>   0.0800 
 33 H        5.1270    -2.0290     1.1360 H     1 <1>   0.0800 
 34 H       -1.9080     4.1220    -1.4500 H     1 <1>   0.0800 
 35 H       -2.6170     4.5020     0.1090 H     1 <1>   0.0800 
 36 H        2.5920     4.5230     2.0360 H     1 <1>   0.1500 
 37 H        2.4340     4.5720    -2.2370 H     1 <1>   0.1500 
 38 H        8.2280     0.6110     0.6090 H     1 <1>   0.0800 
 39 H        7.1240     0.8350    -0.7310 H     1 <1>   0.0800 
 40 H        6.0410    -1.1050    -1.6090 H     1 <1>   0.0800 
 41 H        6.3890    -2.6440    -0.8530 H     1 <1>   0.0800 
 42 H       -2.6920     1.7670    -1.2200 H     1 <1>   0.0800 
 43 H       -4.0450     2.8600    -1.0870 H     1 <1>   0.0800 
 44 H       -3.3690     2.1430     0.3560 H     1 <1>   0.0800 
 45 H        2.6310     6.9620     2.0550 H     1 <1>   0.1500 
 46 H        2.4760     7.0140    -2.2000 H     1 <1>   0.1500 
 47 H        2.5770     8.2190    -0.0570 H     1 <1>   0.1500 
@<TRIPOS>BOND
  1   1   2  2   
  2   2   3  1   
  3   2   4  1   
  4   3   5  2   
  5   3  25  1   
  6   4   6  1   
  7   4   7  1   
  8   4  26  1   
  9   5   8  1   
 10   5   9  1   
 11   6  10  2   
 12   6  11  1   
 13   7   9  1   
 14   7  12  1   
 15   7  27  1   
 16   8  13  1   
 17   8  14  1   
 18   9  28  1   
 19   9  29  1   
 20  11  15  1   
 21  12  16  ar  
 22  12  17  ar  
 23  13  18  1   
 24  13  30  1   
 25  13  31  1   
 26  14  19  1   
 27  14  32  1   
 28  14  33  1   
 29  15  20  1   
 30  15  34  1   
 31  15  35  1   
 32  16  21  ar  
 33  16  36  1   
 34  17  22  ar  
 35  17  37  1   
 36  18  23  1   
 37  18  38  1   
 38  18  39  1   
 39  19  23  1   
 40  19  40  1   
 41  19  41  1   
 42  20  42  1   
 43  20  43  1   
 44  20  44  1   
 45  21  24  ar  
 46  21  45  1   
 47  22  24  ar  
 48  22  46  1   
 49  24  47  1   
@<TRIPOS>SUBSTRUCTURE
  1 ****   7 GROUP 4 **** **** 0

# MOE 2024.06 (io_trps.svl 2023.06)
