@<TRIPOS>MOLECULE
NONAME
47 50 1 0 0 
SMALL
USER_CHARGES


@<TRIPOS>ATOM
  1 S       -0.0990     0.1850     1.6430 S.o2  1 <1>   1.4470 
  2 O       -0.3560    -1.2140     1.9200 O.2   1 <1>  -0.6500 
  3 O       -0.7180     1.1780     2.4950 O.2   1 <1>  -0.6500 
  4 N       -0.6810     0.4550     0.0750 N.am  1 <1>  -0.8490 
  5 C        1.6970     0.4730     1.5200 C.ar  1 <1>  -0.0090 
  6 C       -2.1450     0.3690     0.0190 C.3   1 <1>   0.1960 
  7 C       -0.0950    -0.4610    -0.9170 C.3   1 <1>   0.1960 
  8 C        2.2750     1.6030     0.9320 C.ar  1 <1>  -0.1440 
  9 C        2.5430    -0.5100     2.0200 C.ar  1 <1>  -0.1500 
 10 C       -2.6570     0.6290    -1.4090 C.3   1 <1>   0.1200 
 11 C       -0.6540    -0.1750    -2.3220 C.3   1 <1>   0.1200 
 12 C        3.6680     1.6960     0.7880 C.ar  1 <1>   0.1000 
 13 C        1.3920     2.7460     0.4150 C.3   1 <1>  -0.0960 
 14 C        3.9150    -0.4130     1.9090 C.ar  1 <1>  -0.1500 
 15 O       -2.0540    -0.2470    -2.3210 O.3   1 <1>  -0.5600 
 16 N        4.2670     2.7850     0.1440 N.pl3 1 <1>  -0.5520 
 17 C        4.4830     0.6770     1.2840 C.ar  1 <1>  -0.1430 
 18 C        4.1000     3.1510    -1.1880 C.2   1 <1>   0.3720 
 19 C        4.7410     3.9810     0.8930 C.3   1 <1>   0.2090 
 20 C        5.9990     0.7270     1.1320 C.3   1 <1>  -0.0970 
 21 N        3.6820     2.5170    -2.2360 N.2   1 <1>  -0.7070 
 22 C        4.4400     4.4590    -1.4290 C.2   1 <1>  -0.1810 
 23 C        4.8970     5.1140    -0.1500 C.3   1 <1>   0.0210 
 24 N        3.7650     3.4550    -3.2150 N.pl3 1 <1>   0.3000 
 25 C        4.2200     4.6430    -2.7460 C.2   1 <1>  -0.3020 
 26 H       -2.5730     1.1000     0.6840 H     1 <1>   0.0800 
 27 H       -2.4710    -0.6070     0.3420 H     1 <1>   0.0800 
 28 H       -0.3090    -1.4840    -0.6540 H     1 <1>   0.0800 
 29 H        0.9740    -0.3370    -0.9420 H     1 <1>   0.0800 
 30 H        2.1240    -1.3790     2.4980 H     1 <1>   0.1500 
 31 H       -2.4380     1.6390    -1.7070 H     1 <1>   0.0800 
 32 H       -3.7200     0.4740    -1.4580 H     1 <1>   0.0800 
 33 H       -0.2870    -0.9020    -3.0240 H     1 <1>   0.0800 
 34 H       -0.3580     0.8060    -2.6500 H     1 <1>   0.0800 
 35 H        0.4720     2.8300     0.9600 H     1 <1>   0.0800 
 36 H        1.1680     2.5840    -0.6240 H     1 <1>   0.0800 
 37 H        1.8840     3.6950     0.5090 H     1 <1>   0.0800 
 38 H        4.5330    -1.2000     2.3040 H     1 <1>   0.1500 
 39 H        5.6830     3.7620     1.3630 H     1 <1>   0.0800 
 40 H        4.0170     4.2450     1.6430 H     1 <1>   0.0800 
 41 H        6.4070     1.4880     1.7710 H     1 <1>   0.0800 
 42 H        6.2560     0.9530     0.1120 H     1 <1>   0.0800 
 43 H        6.4460    -0.2150     1.3890 H     1 <1>   0.0800 
 44 H        5.9220     5.4260    -0.2250 H     1 <1>   0.0800 
 45 H        4.2750     5.9540     0.0990 H     1 <1>   0.0800 
 46 H        3.5040     3.2470    -4.1860 H     1 <1>   0.2700 
 47 H        4.3540     5.5140    -3.3610 H     1 <1>   0.1500 
@<TRIPOS>BOND
  1   1   2  2   
  2   1   3  2   
  3   1   4  am  
  4   1   5  1   
  5   4   6  1   
  6   4   7  1   
  7   5   8  ar  
  8   5   9  ar  
  9   6  10  1   
 10   6  26  1   
 11   6  27  1   
 12   7  11  1   
 13   7  28  1   
 14   7  29  1   
 15   8  12  ar  
 16   8  13  1   
 17   9  14  ar  
 18   9  30  1   
 19  10  15  1   
 20  10  31  1   
 21  10  32  1   
 22  11  15  1   
 23  11  33  1   
 24  11  34  1   
 25  12  16  1   
 26  12  17  ar  
 27  13  35  1   
 28  13  36  1   
 29  13  37  1   
 30  14  17  ar  
 31  14  38  1   
 32  16  18  1   
 33  16  19  1   
 34  17  20  1   
 35  18  21  2   
 36  18  22  1   
 37  19  23  1   
 38  19  39  1   
 39  19  40  1   
 40  20  41  1   
 41  20  42  1   
 42  20  43  1   
 43  21  24  1   
 44  22  23  1   
 45  22  25  2   
 46  23  44  1   
 47  23  45  1   
 48  24  25  1   
 49  24  46  1   
 50  25  47  1   
@<TRIPOS>SUBSTRUCTURE
  1 ****   8 GROUP 4 **** **** 0

# MOE 2024.06 (io_trps.svl 2023.06)
