@<TRIPOS>MOLECULE
NONAME
51 53 1 0 0 
SMALL
USER_CHARGES


@<TRIPOS>ATOM
  1 CL       0.3640     0.2680    -1.9870 Cl    1 <1>  -0.1770 
  2 C        1.8080     0.7900    -1.1580 C.ar  1 <1>   0.1770 
  3 C        2.9700     0.0590    -1.2990 C.ar  1 <1>  -0.1500 
  4 C        1.7630     1.9270    -0.3730 C.ar  1 <1>  -0.1500 
  5 C        4.1270     0.4590    -0.6410 C.ar  1 <1>   0.1000 
  6 C        2.9110     2.3360     0.2840 C.ar  1 <1>  -0.1500 
  7 N        5.2920    -0.2930    -0.7810 N.pl3 1 <1>  -0.8380 
  8 C        4.0800     1.6060     0.1490 C.ar  1 <1>  -0.1500 
  9 C        6.6170     0.3690    -0.9890 C.3   1 <1>   0.2090 
 10 C        5.3160    -1.6920    -0.2570 C.3   1 <1>   0.2090 
 11 C        7.5350     0.1940     0.2390 C.3   1 <1>   0.3430 
 12 C        6.2550    -1.8170     0.9620 C.3   1 <1>   0.3430 
 13 N        7.6240    -1.2430     0.7000 N.4   1 <1>  -0.9590 
 14 C        8.5280    -1.3940     1.8730 C.3   1 <1>   0.4860 
 15 C        9.9130    -0.9280     1.4700 C.ar  1 <1>  -0.1430 
 16 C       10.6230    -1.6190     0.5020 C.ar  1 <1>  -0.1500 
 17 C       10.4800     0.1950     2.0470 C.ar  1 <1>  -0.1500 
 18 C       11.8740    -1.1990     0.0830 C.ar  1 <1>   0.0830 
 19 C       11.7330     0.6260     1.6480 C.ar  1 <1>  -0.1500 
 20 O       12.4120    -1.9890    -0.8900 O.3   1 <1>  -0.3630 
 21 C       12.4470    -0.0530     0.6630 C.ar  1 <1>   0.0830 
 22 C       13.7480    -1.8870    -1.3240 C.3   1 <1>   0.1200 
 23 O       13.6740     0.3850     0.2590 O.3   1 <1>  -0.3630 
 24 C       14.0210    -3.0410    -2.2830 C.3   1 <1>  -0.2400 
 25 C       14.3680     1.4240     0.9160 C.3   1 <1>   0.0400 
 26 H        2.9770    -0.8130    -1.9230 H     1 <1>   0.1500 
 27 H        0.8440     2.4790    -0.2820 H     1 <1>   0.1500 
 28 H        2.8900     3.2210     0.8970 H     1 <1>   0.1500 
 29 H        4.9590     1.9340     0.6680 H     1 <1>   0.1500 
 30 H        6.4750     1.4170    -1.1900 H     1 <1>   0.0800 
 31 H        7.0890    -0.0610    -1.8560 H     1 <1>   0.0800 
 32 H        5.6410    -2.3550    -1.0400 H     1 <1>   0.0800 
 33 H        4.3220    -1.9890     0.0310 H     1 <1>   0.0800 
 34 H        7.1470     0.8030     1.0370 H     1 <1>   0.0800 
 35 H        8.5170     0.5630    -0.0080 H     1 <1>   0.0800 
 36 H        6.3360    -2.8560     1.2330 H     1 <1>   0.0800 
 37 H        5.7980    -1.2950     1.7860 H     1 <1>   0.0800 
 38 H        8.0520    -1.7670    -0.0740 H     1 <1>   0.4500 
 39 H        8.5750    -2.4260     2.1780 H     1 <1>   0.0800 
 40 H        8.1670    -0.8060     2.7010 H     1 <1>   0.0800 
 41 H       10.2240    -2.5080     0.0460 H     1 <1>   0.1500 
 42 H        9.9610     0.7490     2.8120 H     1 <1>   0.1500 
 43 H       12.1360     1.5030     2.1200 H     1 <1>   0.1500 
 44 H       14.3930    -1.9450    -0.4640 H     1 <1>   0.0800 
 45 H       13.8740    -0.9420    -1.8220 H     1 <1>   0.0800 
 46 H       13.8820    -3.9820    -1.7800 H     1 <1>   0.0800 
 47 H       15.0350    -2.9870    -2.6350 H     1 <1>   0.0800 
 48 H       13.3610    -2.9830    -3.1300 H     1 <1>   0.0800 
 49 H       15.3330     1.5250     0.4540 H     1 <1>   0.0800 
 50 H       14.4870     1.1650     1.9540 H     1 <1>   0.0800 
 51 H       13.8160     2.3400     0.8050 H     1 <1>   0.0800 
@<TRIPOS>BOND
  1   1   2  1   
  2   2   3  ar  
  3   2   4  ar  
  4   3   5  ar  
  5   3  26  1   
  6   4   6  ar  
  7   4  27  1   
  8   5   7  1   
  9   5   8  ar  
 10   6   8  ar  
 11   6  28  1   
 12   7   9  1   
 13   7  10  1   
 14   8  29  1   
 15   9  11  1   
 16   9  30  1   
 17   9  31  1   
 18  10  12  1   
 19  10  32  1   
 20  10  33  1   
 21  11  13  1   
 22  11  34  1   
 23  11  35  1   
 24  12  13  1   
 25  12  36  1   
 26  12  37  1   
 27  13  14  1   
 28  13  38  1   
 29  14  15  1   
 30  14  39  1   
 31  14  40  1   
 32  15  16  ar  
 33  15  17  ar  
 34  16  18  ar  
 35  16  41  1   
 36  17  19  ar  
 37  17  42  1   
 38  18  20  1   
 39  18  21  ar  
 40  19  21  ar  
 41  19  43  1   
 42  20  22  1   
 43  21  23  1   
 44  22  24  1   
 45  22  44  1   
 46  22  45  1   
 47  23  25  1   
 48  24  46  1   
 49  24  47  1   
 50  24  48  1   
 51  25  49  1   
 52  25  50  1   
 53  25  51  1   
@<TRIPOS>SUBSTRUCTURE
  1 ****  11 GROUP 4 **** **** 0

# MOE 2024.06 (io_trps.svl 2023.06)
