@<TRIPOS>MOLECULE
NONAME
30 31 1 0 0 
SMALL
USER_CHARGES


@<TRIPOS>ATOM
  1 CL      -0.1470    -0.0840     0.3030 Cl    1 <1>  -0.1770 
  2 C        1.4590    -0.7660     0.2990 C.ar  1 <1>   0.1770 
  3 C        1.9360    -1.3800     1.4440 C.ar  1 <1>  -0.1500 
  4 C        2.2270    -0.6790    -0.8490 C.ar  1 <1>  -0.1500 
  5 C        3.2120    -1.9190     1.4380 C.ar  1 <1>  -0.1500 
  6 C        3.5040    -1.2180    -0.8560 C.ar  1 <1>  -0.1500 
  7 C        3.9860    -1.8330     0.2920 C.ar  1 <1>   0.1020 
  8 S        5.6340    -2.5540     0.3730 S.3   1 <1>  -0.3320 
  9 C        6.4530    -2.1980    -1.2580 C.3   1 <1>   0.1310 
 10 C        7.8790    -2.7300    -1.2910 C.2   1 <1>   0.5690 
 11 O        8.1210    -3.6340    -2.0570 O.2   1 <1>  -0.5700 
 12 N        8.8590    -2.1730    -0.5120 N.am  1 <1>  -0.6600 
 13 C        8.6880    -1.0900     0.4810 C.3   1 <1>   0.1400 
 14 C       10.2520    -2.6690    -0.5220 C.3   1 <1>   0.1400 
 15 C       10.1070    -0.7160     0.8910 C.3   1 <1>  -0.1600 
 16 C       10.9180    -1.9900     0.6690 C.3   1 <1>  -0.1600 
 17 H        1.3170    -1.4340     2.3210 H     1 <1>   0.1500 
 18 H        1.8250    -0.1960    -1.7220 H     1 <1>   0.1500 
 19 H        3.6070    -2.4030     2.3140 H     1 <1>   0.1500 
 20 H        4.0930    -1.1520    -1.7490 H     1 <1>   0.1500 
 21 H        6.4470    -1.1340    -1.4000 H     1 <1>   0.0800 
 22 H        5.8660    -2.6800    -2.0170 H     1 <1>   0.0800 
 23 H        8.1470    -1.4730     1.3310 H     1 <1>   0.0800 
 24 H        8.1640    -0.2490     0.0610 H     1 <1>   0.0800 
 25 H       10.7220    -2.3720    -1.4440 H     1 <1>   0.0800 
 26 H       10.2760    -3.7430    -0.4360 H     1 <1>   0.0800 
 27 H       10.1530    -0.3730     1.9090 H     1 <1>   0.0800 
 28 H       10.4660     0.0630     0.2410 H     1 <1>   0.0800 
 29 H       11.9590    -1.7900     0.4830 H     1 <1>   0.0800 
 30 H       10.8330    -2.6330     1.5270 H     1 <1>   0.0800 
@<TRIPOS>BOND
  1   1   2  1   
  2   2   3  ar  
  3   2   4  ar  
  4   3   5  ar  
  5   3  17  1   
  6   4   6  ar  
  7   4  18  1   
  8   5   7  ar  
  9   5  19  1   
 10   6   7  ar  
 11   6  20  1   
 12   7   8  1   
 13   8   9  1   
 14   9  10  1   
 15   9  21  1   
 16   9  22  1   
 17  10  11  2   
 18  10  12  am  
 19  12  13  1   
 20  12  14  1   
 21  13  15  1   
 22  13  23  1   
 23  13  24  1   
 24  14  16  1   
 25  14  25  1   
 26  14  26  1   
 27  15  16  1   
 28  15  27  1   
 29  15  28  1   
 30  16  29  1   
 31  16  30  1   
@<TRIPOS>SUBSTRUCTURE
  1 ****   8 GROUP 4 **** **** 0

# MOE 2024.06 (io_trps.svl 2023.06)
