@<TRIPOS>MOLECULE
NONAME
46 46 1 0 0 
SMALL
USER_CHARGES


@<TRIPOS>ATOM
  1 O        2.7230    -0.2970    -1.4790 O.2   1 <1>  -0.5700 
  2 C        2.6540    -0.2780    -0.2660 C.2   1 <1>   0.6900 
  3 N        2.8730    -1.3890     0.4670 N.am  1 <1>  -0.7300 
  4 N        2.3370     0.8530     0.3990 N.am  1 <1>  -0.7300 
  5 C        3.1820    -2.7180    -0.0800 C.3   1 <1>   0.2200 
  6 C        1.9970     2.1350    -0.2330 C.3   1 <1>   0.2200 
  7 C        2.0620    -3.6870     0.3120 C.3   1 <1>  -0.1600 
  8 C        4.5360    -3.1800     0.4700 C.3   1 <1>  -0.1600 
  9 C        0.4910     2.3950    -0.1030 C.3   1 <1>  -0.1600 
 10 C        2.8080     3.2250     0.4610 C.3   1 <1>  -0.2400 
 11 C        2.3820    -5.1190    -0.1430 C.3   1 <1>  -0.1600 
 12 C        4.8610    -4.6110     0.0160 C.3   1 <1>  -0.1600 
 13 C       -0.3600     1.3630    -0.8550 C.3   1 <1>  -0.0220 
 14 C        3.7390    -5.5840     0.4040 C.3   1 <1>  -0.1600 
 15 C       -1.8360     1.7120    -0.7200 C.2   1 <1>  -0.2880 
 16 C       -2.7980     1.0510    -0.0650 C.2   1 <1>  -0.2760 
 17 C       -4.2330     1.5520    -0.0510 C.3   1 <1>  -0.1020 
 18 C       -2.6340    -0.2380     0.7310 C.3   1 <1>  -0.1020 
 19 H        2.8570    -1.3230     1.4790 H     1 <1>   0.3700 
 20 H        2.1870     0.8060     1.4010 H     1 <1>   0.3700 
 21 H        3.2400    -2.6660    -1.1560 H     1 <1>   0.0800 
 22 H        2.2660     2.1090    -1.2780 H     1 <1>   0.0800 
 23 H        1.9350    -3.6790     1.3800 H     1 <1>   0.0800 
 24 H        1.1430    -3.3670    -0.1460 H     1 <1>   0.0800 
 25 H        5.3050    -2.5130     0.1210 H     1 <1>   0.0800 
 26 H        4.5180    -3.1490     1.5450 H     1 <1>   0.0800 
 27 H        0.2100     2.4020     0.9360 H     1 <1>   0.0800 
 28 H        0.2750     3.3690    -0.5040 H     1 <1>   0.0800 
 29 H        2.5560     3.2840     1.5040 H     1 <1>   0.0800 
 30 H        2.6060     4.1770     0.0050 H     1 <1>   0.0800 
 31 H        3.8580     3.0190     0.3570 H     1 <1>   0.0800 
 32 H        1.6080    -5.7870     0.1940 H     1 <1>   0.0800 
 33 H        2.4020    -5.1540    -1.2190 H     1 <1>   0.0800 
 34 H        4.9890    -4.6230    -1.0530 H     1 <1>   0.0800 
 35 H        5.7870    -4.9290     0.4620 H     1 <1>   0.0800 
 36 H       -0.1600     0.3790    -0.4780 H     1 <1>   0.0800 
 37 H       -0.0930     1.3610    -1.8970 H     1 <1>   0.0800 
 38 H        3.9650    -6.5640     0.0200 H     1 <1>   0.0800 
 39 H        3.6860    -5.6570     1.4770 H     1 <1>   0.0800 
 40 H       -2.0560     2.6240    -1.2490 H     1 <1>   0.1500 
 41 H       -4.8880     0.8140    -0.4800 H     1 <1>   0.0800 
 42 H       -4.3280     2.4590    -0.6200 H     1 <1>   0.0800 
 43 H       -4.5470     1.7520     0.9580 H     1 <1>   0.0800 
 44 H       -2.9640    -0.0870     1.7430 H     1 <1>   0.0800 
 45 H       -1.6160    -0.5710     0.7640 H     1 <1>   0.0800 
 46 H       -3.2270    -1.0180     0.2880 H     1 <1>   0.0800 
@<TRIPOS>BOND
  1   1   2  2   
  2   2   3  am  
  3   2   4  am  
  4   3   5  1   
  5   3  19  1   
  6   4   6  1   
  7   4  20  1   
  8   5   7  1   
  9   5   8  1   
 10   5  21  1   
 11   6   9  1   
 12   6  10  1   
 13   6  22  1   
 14   7  11  1   
 15   7  23  1   
 16   7  24  1   
 17   8  12  1   
 18   8  25  1   
 19   8  26  1   
 20   9  13  1   
 21   9  27  1   
 22   9  28  1   
 23  10  29  1   
 24  10  30  1   
 25  10  31  1   
 26  11  14  1   
 27  11  32  1   
 28  11  33  1   
 29  12  14  1   
 30  12  34  1   
 31  12  35  1   
 32  13  15  1   
 33  13  36  1   
 34  13  37  1   
 35  14  38  1   
 36  14  39  1   
 37  15  16  2   
 38  15  40  1   
 39  16  17  1   
 40  16  18  1   
 41  17  41  1   
 42  17  42  1   
 43  17  43  1   
 44  18  44  1   
 45  18  45  1   
 46  18  46  1   
@<TRIPOS>SUBSTRUCTURE
  1 ****   2 GROUP 4 **** **** 0

# MOE 2024.06 (io_trps.svl 2023.06)
