@<TRIPOS>MOLECULE
NONAME
40 41 1 0 0 
SMALL
USER_CHARGES


@<TRIPOS>ATOM
  1 BR      -2.9270     1.5450    -3.5090 Br    1 <1>  -0.0580 
  2 C       -2.8920     0.7920    -1.7390 C.2   1 <1>   0.1980 
  3 O       -3.8460    -0.0530    -1.4170 O.3   1 <1>  -0.2800 
  4 C       -2.0140     1.0070    -0.7410 C.2   1 <1>  -0.1500 
  5 C       -3.6010    -0.4150    -0.1670 C.2   1 <1>  -0.0400 
  6 C       -2.4890     0.2020     0.3060 C.2   1 <1>  -0.1500 
  7 C       -4.5630    -1.3890     0.4900 C.3   1 <1>   0.5230 
  8 N       -5.9500    -0.9220     0.2220 N.4   1 <1>  -0.9590 
  9 C       -6.2270     0.3990     0.8470 C.3   1 <1>   0.4860 
 10 C       -7.0100    -1.9190     0.5300 C.3   1 <1>   0.3430 
 11 C       -7.4290     0.9970     0.1470 C.ar  1 <1>  -0.1430 
 12 C       -6.9580    -3.0810    -0.4650 C.3   1 <1>  -0.1600 
 13 C       -8.6630     1.0430     0.7800 C.ar  1 <1>  -0.1500 
 14 C       -7.3010     1.4950    -1.1420 C.ar  1 <1>  -0.1500 
 15 C       -8.1280    -4.0550    -0.2660 C.3   1 <1>  -0.1600 
 16 C       -9.7610     1.5700     0.1240 C.ar  1 <1>  -0.1500 
 17 C       -8.4010     2.0220    -1.7960 C.ar  1 <1>  -0.1500 
 18 C       -9.4910    -3.4060    -0.5390 C.3   1 <1>  -0.2400 
 19 C       -9.6310     2.0570    -1.1640 C.ar  1 <1>  -0.1500 
 20 H       -1.1450     1.6420    -0.7280 H     1 <1>   0.1500 
 21 H       -2.0210     0.1280     1.2740 H     1 <1>   0.1500 
 22 H       -4.3750    -1.4480     1.5500 H     1 <1>   0.0800 
 23 H       -4.4110    -2.3630     0.0560 H     1 <1>   0.0800 
 24 H       -5.9850    -0.7370    -0.7910 H     1 <1>   0.4500 
 25 H       -5.3870     1.0630     0.7150 H     1 <1>   0.0800 
 26 H       -6.4200     0.2900     1.9010 H     1 <1>   0.0800 
 27 H       -7.9760    -1.4480     0.4460 H     1 <1>   0.0800 
 28 H       -6.9040    -2.2870     1.5370 H     1 <1>   0.0800 
 29 H       -6.0440    -3.6350    -0.3420 H     1 <1>   0.0800 
 30 H       -6.9960    -2.7010    -1.4710 H     1 <1>   0.0800 
 31 H       -8.7890     0.6750     1.7840 H     1 <1>   0.1500 
 32 H       -6.3520     1.4860    -1.6520 H     1 <1>   0.1500 
 33 H       -8.1150    -4.4560     0.7340 H     1 <1>   0.0800 
 34 H       -8.0060    -4.8840    -0.9440 H     1 <1>   0.0800 
 35 H      -10.7200     1.6070     0.6130 H     1 <1>   0.1500 
 36 H       -8.3030     2.4090    -2.7970 H     1 <1>   0.1500 
 37 H       -9.7170    -2.6370     0.1770 H     1 <1>   0.0800 
 38 H      -10.2650    -4.1520    -0.4760 H     1 <1>   0.0800 
 39 H       -9.5190    -2.9820    -1.5280 H     1 <1>   0.0800 
 40 H      -10.4860     2.4690    -1.6740 H     1 <1>   0.1500 
@<TRIPOS>BOND
  1   1   2  1   
  2   2   3  1   
  3   2   4  2   
  4   3   5  1   
  5   4   6  1   
  6   4  20  1   
  7   5   6  2   
  8   5   7  1   
  9   6  21  1   
 10   7   8  1   
 11   7  22  1   
 12   7  23  1   
 13   8   9  1   
 14   8  10  1   
 15   8  24  1   
 16   9  11  1   
 17   9  25  1   
 18   9  26  1   
 19  10  12  1   
 20  10  27  1   
 21  10  28  1   
 22  11  13  ar  
 23  11  14  ar  
 24  12  15  1   
 25  12  29  1   
 26  12  30  1   
 27  13  16  ar  
 28  13  31  1   
 29  14  17  ar  
 30  14  32  1   
 31  15  18  1   
 32  15  33  1   
 33  15  34  1   
 34  16  19  ar  
 35  16  35  1   
 36  17  19  ar  
 37  17  36  1   
 38  18  37  1   
 39  18  38  1   
 40  18  39  1   
 41  19  40  1   
@<TRIPOS>SUBSTRUCTURE
  1 ****   8 GROUP 4 **** **** 0

# MOE 2024.06 (io_trps.svl 2023.06)
