@<TRIPOS>MOLECULE
NONAME
43 44 1 0 0 
SMALL
USER_CHARGES


@<TRIPOS>ATOM
  1 O        3.4580    -3.0050     0.7030 O.3   1 <1>  -0.5600 
  2 C        3.4170    -1.6420     0.3630 C.3   1 <1>   0.6240 
  3 C        4.4140    -3.8180     0.0750 C.3   1 <1>   0.0400 
  4 C        2.6390    -0.9800     1.4600 C.1   1 <1>  -0.2000 
  5 C        4.8290    -1.0180     0.3400 C.ar  1 <1>  -0.1440 
  6 C        2.6230    -1.5320    -0.9560 C.3   1 <1>  -0.1600 
  7 C        2.0440    -0.4530     2.3470 C.1   1 <1>  -0.1770 
  8 C        5.3340    -0.3040    -0.7460 C.ar  1 <1>  -0.1500 
  9 C        5.6420    -1.1580     1.4620 C.ar  1 <1>  -0.1500 
 10 C        1.3850    -2.4380    -1.0170 C.3   1 <1>   0.3430 
 11 C        6.6080     0.2350    -0.7110 C.ar  1 <1>  -0.1500 
 12 C        6.9150    -0.6190     1.4990 C.ar  1 <1>  -0.1500 
 13 N        0.3160    -2.0220    -0.0690 N.4   1 <1>  -0.9590 
 14 C        7.4010     0.0780     0.4100 C.ar  1 <1>  -0.1500 
 15 C       -0.6110    -3.1530     0.2140 C.3   1 <1>   0.3430 
 16 C       -0.4100    -0.7940    -0.5100 C.3   1 <1>   0.3430 
 17 C       -1.5850    -2.7530     1.3230 C.3   1 <1>  -0.1600 
 18 C       -1.3890    -0.3530     0.5800 C.3   1 <1>  -0.1600 
 19 C       -2.3580    -1.4770     0.9670 C.3   1 <1>  -0.1600 
 20 H        4.2040    -4.8410     0.3350 H     1 <1>   0.0800 
 21 H        5.3980    -3.5670     0.4300 H     1 <1>   0.0800 
 22 H        4.3640    -3.7000    -0.9930 H     1 <1>   0.0800 
 23 H        3.2680    -1.8350    -1.7580 H     1 <1>   0.0800 
 24 H        2.3590    -0.5080    -1.1420 H     1 <1>   0.0800 
 25 H        1.5530     0.0340     3.1740 H     1 <1>   0.1770 
 26 H        4.7580    -0.1430    -1.6380 H     1 <1>   0.1500 
 27 H        5.2800    -1.6960     2.3220 H     1 <1>   0.1500 
 28 H        1.6930    -3.4450    -0.7840 H     1 <1>   0.0800 
 29 H        0.9910    -2.4410    -2.0200 H     1 <1>   0.0800 
 30 H        6.9870     0.7830    -1.5570 H     1 <1>   0.1500 
 31 H        7.5270    -0.7410     2.3760 H     1 <1>   0.1500 
 32 H        0.7800    -1.7990     0.8280 H     1 <1>   0.4500 
 33 H        8.3910     0.4980     0.4360 H     1 <1>   0.1500 
 34 H       -0.0490    -4.0190     0.5270 H     1 <1>   0.0800 
 35 H       -1.1620    -3.4060    -0.6770 H     1 <1>   0.0800 
 36 H       -0.9520    -0.9980    -1.4190 H     1 <1>   0.0800 
 37 H        0.2900     0.0030    -0.7000 H     1 <1>   0.0800 
 38 H       -1.0390    -2.6090     2.2400 H     1 <1>   0.0800 
 39 H       -2.2810    -3.5580     1.4870 H     1 <1>   0.0800 
 40 H       -1.9490     0.4950     0.2270 H     1 <1>   0.0800 
 41 H       -0.8360    -0.0320     1.4460 H     1 <1>   0.0800 
 42 H       -2.9610    -1.1680     1.8060 H     1 <1>   0.0800 
 43 H       -3.0230    -1.6780     0.1430 H     1 <1>   0.0800 
@<TRIPOS>BOND
  1   1   2  1   
  2   1   3  1   
  3   2   4  1   
  4   2   5  1   
  5   2   6  1   
  6   3  20  1   
  7   3  21  1   
  8   3  22  1   
  9   4   7  3   
 10   5   8  ar  
 11   5   9  ar  
 12   6  10  1   
 13   6  23  1   
 14   6  24  1   
 15   7  25  1   
 16   8  11  ar  
 17   8  26  1   
 18   9  12  ar  
 19   9  27  1   
 20  10  13  1   
 21  10  28  1   
 22  10  29  1   
 23  11  14  ar  
 24  11  30  1   
 25  12  14  ar  
 26  12  31  1   
 27  13  15  1   
 28  13  16  1   
 29  13  32  1   
 30  14  33  1   
 31  15  17  1   
 32  15  34  1   
 33  15  35  1   
 34  16  18  1   
 35  16  36  1   
 36  16  37  1   
 37  17  19  1   
 38  17  38  1   
 39  17  39  1   
 40  18  19  1   
 41  18  40  1   
 42  18  41  1   
 43  19  42  1   
 44  19  43  1   
@<TRIPOS>SUBSTRUCTURE
  1 ****   2 GROUP 4 **** **** 0

# MOE 2024.06 (io_trps.svl 2023.06)
