@<TRIPOS>MOLECULE
NONAME
40 41 1 0 0 
SMALL
USER_CHARGES


@<TRIPOS>ATOM
  1 S       -0.7090     0.4620     0.7840 S.o2  1 <1>   1.3330 
  2 O       -1.9250     0.7960     0.0800 O.2   1 <1>  -0.6500 
  3 O       -0.5490     0.8450     2.1680 O.2   1 <1>  -0.6500 
  4 N        0.5960     1.1050    -0.0850 N.am  1 <1>  -0.8490 
  5 C       -0.4680    -1.2950     0.6290 C.3   1 <1>  -0.1350 
  6 C        1.8560     1.0530     0.6770 C.3   1 <1>   0.1960 
  7 C        0.3140     2.4810    -0.5090 C.3   1 <1>   0.1960 
  8 C        3.0400     1.4840    -0.2050 C.3   1 <1>  -0.0190 
  9 C        1.4350     3.0030    -1.4150 C.3   1 <1>  -0.1600 
 10 C        4.3640     1.3750     0.5430 C.2   1 <1>   0.5690 
 11 C        2.8070     2.9120    -0.7350 C.3   1 <1>  -0.1600 
 12 O        4.3560     1.2400     1.7420 O.2   1 <1>  -0.5700 
 13 N        5.5130     1.4250    -0.2020 N.am  1 <1>  -0.5470 
 14 C        6.8630     1.3980     0.1820 C.ar  1 <1>   0.1170 
 15 C        7.8180     1.0370    -0.7630 C.ar  1 <1>  -0.1500 
 16 C        7.2970     1.7330     1.4590 C.ar  1 <1>  -0.1500 
 17 C        9.1750     0.9980    -0.4580 C.ar  1 <1>  -0.1440 
 18 C        8.6400     1.7020     1.7820 C.ar  1 <1>  -0.1500 
 19 C        9.5750     1.3380     0.8300 C.ar  1 <1>  -0.1500 
 20 C       10.2150     0.5990    -1.5170 C.3   1 <1>   1.1630 
 21 F       10.6920     1.6540    -2.1630 F     1 <1>  -0.3400 
 22 F        9.7170    -0.2110    -2.4450 F     1 <1>  -0.3400 
 23 F       11.2640    -0.0310    -1.0020 F     1 <1>  -0.3400 
 24 H       -1.2730    -1.8150     1.1100 H     1 <1>   0.0800 
 25 H        0.4530    -1.5920     1.0880 H     1 <1>   0.0800 
 26 H       -0.4490    -1.5720    -0.4060 H     1 <1>   0.0800 
 27 H        2.0310     0.0500     1.0280 H     1 <1>   0.0800 
 28 H        1.7910     1.6960     1.5410 H     1 <1>   0.0800 
 29 H        0.2070     3.1150     0.3570 H     1 <1>   0.0800 
 30 H       -0.6120     2.5120    -1.0610 H     1 <1>   0.0800 
 31 H        3.0820     0.8030    -1.0360 H     1 <1>   0.0800 
 32 H        1.2290     4.0260    -1.6770 H     1 <1>   0.0800 
 33 H        1.4370     2.4270    -2.3240 H     1 <1>   0.0800 
 34 H        3.5770     3.1870    -1.4340 H     1 <1>   0.0800 
 35 H        2.8420     3.6050     0.0890 H     1 <1>   0.0800 
 36 H        5.3640     1.4760    -1.2080 H     1 <1>   0.3700 
 37 H        7.4890     0.7800    -1.7550 H     1 <1>   0.1500 
 38 H        6.5880     2.0250     2.2130 H     1 <1>   0.1500 
 39 H        8.9560     1.9640     2.7780 H     1 <1>   0.1500 
 40 H       10.6180     1.3230     1.1040 H     1 <1>   0.1500 
@<TRIPOS>BOND
  1   1   2  2   
  2   1   3  2   
  3   1   4  am  
  4   1   5  1   
  5   4   6  1   
  6   4   7  1   
  7   5  24  1   
  8   5  25  1   
  9   5  26  1   
 10   6   8  1   
 11   6  27  1   
 12   6  28  1   
 13   7   9  1   
 14   7  29  1   
 15   7  30  1   
 16   8  10  1   
 17   8  11  1   
 18   8  31  1   
 19   9  11  1   
 20   9  32  1   
 21   9  33  1   
 22  10  12  2   
 23  10  13  am  
 24  11  34  1   
 25  11  35  1   
 26  13  14  1   
 27  13  36  1   
 28  14  15  ar  
 29  14  16  ar  
 30  15  17  ar  
 31  15  37  1   
 32  16  18  ar  
 33  16  38  1   
 34  17  19  ar  
 35  17  20  1   
 36  18  19  ar  
 37  18  39  1   
 38  19  40  1   
 39  20  21  1   
 40  20  22  1   
 41  20  23  1   
@<TRIPOS>SUBSTRUCTURE
  1 ****  13 GROUP 4 **** **** 0

# MOE 2024.06 (io_trps.svl 2023.06)
