@<TRIPOS>MOLECULE
NONAME
49 51 1 0 0 
SMALL
USER_CHARGES


@<TRIPOS>ATOM
  1 CL      -0.7590    -0.3730     0.7070 Cl    1 <1>  -0.1770 
  2 C       -2.1390     0.6820     0.5180 C.ar  1 <1>   0.1770 
  3 C       -2.9350     0.5630    -0.6070 C.ar  1 <1>  -0.1500 
  4 C       -2.4160     1.6200     1.4960 C.ar  1 <1>  -0.1500 
  5 C       -4.0270     1.4000    -0.7530 C.ar  1 <1>  -0.1500 
  6 C       -3.5110     2.4510     1.3410 C.ar  1 <1>  -0.1500 
  7 C       -4.3250     2.3510     0.2190 C.ar  1 <1>   0.1000 
  8 N       -5.4160     3.2010     0.0950 N.pl3 1 <1>  -0.8380 
  9 C       -6.7610     2.5570     0.1400 C.3   1 <1>   0.2090 
 10 C       -5.3440     4.2060    -1.0060 C.3   1 <1>   0.2090 
 11 C       -7.8770     3.6130     0.2520 C.3   1 <1>   0.1100 
 12 C       -6.4760     5.2430    -0.8810 C.3   1 <1>   0.1100 
 13 N       -7.8160     4.6130    -0.8400 N.3   1 <1>  -0.8100 
 14 C       -8.8820     5.6530    -0.7520 C.3   1 <1>   0.1710 
 15 C      -10.3320     5.1480    -0.7710 C.2   1 <1>   0.5690 
 16 O      -10.9380     5.1530    -1.8160 O.2   1 <1>  -0.5700 
 17 N      -10.8970     4.7460     0.4060 N.am  1 <1>  -0.7300 
 18 C      -12.2520     4.1990     0.6310 C.3   1 <1>   0.2200 
 19 C      -12.4480     2.8880    -0.1410 C.3   1 <1>  -0.1600 
 20 C      -13.3310     5.2310     0.2790 C.3   1 <1>  -0.1600 
 21 C      -13.8520     2.3140     0.1010 C.3   1 <1>  -0.1600 
 22 C      -14.7360     4.6580     0.5210 C.3   1 <1>  -0.1600 
 23 C      -14.9370     3.3430    -0.2470 C.3   1 <1>  -0.1600 
 24 H       -2.6980    -0.1740    -1.3530 H     1 <1>   0.1500 
 25 H       -1.7840     1.6940     2.3620 H     1 <1>   0.1500 
 26 H       -4.6550     1.3210    -1.6210 H     1 <1>   0.1500 
 27 H       -3.7490     3.1890     2.0850 H     1 <1>   0.1500 
 28 H       -6.8080     1.8940     0.9860 H     1 <1>   0.0800 
 29 H       -6.9160     1.9770    -0.7520 H     1 <1>   0.0800 
 30 H       -5.4250     3.7100    -1.9570 H     1 <1>   0.0800 
 31 H       -4.3920     4.7070    -0.9670 H     1 <1>   0.0800 
 32 H       -7.7910     4.1060     1.2050 H     1 <1>   0.0800 
 33 H       -8.8210     3.1000     0.2150 H     1 <1>   0.0800 
 34 H       -6.4230     5.9110    -1.7220 H     1 <1>   0.0800 
 35 H       -6.3150     5.8170     0.0160 H     1 <1>   0.0800 
 36 H       -8.7740     6.3190    -1.5900 H     1 <1>   0.0800 
 37 H       -8.7390     6.2340     0.1410 H     1 <1>   0.0800 
 38 H      -10.3180     4.7730     1.2440 H     1 <1>   0.3700 
 39 H      -12.3440     3.9770     1.6810 H     1 <1>   0.0800 
 40 H      -11.7080     2.1710     0.1690 H     1 <1>   0.0800 
 41 H      -12.3260     3.0670    -1.1950 H     1 <1>   0.0800 
 42 H      -13.2470     5.5040    -0.7580 H     1 <1>   0.0800 
 43 H      -13.1960     6.1140     0.8760 H     1 <1>   0.0800 
 44 H      -13.9500     2.0260     1.1340 H     1 <1>   0.0800 
 45 H      -13.9870     1.4320    -0.5020 H     1 <1>   0.0800 
 46 H      -15.4750     5.3750     0.2060 H     1 <1>   0.0800 
 47 H      -14.8760     4.4810     1.5740 H     1 <1>   0.0800 
 48 H      -15.9070     2.9360    -0.0180 H     1 <1>   0.0800 
 49 H      -14.9060     3.5450    -1.3040 H     1 <1>   0.0800 
@<TRIPOS>BOND
  1   1   2  1   
  2   2   3  ar  
  3   2   4  ar  
  4   3   5  ar  
  5   3  24  1   
  6   4   6  ar  
  7   4  25  1   
  8   5   7  ar  
  9   5  26  1   
 10   6   7  ar  
 11   6  27  1   
 12   7   8  1   
 13   8   9  1   
 14   8  10  1   
 15   9  11  1   
 16   9  28  1   
 17   9  29  1   
 18  10  12  1   
 19  10  30  1   
 20  10  31  1   
 21  11  13  1   
 22  11  32  1   
 23  11  33  1   
 24  12  13  1   
 25  12  34  1   
 26  12  35  1   
 27  13  14  1   
 28  14  15  1   
 29  14  36  1   
 30  14  37  1   
 31  15  16  2   
 32  15  17  am  
 33  17  18  1   
 34  17  38  1   
 35  18  19  1   
 36  18  20  1   
 37  18  39  1   
 38  19  21  1   
 39  19  40  1   
 40  19  41  1   
 41  20  22  1   
 42  20  42  1   
 43  20  43  1   
 44  21  23  1   
 45  21  44  1   
 46  21  45  1   
 47  22  23  1   
 48  22  46  1   
 49  22  47  1   
 50  23  48  1   
 51  23  49  1   
@<TRIPOS>SUBSTRUCTURE
  1 ****  11 GROUP 4 **** **** 0

# MOE 2024.06 (io_trps.svl 2023.06)
