@<TRIPOS>MOLECULE
NONAME
38 38 1 0 0 
SMALL
USER_CHARGES


@<TRIPOS>ATOM
  1 O        0.8950    -3.2250     0.1340 O.3   1 <1>  -0.5600 
  2 C       -0.2950    -3.9390     0.2290 C.3   1 <1>   0.2000 
  3 C        1.9950    -3.7870     0.7860 C.3   1 <1>   0.1200 
  4 C       -0.3230    -4.9970    -0.8740 C.3   1 <1>  -0.2400 
  5 C       -1.4220    -2.9290     0.0510 C.3   1 <1>  -0.2400 
  6 C        3.2030    -2.8720     0.5530 C.3   1 <1>   0.2000 
  7 O        3.2400    -2.5360    -0.8000 O.3   1 <1>  -0.6800 
  8 C        4.5450    -3.5220     0.9490 C.3   1 <1>   0.3430 
  9 N        5.6710    -2.8770     0.2060 N.4   1 <1>  -0.9590 
 10 C        6.8230    -3.7940    -0.0090 C.3   1 <1>   0.3430 
 11 C        6.0680    -1.5630     0.7860 C.3   1 <1>   0.3430 
 12 C        7.8360    -3.1360    -0.9470 C.3   1 <1>  -0.1600 
 13 C        7.0710    -0.8740    -0.1410 C.3   1 <1>  -0.1600 
 14 C        8.2870    -1.7640    -0.4280 C.3   1 <1>  -0.1600 
 15 H       -0.3680    -4.3920     1.2050 H     1 <1>   0.0800 
 16 H        2.1790    -4.7670     0.3790 H     1 <1>   0.0800 
 17 H        1.7740    -3.8670     1.8370 H     1 <1>   0.0800 
 18 H       -0.1920    -4.5370    -1.8370 H     1 <1>   0.0800 
 19 H       -1.2720    -5.5020    -0.8670 H     1 <1>   0.0800 
 20 H        0.4430    -5.7340    -0.7210 H     1 <1>   0.0800 
 21 H       -1.3510    -2.4510    -0.9100 H     1 <1>   0.0800 
 22 H       -1.3740    -2.1830     0.8240 H     1 <1>   0.0800 
 23 H       -2.3740    -3.4240     0.1170 H     1 <1>   0.0800 
 24 H        3.0600    -1.9610     1.1090 H     1 <1>   0.0800 
 25 H        2.2980    -2.4340    -1.0870 H     1 <1>   0.4000 
 26 H        4.4980    -4.5650     0.6830 H     1 <1>   0.0800 
 27 H        4.6970    -3.4560     2.0130 H     1 <1>   0.0800 
 28 H        5.2440    -2.6640    -0.7170 H     1 <1>   0.4500 
 29 H        6.4820    -4.7200    -0.4450 H     1 <1>   0.0800 
 30 H        7.2960    -4.0130     0.9350 H     1 <1>   0.0800 
 31 H        6.5170    -1.7120     1.7550 H     1 <1>   0.0800 
 32 H        5.2010    -0.9330     0.9030 H     1 <1>   0.0800 
 33 H        7.3980    -3.0310    -1.9250 H     1 <1>   0.0800 
 34 H        8.6930    -3.7790    -1.0470 H     1 <1>   0.0800 
 35 H        7.3990     0.0440     0.3150 H     1 <1>   0.0800 
 36 H        6.5790    -0.6170    -1.0630 H     1 <1>   0.0800 
 37 H        8.9230    -1.2890    -1.1570 H     1 <1>   0.0800 
 38 H        8.8620    -1.8910     0.4740 H     1 <1>   0.0800 
@<TRIPOS>BOND
  1   1   2  1   
  2   1   3  1   
  3   2   4  1   
  4   2   5  1   
  5   2  15  1   
  6   3   6  1   
  7   3  16  1   
  8   3  17  1   
  9   4  18  1   
 10   4  19  1   
 11   4  20  1   
 12   5  21  1   
 13   5  22  1   
 14   5  23  1   
 15   6   7  1   
 16   6   8  1   
 17   6  24  1   
 18   7  25  1   
 19   8   9  1   
 20   8  26  1   
 21   8  27  1   
 22   9  10  1   
 23   9  11  1   
 24   9  28  1   
 25  10  12  1   
 26  10  29  1   
 27  10  30  1   
 28  11  13  1   
 29  11  31  1   
 30  11  32  1   
 31  12  14  1   
 32  12  33  1   
 33  12  34  1   
 34  13  14  1   
 35  13  35  1   
 36  13  36  1   
 37  14  37  1   
 38  14  38  1   
@<TRIPOS>SUBSTRUCTURE
  1 ****   6 GROUP 4 **** **** 0

# MOE 2024.06 (io_trps.svl 2023.06)
