@<TRIPOS>MOLECULE
NONAME
27 27 1 0 0 
SMALL
USER_CHARGES


@<TRIPOS>ATOM
  1 S       -0.1830    -0.1210    -0.1710 S.o2  1 <1>   1.4470 
  2 O       -0.8140     1.1010    -0.6050 O.2   1 <1>  -0.6500 
  3 O       -0.6480    -1.3980    -0.6540 O.2   1 <1>  -0.6500 
  4 N       -0.5790    -0.1880     1.4330 N.am  1 <1>  -0.9780 
  5 C        1.6250     0.0040    -0.1900 C.ar  1 <1>  -0.0090 
  6 C        2.4220    -1.1070    -0.4420 C.ar  1 <1>  -0.1500 
  7 C        2.2620     1.2130     0.0640 C.ar  1 <1>  -0.1500 
  8 C        3.8050    -1.0270    -0.4470 C.ar  1 <1>  -0.1430 
  9 C        3.6420     1.3130     0.0630 C.ar  1 <1>  -0.1500 
 10 C        4.4250     0.1920    -0.1940 C.ar  1 <1>   0.0830 
 11 C        4.6350    -2.2710    -0.7300 C.3   1 <1>  -0.0970 
 12 O        5.7830     0.2260    -0.2100 O.3   1 <1>  -0.3630 
 13 C        6.5030     1.4130     0.0290 C.3   1 <1>   0.1200 
 14 C        7.9910     1.0900    -0.0690 C.3   1 <1>  -0.2400 
 15 H       -0.9340    -1.1350     1.5450 H     1 <1>   0.4200 
 16 H       -1.3860     0.4270     1.4990 H     1 <1>   0.4200 
 17 H        1.9440    -2.0530    -0.6380 H     1 <1>   0.1500 
 18 H        1.6670     2.0870     0.2660 H     1 <1>   0.1500 
 19 H        4.0850     2.2700     0.2650 H     1 <1>   0.1500 
 20 H        4.0100    -3.1270    -0.9080 H     1 <1>   0.0800 
 21 H        5.2750    -2.4800     0.1090 H     1 <1>   0.0800 
 22 H        5.2490    -2.1080    -1.5980 H     1 <1>   0.0800 
 23 H        6.2550     1.7690     1.0140 H     1 <1>   0.0800 
 24 H        6.2210     2.1380    -0.7150 H     1 <1>   0.0800 
 25 H        8.2580     0.3530     0.6660 H     1 <1>   0.0800 
 26 H        8.5690     1.9780     0.1080 H     1 <1>   0.0800 
 27 H        8.2240     0.7190    -1.0510 H     1 <1>   0.0800 
@<TRIPOS>BOND
  1   1   2  2   
  2   1   3  2   
  3   1   4  am  
  4   1   5  1   
  5   4  15  1   
  6   4  16  1   
  7   5   6  ar  
  8   5   7  ar  
  9   6   8  ar  
 10   6  17  1   
 11   7   9  ar  
 12   7  18  1   
 13   8  10  ar  
 14   8  11  1   
 15   9  10  ar  
 16   9  19  1   
 17  10  12  1   
 18  11  20  1   
 19  11  21  1   
 20  11  22  1   
 21  12  13  1   
 22  13  14  1   
 23  13  23  1   
 24  13  24  1   
 25  14  25  1   
 26  14  26  1   
 27  14  27  1   
@<TRIPOS>SUBSTRUCTURE
  1 ****   6 GROUP 4 **** **** 0

# MOE 2024.06 (io_trps.svl 2023.06)
