@<TRIPOS>MOLECULE
NONAME
40 42 1 0 0 
SMALL
USER_CHARGES


@<TRIPOS>ATOM
  1 S        0.2190    -0.9650     1.4850 S.3   1 <1>  -0.0800 
  2 C       -1.0730    -0.8870     0.2780 C.2   1 <1>   0.4420 
  3 C        1.3540    -0.3730     0.2960 C.ar  1 <1>   0.0400 
  4 N       -0.6940    -0.4690    -0.8690 N.2   1 <1>  -0.5650 
  5 N       -2.3550    -1.2590     0.5950 N.am  1 <1>  -0.4940 
  6 C        0.6630    -0.1750    -0.8840 C.ar  1 <1>   0.2270 
  7 C        2.7050    -0.1280     0.4460 C.ar  1 <1>  -0.1500 
  8 C       -2.9540    -1.6760     1.7460 C.2   1 <1>   0.5690 
  9 C        1.3730     0.2970    -1.9810 C.ar  1 <1>  -0.1500 
 10 C        3.3960     0.3430    -0.6590 C.ar  1 <1>  -0.1500 
 11 O       -2.3930    -1.7810     2.8080 O.2   1 <1>  -0.5700 
 12 C       -4.4390    -2.0270     1.6490 C.3   1 <1>   0.1710 
 13 C        2.7310     0.5540    -1.8650 C.ar  1 <1>  -0.1500 
 14 N       -5.1340    -1.3920     0.4880 N.3   1 <1>  -0.8100 
 15 C       -5.3780     0.0400     0.7450 C.3   1 <1>   0.1100 
 16 C       -6.3920    -2.0960     0.1970 C.3   1 <1>   0.1100 
 17 C       -5.9700     0.6960    -0.5040 C.3   1 <1>  -0.1600 
 18 C       -7.0260    -1.5200    -1.0710 C.3   1 <1>  -0.1600 
 19 C       -7.2700    -0.0070    -0.9330 C.3   1 <1>  -0.0190 
 20 C       -7.8630     0.5970    -2.2030 C.2   1 <1>   0.5690 
 21 O       -8.9610     1.0880    -2.1750 O.2   1 <1>  -0.5700 
 22 N       -7.1640     0.5810    -3.3540 N.am  1 <1>  -0.8000 
 23 H       -3.0210    -1.1790    -0.1770 H     1 <1>   0.3700 
 24 H        3.1930    -0.3000     1.3890 H     1 <1>   0.1500 
 25 H        0.8540     0.4570    -2.9080 H     1 <1>   0.1500 
 26 H        4.4510     0.5480    -0.5870 H     1 <1>   0.1500 
 27 H       -4.9260    -1.7500     2.5680 H     1 <1>   0.0800 
 28 H       -4.4970    -3.0970     1.5570 H     1 <1>   0.0800 
 29 H        3.2800     0.9200    -2.7160 H     1 <1>   0.1500 
 30 H       -4.4550     0.5350     0.9960 H     1 <1>   0.0800 
 31 H       -6.0570     0.1550     1.5750 H     1 <1>   0.0800 
 32 H       -7.0720    -1.9970     1.0270 H     1 <1>   0.0800 
 33 H       -6.1940    -3.1440     0.0420 H     1 <1>   0.0800 
 34 H       -5.2410     0.6530    -1.2940 H     1 <1>   0.0800 
 35 H       -6.1730     1.7320    -0.2990 H     1 <1>   0.0800 
 36 H       -7.9620    -2.0180    -1.2590 H     1 <1>   0.0800 
 37 H       -6.3750    -1.7200    -1.9030 H     1 <1>   0.0800 
 38 H       -7.9940     0.1380    -0.1500 H     1 <1>   0.0800 
 39 H       -7.5780     0.9870    -4.1940 H     1 <1>   0.3700 
 40 H       -6.2320     0.1810    -3.4430 H     1 <1>   0.3700 
@<TRIPOS>BOND
  1   1   2  1   
  2   1   3  1   
  3   2   4  2   
  4   2   5  1   
  5   3   6  ar  
  6   3   7  ar  
  7   4   6  1   
  8   5   8  am  
  9   5  23  1   
 10   6   9  ar  
 11   7  10  ar  
 12   7  24  1   
 13   8  11  2   
 14   8  12  1   
 15   9  13  ar  
 16   9  25  1   
 17  10  13  ar  
 18  10  26  1   
 19  12  14  1   
 20  12  27  1   
 21  12  28  1   
 22  13  29  1   
 23  14  15  1   
 24  14  16  1   
 25  15  17  1   
 26  15  30  1   
 27  15  31  1   
 28  16  18  1   
 29  16  32  1   
 30  16  33  1   
 31  17  19  1   
 32  17  34  1   
 33  17  35  1   
 34  18  19  1   
 35  18  36  1   
 36  18  37  1   
 37  19  20  1   
 38  19  38  1   
 39  20  21  2   
 40  20  22  am  
 41  22  39  1   
 42  22  40  1   
@<TRIPOS>SUBSTRUCTURE
  1 ****   5 GROUP 4 **** **** 0

# MOE 2024.06 (io_trps.svl 2023.06)
