@<TRIPOS>MOLECULE
NONAME
41 42 1 0 0 
SMALL
USER_CHARGES


@<TRIPOS>ATOM
  1 O        1.3120     0.3300     1.1870 O.3   1 <1>  -0.6800 
  2 C        1.4140    -1.0500     1.1650 C.3   1 <1>   0.1200 
  3 C        1.1430    -1.5100    -0.2740 C.3   1 <1>   0.3430 
  4 N        1.2030    -3.0030    -0.4170 N.4   1 <1>  -0.9590 
  5 C        2.4720    -3.4670    -1.0350 C.3   1 <1>   0.4860 
  6 C        0.0060    -3.5370    -1.1090 C.3   1 <1>   0.4860 
  7 C        3.5960    -3.2110    -0.0520 C.ar  1 <1>  -0.1440 
  8 C       -1.1360    -3.5000    -0.1150 C.ar  1 <1>  -0.1440 
  9 C        3.7770    -4.0020     1.0820 C.ar  1 <1>  -0.1440 
 10 C        4.4520    -2.1440    -0.2910 C.ar  1 <1>  -0.1500 
 11 C       -2.0790    -2.4830    -0.1610 C.ar  1 <1>  -0.1500 
 12 C       -1.2390    -4.4840     0.8590 C.ar  1 <1>  -0.1500 
 13 C        4.8000    -3.6930     1.9640 C.ar  1 <1>  -0.1500 
 14 C        2.9000    -5.2080     1.4020 C.3   1 <1>  -0.0970 
 15 C        5.4710    -1.8490     0.5950 C.ar  1 <1>  -0.1500 
 16 C       -3.1050    -2.4430     0.7670 C.ar  1 <1>  -0.1500 
 17 C       -2.2660    -4.4420     1.7850 C.ar  1 <1>  -0.1500 
 18 C        5.6430    -2.6230     1.7260 C.ar  1 <1>  -0.1500 
 19 C       -3.1980    -3.4210     1.7400 C.ar  1 <1>  -0.1500 
 20 H        1.4930     0.6880     2.0820 H     1 <1>   0.4000 
 21 H        0.6770    -1.4490     1.8420 H     1 <1>   0.0800 
 22 H        2.4060    -1.3160     1.4870 H     1 <1>   0.0800 
 23 H        1.8630    -1.0470    -0.9280 H     1 <1>   0.0800 
 24 H        0.1630    -1.1560    -0.5480 H     1 <1>   0.0800 
 25 H        1.1840    -3.3910     0.5330 H     1 <1>   0.4500 
 26 H        2.6570    -2.9400    -1.9570 H     1 <1>   0.0800 
 27 H        2.4230    -4.5220    -1.2480 H     1 <1>   0.0800 
 28 H        0.1710    -4.5580    -1.4150 H     1 <1>   0.0800 
 29 H       -0.2280    -2.9470    -1.9800 H     1 <1>   0.0800 
 30 H        4.3410    -1.5260    -1.1660 H     1 <1>   0.1500 
 31 H       -2.0340    -1.7120    -0.9120 H     1 <1>   0.1500 
 32 H       -0.5330    -5.2950     0.9100 H     1 <1>   0.1500 
 33 H        4.9580    -4.2870     2.8490 H     1 <1>   0.1500 
 34 H        1.9820    -4.8930     1.8640 H     1 <1>   0.0800 
 35 H        3.4070    -5.8640     2.0890 H     1 <1>   0.0800 
 36 H        2.6840    -5.7790     0.5180 H     1 <1>   0.0800 
 37 H        6.1330    -1.0200     0.4080 H     1 <1>   0.1500 
 38 H       -3.8370    -1.6530     0.7320 H     1 <1>   0.1500 
 39 H       -2.3480    -5.2050     2.5410 H     1 <1>   0.1500 
 40 H        6.4360    -2.3960     2.4190 H     1 <1>   0.1500 
 41 H       -3.9980    -3.3890     2.4610 H     1 <1>   0.1500 
@<TRIPOS>BOND
  1   1   2  1   
  2   1  20  1   
  3   2   3  1   
  4   2  21  1   
  5   2  22  1   
  6   3   4  1   
  7   3  23  1   
  8   3  24  1   
  9   4   5  1   
 10   4   6  1   
 11   4  25  1   
 12   5   7  1   
 13   5  26  1   
 14   5  27  1   
 15   6   8  1   
 16   6  28  1   
 17   6  29  1   
 18   7   9  ar  
 19   7  10  ar  
 20   8  11  ar  
 21   8  12  ar  
 22   9  13  ar  
 23   9  14  1   
 24  10  15  ar  
 25  10  30  1   
 26  11  16  ar  
 27  11  31  1   
 28  12  17  ar  
 29  12  32  1   
 30  13  18  ar  
 31  13  33  1   
 32  14  34  1   
 33  14  35  1   
 34  14  36  1   
 35  15  18  ar  
 36  15  37  1   
 37  16  19  ar  
 38  16  38  1   
 39  17  19  ar  
 40  17  39  1   
 41  18  40  1   
 42  19  41  1   
@<TRIPOS>SUBSTRUCTURE
  1 ****   4 GROUP 4 **** **** 0

# MOE 2024.06 (io_trps.svl 2023.06)
