@<TRIPOS>MOLECULE
NONAME
38 39 1 0 0 
SMALL
USER_CHARGES


@<TRIPOS>ATOM
  1 F        0.2000     0.9210     0.3750 F     1 <1>  -0.1900 
  2 C        1.4700     1.2120     0.3900 C.ar  1 <1>   0.1900 
  3 C        2.0540     1.6070     1.5760 C.ar  1 <1>  -0.1500 
  4 C        2.1930     1.1160    -0.7830 C.ar  1 <1>  -0.1500 
  5 C        3.4030     1.9160     1.5800 C.ar  1 <1>  -0.1500 
  6 C        3.5410     1.4280    -0.7620 C.ar  1 <1>  -0.1500 
  7 C        4.1780     1.8400     0.4170 C.ar  1 <1>   0.0860 
  8 C        5.5920     2.1770     0.4500 C.2   1 <1>   0.5440 
  9 O        6.2380     2.0870     1.4770 O.2   1 <1>  -0.5700 
 10 N        6.2570     2.5960    -0.6710 N.am  1 <1>  -0.7300 
 11 C        7.5940     3.2710    -0.6470 C.3   1 <1>   0.1400 
 12 C        8.7940     2.2890    -0.6210 C.3   1 <1>   0.4230 
 13 N        8.6490     1.2230     0.4120 N.4   1 <1>  -0.9590 
 14 C       10.1120     2.9910    -0.2960 C.3   1 <1>  -0.1600 
 15 C        9.8770     1.1750     1.2510 C.3   1 <1>   0.3430 
 16 C        8.2740    -0.0790    -0.1880 C.3   1 <1>   0.3430 
 17 C       10.9220     1.9530     0.4700 C.3   1 <1>  -0.1600 
 18 C        7.7750    -1.0210     0.9010 C.3   1 <1>  -0.2400 
 19 H        1.4620     1.6690     2.4730 H     1 <1>   0.1500 
 20 H        1.7020     0.8010    -1.6870 H     1 <1>   0.1500 
 21 H        3.8690     2.2240     2.5020 H     1 <1>   0.1500 
 22 H        4.1010     1.3410    -1.6750 H     1 <1>   0.1500 
 23 H        5.6850     2.8120    -1.4930 H     1 <1>   0.3700 
 24 H        7.6390     3.9040     0.2240 H     1 <1>   0.0800 
 25 H        7.6820     3.9100    -1.5090 H     1 <1>   0.0800 
 26 H        8.8890     1.8270    -1.5900 H     1 <1>   0.0800 
 27 H        7.8430     1.5160     1.0070 H     1 <1>   0.4500 
 28 H        9.9360     3.8440     0.3370 H     1 <1>   0.0800 
 29 H       10.6160     3.3210    -1.1880 H     1 <1>   0.0800 
 30 H       10.1970     0.1630     1.4410 H     1 <1>   0.0800 
 31 H        9.6860     1.6680     2.1900 H     1 <1>   0.0800 
 32 H        9.1200    -0.5110    -0.6980 H     1 <1>   0.0800 
 33 H        7.4830     0.0730    -0.9050 H     1 <1>   0.0800 
 34 H       11.6530     2.4000     1.1220 H     1 <1>   0.0800 
 35 H       11.4230     1.2880    -0.2130 H     1 <1>   0.0800 
 36 H        8.5520    -1.2610     1.6030 H     1 <1>   0.0800 
 37 H        7.4460    -1.9400     0.4490 H     1 <1>   0.0800 
 38 H        6.9390    -0.5900     1.4220 H     1 <1>   0.0800 
@<TRIPOS>BOND
  1   1   2  1   
  2   2   3  ar  
  3   2   4  ar  
  4   3   5  ar  
  5   3  19  1   
  6   4   6  ar  
  7   4  20  1   
  8   5   7  ar  
  9   5  21  1   
 10   6   7  ar  
 11   6  22  1   
 12   7   8  1   
 13   8   9  2   
 14   8  10  am  
 15  10  11  1   
 16  10  23  1   
 17  11  12  1   
 18  11  24  1   
 19  11  25  1   
 20  12  13  1   
 21  12  14  1   
 22  12  26  1   
 23  13  15  1   
 24  13  16  1   
 25  13  27  1   
 26  14  17  1   
 27  14  28  1   
 28  14  29  1   
 29  15  17  1   
 30  15  30  1   
 31  15  31  1   
 32  16  18  1   
 33  16  32  1   
 34  16  33  1   
 35  17  34  1   
 36  17  35  1   
 37  18  36  1   
 38  18  37  1   
 39  18  38  1   
@<TRIPOS>SUBSTRUCTURE
  1 ****   8 GROUP 4 **** **** 0

# MOE 2024.06 (io_trps.svl 2023.06)
