@<TRIPOS>MOLECULE
NONAME
48 49 1 0 0 
SMALL
USER_CHARGES


@<TRIPOS>ATOM
  1 O      -13.3460    -0.9780    -0.3830 O.3   1 <1>  -0.3630 
  2 C      -14.6470    -1.0100     0.0140 C.ar  1 <1>   0.0830 
  3 C      -12.3390    -0.4190     0.4290 C.3   1 <1>   0.1200 
  4 C      -15.5720    -1.5820    -0.8560 C.ar  1 <1>  -0.1440 
  5 C      -15.0770    -0.5010     1.2380 C.ar  1 <1>  -0.1500 
  6 C      -11.0130    -0.5480    -0.3140 C.3   1 <1>   0.1200 
  7 C      -16.9090    -1.6380    -0.4950 C.ar  1 <1>  -0.1500 
  8 C      -15.1290    -2.1460    -2.1990 C.3   1 <1>  -0.0960 
  9 C      -16.4130    -0.5630     1.5870 C.ar  1 <1>  -0.1500 
 10 O       -9.9980     0.0030     0.4740 O.3   1 <1>  -0.5600 
 11 C      -17.3300    -1.1310     0.7210 C.ar  1 <1>  -0.1500 
 12 C       -8.7360    -0.0570    -0.0990 C.3   1 <1>   0.1200 
 13 C       -7.7530     0.5680     0.8990 C.3   1 <1>   0.3430 
 14 N       -6.3280     0.5180     0.4300 N.4   1 <1>  -0.9590 
 15 C       -5.4120     0.8750     1.5520 C.3   1 <1>   0.3430 
 16 C       -6.0900     1.3910    -0.7590 C.3   1 <1>   0.3430 
 17 C       -3.9600     0.6870     1.1130 C.3   1 <1>  -0.1600 
 18 C       -4.6530     1.2150    -1.2480 C.3   1 <1>  -0.1600 
 19 C       -3.6360     1.5160    -0.1380 C.3   1 <1>  -0.0800 
 20 C       -2.2090     1.2320    -0.6210 C.3   1 <1>  -0.2400 
 21 H      -12.3070    -0.9670     1.3540 H     1 <1>   0.0800 
 22 H      -12.5770     0.6160     0.6000 H     1 <1>   0.0800 
 23 H      -14.3910    -0.0540     1.9310 H     1 <1>   0.1500 
 24 H      -11.0620    -0.0090    -1.2450 H     1 <1>   0.0800 
 25 H      -10.7920    -1.5870    -0.4900 H     1 <1>   0.0800 
 26 H      -17.6320    -2.0780    -1.1600 H     1 <1>   0.1500 
 27 H      -14.4090    -2.9290    -2.0440 H     1 <1>   0.0800 
 28 H      -14.6750    -1.3690    -2.7870 H     1 <1>   0.0800 
 29 H      -15.9620    -2.5470    -2.7460 H     1 <1>   0.0800 
 30 H      -16.7420    -0.1690     2.5330 H     1 <1>   0.1500 
 31 H      -18.3700    -1.1790     0.9930 H     1 <1>   0.1500 
 32 H       -8.7590     0.4950    -1.0220 H     1 <1>   0.0800 
 33 H       -8.4930    -1.0910    -0.2770 H     1 <1>   0.0800 
 34 H       -7.8400     0.0290     1.8280 H     1 <1>   0.0800 
 35 H       -8.0400     1.5920     1.0750 H     1 <1>   0.0800 
 36 H       -6.1010    -0.4480     0.1600 H     1 <1>   0.4500 
 37 H       -5.6100     0.2490     2.4080 H     1 <1>   0.0800 
 38 H       -5.5700     1.9020     1.8410 H     1 <1>   0.0800 
 39 H       -6.2550     2.4230    -0.4930 H     1 <1>   0.0800 
 40 H       -6.7690     1.1340    -1.5560 H     1 <1>   0.0800 
 41 H       -3.7760    -0.3570     0.9280 H     1 <1>   0.0800 
 42 H       -3.3120     0.9900     1.9180 H     1 <1>   0.0800 
 43 H       -4.4840     1.8820    -2.0760 H     1 <1>   0.0800 
 44 H       -4.5210     0.2110    -1.6130 H     1 <1>   0.0800 
 45 H       -3.7010     2.5630     0.1150 H     1 <1>   0.0800 
 46 H       -2.0890     0.1970    -0.8870 H     1 <1>   0.0800 
 47 H       -1.4980     1.4700     0.1520 H     1 <1>   0.0800 
 48 H       -1.9770     1.8340    -1.4820 H     1 <1>   0.0800 
@<TRIPOS>BOND
  1   1   2  1   
  2   1   3  1   
  3   2   4  ar  
  4   2   5  ar  
  5   3   6  1   
  6   3  21  1   
  7   3  22  1   
  8   4   7  ar  
  9   4   8  1   
 10   5   9  ar  
 11   5  23  1   
 12   6  10  1   
 13   6  24  1   
 14   6  25  1   
 15   7  11  ar  
 16   7  26  1   
 17   8  27  1   
 18   8  28  1   
 19   8  29  1   
 20   9  11  ar  
 21   9  30  1   
 22  10  12  1   
 23  11  31  1   
 24  12  13  1   
 25  12  32  1   
 26  12  33  1   
 27  13  14  1   
 28  13  34  1   
 29  13  35  1   
 30  14  15  1   
 31  14  16  1   
 32  14  36  1   
 33  15  17  1   
 34  15  37  1   
 35  15  38  1   
 36  16  18  1   
 37  16  39  1   
 38  16  40  1   
 39  17  19  1   
 40  17  41  1   
 41  17  42  1   
 42  18  19  1   
 43  18  43  1   
 44  18  44  1   
 45  19  20  1   
 46  19  45  1   
 47  20  46  1   
 48  20  47  1   
 49  20  48  1   
@<TRIPOS>SUBSTRUCTURE
  1 ****  10 GROUP 4 **** **** 0

# MOE 2024.06 (io_trps.svl 2023.06)
