@<TRIPOS>MOLECULE
NONAME
33 35 1 0 0 
SMALL
USER_CHARGES


@<TRIPOS>ATOM
  1 O        2.8820     4.3020     0.8490 O.2   1 <1>  -0.5700 
  2 C        3.9870     4.2950     0.4040 C.2   1 <1>   0.4480 
  3 C        5.1760     3.8550     1.2560 C.3   1 <1>   0.2290 
  4 C        4.2590     4.7090    -1.0270 C.3   1 <1>  -0.1790 
  5 N        5.7350     2.5330     0.8330 N.pl3 1 <1>  -0.7050 
  6 C        6.9460     2.2320     0.3590 C.cat 1 <1>   1.2000 
  7 C        5.0190     1.3390     0.8780 C.ar  1 <1>   0.3110 
  8 N        7.9460     3.0780     0.1510 N.pl3 1 <1>  -0.8440 
  9 N        7.0600     0.9340     0.0900 N.pl3 1 <1>  -0.7050 
 10 C        5.8530     0.3380     0.4070 C.ar  1 <1>   0.3110 
 11 C        3.7230     1.0420     1.2850 C.ar  1 <1>  -0.1500 
 12 C        9.2600     2.6590    -0.3990 C.3   1 <1>   0.1680 
 13 C        8.2770     0.3000    -0.4610 C.3   1 <1>   0.1680 
 14 C        5.4170    -0.9790     0.3260 C.ar  1 <1>  -0.1500 
 15 C        3.2860    -0.2670     1.2060 C.ar  1 <1>  -0.1500 
 16 C        9.4920     1.1690    -0.1090 C.3   1 <1>  -0.1600 
 17 C        4.1280    -1.2730     0.7290 C.ar  1 <1>  -0.1500 
 18 H        4.8450     3.7790     2.2780 H     1 <1>   0.0800 
 19 H        5.9330     4.6160     1.2170 H     1 <1>   0.0800 
 20 H        4.6770     3.8870    -1.5790 H     1 <1>   0.0800 
 21 H        4.9350     5.5430    -1.0520 H     1 <1>   0.0800 
 22 H        3.3370     5.0010    -1.4960 H     1 <1>   0.0800 
 23 H        7.8310     4.0640     0.3640 H     1 <1>   0.4500 
 24 H        3.0700     1.8150     1.6520 H     1 <1>   0.1500 
 25 H       10.0500     3.2420     0.0490 H     1 <1>   0.0800 
 26 H        9.2730     2.8330    -1.4630 H     1 <1>   0.0800 
 27 H        8.1780     0.2150    -1.5310 H     1 <1>   0.0800 
 28 H        8.4000    -0.6880    -0.0470 H     1 <1>   0.0800 
 29 H        6.0720    -1.7470    -0.0430 H     1 <1>   0.1500 
 30 H        2.2840    -0.5200     1.5150 H     1 <1>   0.1500 
 31 H        9.7230     1.0440     0.9350 H     1 <1>   0.0800 
 32 H       10.3490     0.8250    -0.6610 H     1 <1>   0.0800 
 33 H        3.7620    -2.2860     0.6770 H     1 <1>   0.1500 
@<TRIPOS>BOND
  1   1   2  2   
  2   2   3  1   
  3   2   4  1   
  4   3   5  1   
  5   3  18  1   
  6   3  19  1   
  7   4  20  1   
  8   4  21  1   
  9   4  22  1   
 10   5   6  ar  
 11   5   7  1   
 12   6   8  ar  
 13   6   9  ar  
 14   7  10  ar  
 15   7  11  ar  
 16   8  12  1   
 17   8  23  1   
 18   9  10  1   
 19   9  13  1   
 20  10  14  ar  
 21  11  15  ar  
 22  11  24  1   
 23  12  16  1   
 24  12  25  1   
 25  12  26  1   
 26  13  16  1   
 27  13  27  1   
 28  13  28  1   
 29  14  17  ar  
 30  14  29  1   
 31  15  17  ar  
 32  15  30  1   
 33  16  31  1   
 34  16  32  1   
 35  17  33  1   
@<TRIPOS>SUBSTRUCTURE
  1 ****   5 GROUP 4 **** **** 0

# MOE 2024.06 (io_trps.svl 2023.06)
