@<TRIPOS>MOLECULE
NONAME
48 49 1 0 0 
SMALL
USER_CHARGES


@<TRIPOS>ATOM
  1 O        1.6440    -4.3630    -1.8020 O.2   1 <1>  -0.5700 
  2 C        1.2840    -3.7650    -0.8220 C.2   1 <1>   0.6590 
  3 O        0.0070    -3.5670    -0.5340 O.3   1 <1>  -0.4300 
  4 C        2.2840    -3.1990     0.1830 C.3   1 <1>  -0.0190 
  5 C       -1.0180    -4.0480    -1.3730 C.3   1 <1>   0.1200 
  6 C        3.4640    -2.4980    -0.5200 C.3   1 <1>  -0.1600 
  7 C        2.7950    -4.3100     1.1210 C.3   1 <1>  -0.1600 
  8 C       -2.3570    -3.6570    -0.7570 C.3   1 <1>  -0.2400 
  9 C        4.5320    -2.0360     0.4670 C.3   1 <1>   0.3430 
 10 C        3.8840    -3.8130     2.0710 C.3   1 <1>   0.3430 
 11 N        4.9760    -3.2020     1.2760 N.4   1 <1>  -0.9590 
 12 C        6.1880    -2.9080     2.0860 C.3   1 <1>   0.4860 
 13 C        7.3440    -2.5920     1.1530 C.ar  1 <1>  -0.1440 
 14 C        7.7270    -3.5020     0.1710 C.ar  1 <1>   0.0820 
 15 C        8.0230    -1.3890     1.2730 C.ar  1 <1>  -0.1500 
 16 O        7.0220    -4.6560     0.0740 O.3   1 <1>  -0.3620 
 17 C        8.7910    -3.2060    -0.6740 C.ar  1 <1>  -0.1500 
 18 C        9.0750    -1.0940     0.4230 C.ar  1 <1>  -0.1500 
 19 C        6.9330    -5.3570    -1.1460 C.3   1 <1>   0.2580 
 20 C        9.4590    -2.0020    -0.5470 C.ar  1 <1>  -0.1500 
 21 C        5.6660    -6.1840    -1.0740 C.2   1 <1>  -0.2880 
 22 C        4.5850    -6.0150    -1.8430 C.2   1 <1>  -0.3000 
 23 H        1.7650    -2.4650     0.7760 H     1 <1>   0.0800 
 24 H       -0.9250    -5.1190    -1.4490 H     1 <1>   0.0800 
 25 H       -0.8980    -3.6060    -2.3490 H     1 <1>   0.0800 
 26 H        3.1000    -1.6470    -1.0690 H     1 <1>   0.0800 
 27 H        3.9190    -3.1640    -1.2330 H     1 <1>   0.0800 
 28 H        3.1840    -5.1280     0.5390 H     1 <1>   0.0800 
 29 H        1.9730    -4.6940     1.7000 H     1 <1>   0.0800 
 30 H       -2.4610    -4.0990     0.2180 H     1 <1>   0.0800 
 31 H       -3.1590    -4.0120    -1.3790 H     1 <1>   0.0800 
 32 H       -2.4330    -2.5880    -0.6790 H     1 <1>   0.0800 
 33 H        4.1320    -1.2710     1.1120 H     1 <1>   0.0800 
 34 H        5.3670    -1.6220    -0.0780 H     1 <1>   0.0800 
 35 H        4.2630    -4.6440     2.6450 H     1 <1>   0.0800 
 36 H        3.4720    -3.0850     2.7510 H     1 <1>   0.0800 
 37 H        5.3120    -3.9170     0.6030 H     1 <1>   0.4500 
 38 H        6.4500    -3.7690     2.6790 H     1 <1>   0.0800 
 39 H        6.0040    -2.0770     2.7470 H     1 <1>   0.0800 
 40 H        7.7490    -0.6680     2.0260 H     1 <1>   0.1500 
 41 H        9.1170    -3.9000    -1.4280 H     1 <1>   0.1500 
 42 H        9.6030    -0.1600     0.5180 H     1 <1>   0.1500 
 43 H        7.8060    -5.9780    -1.2560 H     1 <1>   0.0800 
 44 H        6.8760    -4.6480    -1.9560 H     1 <1>   0.0800 
 45 H       10.2830    -1.7710    -1.2020 H     1 <1>   0.1500 
 46 H        5.7250    -6.9510    -0.3200 H     1 <1>   0.1500 
 47 H        3.6950    -6.6190    -1.7750 H     1 <1>   0.1500 
 48 H        4.4850    -5.2670    -2.6120 H     1 <1>   0.1500 
@<TRIPOS>BOND
  1   1   2  2   
  2   2   3  1   
  3   2   4  1   
  4   3   5  1   
  5   4   6  1   
  6   4   7  1   
  7   4  23  1   
  8   5   8  1   
  9   5  24  1   
 10   5  25  1   
 11   6   9  1   
 12   6  26  1   
 13   6  27  1   
 14   7  10  1   
 15   7  28  1   
 16   7  29  1   
 17   8  30  1   
 18   8  31  1   
 19   8  32  1   
 20   9  11  1   
 21   9  33  1   
 22   9  34  1   
 23  10  11  1   
 24  10  35  1   
 25  10  36  1   
 26  11  12  1   
 27  11  37  1   
 28  12  13  1   
 29  12  38  1   
 30  12  39  1   
 31  13  14  ar  
 32  13  15  ar  
 33  14  16  1   
 34  14  17  ar  
 35  15  18  ar  
 36  15  40  1   
 37  16  19  1   
 38  17  20  ar  
 39  17  41  1   
 40  18  20  ar  
 41  18  42  1   
 42  19  21  1   
 43  19  43  1   
 44  19  44  1   
 45  20  45  1   
 46  21  22  2   
 47  21  46  1   
 48  22  47  1   
 49  22  48  1   
@<TRIPOS>SUBSTRUCTURE
  1 ****  11 GROUP 4 **** **** 0

# MOE 2024.06 (io_trps.svl 2023.06)
