@<TRIPOS>MOLECULE
NONAME
52 54 1 0 0 
SMALL
USER_CHARGES


@<TRIPOS>ATOM
  1 O       -4.4570    -0.2560    -1.9370 O.3   1 <1>  -0.3630 
  2 C       -4.1010     0.4370    -0.8160 C.ar  1 <1>   0.0820 
  3 C       -5.6260    -1.0450    -1.9580 C.3   1 <1>   0.0400 
  4 C       -2.8520     1.0510    -0.8120 C.ar  1 <1>   0.0820 
  5 C       -4.9130     0.5610     0.3070 C.ar  1 <1>  -0.1500 
  6 O       -2.0620     0.9440    -1.8930 O.3   1 <1>  -0.5330 
  7 C       -2.4120     1.7640     0.2870 C.ar  1 <1>  -0.1500 
  8 C       -4.4810     1.2820     1.4130 C.ar  1 <1>  -0.1440 
  9 C       -3.2270     1.8790     1.3990 C.ar  1 <1>  -0.1500 
 10 C       -5.3890     1.4240     2.6250 C.3   1 <1>   0.2530 
 11 N       -6.6040     2.1820     2.2650 N.3   1 <1>  -0.8100 
 12 C       -7.5860     2.2160     3.3720 C.3   1 <1>   0.1100 
 13 C       -6.2880     3.5590     1.8000 C.3   1 <1>   0.1100 
 14 C       -8.8980     2.9330     2.9640 C.3   1 <1>   0.3430 
 15 C       -7.5570     4.3870     1.4810 C.3   1 <1>   0.3430 
 16 N       -8.7890     3.5440     1.5960 N.4   1 <1>  -0.9590 
 17 C      -10.0150     4.2060     1.1090 C.3   1 <1>   0.4810 
 18 C      -11.0290     3.1240     0.8340 C.2   1 <1>  -0.2880 
 19 C      -11.3780     2.7000    -0.3940 C.2   1 <1>  -0.1780 
 20 C      -12.3320     1.6700    -0.7470 C.ar  1 <1>   0.0280 
 21 C      -12.4440     1.2540    -2.0720 C.ar  1 <1>  -0.1500 
 22 C      -13.1630     1.0590     0.1910 C.ar  1 <1>  -0.1500 
 23 C      -13.3390     0.2680    -2.4460 C.ar  1 <1>  -0.1500 
 24 C      -14.0600     0.0720    -0.1770 C.ar  1 <1>  -0.1500 
 25 C      -14.1490    -0.3270    -1.4970 C.ar  1 <1>  -0.1500 
 26 H       -5.6720    -1.5510    -2.9060 H     1 <1>   0.0800 
 27 H       -6.4830    -0.4060    -1.8450 H     1 <1>   0.0800 
 28 H       -5.5750    -1.7670    -1.1620 H     1 <1>   0.0800 
 29 H       -5.8860     0.1100     0.3390 H     1 <1>   0.1500 
 30 H       -2.5160     0.4020    -2.5690 H     1 <1>   0.4500 
 31 H       -1.4390     2.2220     0.2630 H     1 <1>   0.1500 
 32 H       -2.8750     2.4350     2.2500 H     1 <1>   0.1500 
 33 H       -4.8670     1.9190     3.4270 H     1 <1>   0.0800 
 34 H       -5.6650     0.4390     2.9630 H     1 <1>   0.0800 
 35 H       -7.8230     1.2090     3.6730 H     1 <1>   0.0800 
 36 H       -7.1580     2.7170     4.2240 H     1 <1>   0.0800 
 37 H       -5.7060     4.0760     2.5440 H     1 <1>   0.0800 
 38 H       -5.6900     3.5060     0.9060 H     1 <1>   0.0800 
 39 H       -9.1280     3.6920     3.6930 H     1 <1>   0.0800 
 40 H       -9.6990     2.2130     2.9760 H     1 <1>   0.0800 
 41 H       -7.4690     4.7830     0.4820 H     1 <1>   0.0800 
 42 H       -7.6160     5.2190     2.1620 H     1 <1>   0.0800 
 43 H       -8.6000     2.7360     0.9810 H     1 <1>   0.4500 
 44 H      -10.3900     4.9100     1.8340 H     1 <1>   0.0800 
 45 H       -9.8040     4.7320     0.1920 H     1 <1>   0.0800 
 46 H      -11.4580     2.7160     1.7310 H     1 <1>   0.1500 
 47 H      -10.9170     3.1500    -1.2570 H     1 <1>   0.1500 
 48 H      -11.8250     1.7030    -2.8270 H     1 <1>   0.1500 
 49 H      -13.1230     1.3520     1.2220 H     1 <1>   0.1500 
 50 H      -13.4080    -0.0370    -3.4770 H     1 <1>   0.1500 
 51 H      -14.6910    -0.3880     0.5640 H     1 <1>   0.1500 
 52 H      -14.8470    -1.0940    -1.7850 H     1 <1>   0.1500 
@<TRIPOS>BOND
  1   1   2  1   
  2   1   3  1   
  3   2   4  ar  
  4   2   5  ar  
  5   3  26  1   
  6   3  27  1   
  7   3  28  1   
  8   4   6  1   
  9   4   7  ar  
 10   5   8  ar  
 11   5  29  1   
 12   6  30  1   
 13   7   9  ar  
 14   7  31  1   
 15   8   9  ar  
 16   8  10  1   
 17   9  32  1   
 18  10  11  1   
 19  10  33  1   
 20  10  34  1   
 21  11  12  1   
 22  11  13  1   
 23  12  14  1   
 24  12  35  1   
 25  12  36  1   
 26  13  15  1   
 27  13  37  1   
 28  13  38  1   
 29  14  16  1   
 30  14  39  1   
 31  14  40  1   
 32  15  16  1   
 33  15  41  1   
 34  15  42  1   
 35  16  17  1   
 36  16  43  1   
 37  17  18  1   
 38  17  44  1   
 39  17  45  1   
 40  18  19  2   
 41  18  46  1   
 42  19  20  1   
 43  19  47  1   
 44  20  21  ar  
 45  20  22  ar  
 46  21  23  ar  
 47  21  48  1   
 48  22  24  ar  
 49  22  49  1   
 50  23  25  ar  
 51  23  50  1   
 52  24  25  ar  
 53  24  51  1   
 54  25  52  1   
@<TRIPOS>SUBSTRUCTURE
  1 ****  11 GROUP 4 **** **** 0

# MOE 2024.06 (io_trps.svl 2023.06)
