@<TRIPOS>MOLECULE
NONAME
45 45 1 0 0 
SMALL
USER_CHARGES


@<TRIPOS>ATOM
  1 N        0.1510    -0.2410     0.0590 N.4   1 <1>  -0.9590 
  2 C        1.4920     0.4320    -0.0240 C.3   1 <1>   0.4230 
  3 C       -0.9550     0.7610    -0.1830 C.3   1 <1>   0.3430 
  4 C       -0.0070    -1.0330     1.3340 C.3   1 <1>   0.2630 
  5 C        2.6060    -0.6240    -0.0740 C.3   1 <1>  -0.1600 
  6 C        1.6960     1.4780     1.0940 C.3   1 <1>  -0.1600 
  7 C       -2.3710     0.1400    -0.3620 C.3   1 <1>   0.3430 
  8 C        3.7730    -0.2150    -0.9880 C.3   1 <1>  -0.1600 
  9 C        1.7970     2.9010     0.5260 C.3   1 <1>  -0.1600 
 10 N       -3.4530     1.1360    -0.7120 N.4   1 <1>  -0.9590 
 11 C        4.4750     1.0990    -0.6100 C.3   1 <1>  -0.1600 
 12 C        3.1990     3.2690     0.0130 C.3   1 <1>  -0.1600 
 13 C       -3.7170     2.1460     0.3700 C.3   1 <1>   0.2630 
 14 C       -4.7350     0.4200    -1.0300 C.3   1 <1>   0.2630 
 15 C        3.7700     2.3800    -1.1060 C.3   1 <1>  -0.1600 
 16 H        0.1710    -0.9180    -0.7200 H     1 <1>   0.4500 
 17 H        1.5320     0.9550    -0.9660 H     1 <1>   0.0800 
 18 H       -0.7190     1.3190    -1.0740 H     1 <1>   0.0800 
 19 H       -0.9830     1.4530     0.6420 H     1 <1>   0.0800 
 20 H       -0.0250    -0.3790     2.1900 H     1 <1>   0.0800 
 21 H        0.8170    -1.7180     1.4530 H     1 <1>   0.0800 
 22 H       -0.9190    -1.6070     1.3180 H     1 <1>   0.0800 
 23 H        2.2220    -1.5490    -0.4660 H     1 <1>   0.0800 
 24 H        2.9850    -0.8230     0.9130 H     1 <1>   0.0800 
 25 H        2.5920     1.2750     1.6530 H     1 <1>   0.0800 
 26 H        0.8900     1.4580     1.8020 H     1 <1>   0.0800 
 27 H       -2.6480    -0.3660     0.5490 H     1 <1>   0.0800 
 28 H       -2.3180    -0.5960    -1.1480 H     1 <1>   0.0800 
 29 H        3.4450    -0.1650    -2.0130 H     1 <1>   0.0800 
 30 H        4.5090    -1.0020    -0.9420 H     1 <1>   0.0800 
 31 H        1.5570     3.5970     1.3130 H     1 <1>   0.0800 
 32 H        1.0770     3.0530    -0.2590 H     1 <1>   0.0800 
 33 H       -3.1940     1.6520    -1.5720 H     1 <1>   0.4500 
 34 H        5.4460     1.0770    -1.0790 H     1 <1>   0.0800 
 35 H        4.6640     1.1360     0.4490 H     1 <1>   0.0800 
 36 H        3.8920     3.2990     0.8380 H     1 <1>   0.0800 
 37 H        3.1440     4.2760    -0.3670 H     1 <1>   0.0800 
 38 H       -4.0220     1.6550     1.2800 H     1 <1>   0.0800 
 39 H       -4.5070     2.8170     0.0680 H     1 <1>   0.0800 
 40 H       -2.8370     2.7350     0.5700 H     1 <1>   0.0800 
 41 H       -5.0870    -0.1280    -0.1700 H     1 <1>   0.0800 
 42 H       -4.5920    -0.2720    -1.8440 H     1 <1>   0.0800 
 43 H       -5.4980     1.1270    -1.3180 H     1 <1>   0.0800 
 44 H        3.0230     2.1680    -1.8500 H     1 <1>   0.0800 
 45 H        4.5210     2.9690    -1.6070 H     1 <1>   0.0800 
@<TRIPOS>BOND
  1   1   2  1   
  2   1   3  1   
  3   1   4  1   
  4   1  16  1   
  5   2   5  1   
  6   2   6  1   
  7   2  17  1   
  8   3   7  1   
  9   3  18  1   
 10   3  19  1   
 11   4  20  1   
 12   4  21  1   
 13   4  22  1   
 14   5   8  1   
 15   5  23  1   
 16   5  24  1   
 17   6   9  1   
 18   6  25  1   
 19   6  26  1   
 20   7  10  1   
 21   7  27  1   
 22   7  28  1   
 23   8  11  1   
 24   8  29  1   
 25   8  30  1   
 26   9  12  1   
 27   9  31  1   
 28   9  32  1   
 29  10  13  1   
 30  10  14  1   
 31  10  33  1   
 32  11  15  1   
 33  11  34  1   
 34  11  35  1   
 35  12  15  1   
 36  12  36  1   
 37  12  37  1   
 38  13  38  1   
 39  13  39  1   
 40  13  40  1   
 41  14  41  1   
 42  14  42  1   
 43  14  43  1   
 44  15  44  1   
 45  15  45  1   
@<TRIPOS>SUBSTRUCTURE
  1 ****   2 GROUP 4 **** **** 0

# MOE 2024.06 (io_trps.svl 2023.06)
