@<TRIPOS>MOLECULE
NONAME
45 45 1 0 0 
SMALL
USER_CHARGES


@<TRIPOS>ATOM
  1 N       -0.0830     0.0520    -0.0250 N.4   1 <1>  -0.9590 
  2 C        1.2070     0.7570     0.3100 C.3   1 <1>   0.4230 
  3 C       -1.3230     0.8150     0.4020 C.3   1 <1>   0.3430 
  4 C       -0.0620    -1.3350     0.5340 C.3   1 <1>   0.3430 
  5 C        1.1470     2.2600    -0.0300 C.3   1 <1>  -0.1600 
  6 C        2.3580     0.0950    -0.4730 C.3   1 <1>  -0.1600 
  7 C       -2.6770     0.1820    -0.0350 C.3   1 <1>   0.3430 
  8 C       -0.3720    -2.3170    -0.5880 C.3   1 <1>  -0.2400 
  9 C        2.4940     2.9580     0.2150 C.3   1 <1>  -0.1600 
 10 C        3.7010     0.7910    -0.2170 C.3   1 <1>  -0.1600 
 11 N       -3.9010     0.9690     0.3740 N.4   1 <1>  -0.9590 
 12 C        3.6310     2.2840    -0.5620 C.3   1 <1>  -0.0800 
 13 C       -5.1470     0.1880     0.0670 C.3   1 <1>   0.2630 
 14 C       -4.0000     2.3140    -0.2900 C.3   1 <1>   0.2630 
 15 C        4.9670     2.9660    -0.2510 C.3   1 <1>  -0.2400 
 16 H       -0.0600    -0.0350    -1.0510 H     1 <1>   0.4500 
 17 H        1.4090     0.6610     1.3660 H     1 <1>   0.0800 
 18 H       -1.2820     1.8040    -0.0210 H     1 <1>   0.0800 
 19 H       -1.3150     0.9110     1.4750 H     1 <1>   0.0800 
 20 H       -0.7820    -1.4380     1.3310 H     1 <1>   0.0800 
 21 H        0.9090    -1.5650     0.9450 H     1 <1>   0.0800 
 22 H        0.4280     2.7640     0.5880 H     1 <1>   0.0800 
 23 H        0.8800     2.3930    -1.0640 H     1 <1>   0.0800 
 24 H        2.1530     0.1380    -1.5290 H     1 <1>   0.0800 
 25 H        2.4770    -0.9360    -0.1940 H     1 <1>   0.0800 
 26 H       -2.7450    -0.8030     0.3970 H     1 <1>   0.0800 
 27 H       -2.6780     0.0740    -1.1070 H     1 <1>   0.0800 
 28 H       -1.3450    -2.1540    -1.0110 H     1 <1>   0.0800 
 29 H       -0.3490    -3.3180    -0.1930 H     1 <1>   0.0800 
 30 H        0.3740    -2.2590    -1.3620 H     1 <1>   0.0800 
 31 H        2.7220     2.9430     1.2680 H     1 <1>   0.0800 
 32 H        2.4220     3.9910    -0.0850 H     1 <1>   0.0800 
 33 H        4.4660     0.3230    -0.8160 H     1 <1>   0.0800 
 34 H        3.9810     0.6710     0.8160 H     1 <1>   0.0800 
 35 H       -3.9030     1.1200     1.3990 H     1 <1>   0.4500 
 36 H        3.4430     2.3890    -1.6180 H     1 <1>   0.0800 
 37 H       -5.2310     0.0090    -0.9940 H     1 <1>   0.0800 
 38 H       -6.0210     0.7320     0.3890 H     1 <1>   0.0800 
 39 H       -5.1350    -0.7630     0.5770 H     1 <1>   0.0800 
 40 H       -4.0320     2.2050    -1.3630 H     1 <1>   0.0800 
 41 H       -3.1590     2.9360    -0.0290 H     1 <1>   0.0800 
 42 H       -4.9010     2.8200     0.0240 H     1 <1>   0.0800 
 43 H        5.2060     2.8890     0.7960 H     1 <1>   0.0800 
 44 H        4.9270     4.0080    -0.5160 H     1 <1>   0.0800 
 45 H        5.7610     2.5090    -0.8150 H     1 <1>   0.0800 
@<TRIPOS>BOND
  1   1   2  1   
  2   1   3  1   
  3   1   4  1   
  4   1  16  1   
  5   2   5  1   
  6   2   6  1   
  7   2  17  1   
  8   3   7  1   
  9   3  18  1   
 10   3  19  1   
 11   4   8  1   
 12   4  20  1   
 13   4  21  1   
 14   5   9  1   
 15   5  22  1   
 16   5  23  1   
 17   6  10  1   
 18   6  24  1   
 19   6  25  1   
 20   7  11  1   
 21   7  26  1   
 22   7  27  1   
 23   8  28  1   
 24   8  29  1   
 25   8  30  1   
 26   9  12  1   
 27   9  31  1   
 28   9  32  1   
 29  10  12  1   
 30  10  33  1   
 31  10  34  1   
 32  11  13  1   
 33  11  14  1   
 34  11  35  1   
 35  12  15  1   
 36  12  36  1   
 37  13  37  1   
 38  13  38  1   
 39  13  39  1   
 40  14  40  1   
 41  14  41  1   
 42  14  42  1   
 43  15  43  1   
 44  15  44  1   
 45  15  45  1   
@<TRIPOS>SUBSTRUCTURE
  1 ****   1 GROUP 4 **** **** 0

# MOE 2024.06 (io_trps.svl 2023.06)
