@<TRIPOS>MOLECULE
NONAME
33 34 1 0 0 
SMALL
USER_CHARGES


@<TRIPOS>ATOM
  1 O       -0.3140     0.0930     0.0020 O.2   1 <1>  -0.5700 
  2 C       -1.5310     0.1610     0.0030 C.2   1 <1>   0.8060 
  3 O       -2.0800     1.3820     0.0040 O.3   1 <1>  -0.4300 
  4 C       -2.4100    -0.9760     0.0020 C.2   1 <1>  -0.0860 
  5 C       -1.2930     2.5510     0.0050 C.3   1 <1>   0.1200 
  6 C       -2.0730    -2.3090     0.0010 C.2   1 <1>  -0.0890 
  7 C       -3.8400    -0.9510     0.0010 C.ar  1 <1>   0.0000 
  8 C       -2.2350     3.7510     0.0070 C.3   1 <1>  -0.2400 
  9 O       -0.8220    -2.8030     0.0020 O.3   1 <1>  -0.3430 
 10 N       -3.1800    -3.0910     0.0010 N.pl3 1 <1>   0.0330 
 11 C       -4.2810    -2.2730     0.0010 C.ar  1 <1>  -0.1520 
 12 C       -4.8030     0.0670     0.0010 C.ar  1 <1>  -0.1500 
 13 C       -0.5550    -4.1850     0.0010 C.3   1 <1>   0.1200 
 14 C       -5.6370    -2.6030     0.0000 C.ar  1 <1>  -0.1500 
 15 C       -6.1400    -0.2560     0.0010 C.ar  1 <1>   0.0830 
 16 C        0.9590    -4.3700     0.0020 C.3   1 <1>  -0.2400 
 17 C       -6.5660    -1.5880     0.0000 C.ar  1 <1>  -0.1500 
 18 O       -7.0570     0.7280     0.0010 O.3   1 <1>  -0.5320 
 19 H       -0.6730     2.5460    -0.8760 H     1 <1>   0.0800 
 20 H       -0.6720     2.5440     0.8860 H     1 <1>   0.0800 
 21 H       -2.8550     3.7360    -0.8710 H     1 <1>   0.0800 
 22 H       -1.6630     4.6610     0.0080 H     1 <1>   0.0800 
 23 H       -2.8540     3.7340     0.8860 H     1 <1>   0.0800 
 24 H       -3.2020    -4.1130     0.0000 H     1 <1>   0.2700 
 25 H       -4.5110     1.1000     0.0020 H     1 <1>   0.1500 
 26 H       -0.9910    -4.6150    -0.8840 H     1 <1>   0.0800 
 27 H       -0.9910    -4.6160     0.8850 H     1 <1>   0.0800 
 28 H       -5.9440    -3.6340    -0.0010 H     1 <1>   0.1500 
 29 H        1.3850    -3.9160    -0.8750 H     1 <1>   0.0800 
 30 H        1.2010    -5.4170     0.0010 H     1 <1>   0.0800 
 31 H        1.3840    -3.9170     0.8790 H     1 <1>   0.0800 
 32 H       -7.6160    -1.8160     0.0000 H     1 <1>   0.1500 
 33 H       -7.9690     0.3890     0.0000 H     1 <1>   0.4500 
@<TRIPOS>BOND
  1   1   2  2   
  2   2   3  1   
  3   2   4  1   
  4   3   5  1   
  5   4   6  2   
  6   4   7  1   
  7   5   8  1   
  8   5  19  1   
  9   5  20  1   
 10   6   9  1   
 11   6  10  1   
 12   7  11  ar  
 13   7  12  ar  
 14   8  21  1   
 15   8  22  1   
 16   8  23  1   
 17   9  13  1   
 18  10  11  1   
 19  10  24  1   
 20  11  14  ar  
 21  12  15  ar  
 22  12  25  1   
 23  13  16  1   
 24  13  26  1   
 25  13  27  1   
 26  14  17  ar  
 27  14  28  1   
 28  15  17  ar  
 29  15  18  1   
 30  16  29  1   
 31  16  30  1   
 32  16  31  1   
 33  17  32  1   
 34  18  33  1   
@<TRIPOS>SUBSTRUCTURE
  1 ****   4 GROUP 4 **** **** 0

# MOE 2024.06 (io_trps.svl 2023.06)
