@<TRIPOS>MOLECULE
NONAME
45 47 1 0 0 
SMALL
USER_CHARGES


@<TRIPOS>ATOM
  1 I        1.3930     0.5140     1.4330 I     1 <1>  -0.0810 
  2 C        1.7980    -1.4230     0.6470 C.ar  1 <1>   0.0810 
  3 C        2.9330    -2.0850     1.0610 C.ar  1 <1>  -0.1500 
  4 C        0.9110    -1.9650    -0.2630 C.ar  1 <1>  -0.1500 
  5 C        3.2200    -3.3520     0.5540 C.ar  1 <1>   0.0860 
  6 C        1.1810    -3.2250    -0.7600 C.ar  1 <1>  -0.1500 
  7 C        2.3110    -3.9350    -0.3520 C.ar  1 <1>   0.1170 
  8 C        4.4240    -4.0370     0.9800 C.2   1 <1>   0.5440 
  9 N        2.5600    -5.2170    -0.8570 N.am  1 <1>  -0.5470 
 10 O        4.7000    -4.0520     2.1650 O.2   1 <1>  -0.5700 
 11 N        5.2530    -4.7190     0.1070 N.am  1 <1>  -0.6600 
 12 C        1.7560    -6.2500    -1.2490 C.2   1 <1>   0.5440 
 13 C        5.9530    -4.1220    -1.0760 C.3   1 <1>   0.2200 
 14 C        5.8620    -6.0030     0.5620 C.3   1 <1>   0.1400 
 15 O        2.3010    -7.1440    -1.8590 O.2   1 <1>  -0.5700 
 16 C        0.3410    -6.3150    -0.9540 C.ar  1 <1>   0.0860 
 17 C        7.4260    -3.8810    -0.7120 C.3   1 <1>  -0.1600 
 18 C        5.3270    -2.8220    -1.5880 C.3   1 <1>  -0.2400 
 19 C        7.3320    -5.7870     0.9290 C.3   1 <1>  -0.1600 
 20 C       -0.5500    -6.7870    -1.9150 C.ar  1 <1>   0.1600 
 21 C       -0.1970    -5.9290     0.2690 C.ar  1 <1>  -0.1500 
 22 C        8.1160    -5.1650    -0.2320 C.3   1 <1>  -0.1600 
 23 N       -1.8640    -6.8750    -1.7790 N.ar  1 <1>  -0.6200 
 24 C       -1.5610    -6.0190     0.4350 C.ar  1 <1>  -0.1500 
 25 C       -2.3420    -6.4900    -0.6070 C.ar  1 <1>   0.1600 
 26 H        3.6020    -1.6330     1.7730 H     1 <1>   0.1500 
 27 H        0.0380    -1.4180    -0.5740 H     1 <1>   0.1500 
 28 H        0.5060    -3.6550    -1.4790 H     1 <1>   0.1500 
 29 H        3.5550    -5.4700    -0.9010 H     1 <1>   0.3700 
 30 H        5.9180    -4.8410    -1.8780 H     1 <1>   0.0800 
 31 H        5.7830    -6.7310    -0.2270 H     1 <1>   0.0800 
 32 H        5.3280    -6.3810     1.4180 H     1 <1>   0.0800 
 33 H        7.4790    -3.1350     0.0620 H     1 <1>   0.0800 
 34 H        7.9520    -3.5010    -1.5700 H     1 <1>   0.0800 
 35 H        5.3260    -2.0660    -0.8230 H     1 <1>   0.0800 
 36 H        4.3290    -2.9940    -1.9440 H     1 <1>   0.0800 
 37 H        5.9010    -2.4500    -2.4170 H     1 <1>   0.0800 
 38 H        7.7730    -6.7290     1.2040 H     1 <1>   0.0800 
 39 H        7.3800    -5.1400     1.7890 H     1 <1>   0.0800 
 40 H       -0.1400    -7.1100    -2.8580 H     1 <1>   0.1500 
 41 H        0.4370    -5.5720     1.0630 H     1 <1>   0.1500 
 42 H        9.1200    -4.9430     0.0850 H     1 <1>   0.0800 
 43 H        8.1710    -5.8690    -1.0450 H     1 <1>   0.0800 
 44 H       -2.0210    -5.7290     1.3630 H     1 <1>   0.1500 
 45 H       -3.4080    -6.5560    -0.4700 H     1 <1>   0.1500 
@<TRIPOS>BOND
  1   1   2  1   
  2   2   3  ar  
  3   2   4  ar  
  4   3   5  ar  
  5   3  26  1   
  6   4   6  ar  
  7   4  27  1   
  8   5   7  ar  
  9   5   8  1   
 10   6   7  ar  
 11   6  28  1   
 12   7   9  1   
 13   8  10  2   
 14   8  11  am  
 15   9  12  am  
 16   9  29  1   
 17  11  13  1   
 18  11  14  1   
 19  12  15  2   
 20  12  16  1   
 21  13  17  1   
 22  13  18  1   
 23  13  30  1   
 24  14  19  1   
 25  14  31  1   
 26  14  32  1   
 27  16  20  ar  
 28  16  21  ar  
 29  17  22  1   
 30  17  33  1   
 31  17  34  1   
 32  18  35  1   
 33  18  36  1   
 34  18  37  1   
 35  19  22  1   
 36  19  38  1   
 37  19  39  1   
 38  20  23  ar  
 39  20  40  1   
 40  21  24  ar  
 41  21  41  1   
 42  22  42  1   
 43  22  43  1   
 44  23  25  ar  
 45  24  25  ar  
 46  24  44  1   
 47  25  45  1   
@<TRIPOS>SUBSTRUCTURE
  1 ****   7 GROUP 4 **** **** 0

# MOE 2024.06 (io_trps.svl 2023.06)
