@<TRIPOS>MOLECULE
NONAME
45 46 1 0 0 
SMALL
USER_CHARGES


@<TRIPOS>ATOM
  1 O        0.2650     0.2940    -0.8260 O.2   1 <1>  -0.5700 
  2 C        0.1350     1.4080    -0.3540 C.2   1 <1>   0.6900 
  3 N        1.2240     2.2140    -0.1240 N.am  1 <1>  -0.6600 
  4 N       -1.0940     1.8850    -0.0020 N.am  1 <1>  -0.5470 
  5 C        2.5270     1.6580     0.3430 C.3   1 <1>   0.2200 
  6 C        1.2880     3.6420    -0.5540 C.3   1 <1>   0.2200 
  7 C       -2.3910     1.3830    -0.1840 C.ar  1 <1>   0.1170 
  8 C        3.2970     1.0380    -0.8370 C.3   1 <1>  -0.1600 
  9 C        2.3140     0.6840     1.5070 C.3   1 <1>  -0.2400 
 10 C        0.7550     4.5500     0.5660 C.3   1 <1>  -0.1600 
 11 C        0.5800     3.8530    -1.8980 C.3   1 <1>  -0.2400 
 12 C       -3.4020     1.8510     0.6530 C.ar  1 <1>  -0.1500 
 13 C       -2.7090     0.4530    -1.1820 C.ar  1 <1>  -0.1500 
 14 C        4.7610     0.7170    -0.5020 C.3   1 <1>  -0.2400 
 15 C        1.0920     6.0320     0.3460 C.3   1 <1>  -0.2400 
 16 C       -4.6850     1.3770     0.4700 C.ar  1 <1>   0.0820 
 17 C       -4.0050    -0.0150    -1.3520 C.ar  1 <1>  -0.1500 
 18 O       -5.7890     1.6930     1.1550 O.3   1 <1>  -0.3620 
 19 C       -4.9800     0.4700    -0.5040 C.ar  1 <1>   0.0820 
 20 C       -6.8540     0.9350     0.5840 C.3   1 <1>   0.4000 
 21 O       -6.2860     0.1700    -0.4770 O.3   1 <1>  -0.3620 
 22 H       -1.0190     2.7280     0.5530 H     1 <1>   0.3700 
 23 H        3.1140     2.4750     0.7280 H     1 <1>   0.0800 
 24 H        2.3240     3.8910    -0.7140 H     1 <1>   0.0800 
 25 H        3.2830     1.7270    -1.6620 H     1 <1>   0.0800 
 26 H        2.8060     0.1350    -1.1540 H     1 <1>   0.0800 
 27 H        1.8520    -0.2250     1.1670 H     1 <1>   0.0800 
 28 H        1.6950     1.1380     2.2590 H     1 <1>   0.0800 
 29 H        3.2560     0.4320     1.9560 H     1 <1>   0.0800 
 30 H        1.1940     4.2410     1.4990 H     1 <1>   0.0800 
 31 H       -0.3120     4.4520     0.6470 H     1 <1>   0.0800 
 32 H       -0.4870     3.7780    -1.7990 H     1 <1>   0.0800 
 33 H        0.9220     3.1240    -2.6100 H     1 <1>   0.0800 
 34 H        0.8100     4.8280    -2.2860 H     1 <1>   0.0800 
 35 H       -3.2020     2.5630     1.4300 H     1 <1>   0.1500 
 36 H       -1.9370     0.0910    -1.8370 H     1 <1>   0.1500 
 37 H        5.2740     1.5990    -0.1600 H     1 <1>   0.0800 
 38 H        5.2620     0.3510    -1.3810 H     1 <1>   0.0800 
 39 H        4.8220    -0.0410     0.2580 H     1 <1>   0.0800 
 40 H        2.1540     6.1670     0.2440 H     1 <1>   0.0800 
 41 H        0.7550     6.6110     1.1880 H     1 <1>   0.0800 
 42 H        0.6060     6.4100    -0.5360 H     1 <1>   0.0800 
 43 H       -4.2510    -0.7300    -2.1150 H     1 <1>   0.1500 
 44 H       -7.6000     1.6010     0.1900 H     1 <1>   0.0800 
 45 H       -7.2630     0.2720     1.3260 H     1 <1>   0.0800 
@<TRIPOS>BOND
  1   1   2  2   
  2   2   3  am  
  3   2   4  am  
  4   3   5  1   
  5   3   6  1   
  6   4   7  1   
  7   4  22  1   
  8   5   8  1   
  9   5   9  1   
 10   5  23  1   
 11   6  10  1   
 12   6  11  1   
 13   6  24  1   
 14   7  12  ar  
 15   7  13  ar  
 16   8  14  1   
 17   8  25  1   
 18   8  26  1   
 19   9  27  1   
 20   9  28  1   
 21   9  29  1   
 22  10  15  1   
 23  10  30  1   
 24  10  31  1   
 25  11  32  1   
 26  11  33  1   
 27  11  34  1   
 28  12  16  ar  
 29  12  35  1   
 30  13  17  ar  
 31  13  36  1   
 32  14  37  1   
 33  14  38  1   
 34  14  39  1   
 35  15  40  1   
 36  15  41  1   
 37  15  42  1   
 38  16  18  1   
 39  16  19  ar  
 40  17  19  ar  
 41  17  43  1   
 42  18  20  1   
 43  19  21  1   
 44  20  21  1   
 45  20  44  1   
 46  20  45  1   
@<TRIPOS>SUBSTRUCTURE
  1 ****   4 GROUP 4 **** **** 0

# MOE 2024.06 (io_trps.svl 2023.06)
