@<TRIPOS>MOLECULE
NONAME
42 43 1 0 0 
SMALL
USER_CHARGES


@<TRIPOS>ATOM
  1 CL      -1.1200     0.9510     2.4300 Cl    1 <1>  -0.1770 
  2 C       -0.4300     2.3480     1.6340 C.ar  1 <1>   0.1770 
  3 C       -1.1020     2.9680     0.5880 C.ar  1 <1>   0.0820 
  4 C        0.8030     2.7980     2.0730 C.ar  1 <1>  -0.1500 
  5 O       -2.2980     2.4740     0.1830 O.3   1 <1>  -0.3630 
  6 C       -0.5140     4.0870    -0.0140 C.ar  1 <1>   0.0820 
  7 C        1.3930     3.8940     1.4600 C.ar  1 <1>  -0.1440 
  8 C       -2.2500     1.5280    -0.8580 C.3   1 <1>   0.1200 
  9 O       -1.0670     4.7990    -1.0300 O.3   1 <1>  -0.3630 
 10 C        0.7250     4.5300     0.4230 C.ar  1 <1>  -0.1500 
 11 C        2.7490     4.3950     1.9090 C.3   1 <1>   0.4860 
 12 C       -3.6790     1.0980    -1.1720 C.3   1 <1>  -0.2400 
 13 C       -2.4480     5.0990    -1.0060 C.3   1 <1>   0.0400 
 14 N        3.7450     3.7950     1.0010 N.4   1 <1>  -0.9060 
 15 C        5.1370     4.2130     1.2510 C.3   1 <1>   0.4860 
 16 C        5.9910     3.5040     0.2240 C.ar  1 <1>  -0.1440 
 17 C        6.5440     2.2610     0.5160 C.ar  1 <1>  -0.1500 
 18 C        6.2190     4.0920    -1.0160 C.ar  1 <1>  -0.1500 
 19 C        7.3150     1.6030    -0.4270 C.ar  1 <1>  -0.1500 
 20 C        6.9890     3.4400    -1.9650 C.ar  1 <1>  -0.1500 
 21 C        7.5220     2.2050    -1.6520 C.ar  1 <1>   0.1900 
 22 F        8.2460     1.5870    -2.5450 F     1 <1>  -0.1900 
 23 H        1.2740     2.2770     2.8890 H     1 <1>   0.1500 
 24 H       -1.6620     0.6870    -0.5300 H     1 <1>   0.0800 
 25 H       -1.7880     1.9860    -1.7160 H     1 <1>   0.0800 
 26 H        1.1440     5.3910    -0.0690 H     1 <1>   0.1500 
 27 H        2.9340     4.0980     2.9290 H     1 <1>   0.0800 
 28 H        2.7780     5.4720     1.8470 H     1 <1>   0.0800 
 29 H       -4.1300     0.6560    -0.3010 H     1 <1>   0.0800 
 30 H       -3.6750     0.3710    -1.9630 H     1 <1>   0.0800 
 31 H       -4.2610     1.9450    -1.4870 H     1 <1>   0.0800 
 32 H       -2.6150     5.9690    -1.6150 H     1 <1>   0.0800 
 33 H       -2.7530     5.2950     0.0080 H     1 <1>   0.0800 
 34 H       -2.9960     4.2670    -1.4090 H     1 <1>   0.0800 
 35 H        3.4970     4.0220     0.0310 H     1 <1>   0.4500 
 36 H        3.6870     2.7720     1.0550 H     1 <1>   0.4500 
 37 H        5.4470     3.9320     2.2450 H     1 <1>   0.0800 
 38 H        5.2400     5.2810     1.1410 H     1 <1>   0.0800 
 39 H        6.3900     1.7900     1.4740 H     1 <1>   0.1500 
 40 H        5.8110     5.0590    -1.2620 H     1 <1>   0.1500 
 41 H        7.7550     0.6410    -0.2240 H     1 <1>   0.1500 
 42 H        7.1800     3.8750    -2.9310 H     1 <1>   0.1500 
@<TRIPOS>BOND
  1   1   2  1   
  2   2   3  ar  
  3   2   4  ar  
  4   3   5  1   
  5   3   6  ar  
  6   4   7  ar  
  7   4  23  1   
  8   5   8  1   
  9   6   9  1   
 10   6  10  ar  
 11   7  10  ar  
 12   7  11  1   
 13   8  12  1   
 14   8  24  1   
 15   8  25  1   
 16   9  13  1   
 17  10  26  1   
 18  11  14  1   
 19  11  27  1   
 20  11  28  1   
 21  12  29  1   
 22  12  30  1   
 23  12  31  1   
 24  13  32  1   
 25  13  33  1   
 26  13  34  1   
 27  14  15  1   
 28  14  35  1   
 29  14  36  1   
 30  15  16  1   
 31  15  37  1   
 32  15  38  1   
 33  16  17  ar  
 34  16  18  ar  
 35  17  19  ar  
 36  17  39  1   
 37  18  20  ar  
 38  18  40  1   
 39  19  21  ar  
 40  19  41  1   
 41  20  21  ar  
 42  20  42  1   
 43  21  22  1   
@<TRIPOS>SUBSTRUCTURE
  1 ****   7 GROUP 4 **** **** 0

# MOE 2024.06 (io_trps.svl 2023.06)
