@<TRIPOS>MOLECULE
NONAME
44 46 1 0 0 
SMALL
USER_CHARGES


@<TRIPOS>ATOM
  1 O        0.7500    -2.8830     1.7710 O.2   1 <1>  -0.5700 
  2 C        0.1110    -2.5330     0.8070 C.2   1 <1>   0.5690 
  3 N        0.6040    -1.6610    -0.1180 N.am  1 <1>  -0.7300 
  4 C       -1.3020    -3.0880     0.6340 C.3   1 <1>   0.2610 
  5 C        1.9300    -1.0030    -0.1360 C.3   1 <1>   0.2200 
  6 O       -1.8740    -2.6520    -0.6020 O.3   1 <1>  -0.3630 
  7 C       -2.1920    -2.6530     1.8070 C.3   1 <1>   0.1200 
  8 C        3.0330    -2.0670    -0.3130 C.3   1 <1>  -0.1600 
  9 C        2.0880    -0.1420     1.1280 C.3   1 <1>  -0.1600 
 10 C       -3.2180    -2.7690    -0.7360 C.ar  1 <1>   0.0820 
 11 O       -3.5230    -3.1010     1.6210 O.3   1 <1>  -0.3630 
 12 C        3.9210    -1.8290    -1.5450 C.3   1 <1>  -0.1600 
 13 C        2.9950     1.0880     0.9570 C.3   1 <1>  -0.1600 
 14 C       -4.0380    -3.0050     0.3690 C.ar  1 <1>   0.0820 
 15 C       -3.7750    -2.6560    -1.9980 C.ar  1 <1>  -0.1500 
 16 C        5.0900    -0.8590    -1.3150 C.3   1 <1>  -0.1600 
 17 C        4.4520     0.7750     0.5840 C.3   1 <1>  -0.1600 
 18 C       -5.4050    -3.1410     0.1990 C.ar  1 <1>  -0.1500 
 19 C       -5.1450    -2.7870    -2.1630 C.ar  1 <1>  -0.1500 
 20 C        4.6920     0.5740    -0.9260 C.3   1 <1>  -0.1600 
 21 C       -5.9580    -3.0320    -1.0670 C.ar  1 <1>  -0.1500 
 22 H        0.0020    -1.4460    -0.9170 H     1 <1>   0.3700 
 23 H       -1.2460    -4.1600     0.6060 H     1 <1>   0.0800 
 24 H        1.9320    -0.3430    -0.9860 H     1 <1>   0.0800 
 25 H       -2.2060    -1.5810     1.8870 H     1 <1>   0.0800 
 26 H       -1.8280    -3.0680     2.7300 H     1 <1>   0.0800 
 27 H        2.5740    -3.0330    -0.4330 H     1 <1>   0.0800 
 28 H        3.6470    -2.1320     0.5670 H     1 <1>   0.0800 
 29 H        2.4490    -0.7490     1.9390 H     1 <1>   0.0800 
 30 H        1.1180     0.2250     1.4160 H     1 <1>   0.0800 
 31 H        3.3210    -1.4940    -2.3740 H     1 <1>   0.0800 
 32 H        4.3450    -2.7760    -1.8320 H     1 <1>   0.0800 
 33 H        3.0030     1.6090     1.8990 H     1 <1>   0.0800 
 34 H        2.5670     1.7620     0.2350 H     1 <1>   0.0800 
 35 H       -3.1390    -2.4690    -2.8440 H     1 <1>   0.1500 
 36 H        5.6440    -0.8060    -2.2370 H     1 <1>   0.0800 
 37 H        5.7610    -1.2660    -0.5780 H     1 <1>   0.0800 
 38 H        4.8090    -0.0640     1.1560 H     1 <1>   0.0800 
 39 H        5.0440     1.6220     0.8890 H     1 <1>   0.0800 
 40 H       -6.0280    -3.3290     1.0540 H     1 <1>   0.1500 
 41 H       -5.5790    -2.7010    -3.1450 H     1 <1>   0.1500 
 42 H        3.8500     0.9000    -1.5100 H     1 <1>   0.0800 
 43 H        5.5140     1.2120    -1.2020 H     1 <1>   0.0800 
 44 H       -7.0210    -3.1360    -1.1990 H     1 <1>   0.1500 
@<TRIPOS>BOND
  1   1   2  2   
  2   2   3  am  
  3   2   4  1   
  4   3   5  1   
  5   3  22  1   
  6   4   6  1   
  7   4   7  1   
  8   4  23  1   
  9   5   8  1   
 10   5   9  1   
 11   5  24  1   
 12   6  10  1   
 13   7  11  1   
 14   7  25  1   
 15   7  26  1   
 16   8  12  1   
 17   8  27  1   
 18   8  28  1   
 19   9  13  1   
 20   9  29  1   
 21   9  30  1   
 22  10  14  ar  
 23  10  15  ar  
 24  11  14  1   
 25  12  16  1   
 26  12  31  1   
 27  12  32  1   
 28  13  17  1   
 29  13  33  1   
 30  13  34  1   
 31  14  18  ar  
 32  15  19  ar  
 33  15  35  1   
 34  16  20  1   
 35  16  36  1   
 36  16  37  1   
 37  17  20  1   
 38  17  38  1   
 39  17  39  1   
 40  18  21  ar  
 41  18  40  1   
 42  19  21  ar  
 43  19  41  1   
 44  20  42  1   
 45  20  43  1   
 46  21  44  1   
@<TRIPOS>SUBSTRUCTURE
  1 ****   3 GROUP 4 **** **** 0

# MOE 2024.06 (io_trps.svl 2023.06)
