@<TRIPOS>MOLECULE
NONAME
46 48 1 0 0 
SMALL
USER_CHARGES


@<TRIPOS>ATOM
  1 O       -0.3590     4.5620     0.1660 O.2   1 <1>  -0.5700 
  2 C        0.1980     3.5010    -0.0490 C.2   1 <1>   0.5440 
  3 N       -0.5550     2.3470    -0.0330 N.am  1 <1>  -0.6600 
  4 C        1.6200     3.4770    -0.3240 C.ar  1 <1>   0.0860 
  5 C       -2.0080     2.3610     0.2470 C.3   1 <1>   0.1400 
  6 C       -0.1490     1.0650    -0.6520 C.3   1 <1>   0.1400 
  7 C        2.1840     4.3290    -1.2730 C.ar  1 <1>  -0.1500 
  8 C        2.4850     2.6110     0.3450 C.ar  1 <1>  -0.1500 
  9 C       -2.4770     0.9380    -0.0330 C.3   1 <1>  -0.1600 
 10 C       -1.4600     0.3850    -1.0280 C.3   1 <1>  -0.1600 
 11 C        3.5360     4.3050    -1.5560 C.ar  1 <1>  -0.1500 
 12 C        3.8380     2.5840     0.0650 C.ar  1 <1>  -0.1500 
 13 C        4.3890     3.4270    -0.8940 C.ar  1 <1>   0.1170 
 14 N        5.7650     3.3490    -1.1290 N.am  1 <1>  -0.5470 
 15 C        6.6060     3.9710    -2.0130 C.2   1 <1>   0.5690 
 16 O        6.2450     4.7690    -2.8420 O.2   1 <1>  -0.5700 
 17 C        8.0870     3.6320    -1.9440 C.3   1 <1>   0.0440 
 18 C        8.4070     2.6290    -0.8320 C.ar  1 <1>  -0.1430 
 19 C        8.5620     3.0200     0.4960 C.ar  1 <1>  -0.1430 
 20 C        8.5110     1.2860    -1.1660 C.ar  1 <1>  -0.1500 
 21 C        8.8150     2.0590     1.4630 C.ar  1 <1>  -0.1500 
 22 C        8.4610     4.4780     0.9260 C.3   1 <1>  -0.0970 
 23 C        8.7630     0.3350    -0.1940 C.ar  1 <1>  -0.1500 
 24 C        8.9140     0.7230     1.1230 C.ar  1 <1>  -0.1500 
 25 H       -2.4870     3.0580    -0.4210 H     1 <1>   0.0800 
 26 H       -2.1950     2.6540     1.2660 H     1 <1>   0.0800 
 27 H        0.3800     0.4750     0.0760 H     1 <1>   0.0800 
 28 H        0.4740     1.2260    -1.5160 H     1 <1>   0.0800 
 29 H        1.5410     5.0210    -1.7910 H     1 <1>   0.1500 
 30 H        2.0820     1.9570     1.0980 H     1 <1>   0.1500 
 31 H       -3.4810     0.9180    -0.4170 H     1 <1>   0.0800 
 32 H       -2.4400     0.3730     0.8820 H     1 <1>   0.0800 
 33 H       -1.3830    -0.6860    -0.9850 H     1 <1>   0.0800 
 34 H       -1.7310     0.6790    -2.0270 H     1 <1>   0.0800 
 35 H        3.9230     4.9810    -2.2960 H     1 <1>   0.1500 
 36 H        4.4750     1.9020     0.5990 H     1 <1>   0.1500 
 37 H        6.2670     2.7070    -0.5080 H     1 <1>   0.3700 
 38 H        8.6420     4.5400    -1.8030 H     1 <1>   0.0800 
 39 H        8.3810     3.2310    -2.8960 H     1 <1>   0.0800 
 40 H        8.3950     0.9670    -2.1880 H     1 <1>   0.1500 
 41 H        8.9400     2.3440     2.4930 H     1 <1>   0.1500 
 42 H        9.2560     5.0490     0.4810 H     1 <1>   0.0800 
 43 H        8.5420     4.5720     1.9940 H     1 <1>   0.0800 
 44 H        7.5170     4.8980     0.6280 H     1 <1>   0.0800 
 45 H        8.8440    -0.7040    -0.4630 H     1 <1>   0.1500 
 46 H        9.1120    -0.0140     1.8830 H     1 <1>   0.1500 
@<TRIPOS>BOND
  1   1   2  2   
  2   2   3  am  
  3   2   4  1   
  4   3   5  1   
  5   3   6  1   
  6   4   7  ar  
  7   4   8  ar  
  8   5   9  1   
  9   5  25  1   
 10   5  26  1   
 11   6  10  1   
 12   6  27  1   
 13   6  28  1   
 14   7  11  ar  
 15   7  29  1   
 16   8  12  ar  
 17   8  30  1   
 18   9  10  1   
 19   9  31  1   
 20   9  32  1   
 21  10  33  1   
 22  10  34  1   
 23  11  13  ar  
 24  11  35  1   
 25  12  13  ar  
 26  12  36  1   
 27  13  14  1   
 28  14  15  am  
 29  14  37  1   
 30  15  16  2   
 31  15  17  1   
 32  17  18  1   
 33  17  38  1   
 34  17  39  1   
 35  18  19  ar  
 36  18  20  ar  
 37  19  21  ar  
 38  19  22  1   
 39  20  23  ar  
 40  20  40  1   
 41  21  24  ar  
 42  21  41  1   
 43  22  42  1   
 44  22  43  1   
 45  22  44  1   
 46  23  24  ar  
 47  23  45  1   
 48  24  46  1   
@<TRIPOS>SUBSTRUCTURE
  1 ****  12 GROUP 4 **** **** 0

# MOE 2024.06 (io_trps.svl 2023.06)
