@<TRIPOS>MOLECULE
NONAME
51 54 1 0 0 
SMALL
USER_CHARGES


@<TRIPOS>ATOM
  1 O        1.2910     3.0890     3.0200 O.2   1 <1>  -0.5700 
  2 C        0.5120     2.5710     2.2580 C.2   1 <1>   0.5690 
  3 N        0.9160     1.7740     1.2390 N.am  1 <1>  -0.7300 
  4 C       -0.9770     2.8240     2.4410 C.3   1 <1>   0.0440 
  5 C        2.2960     1.4200     0.8690 C.3   1 <1>   0.2200 
  6 C       -1.8360     1.9650     1.5130 C.ar  1 <1>  -0.1440 
  7 C        2.5990     1.9200    -0.5600 C.3   1 <1>  -0.0800 
  8 C        2.4750    -0.1130     0.9240 C.3   1 <1>  -0.0800 
  9 C       -2.0410     2.3530     0.2000 C.ar  1 <1>  -0.1500 
 10 C       -2.3890     0.7770     1.9590 C.ar  1 <1>  -0.1500 
 11 C        4.0660     1.5820    -0.8970 C.3   1 <1>  -0.1600 
 12 C        1.6830     1.2220    -1.5930 C.3   1 <1>  -0.1600 
 13 C        3.9420    -0.4480     0.5850 C.3   1 <1>  -0.1600 
 14 C        1.5590    -0.8100    -0.1090 C.3   1 <1>  -0.1600 
 15 C       -2.7760     1.5720    -0.6760 C.ar  1 <1>   0.0830 
 16 C       -3.1260    -0.0180     1.0990 C.ar  1 <1>  -0.1500 
 17 C        4.2860     0.0570    -0.8310 C.3   1 <1>  -0.0800 
 18 C        1.8850    -0.3050    -1.5280 C.3   1 <1>  -0.0800 
 19 O       -2.8840     2.0810    -1.9360 O.3   1 <1>  -0.3620 
 20 C       -3.3230     0.3570    -0.2290 C.ar  1 <1>   0.0830 
 21 C        3.3560    -0.6300    -1.8500 C.3   1 <1>  -0.1600 
 22 C       -4.0200     1.8340    -2.7340 C.3   1 <1>   0.0400 
 23 O       -4.0140    -0.4420    -1.0950 O.3   1 <1>  -0.3630 
 24 C       -4.4610    -1.7310    -0.7370 C.3   1 <1>   0.0400 
 25 H        0.2020     1.3630     0.6330 H     1 <1>   0.3700 
 26 H       -1.1670     3.8640     2.2530 H     1 <1>   0.0800 
 27 H       -1.2290     2.6270     3.4660 H     1 <1>   0.0800 
 28 H        2.9750     1.8860     1.5640 H     1 <1>   0.0800 
 29 H        2.4610     2.9860    -0.6010 H     1 <1>   0.0800 
 30 H        2.2500    -0.4620     1.9170 H     1 <1>   0.0800 
 31 H       -1.6220     3.2730    -0.1660 H     1 <1>   0.1500 
 32 H       -2.2420     0.4600     2.9770 H     1 <1>   0.1500 
 33 H        4.7230     2.0750    -0.2000 H     1 <1>   0.0800 
 34 H        4.3070     1.9420    -1.8820 H     1 <1>   0.0800 
 35 H        1.9190     1.5750    -2.5810 H     1 <1>   0.0800 
 36 H        0.6510     1.4630    -1.4080 H     1 <1>   0.0800 
 37 H        4.0950    -1.5120     0.6400 H     1 <1>   0.0800 
 38 H        4.5960     0.0130     1.3050 H     1 <1>   0.0800 
 39 H        0.5240    -0.6230     0.1170 H     1 <1>   0.0800 
 40 H        1.7070    -1.8750    -0.0620 H     1 <1>   0.0800 
 41 H       -3.5330    -0.9300     1.4890 H     1 <1>   0.1500 
 42 H        5.3120    -0.1740    -1.0610 H     1 <1>   0.0800 
 43 H        1.2400    -0.7870    -2.2440 H     1 <1>   0.0800 
 44 H        3.5080    -1.6950    -1.8220 H     1 <1>   0.0800 
 45 H        3.5940    -0.2940    -2.8440 H     1 <1>   0.0800 
 46 H       -4.0600     2.5860    -3.5020 H     1 <1>   0.0800 
 47 H       -4.9010     1.8860    -2.1190 H     1 <1>   0.0800 
 48 H       -3.9230     0.8620    -3.1830 H     1 <1>   0.0800 
 49 H       -4.9230    -2.1750    -1.6000 H     1 <1>   0.0800 
 50 H       -5.1810    -1.6440     0.0570 H     1 <1>   0.0800 
 51 H       -3.6150    -2.3220    -0.4320 H     1 <1>   0.0800 
@<TRIPOS>BOND
  1   1   2  2   
  2   2   3  am  
  3   2   4  1   
  4   3   5  1   
  5   3  25  1   
  6   4   6  1   
  7   4  26  1   
  8   4  27  1   
  9   5   7  1   
 10   5   8  1   
 11   5  28  1   
 12   6   9  ar  
 13   6  10  ar  
 14   7  11  1   
 15   7  12  1   
 16   7  29  1   
 17   8  13  1   
 18   8  14  1   
 19   8  30  1   
 20   9  15  ar  
 21   9  31  1   
 22  10  16  ar  
 23  10  32  1   
 24  11  17  1   
 25  11  33  1   
 26  11  34  1   
 27  12  18  1   
 28  12  35  1   
 29  12  36  1   
 30  13  17  1   
 31  13  37  1   
 32  13  38  1   
 33  14  18  1   
 34  14  39  1   
 35  14  40  1   
 36  15  19  1   
 37  15  20  ar  
 38  16  20  ar  
 39  16  41  1   
 40  17  21  1   
 41  17  42  1   
 42  18  21  1   
 43  18  43  1   
 44  19  22  1   
 45  20  23  1   
 46  21  44  1   
 47  21  45  1   
 48  22  46  1   
 49  22  47  1   
 50  22  48  1   
 51  23  24  1   
 52  24  49  1   
 53  24  50  1   
 54  24  51  1   
@<TRIPOS>SUBSTRUCTURE
  1 ****   3 GROUP 4 **** **** 0

# MOE 2024.06 (io_trps.svl 2023.06)
