@<TRIPOS>MOLECULE
NONAME
43 44 1 0 0 
SMALL
USER_CHARGES


@<TRIPOS>ATOM
  1 S        0.0980    -0.1660    -0.0280 S.3   1 <1>  -0.3320 
  2 C       -1.5300    -0.8710    -0.3350 C.ar  1 <1>   0.1020 
  3 C        0.8810    -1.1730     1.3090 C.3   1 <1>  -0.0100 
  4 C       -2.0310    -1.9280     0.4070 C.ar  1 <1>  -0.1500 
  5 C       -2.2720    -0.3090    -1.3560 C.ar  1 <1>  -0.1500 
  6 C       -3.2950    -2.4190     0.1210 C.ar  1 <1>  -0.1500 
  7 C       -3.5330    -0.8030    -1.6400 C.ar  1 <1>  -0.1500 
  8 C       -4.0540    -1.8550    -0.8970 C.ar  1 <1>  -0.1430 
  9 C       -5.4450    -2.3800    -1.1970 C.3   1 <1>   0.4860 
 10 N       -6.3770    -1.8720    -0.1530 N.4   1 <1>  -0.9590 
 11 C       -7.7270    -2.5340    -0.2480 C.3   1 <1>   0.3430 
 12 C       -6.4820    -0.3650    -0.1940 C.3   1 <1>   0.3430 
 13 C       -8.7170    -2.0010     0.8070 C.3   1 <1>   0.1400 
 14 C       -7.4600     0.1780     0.8630 C.3   1 <1>   0.1400 
 15 N       -8.7790    -0.5120     0.7510 N.am  1 <1>  -0.6600 
 16 C       -9.9270     0.1850     0.4720 C.2   1 <1>   0.7800 
 17 O       -9.9250     1.3850     0.2900 O.2   1 <1>  -0.5700 
 18 O      -11.0610    -0.5060     0.3760 O.3   1 <1>  -0.4300 
 19 C      -12.2830     0.1450     0.1060 C.3   1 <1>   0.1200 
 20 C      -13.3820    -0.9110     0.0570 C.3   1 <1>  -0.2400 
 21 H        1.8650    -0.7750     1.4780 H     1 <1>   0.0800 
 22 H        0.9350    -2.1920     0.9700 H     1 <1>   0.0800 
 23 H        0.2770    -1.0810     2.1930 H     1 <1>   0.0800 
 24 H       -1.4540    -2.3710     1.1960 H     1 <1>   0.1500 
 25 H       -1.8550     0.5060    -1.9230 H     1 <1>   0.1500 
 26 H       -3.6680    -3.2460     0.7010 H     1 <1>   0.1500 
 27 H       -4.0920    -0.3560    -2.4460 H     1 <1>   0.1500 
 28 H       -5.4250    -3.4570    -1.1880 H     1 <1>   0.0800 
 29 H       -5.7610    -2.0510    -2.1730 H     1 <1>   0.0800 
 30 H       -5.9570    -2.1110     0.7540 H     1 <1>   0.4500 
 31 H       -7.6250    -3.6000    -0.1250 H     1 <1>   0.0800 
 32 H       -8.1490    -2.3540    -1.2240 H     1 <1>   0.0800 
 33 H       -6.8260    -0.0510    -1.1650 H     1 <1>   0.0800 
 34 H       -5.5120     0.0770    -0.0300 H     1 <1>   0.0800 
 35 H       -8.4060    -2.3060     1.7910 H     1 <1>   0.0800 
 36 H       -9.6870    -2.4330     0.6270 H     1 <1>   0.0800 
 37 H       -7.5720     1.2400     0.7250 H     1 <1>   0.0800 
 38 H       -7.0590     0.0220     1.8490 H     1 <1>   0.0800 
 39 H      -12.1970     0.6590    -0.8380 H     1 <1>   0.0800 
 40 H      -12.4690     0.8610     0.8900 H     1 <1>   0.0800 
 41 H      -13.1820    -1.6220    -0.7240 H     1 <1>   0.0800 
 42 H      -14.3270    -0.4390    -0.1460 H     1 <1>   0.0800 
 43 H      -13.4520    -1.4190     1.0020 H     1 <1>   0.0800 
@<TRIPOS>BOND
  1   1   2  1   
  2   1   3  1   
  3   2   4  ar  
  4   2   5  ar  
  5   3  21  1   
  6   3  22  1   
  7   3  23  1   
  8   4   6  ar  
  9   4  24  1   
 10   5   7  ar  
 11   5  25  1   
 12   6   8  ar  
 13   6  26  1   
 14   7   8  ar  
 15   7  27  1   
 16   8   9  1   
 17   9  10  1   
 18   9  28  1   
 19   9  29  1   
 20  10  11  1   
 21  10  12  1   
 22  10  30  1   
 23  11  13  1   
 24  11  31  1   
 25  11  32  1   
 26  12  14  1   
 27  12  33  1   
 28  12  34  1   
 29  13  15  1   
 30  13  35  1   
 31  13  36  1   
 32  14  15  1   
 33  14  37  1   
 34  14  38  1   
 35  15  16  am  
 36  16  17  2   
 37  16  18  1   
 38  18  19  1   
 39  19  20  1   
 40  19  39  1   
 41  19  40  1   
 42  20  41  1   
 43  20  42  1   
 44  20  43  1   
@<TRIPOS>SUBSTRUCTURE
  1 ****  12 GROUP 4 **** **** 0

# MOE 2024.06 (io_trps.svl 2023.06)
