@<TRIPOS>MOLECULE
NONAME
40 40 1 0 0 
SMALL
USER_CHARGES


@<TRIPOS>ATOM
  1 CL      -0.2190     0.1410    -0.4710 Cl    1 <1>  -0.1770 
  2 C        1.3640     0.8770    -0.3440 C.ar  1 <1>   0.1770 
  3 C        2.4960     0.0860    -0.2430 C.ar  1 <1>  -0.1440 
  4 C        1.4450     2.2550    -0.3480 C.ar  1 <1>  -0.1500 
  5 C        3.7270     0.7120    -0.1440 C.ar  1 <1>  -0.1500 
  6 C        2.3930    -1.4330    -0.2400 C.3   1 <1>  -0.0960 
  7 C        2.6750     2.8920    -0.2490 C.ar  1 <1>  -0.1430 
  8 C        3.8270     2.1050    -0.1470 C.ar  1 <1>   0.0830 
  9 C        2.6760     4.4270    -0.2610 C.3   1 <1>   0.0640 
 10 O        5.0280     2.7350    -0.0510 O.3   1 <1>  -0.3630 
 11 C        3.4190     4.9960    -1.4750 C.3   1 <1>  -0.2400 
 12 C        3.2080     5.0160     1.0510 C.3   1 <1>  -0.2400 
 13 C        6.2440     2.0410     0.0560 C.3   1 <1>   0.1200 
 14 C        7.3490     3.0960     0.1400 C.3   1 <1>   0.3430 
 15 N        8.7050     2.4780     0.2570 N.4   1 <1>  -0.9060 
 16 C        9.7710     3.5000     0.3380 C.3   1 <1>   0.3430 
 17 C       11.1060     2.7810     0.4550 C.3   1 <1>  -0.2400 
 18 H        0.5330     2.8180    -0.4290 H     1 <1>   0.1500 
 19 H        4.5980     0.0920    -0.0670 H     1 <1>   0.1500 
 20 H        1.7890    -1.7570     0.5890 H     1 <1>   0.0800 
 21 H        3.3610    -1.8910    -0.1550 H     1 <1>   0.0800 
 22 H        1.9350    -1.7700    -1.1530 H     1 <1>   0.0800 
 23 H        1.6550     4.7590    -0.3490 H     1 <1>   0.0800 
 24 H        4.4710     4.7870    -1.4230 H     1 <1>   0.0800 
 25 H        3.2850     6.0620    -1.5240 H     1 <1>   0.0800 
 26 H        3.0270     4.5620    -2.3780 H     1 <1>   0.0800 
 27 H        4.2520     4.8070     1.1780 H     1 <1>   0.0800 
 28 H        2.6700     4.5950     1.8820 H     1 <1>   0.0800 
 29 H        3.0690     6.0820     1.0600 H     1 <1>   0.0800 
 30 H        6.3560     1.4290    -0.8220 H     1 <1>   0.0800 
 31 H        6.2080     1.4420     0.9490 H     1 <1>   0.0800 
 32 H        7.1600     3.7220     0.9970 H     1 <1>   0.0800 
 33 H        7.3050     3.7090    -0.7460 H     1 <1>   0.0800 
 34 H        8.8910     1.8730    -0.5530 H     1 <1>   0.4500 
 35 H        8.7530     1.8850     1.0960 H     1 <1>   0.4500 
 36 H        9.6200     4.1320     1.2000 H     1 <1>   0.0800 
 37 H        9.7650     4.1180    -0.5470 H     1 <1>   0.0800 
 38 H       11.1460     2.1800     1.3460 H     1 <1>   0.0800 
 39 H       11.8960     3.5100     0.5150 H     1 <1>   0.0800 
 40 H       11.2920     2.1660    -0.4080 H     1 <1>   0.0800 
@<TRIPOS>BOND
  1   1   2  1   
  2   2   3  ar  
  3   2   4  ar  
  4   3   5  ar  
  5   3   6  1   
  6   4   7  ar  
  7   4  18  1   
  8   5   8  ar  
  9   5  19  1   
 10   6  20  1   
 11   6  21  1   
 12   6  22  1   
 13   7   8  ar  
 14   7   9  1   
 15   8  10  1   
 16   9  11  1   
 17   9  12  1   
 18   9  23  1   
 19  10  13  1   
 20  11  24  1   
 21  11  25  1   
 22  11  26  1   
 23  12  27  1   
 24  12  28  1   
 25  12  29  1   
 26  13  14  1   
 27  13  30  1   
 28  13  31  1   
 29  14  15  1   
 30  14  32  1   
 31  14  33  1   
 32  15  16  1   
 33  15  34  1   
 34  15  35  1   
 35  16  17  1   
 36  16  36  1   
 37  16  37  1   
 38  17  38  1   
 39  17  39  1   
 40  17  40  1   
@<TRIPOS>SUBSTRUCTURE
  1 ****   8 GROUP 4 **** **** 0

# MOE 2024.06 (io_trps.svl 2023.06)
