@<TRIPOS>MOLECULE
NONAME
28 28 1 0 0 
SMALL
USER_CHARGES


@<TRIPOS>ATOM
  1 O       -0.5110    -1.2700    -1.7410 O.2   1 <1>  -0.5700 
  2 C       -0.2700    -1.9850    -0.8010 C.2   1 <1>   0.5950 
  3 C        1.0630    -2.3430    -0.4010 C.2   1 <1>  -0.0860 
  4 C       -1.4480    -2.4970    -0.0100 C.3   1 <1>  -0.0380 
  5 C        1.5810    -3.6280    -0.1740 C.2   1 <1>   0.1080 
  6 C        2.1330    -1.5330    -0.1540 C.2   1 <1>  -0.3320 
  7 C       -2.0070    -1.3730     0.8280 C.2   1 <1>   0.4480 
  8 N        2.8180    -3.6120     0.1910 N.2   1 <1>  -0.7070 
  9 C        0.8480    -4.9420    -0.3440 C.3   1 <1>  -0.0590 
 10 N        3.1640    -2.3170     0.2020 N.pl3 1 <1>   0.3140 
 11 C        2.2050    -0.0140    -0.2420 C.3   1 <1>  -0.0600 
 12 O       -1.8140    -1.3360     2.0040 O.2   1 <1>  -0.5700 
 13 C       -2.8470    -0.3130     0.1470 C.3   1 <1>  -0.1790 
 14 C        4.5240    -1.9030     0.5690 C.3   1 <1>   0.0160 
 15 H       -1.1430    -3.2890     0.6460 H     1 <1>   0.0800 
 16 H       -2.2000    -2.8700    -0.6770 H     1 <1>   0.0800 
 17 H        0.1070    -4.8680    -1.1170 H     1 <1>   0.0800 
 18 H        0.3830    -5.2210     0.5830 H     1 <1>   0.0800 
 19 H        1.5500    -5.7090    -0.6170 H     1 <1>   0.0800 
 20 H        1.2580     0.3950    -0.5460 H     1 <1>   0.0800 
 21 H        2.9450     0.2800    -0.9640 H     1 <1>   0.0800 
 22 H        2.4620     0.4020     0.7160 H     1 <1>   0.0800 
 23 H       -3.6260    -0.7700    -0.4330 H     1 <1>   0.0800 
 24 H       -2.2330     0.2910    -0.4960 H     1 <1>   0.0800 
 25 H       -3.2950     0.3240     0.8890 H     1 <1>   0.0800 
 26 H        4.4770    -1.2630     1.4290 H     1 <1>   0.0800 
 27 H        4.9680    -1.3820    -0.2580 H     1 <1>   0.0800 
 28 H        5.1060    -2.7760     0.8000 H     1 <1>   0.0800 
@<TRIPOS>BOND
  1   1   2  2   
  2   2   3  1   
  3   2   4  1   
  4   3   5  1   
  5   3   6  2   
  6   4   7  1   
  7   4  15  1   
  8   4  16  1   
  9   5   8  2   
 10   5   9  1   
 11   6  10  1   
 12   6  11  1   
 13   7  12  2   
 14   7  13  1   
 15   8  10  1   
 16   9  17  1   
 17   9  18  1   
 18   9  19  1   
 19  10  14  1   
 20  11  20  1   
 21  11  21  1   
 22  11  22  1   
 23  13  23  1   
 24  13  24  1   
 25  13  25  1   
 26  14  26  1   
 27  14  27  1   
 28  14  28  1   
@<TRIPOS>SUBSTRUCTURE
  1 ****   3 GROUP 4 **** **** 0

# MOE 2024.06 (io_trps.svl 2023.06)
