@<TRIPOS>MOLECULE
NONAME
35 35 1 0 0 
SMALL
USER_CHARGES


@<TRIPOS>ATOM
  1 CL       0.9730    -1.2170    -1.3810 Cl    1 <1>  -0.1770 
  2 C        2.1180    -1.3640    -0.0640 C.ar  1 <1>   0.1770 
  3 C        3.2670    -0.5660     0.0310 C.ar  1 <1>   0.0830 
  4 C        1.8500    -2.3410     0.8740 C.ar  1 <1>  -0.1500 
  5 O        3.5980     0.4240    -0.8460 O.3   1 <1>  -0.3630 
  6 C        4.1650    -0.7930     1.0750 C.ar  1 <1>  -0.1440 
  7 C        2.7440    -2.5350     1.9070 C.ar  1 <1>   0.1770 
  8 C        2.6150     1.3320    -1.3080 C.3   1 <1>   0.0400 
  9 C        3.8960    -1.7790     2.0150 C.ar  1 <1>  -0.1500 
 10 C        5.4310     0.0340     1.1860 C.3   1 <1>   0.4870 
 11 CL       2.4210    -3.7660     3.0990 Cl    1 <1>  -0.1770 
 12 N        6.2370    -0.2350    -0.0180 N.4   1 <1>  -0.9060 
 13 C        7.4490     0.5520    -0.2750 C.3   1 <1>   0.5030 
 14 C        8.2450    -0.1960    -1.3780 C.3   1 <1>   0.1200 
 15 C        8.2900     0.6390     1.0040 C.3   1 <1>  -0.2400 
 16 C        7.0350     1.9460    -0.7430 C.3   1 <1>  -0.2400 
 17 O        8.2000    -1.5790    -1.1510 O.3   1 <1>  -0.6800 
 18 H        0.9640    -2.9460     0.7990 H     1 <1>   0.1500 
 19 H        3.0900     2.2760    -1.5050 H     1 <1>   0.0800 
 20 H        1.8540     1.4570    -0.5570 H     1 <1>   0.0800 
 21 H        2.1880     0.9530    -2.2200 H     1 <1>   0.0800 
 22 H        4.5640    -1.9770     2.8370 H     1 <1>   0.1500 
 23 H        5.9790    -0.2320     2.0750 H     1 <1>   0.0800 
 24 H        5.1710     1.0790     1.2330 H     1 <1>   0.0800 
 25 H        5.5980    -0.1400    -0.8170 H     1 <1>   0.4500 
 26 H        6.5560    -1.2160    -0.0440 H     1 <1>   0.4500 
 27 H        9.2740     0.1210    -1.3880 H     1 <1>   0.0800 
 28 H        7.8190    -0.0060    -2.3490 H     1 <1>   0.0800 
 29 H        7.7970     1.2080     1.7710 H     1 <1>   0.0800 
 30 H        8.5220    -0.3430     1.3760 H     1 <1>   0.0800 
 31 H        9.2210     1.1350     0.7910 H     1 <1>   0.0800 
 32 H        7.9100     2.5240    -0.9870 H     1 <1>   0.0800 
 33 H        6.4200     1.8910    -1.6240 H     1 <1>   0.0800 
 34 H        6.5000     2.4750     0.0260 H     1 <1>   0.0800 
 35 H        8.7810    -2.0590    -1.7840 H     1 <1>   0.4000 
@<TRIPOS>BOND
  1   1   2  1   
  2   2   3  ar  
  3   2   4  ar  
  4   3   5  1   
  5   3   6  ar  
  6   4   7  ar  
  7   4  18  1   
  8   5   8  1   
  9   6   9  ar  
 10   6  10  1   
 11   7   9  ar  
 12   7  11  1   
 13   8  19  1   
 14   8  20  1   
 15   8  21  1   
 16   9  22  1   
 17  10  12  1   
 18  10  23  1   
 19  10  24  1   
 20  12  13  1   
 21  12  25  1   
 22  12  26  1   
 23  13  14  1   
 24  13  15  1   
 25  13  16  1   
 26  14  17  1   
 27  14  27  1   
 28  14  28  1   
 29  15  29  1   
 30  15  30  1   
 31  15  31  1   
 32  16  32  1   
 33  16  33  1   
 34  16  34  1   
 35  17  35  1   
@<TRIPOS>SUBSTRUCTURE
  1 ****   6 GROUP 4 **** **** 0

# MOE 2024.06 (io_trps.svl 2023.06)
