@<TRIPOS>MOLECULE
NONAME
54 57 1 0 0 
SMALL
USER_CHARGES


@<TRIPOS>ATOM
  1 S       -0.2790     0.2410    -1.2140 S.o2  1 <1>   1.4470 
  2 O        0.0410    -1.1190    -0.8370 O.2   1 <1>  -0.6500 
  3 O       -0.8230     0.4790    -2.5350 O.2   1 <1>  -0.6500 
  4 N       -1.4220     0.7910    -0.0900 N.am  1 <1>  -0.8490 
  5 C        1.1550     1.3310    -0.9210 C.ar  1 <1>  -0.0090 
  6 C       -2.7430     0.2090    -0.3210 C.3   1 <1>   0.1960 
  7 C       -0.9860     0.5920     1.3040 C.3   1 <1>   0.1960 
  8 C        1.1600     2.6940    -1.2280 C.ar  1 <1>  -0.1440 
  9 C        2.2980     0.7960    -0.3380 C.ar  1 <1>  -0.1500 
 10 C       -3.8090     0.9880     0.4680 C.3   1 <1>  -0.1600 
 11 C       -2.1180     0.8240     2.3240 C.3   1 <1>  -0.1600 
 12 C        2.2800     3.4640    -0.9570 C.ar  1 <1>  -0.1500 
 13 C       -0.0480     3.3800    -1.8580 C.3   1 <1>  -0.0970 
 14 C        3.4360     1.5480    -0.0560 C.ar  1 <1>   0.0860 
 15 C       -3.2670     1.6560     1.7440 C.3   1 <1>  -0.1600 
 16 C        3.4000     2.9010    -0.3790 C.ar  1 <1>  -0.1500 
 17 C        4.6000     0.9360     0.5560 C.2   1 <1>   0.5440 
 18 O        4.4720     0.0390     1.3650 O.2   1 <1>  -0.5700 
 19 N        5.8570     1.3520     0.2210 N.am  1 <1>  -0.7300 
 20 C        7.1140     0.8050     0.7690 C.3   1 <1>   0.2200 
 21 C        8.0470     1.9550     1.1930 C.3   1 <1>  -0.0800 
 22 C        7.9170     0.1110    -0.3440 C.3   1 <1>  -0.1600 
 23 C        8.7190     2.3330    -0.1200 C.3   1 <1>  -0.1600 
 24 C        9.2280     1.3440     1.9670 C.3   1 <1>  -0.1600 
 25 C        9.2210     0.9280    -0.4070 C.3   1 <1>  -0.0800 
 26 C       10.0340     0.6330     0.8640 C.3   1 <1>  -0.1600 
 27 H       -2.7340    -0.8250    -0.0180 H     1 <1>   0.0800 
 28 H       -2.9940     0.2450    -1.3690 H     1 <1>   0.0800 
 29 H       -0.1860     1.2820     1.5110 H     1 <1>   0.0800 
 30 H       -0.6030    -0.4060     1.4410 H     1 <1>   0.0800 
 31 H        2.3180    -0.2520    -0.0860 H     1 <1>   0.1500 
 32 H       -4.6010     0.3060     0.7240 H     1 <1>   0.0800 
 33 H       -4.2340     1.7440    -0.1680 H     1 <1>   0.0800 
 34 H       -1.7150     1.3050     3.1980 H     1 <1>   0.0800 
 35 H       -2.5000    -0.1320     2.6360 H     1 <1>   0.0800 
 36 H        2.2850     4.5150    -1.1940 H     1 <1>   0.1500 
 37 H       -0.2050     3.0110    -2.8560 H     1 <1>   0.0800 
 38 H        0.0940     4.4440    -1.9140 H     1 <1>   0.0800 
 39 H       -0.9340     3.1970    -1.2770 H     1 <1>   0.0800 
 40 H       -4.0540     1.7770     2.4680 H     1 <1>   0.0800 
 41 H       -2.8890     2.6330     1.4940 H     1 <1>   0.0800 
 42 H        4.2520     3.5220    -0.1660 H     1 <1>   0.1500 
 43 H        5.9810     2.0270    -0.5300 H     1 <1>   0.3700 
 44 H        6.9130     0.1380     1.5910 H     1 <1>   0.0800 
 45 H        7.5510     2.7500     1.7220 H     1 <1>   0.0800 
 46 H        7.3990     0.1530    -1.2860 H     1 <1>   0.0800 
 47 H        8.1110    -0.9170    -0.0960 H     1 <1>   0.0800 
 48 H        9.5190     3.0430     0.0110 H     1 <1>   0.0800 
 49 H        8.0300     2.6900    -0.8660 H     1 <1>   0.0800 
 50 H        8.8980     0.6610     2.7310 H     1 <1>   0.0800 
 51 H        9.8200     2.1210     2.4200 H     1 <1>   0.0800 
 52 H        9.7750     0.8110    -1.3230 H     1 <1>   0.0800 
 53 H       10.1270    -0.4230     1.0480 H     1 <1>   0.0800 
 54 H       11.0180     1.0640     0.7870 H     1 <1>   0.0800 
@<TRIPOS>BOND
  1   1   2  2   
  2   1   3  2   
  3   1   4  am  
  4   1   5  1   
  5   4   6  1   
  6   4   7  1   
  7   5   8  ar  
  8   5   9  ar  
  9   6  10  1   
 10   6  27  1   
 11   6  28  1   
 12   7  11  1   
 13   7  29  1   
 14   7  30  1   
 15   8  12  ar  
 16   8  13  1   
 17   9  14  ar  
 18   9  31  1   
 19  10  15  1   
 20  10  32  1   
 21  10  33  1   
 22  11  15  1   
 23  11  34  1   
 24  11  35  1   
 25  12  16  ar  
 26  12  36  1   
 27  13  37  1   
 28  13  38  1   
 29  13  39  1   
 30  14  16  ar  
 31  14  17  1   
 32  15  40  1   
 33  15  41  1   
 34  16  42  1   
 35  17  18  2   
 36  17  19  am  
 37  19  20  1   
 38  19  43  1   
 39  20  21  1   
 40  20  22  1   
 41  20  44  1   
 42  21  23  1   
 43  21  24  1   
 44  21  45  1   
 45  22  25  1   
 46  22  46  1   
 47  22  47  1   
 48  23  25  1   
 49  23  48  1   
 50  23  49  1   
 51  24  26  1   
 52  24  50  1   
 53  24  51  1   
 54  25  26  1   
 55  25  52  1   
 56  26  53  1   
 57  26  54  1   
@<TRIPOS>SUBSTRUCTURE
  1 ****  14 GROUP 4 **** **** 0

# MOE 2024.06 (io_trps.svl 2023.06)
