@<TRIPOS>MOLECULE
NONAME
32 32 1 0 0 
SMALL
USER_CHARGES


@<TRIPOS>ATOM
  1 S       -0.1420     0.3360     0.4490 S.o2  1 <1>   1.4470 
  2 O       -0.1470     1.5690    -0.2990 O.2   1 <1>  -0.6500 
  3 O        0.2710     0.3190     1.8310 O.2   1 <1>  -0.6500 
  4 N        1.0600    -0.5250    -0.2920 N.am  1 <1>  -0.9780 
  5 C       -1.6440    -0.6400     0.1700 C.ar  1 <1>  -0.0090 
  6 C       -2.4310    -0.4420    -0.9580 C.ar  1 <1>  -0.1500 
  7 C       -2.0360    -1.6280     1.0670 C.ar  1 <1>  -0.1500 
  8 C       -3.5700    -1.1970    -1.1820 C.ar  1 <1>  -0.1500 
  9 C       -3.1740    -2.3860     0.8490 C.ar  1 <1>  -0.1500 
 10 C       -3.9480    -2.1750    -0.2790 C.ar  1 <1>  -0.1430 
 11 C       -5.1980    -3.0060    -0.5220 C.3   1 <1>  -0.0170 
 12 C       -6.4230    -2.3350     0.1110 C.3   1 <1>  -0.1600 
 13 C       -7.6980    -3.1560    -0.1210 C.3   1 <1>  -0.1600 
 14 C       -8.9160    -2.4750     0.5160 C.3   1 <1>  -0.1600 
 15 C      -10.1880    -3.2950     0.2840 C.3   1 <1>  -0.2400 
 16 H        1.7380    -0.6600     0.4540 H     1 <1>   0.4200 
 17 H        1.4690     0.1540    -0.9300 H     1 <1>   0.4200 
 18 H       -2.1500     0.3140    -1.6720 H     1 <1>   0.1500 
 19 H       -1.4440    -1.8060     1.9490 H     1 <1>   0.1500 
 20 H       -4.1610    -1.0180    -2.0640 H     1 <1>   0.1500 
 21 H       -3.4540    -3.1410     1.5630 H     1 <1>   0.1500 
 22 H       -5.0650    -3.9880    -0.1020 H     1 <1>   0.0800 
 23 H       -5.3530    -3.1220    -1.5800 H     1 <1>   0.0800 
 24 H       -6.5440    -1.3530    -0.3130 H     1 <1>   0.0800 
 25 H       -6.2550    -2.2200     1.1680 H     1 <1>   0.0800 
 26 H       -7.5770    -4.1370     0.3050 H     1 <1>   0.0800 
 27 H       -7.8660    -3.2680    -1.1790 H     1 <1>   0.0800 
 28 H       -9.0450    -1.4940     0.0920 H     1 <1>   0.0800 
 29 H       -8.7560    -2.3620     1.5750 H     1 <1>   0.0800 
 30 H      -10.3810    -3.4010    -0.7690 H     1 <1>   0.0800 
 31 H      -11.0300    -2.8020     0.7370 H     1 <1>   0.0800 
 32 H      -10.0900    -4.2730     0.7200 H     1 <1>   0.0800 
@<TRIPOS>BOND
  1   1   2  2   
  2   1   3  2   
  3   1   4  am  
  4   1   5  1   
  5   4  16  1   
  6   4  17  1   
  7   5   6  ar  
  8   5   7  ar  
  9   6   8  ar  
 10   6  18  1   
 11   7   9  ar  
 12   7  19  1   
 13   8  10  ar  
 14   8  20  1   
 15   9  10  ar  
 16   9  21  1   
 17  10  11  1   
 18  11  12  1   
 19  11  22  1   
 20  11  23  1   
 21  12  13  1   
 22  12  24  1   
 23  12  25  1   
 24  13  14  1   
 25  13  26  1   
 26  13  27  1   
 27  14  15  1   
 28  14  28  1   
 29  14  29  1   
 30  15  30  1   
 31  15  31  1   
 32  15  32  1   
@<TRIPOS>SUBSTRUCTURE
  1 ****  10 GROUP 4 **** **** 0

# MOE 2024.06 (io_trps.svl 2023.06)
