@<TRIPOS>MOLECULE
NONAME
48 50 1 0 0 
SMALL
USER_CHARGES


@<TRIPOS>ATOM
  1 CL      -0.0690    -3.0520     2.8150 Cl    1 <1>  -0.1770 
  2 C       -1.2260    -2.4140     1.6600 C.ar  1 <1>   0.1770 
  3 C       -0.9710    -2.4770     0.2830 C.ar  1 <1>   0.1000 
  4 C       -2.3850    -1.8530     2.1600 C.ar  1 <1>  -0.1500 
  5 N        0.1810    -3.0320    -0.2880 N.pl3 1 <1>  -0.8380 
  6 C       -1.9340    -1.9510    -0.5700 C.ar  1 <1>  -0.1500 
  7 C       -3.3270    -1.3360     1.2870 C.ar  1 <1>  -0.1500 
  8 C        0.3230    -4.5160    -0.1750 C.3   1 <1>   0.2090 
  9 C        1.4530    -2.2730    -0.0740 C.3   1 <1>   0.2090 
 10 C       -3.0980    -1.3870    -0.0780 C.ar  1 <1>  -0.1500 
 11 C        1.4590    -5.0370    -1.0810 C.3   1 <1>   0.3430 
 12 C        2.5800    -2.8110    -0.9780 C.3   1 <1>   0.3430 
 13 N        2.7520    -4.3040    -0.8510 N.4   1 <1>  -0.9590 
 14 C        3.8630    -4.8190    -1.6860 C.3   1 <1>   0.4860 
 15 C        5.1590    -4.2090    -1.1870 C.ar  1 <1>  -0.1430 
 16 C        5.5830    -4.4300     0.1210 C.ar  1 <1>   0.0830 
 17 C        5.9240    -3.4270    -2.0390 C.ar  1 <1>  -0.1500 
 18 O        4.7860    -5.1990     0.9150 O.3   1 <1>  -0.3630 
 19 C        6.7730    -3.8630     0.5680 C.ar  1 <1>  -0.1500 
 20 C        7.1040    -2.8660    -1.5880 C.ar  1 <1>  -0.1500 
 21 C        5.2300    -5.6530     2.1790 C.3   1 <1>   0.0400 
 22 C        7.5350    -3.0780    -0.2900 C.ar  1 <1>   0.0830 
 23 O        8.7030    -2.4870     0.0600 O.3   1 <1>  -0.3620 
 24 C        9.2920    -2.6900     1.3260 C.3   1 <1>   0.0400 
 25 H       -2.5490    -1.8200     3.2220 H     1 <1>   0.1500 
 26 H       -1.7630    -1.9870    -1.6300 H     1 <1>   0.1500 
 27 H       -4.2340    -0.8970     1.6670 H     1 <1>   0.1500 
 28 H       -0.6040    -4.9820    -0.4620 H     1 <1>   0.0800 
 29 H        0.5270    -4.7890     0.8450 H     1 <1>   0.0800 
 30 H        1.7560    -2.3460     0.9550 H     1 <1>   0.0800 
 31 H        1.2850    -1.2320    -0.2940 H     1 <1>   0.0800 
 32 H       -3.8300    -0.9860    -0.7580 H     1 <1>   0.1500 
 33 H        1.1520    -4.9120    -2.1060 H     1 <1>   0.0800 
 34 H        1.5960    -6.0900    -0.9000 H     1 <1>   0.0800 
 35 H        3.5010    -2.3120    -0.7220 H     1 <1>   0.0800 
 36 H        2.3410    -2.5610    -1.9980 H     1 <1>   0.0800 
 37 H        3.0670    -4.4890     0.1170 H     1 <1>   0.4500 
 38 H        3.7030    -4.5670    -2.7210 H     1 <1>   0.0800 
 39 H        3.9260    -5.8910    -1.5950 H     1 <1>   0.0800 
 40 H        5.6200    -3.2470    -3.0570 H     1 <1>   0.1500 
 41 H        7.1080    -4.0230     1.5720 H     1 <1>   0.1500 
 42 H        7.7060    -2.2580    -2.2420 H     1 <1>   0.1500 
 43 H        5.3580    -4.8080     2.8330 H     1 <1>   0.0800 
 44 H        6.1570    -6.1860     2.0560 H     1 <1>   0.0800 
 45 H        4.4850    -6.3140     2.5840 H     1 <1>   0.0800 
 46 H       10.2190    -2.1460     1.3540 H     1 <1>   0.0800 
 47 H        9.4830    -3.7410     1.4590 H     1 <1>   0.0800 
 48 H        8.6280    -2.3170     2.0860 H     1 <1>   0.0800 
@<TRIPOS>BOND
  1   1   2  1   
  2   2   3  ar  
  3   2   4  ar  
  4   3   5  1   
  5   3   6  ar  
  6   4   7  ar  
  7   4  25  1   
  8   5   8  1   
  9   5   9  1   
 10   6  10  ar  
 11   6  26  1   
 12   7  10  ar  
 13   7  27  1   
 14   8  11  1   
 15   8  28  1   
 16   8  29  1   
 17   9  12  1   
 18   9  30  1   
 19   9  31  1   
 20  10  32  1   
 21  11  13  1   
 22  11  33  1   
 23  11  34  1   
 24  12  13  1   
 25  12  35  1   
 26  12  36  1   
 27  13  14  1   
 28  13  37  1   
 29  14  15  1   
 30  14  38  1   
 31  14  39  1   
 32  15  16  ar  
 33  15  17  ar  
 34  16  18  1   
 35  16  19  ar  
 36  17  20  ar  
 37  17  40  1   
 38  18  21  1   
 39  19  22  ar  
 40  19  41  1   
 41  20  22  ar  
 42  20  42  1   
 43  21  43  1   
 44  21  44  1   
 45  21  45  1   
 46  22  23  1   
 47  23  24  1   
 48  24  46  1   
 49  24  47  1   
 50  24  48  1   
@<TRIPOS>SUBSTRUCTURE
  1 ****  12 GROUP 4 **** **** 0

# MOE 2024.06 (io_trps.svl 2023.06)
