@<TRIPOS>MOLECULE
NONAME
47 50 1 0 0 
SMALL
USER_CHARGES


@<TRIPOS>ATOM
  1 O       -3.6280     1.2380    -2.4110 O.2   1 <1>  -0.5700 
  2 C       -3.1720     1.5880    -1.3490 C.2   1 <1>   0.5690 
  3 N       -3.2850     0.8490    -0.2120 N.am  1 <1>  -0.7300 
  4 C       -2.4390     2.9230    -1.2910 C.3   1 <1>   0.1810 
  5 C       -3.9350    -0.4540    -0.0060 C.3   1 <1>   0.3000 
  6 O       -1.9590     3.2030     0.0200 O.3   1 <1>  -0.3620 
  7 C       -3.7650    -0.8300     1.4780 C.3   1 <1>  -0.1600 
  8 C       -3.2720    -1.5390    -0.8750 C.3   1 <1>  -0.1600 
  9 C       -5.4390    -0.3710    -0.3300 C.3   1 <1>  -0.1600 
 10 C       -1.2760     4.3450     0.2850 C.ar  1 <1>   0.0830 
 11 C       -4.4280    -2.1920     1.7630 C.3   1 <1>  -0.0800 
 12 C       -3.9360    -2.9040    -0.6090 C.3   1 <1>  -0.0800 
 13 C       -6.1100    -1.7320    -0.0620 C.3   1 <1>  -0.0800 
 14 C       -0.9910     5.3190    -0.6680 C.ar  1 <1>  -0.1500 
 15 C       -0.8500     4.5280     1.5910 C.ar  1 <1>  -0.1500 
 16 C       -3.7690    -3.2680     0.8790 C.3   1 <1>  -0.1600 
 17 C       -5.9280    -2.1050     1.4220 C.3   1 <1>  -0.1600 
 18 C       -5.4390    -2.8070    -0.9390 C.3   1 <1>  -0.1600 
 19 C       -0.2880     6.4550    -0.3070 C.ar  1 <1>  -0.1500 
 20 C       -0.1470     5.6650     1.9470 C.ar  1 <1>  -0.1500 
 21 C        0.1390     6.6340     0.9990 C.ar  1 <1>  -0.1430 
 22 C        0.9100     7.8830     1.3910 C.3   1 <1>  -0.0970 
 23 H       -2.8610     1.2450     0.6290 H     1 <1>   0.3700 
 24 H       -3.1130     3.7070    -1.5810 H     1 <1>   0.0800 
 25 H       -1.6000     2.8920    -1.9610 H     1 <1>   0.0800 
 26 H       -4.2190    -0.0790     2.0990 H     1 <1>   0.0800 
 27 H       -2.7190    -0.8870     1.7220 H     1 <1>   0.0800 
 28 H       -2.2220    -1.5950    -0.6520 H     1 <1>   0.0800 
 29 H       -3.3820    -1.2930    -1.9160 H     1 <1>   0.0800 
 30 H       -5.5780    -0.1100    -1.3640 H     1 <1>   0.0800 
 31 H       -5.9020     0.3880     0.2740 H     1 <1>   0.0800 
 32 H       -4.3050    -2.4490     2.8020 H     1 <1>   0.0800 
 33 H       -3.4760    -3.6590    -1.2240 H     1 <1>   0.0800 
 34 H       -7.1590    -1.6730    -0.2980 H     1 <1>   0.0800 
 35 H       -1.3040     5.2160    -1.6890 H     1 <1>   0.1500 
 36 H       -1.0700     3.7770     2.3260 H     1 <1>   0.1500 
 37 H       -4.2220    -4.2250     1.0720 H     1 <1>   0.0800 
 38 H       -2.7230    -3.3490     1.1190 H     1 <1>   0.0800 
 39 H       -6.4020    -1.3660     2.0440 H     1 <1>   0.0800 
 40 H       -6.4020    -3.0500     1.6200 H     1 <1>   0.0800 
 41 H       -5.9100    -3.7600    -0.7720 H     1 <1>   0.0800 
 42 H       -5.5670    -2.5590    -1.9790 H     1 <1>   0.0800 
 43 H       -0.0730     7.2040    -1.0490 H     1 <1>   0.1500 
 44 H        0.1760     5.7920     2.9650 H     1 <1>   0.1500 
 45 H        0.2250     8.6460     1.7140 H     1 <1>   0.0800 
 46 H        1.4750     8.2540     0.5550 H     1 <1>   0.0800 
 47 H        1.5930     7.6670     2.1930 H     1 <1>   0.0800 
@<TRIPOS>BOND
  1   1   2  2   
  2   2   3  am  
  3   2   4  1   
  4   3   5  1   
  5   3  23  1   
  6   4   6  1   
  7   4  24  1   
  8   4  25  1   
  9   5   7  1   
 10   5   8  1   
 11   5   9  1   
 12   6  10  1   
 13   7  11  1   
 14   7  26  1   
 15   7  27  1   
 16   8  12  1   
 17   8  28  1   
 18   8  29  1   
 19   9  13  1   
 20   9  30  1   
 21   9  31  1   
 22  10  14  ar  
 23  10  15  ar  
 24  11  16  1   
 25  11  17  1   
 26  11  32  1   
 27  12  16  1   
 28  12  18  1   
 29  12  33  1   
 30  13  17  1   
 31  13  18  1   
 32  13  34  1   
 33  14  19  ar  
 34  14  35  1   
 35  15  20  ar  
 36  15  36  1   
 37  16  37  1   
 38  16  38  1   
 39  17  39  1   
 40  17  40  1   
 41  18  41  1   
 42  18  42  1   
 43  19  21  ar  
 44  19  43  1   
 45  20  21  ar  
 46  20  44  1   
 47  21  22  1   
 48  22  45  1   
 49  22  46  1   
 50  22  47  1   
@<TRIPOS>SUBSTRUCTURE
  1 ****   3 GROUP 4 **** **** 0

# MOE 2024.06 (io_trps.svl 2023.06)
