@<TRIPOS>MOLECULE
NONAME
54 57 1 0 0 
SMALL
USER_CHARGES


@<TRIPOS>ATOM
  1 S        0.1500     0.0850     0.2860 S.3   1 <1>  -0.3710 
  2 C        0.2170     1.4950     1.3430 C.2   1 <1>   0.6510 
  3 C        1.2840    -0.8920     1.3240 C.3   1 <1>   0.0700 
  4 N        0.9760     1.3680     2.3400 N.2   1 <1>  -0.6960 
  5 N       -0.4850     2.6320     1.0500 N.am  1 <1>  -0.4900 
  6 C        1.6590     0.0660     2.4680 C.3   1 <1>   0.0860 
  7 C       -1.4690     2.9040     0.1440 C.2   1 <1>   0.5690 
  8 O       -2.0050     2.0580    -0.5320 O.2   1 <1>  -0.5700 
  9 C       -1.9310     4.3680     0.0080 C.3   1 <1>   0.2810 
 10 N       -3.4120     4.4570    -0.1090 N.am  1 <1>  -0.7300 
 11 C       -1.2490     5.0990    -1.1770 C.3   1 <1>  -0.0800 
 12 C       -4.2250     5.1690     0.7100 C.2   1 <1>   0.5690 
 13 C       -1.5270     6.6110    -1.1360 C.3   1 <1>  -0.2400 
 14 C       -1.6410     4.5480    -2.5600 C.3   1 <1>  -0.2400 
 15 O       -3.7580     5.8450     1.5970 O.2   1 <1>  -0.5700 
 16 C       -5.7500     5.0920     0.4870 C.3   1 <1>   0.0610 
 17 C       -6.2450     3.6330     0.6600 C.3   1 <1>  -0.1600 
 18 C       -6.1100     5.5660    -0.9440 C.3   1 <1>  -0.1600 
 19 C       -6.5260     5.9820     1.4940 C.3   1 <1>  -0.1600 
 20 C       -7.7630     3.5330     0.4190 C.3   1 <1>  -0.0800 
 21 C       -7.6270     5.4720    -1.1920 C.3   1 <1>  -0.0800 
 22 C       -8.0450     5.8940     1.2600 C.3   1 <1>  -0.0800 
 23 C       -8.0800     4.0120    -1.0100 C.3   1 <1>  -0.1600 
 24 C       -8.4970     4.4330     1.4300 C.3   1 <1>  -0.1600 
 25 C       -8.3620     6.3620    -0.1720 C.3   1 <1>  -0.1600 
 26 H        2.1330    -1.1710     0.7260 H     1 <1>   0.0800 
 27 H        0.7540    -1.7600     1.6730 H     1 <1>   0.0800 
 28 H       -0.2360     3.3750     1.6940 H     1 <1>   0.3700 
 29 H        2.7230     0.2290     2.4670 H     1 <1>   0.0800 
 30 H        1.3900    -0.3780     3.4120 H     1 <1>   0.0800 
 31 H       -1.6380     4.8750     0.9100 H     1 <1>   0.0800 
 32 H       -3.8080     3.8060    -0.7910 H     1 <1>   0.3700 
 33 H       -0.1860     4.9680    -1.0640 H     1 <1>   0.0800 
 34 H       -2.5730     6.8110    -1.2910 H     1 <1>   0.0800 
 35 H       -0.9670     7.1180    -1.9020 H     1 <1>   0.0800 
 36 H       -1.2440     7.0210    -0.1820 H     1 <1>   0.0800 
 37 H       -2.6940     4.6720    -2.7390 H     1 <1>   0.0800 
 38 H       -1.4000     3.5020    -2.6390 H     1 <1>   0.0800 
 39 H       -1.1040     5.0690    -3.3330 H     1 <1>   0.0800 
 40 H       -6.0150     3.2910     1.6550 H     1 <1>   0.0800 
 41 H       -5.7360     2.9820    -0.0290 H     1 <1>   0.0800 
 42 H       -5.5980     4.9640    -1.6750 H     1 <1>   0.0800 
 43 H       -5.7840     6.5830    -1.0780 H     1 <1>   0.0800 
 44 H       -6.2050     7.0050     1.3940 H     1 <1>   0.0800 
 45 H       -6.2980     5.6730     2.5000 H     1 <1>   0.0800 
 46 H       -8.0850     2.5130     0.5410 H     1 <1>   0.0800 
 47 H       -7.8540     5.8020    -2.1910 H     1 <1>   0.0800 
 48 H       -8.5590     6.5200     1.9690 H     1 <1>   0.0800 
 49 H       -9.1380     3.9350    -1.1920 H     1 <1>   0.0800 
 50 H       -7.5800     3.3820    -1.7260 H     1 <1>   0.0800 
 51 H       -9.5600     4.3610     1.2760 H     1 <1>   0.0800 
 52 H       -8.2890     4.1010     2.4320 H     1 <1>   0.0800 
 53 H       -9.4230     6.3130    -0.3440 H     1 <1>   0.0800 
 54 H       -8.0580     7.3870    -0.2960 H     1 <1>   0.0800 
@<TRIPOS>BOND
  1   1   2  1   
  2   1   3  1   
  3   2   4  2   
  4   2   5  1   
  5   3   6  1   
  6   3  26  1   
  7   3  27  1   
  8   4   6  1   
  9   5   7  am  
 10   5  28  1   
 11   6  29  1   
 12   6  30  1   
 13   7   8  2   
 14   7   9  1   
 15   9  10  1   
 16   9  11  1   
 17   9  31  1   
 18  10  12  am  
 19  10  32  1   
 20  11  13  1   
 21  11  14  1   
 22  11  33  1   
 23  12  15  2   
 24  12  16  1   
 25  13  34  1   
 26  13  35  1   
 27  13  36  1   
 28  14  37  1   
 29  14  38  1   
 30  14  39  1   
 31  16  17  1   
 32  16  18  1   
 33  16  19  1   
 34  17  20  1   
 35  17  40  1   
 36  17  41  1   
 37  18  21  1   
 38  18  42  1   
 39  18  43  1   
 40  19  22  1   
 41  19  44  1   
 42  19  45  1   
 43  20  23  1   
 44  20  24  1   
 45  20  46  1   
 46  21  23  1   
 47  21  25  1   
 48  21  47  1   
 49  22  24  1   
 50  22  25  1   
 51  22  48  1   
 52  23  49  1   
 53  23  50  1   
 54  24  51  1   
 55  24  52  1   
 56  25  53  1   
 57  25  54  1   
@<TRIPOS>SUBSTRUCTURE
  1 ****  10 GROUP 4 **** **** 0

# MOE 2024.06 (io_trps.svl 2023.06)
