@<TRIPOS>MOLECULE
NONAME
40 41 1 0 0 
SMALL
USER_CHARGES


@<TRIPOS>ATOM
  1 O       -0.4110    -0.0440    -0.0210 O.3   1 <1>  -0.3630 
  2 C        0.8380     0.4860    -0.0160 C.ar  1 <1>   0.0830 
  3 C       -1.5510     0.7890    -0.0330 C.3   1 <1>   0.1200 
  4 C        1.0980     1.8530    -0.0210 C.ar  1 <1>  -0.1500 
  5 C        1.8960    -0.4090    -0.0040 C.ar  1 <1>  -0.1500 
  6 C       -2.7920    -0.0950    -0.0370 C.3   1 <1>   0.1200 
  7 C        2.4030     2.3180    -0.0150 C.ar  1 <1>   0.0830 
  8 C        3.2020     0.0490     0.0030 C.ar  1 <1>  -0.1500 
  9 O       -3.9300     0.7400    -0.0490 O.3   1 <1>  -0.3630 
 10 O        2.5660     3.6650    -0.0210 O.3   1 <1>  -0.3630 
 11 C        3.4590     1.4100    -0.0030 C.ar  1 <1>  -0.1500 
 12 C       -5.1830     0.2200    -0.0540 C.ar  1 <1>   0.0830 
 13 C        3.8480     4.2480    -0.0150 C.3   1 <1>   0.1200 
 14 C       -6.2330     1.1240    -0.0650 C.ar  1 <1>  -0.1500 
 15 C       -5.4550    -1.1450    -0.0480 C.ar  1 <1>  -0.1500 
 16 C        3.6760     5.7640    -0.0240 C.3   1 <1>  -0.2400 
 17 C       -7.5470     0.6860    -0.0710 C.ar  1 <1>  -0.1430 
 18 C       -6.7660    -1.5870    -0.0520 C.ar  1 <1>  -0.1500 
 19 C       -7.8080    -0.6740    -0.0630 C.ar  1 <1>  -0.1500 
 20 C       -8.6930     1.6810    -0.0820 C.3   1 <1>  -0.0970 
 21 H       -1.5200     1.3930    -0.9230 H     1 <1>   0.0800 
 22 H       -1.5320     1.4030     0.8500 H     1 <1>   0.0800 
 23 H        0.3110     2.5800    -0.0300 H     1 <1>   0.1500 
 24 H        1.6900    -1.4630     0.0000 H     1 <1>   0.1500 
 25 H       -2.8240    -0.6980     0.8530 H     1 <1>   0.0800 
 26 H       -2.8130    -0.7080    -0.9200 H     1 <1>   0.0800 
 27 H        4.0160    -0.6540     0.0120 H     1 <1>   0.1500 
 28 H        4.4800     1.7390     0.0020 H     1 <1>   0.1500 
 29 H        4.3760     3.9190    -0.8940 H     1 <1>   0.0800 
 30 H        4.3640     3.9280     0.8740 H     1 <1>   0.0800 
 31 H       -6.0070     2.1750    -0.0680 H     1 <1>   0.1500 
 32 H       -4.6680    -1.8740    -0.0390 H     1 <1>   0.1500 
 33 H        3.1450     6.0690    -0.9080 H     1 <1>   0.0800 
 34 H        4.6400     6.2390    -0.0200 H     1 <1>   0.0800 
 35 H        3.1330     6.0790     0.8490 H     1 <1>   0.0800 
 36 H       -6.9800    -2.6410    -0.0470 H     1 <1>   0.1500 
 37 H       -8.8240    -1.0280    -0.0660 H     1 <1>   0.1500 
 38 H       -8.3570     2.6450    -0.4200 H     1 <1>   0.0800 
 39 H       -9.0950     1.7830     0.9100 H     1 <1>   0.0800 
 40 H       -9.4720     1.3430    -0.7420 H     1 <1>   0.0800 
@<TRIPOS>BOND
  1   1   2  1   
  2   1   3  1   
  3   2   4  ar  
  4   2   5  ar  
  5   3   6  1   
  6   3  21  1   
  7   3  22  1   
  8   4   7  ar  
  9   4  23  1   
 10   5   8  ar  
 11   5  24  1   
 12   6   9  1   
 13   6  25  1   
 14   6  26  1   
 15   7  10  1   
 16   7  11  ar  
 17   8  11  ar  
 18   8  27  1   
 19   9  12  1   
 20  10  13  1   
 21  11  28  1   
 22  12  14  ar  
 23  12  15  ar  
 24  13  16  1   
 25  13  29  1   
 26  13  30  1   
 27  14  17  ar  
 28  14  31  1   
 29  15  18  ar  
 30  15  32  1   
 31  16  33  1   
 32  16  34  1   
 33  16  35  1   
 34  17  19  ar  
 35  17  20  1   
 36  18  19  ar  
 37  18  36  1   
 38  19  37  1   
 39  20  38  1   
 40  20  39  1   
 41  20  40  1   
@<TRIPOS>SUBSTRUCTURE
  1 ****   3 GROUP 4 **** **** 0

# MOE 2024.06 (io_trps.svl 2023.06)
