@<TRIPOS>MOLECULE
NONAME
38 41 1 0 0 
SMALL
USER_CHARGES


@<TRIPOS>ATOM
  1 O       -0.2400     0.5000    -1.1270 O.2   1 <1>  -0.5700 
  2 C       -0.6500     1.4010    -0.4420 C.2   1 <1>   0.5690 
  3 N        0.0560     2.4630     0.1090 N.am  1 <1>  -0.2370 
  4 C       -2.0720     1.5300     0.0130 C.3   1 <1>  -0.0190 
  5 C        1.4650     2.5700     0.1900 C.ar  1 <1>   0.1170 
  6 C       -0.8590     3.4010     0.5660 C.2   1 <1>   0.5690 
  7 C       -3.5050     1.1480    -0.4040 C.3   1 <1>   0.4180 
  8 C       -2.1780     3.0470    -0.0390 C.3   1 <1>  -0.0190 
  9 C        2.2580     1.4470     0.4000 C.ar  1 <1>  -0.1500 
 10 C        2.0980     3.8030     0.0610 C.ar  1 <1>  -0.1500 
 11 O       -0.6760     4.3480     1.2850 O.2   1 <1>  -0.5700 
 12 O       -4.0020     2.3390    -0.9230 O.3   1 <1>  -0.5600 
 13 C       -4.2870     1.1820     0.8930 C.2   1 <1>  -0.2880 
 14 C       -3.7400    -0.0170    -1.3500 C.3   1 <1>  -0.2400 
 15 C       -3.6850     3.2320     0.0990 C.3   1 <1>   0.4180 
 16 C        3.6350     1.5510     0.4800 C.ar  1 <1>  -0.1500 
 17 C        3.4740     3.9100     0.1420 C.ar  1 <1>  -0.1500 
 18 C       -4.3420     2.4680     1.2350 C.2   1 <1>  -0.2880 
 19 C       -4.2690     4.6030    -0.2090 C.3   1 <1>  -0.2400 
 20 C        4.2520     2.7840     0.3530 C.ar  1 <1>  -0.1430 
 21 C        5.7630     2.9000     0.4390 C.3   1 <1>  -0.0970 
 22 H       -1.9840     1.1970     1.0350 H     1 <1>   0.0800 
 23 H       -2.0120     3.3790    -1.0550 H     1 <1>   0.0800 
 24 H        1.8040     0.4770     0.5000 H     1 <1>   0.1500 
 25 H        1.5160     4.6930    -0.1000 H     1 <1>   0.1500 
 26 H       -4.6370     0.2820     1.3660 H     1 <1>   0.1500 
 27 H       -4.7890    -0.1100    -1.5620 H     1 <1>   0.0800 
 28 H       -3.1990     0.1400    -2.2650 H     1 <1>   0.0800 
 29 H       -3.3940    -0.9280    -0.8980 H     1 <1>   0.0800 
 30 H        4.2260     0.6660     0.6400 H     1 <1>   0.1500 
 31 H        3.9380     4.8760     0.0390 H     1 <1>   0.1500 
 32 H       -4.7490     2.9790     2.0890 H     1 <1>   0.1500 
 33 H       -3.9920     5.2940     0.5660 H     1 <1>   0.0800 
 34 H       -5.3420     4.5400    -0.2490 H     1 <1>   0.0800 
 35 H       -3.8980     4.9680    -1.1490 H     1 <1>   0.0800 
 36 H        6.1630     2.1360     1.0810 H     1 <1>   0.0800 
 37 H        6.0450     3.8580     0.8370 H     1 <1>   0.0800 
 38 H        6.1930     2.7900    -0.5400 H     1 <1>   0.0800 
@<TRIPOS>BOND
  1   1   2  2   
  2   2   3  am  
  3   2   4  1   
  4   3   5  1   
  5   3   6  am  
  6   4   7  1   
  7   4   8  1   
  8   4  22  1   
  9   5   9  ar  
 10   5  10  ar  
 11   6   8  1   
 12   6  11  2   
 13   7  12  1   
 14   7  13  1   
 15   7  14  1   
 16   8  15  1   
 17   8  23  1   
 18   9  16  ar  
 19   9  24  1   
 20  10  17  ar  
 21  10  25  1   
 22  12  15  1   
 23  13  18  2   
 24  13  26  1   
 25  14  27  1   
 26  14  28  1   
 27  14  29  1   
 28  15  18  1   
 29  15  19  1   
 30  16  20  ar  
 31  16  30  1   
 32  17  20  ar  
 33  17  31  1   
 34  18  32  1   
 35  19  33  1   
 36  19  34  1   
 37  19  35  1   
 38  20  21  1   
 39  21  36  1   
 40  21  37  1   
 41  21  38  1   
@<TRIPOS>SUBSTRUCTURE
  1 ****   3 GROUP 4 **** **** 0

# MOE 2024.06 (io_trps.svl 2023.06)
