@<TRIPOS>MOLECULE
NONAME
51 54 1 0 0 
SMALL
USER_CHARGES


@<TRIPOS>ATOM
  1 F        1.1920     0.6150    -0.3420 F     1 <1>  -0.1900 
  2 C        2.4180     1.0500    -0.2070 C.ar  1 <1>   0.1900 
  3 C        3.4360     0.3950    -0.8720 C.ar  1 <1>  -0.1500 
  4 C        2.6520     2.1500     0.5950 C.ar  1 <1>  -0.1500 
  5 C        4.7310     0.8630    -0.7230 C.ar  1 <1>  -0.1500 
  6 C        3.9520     2.6060     0.7320 C.ar  1 <1>  -0.1500 
  7 C        5.0070     1.9690     0.0790 C.ar  1 <1>   0.1170 
  8 N        6.3400     2.3910     0.1850 N.am  1 <1>  -0.5470 
  9 C        6.9730     3.3320     0.9470 C.2   1 <1>   0.5690 
 10 O        6.4300     4.0380     1.7610 O.2   1 <1>  -0.5700 
 11 C        8.4810     3.4720     0.7270 C.3   1 <1>   0.1710 
 12 N        9.1190     2.2490     0.1480 N.3   1 <1>  -0.8100 
 13 C       10.4350     2.5830    -0.4130 C.3   1 <1>   0.1100 
 14 C        9.2450     1.2020     1.1780 C.3   1 <1>   0.1100 
 15 C       11.0210     1.3520    -1.1080 C.3   1 <1>  -0.1600 
 16 C        9.7870    -0.0790     0.5410 C.3   1 <1>  -0.1600 
 17 C       11.1410     0.1580    -0.1420 C.3   1 <1>   0.2800 
 18 O       12.0670     0.5020     0.8790 O.3   1 <1>  -0.3630 
 19 C       11.6220    -1.1140    -0.8530 C.3   1 <1>  -0.0990 
 20 C       13.3990     0.4820     0.6500 C.ar  1 <1>   0.0830 
 21 C       13.0610    -0.9680    -1.2920 C.2   1 <1>   0.4230 
 22 C       13.9350    -0.2170    -0.4350 C.ar  1 <1>   0.0860 
 23 C       14.2190     1.1830     1.5180 C.ar  1 <1>  -0.1500 
 24 O       13.3950    -1.4920    -2.3240 O.2   1 <1>  -0.5700 
 25 C       15.3160    -0.1590    -0.6320 C.ar  1 <1>  -0.1500 
 26 C       15.5840     1.2180     1.3070 C.ar  1 <1>  -0.1500 
 27 C       16.1380     0.5500     0.2260 C.ar  1 <1>  -0.1430 
 28 C       17.6390     0.6000     0.0010 C.3   1 <1>  -0.0970 
 29 H        3.2150    -0.4580    -1.4880 H     1 <1>   0.1500 
 30 H        1.8360     2.6370     1.0970 H     1 <1>   0.1500 
 31 H        5.5330     0.3630    -1.2340 H     1 <1>   0.1500 
 32 H        4.1380     3.4630     1.3530 H     1 <1>   0.1500 
 33 H        7.0250     1.8750    -0.3770 H     1 <1>   0.3700 
 34 H        8.9490     3.7270     1.6620 H     1 <1>   0.0800 
 35 H        8.6190     4.3000     0.0540 H     1 <1>   0.0800 
 36 H       11.0990     2.9170     0.3680 H     1 <1>   0.0800 
 37 H       10.3330     3.3760    -1.1350 H     1 <1>   0.0800 
 38 H        8.2840     0.9950     1.6180 H     1 <1>   0.0800 
 39 H        9.9080     1.5320     1.9610 H     1 <1>   0.0800 
 40 H       11.9790     1.6020    -1.5260 H     1 <1>   0.0800 
 41 H       10.3750     1.0900    -1.9270 H     1 <1>   0.0800 
 42 H        9.0720    -0.4300    -0.1810 H     1 <1>   0.0800 
 43 H        9.8900    -0.8390     1.2950 H     1 <1>   0.0800 
 44 H       11.0040    -1.3140    -1.7090 H     1 <1>   0.0800 
 45 H       11.5510    -1.9560    -0.1890 H     1 <1>   0.0800 
 46 H       13.7830     1.7030     2.3520 H     1 <1>   0.1500 
 47 H       15.7350    -0.6860    -1.4720 H     1 <1>   0.1500 
 48 H       16.2160     1.7680     1.9840 H     1 <1>   0.1500 
 49 H       17.9150     0.0520    -0.8820 H     1 <1>   0.0800 
 50 H       18.1510     0.1710     0.8440 H     1 <1>   0.0800 
 51 H       17.9570     1.6200    -0.1170 H     1 <1>   0.0800 
@<TRIPOS>BOND
  1   1   2  1   
  2   2   3  ar  
  3   2   4  ar  
  4   3   5  ar  
  5   3  29  1   
  6   4   6  ar  
  7   4  30  1   
  8   5   7  ar  
  9   5  31  1   
 10   6   7  ar  
 11   6  32  1   
 12   7   8  1   
 13   8   9  am  
 14   8  33  1   
 15   9  10  2   
 16   9  11  1   
 17  11  12  1   
 18  11  34  1   
 19  11  35  1   
 20  12  13  1   
 21  12  14  1   
 22  13  15  1   
 23  13  36  1   
 24  13  37  1   
 25  14  16  1   
 26  14  38  1   
 27  14  39  1   
 28  15  17  1   
 29  15  40  1   
 30  15  41  1   
 31  16  17  1   
 32  16  42  1   
 33  16  43  1   
 34  17  18  1   
 35  17  19  1   
 36  18  20  1   
 37  19  21  1   
 38  19  44  1   
 39  19  45  1   
 40  20  22  ar  
 41  20  23  ar  
 42  21  22  1   
 43  21  24  2   
 44  22  25  ar  
 45  23  26  ar  
 46  23  46  1   
 47  25  27  ar  
 48  25  47  1   
 49  26  27  ar  
 50  26  48  1   
 51  27  28  1   
 52  28  49  1   
 53  28  50  1   
 54  28  51  1   
@<TRIPOS>SUBSTRUCTURE
  1 ****  14 GROUP 4 **** **** 0

# MOE 2024.06 (io_trps.svl 2023.06)
