@<TRIPOS>MOLECULE
NONAME
34 36 1 0 0 
SMALL
USER_CHARGES


@<TRIPOS>ATOM
  1 S        0.1310    -0.7500     0.4120 S.3   1 <1>  -0.0800 
  2 C        1.2340     0.5200    -0.0440 C.2   1 <1>   0.1040 
  3 C       -1.1860     0.4110     0.4890 C.2   1 <1>  -0.1400 
  4 N        2.5520     0.3260    -0.2910 N.am  1 <1>  -0.4940 
  5 C        0.6290     1.7470    -0.1220 C.2   1 <1>  -0.0760 
  6 C       -0.7830     1.6490     0.1710 C.2   1 <1>  -0.1810 
  7 C       -2.5850    -0.0250     0.8750 C.3   1 <1>   0.3000 
  8 C        3.3250     1.3750    -0.6290 C.2   1 <1>   0.8210 
  9 C        1.4680     2.8450    -0.4540 C.cat 1 <1>   0.7850 
 10 C       -1.8300     2.7550     0.1690 C.3   1 <1>   0.0210 
 11 O       -3.3750     1.1210     1.0790 O.3   1 <1>  -0.5600 
 12 S        4.8900     1.2030    -0.9410 S.2   1 <1>  -0.3800 
 13 N        2.7660     2.6100    -0.7020 N.pl3 1 <1>  -0.6850 
 14 N        1.0440     4.0940    -0.5180 N.pl3 1 <1>  -0.7540 
 15 C       -3.2800     2.1890     0.1700 C.3   1 <1>   0.2800 
 16 C       -4.2850     3.2380     0.6930 C.3   1 <1>  -0.1600 
 17 C       -3.7060     1.6880    -1.2240 C.3   1 <1>  -0.2400 
 18 C       -4.3410     4.5690    -0.0790 C.3   1 <1>  -0.2400 
 19 H        2.9780    -0.6040    -0.2280 H     1 <1>   0.3700 
 20 H       -2.5720    -0.5790     1.7960 H     1 <1>   0.0800 
 21 H       -3.0340    -0.6280     0.1060 H     1 <1>   0.0800 
 22 H       -1.7130     3.3750    -0.7000 H     1 <1>   0.0800 
 23 H       -1.6920     3.3640     1.0450 H     1 <1>   0.0800 
 24 H        3.4140     3.3510    -0.9510 H     1 <1>   0.4500 
 25 H        1.6220     4.9020    -0.7500 H     1 <1>   0.4500 
 26 H        0.0740     4.3370    -0.3100 H     1 <1>   0.4500 
 27 H       -4.0460     3.4550     1.7200 H     1 <1>   0.0800 
 28 H       -5.2680     2.8010     0.6830 H     1 <1>   0.0800 
 29 H       -3.0160     0.9630    -1.6120 H     1 <1>   0.0800 
 30 H       -3.7390     2.4990    -1.9250 H     1 <1>   0.0800 
 31 H       -4.6870     1.2490    -1.1740 H     1 <1>   0.0800 
 32 H       -3.3930     5.0740    -0.0650 H     1 <1>   0.0800 
 33 H       -5.0650     5.2170     0.3850 H     1 <1>   0.0800 
 34 H       -4.6460     4.4160    -1.0980 H     1 <1>   0.0800 
@<TRIPOS>BOND
  1   1   2  1   
  2   1   3  1   
  3   2   4  1   
  4   2   5  2   
  5   3   6  2   
  6   3   7  1   
  7   4   8  am  
  8   4  19  1   
  9   5   6  1   
 10   5   9  1   
 11   6  10  1   
 12   7  11  1   
 13   7  20  1   
 14   7  21  1   
 15   8  12  2   
 16   8  13  1   
 17   9  13  ar  
 18   9  14  ar  
 19  10  15  1   
 20  10  22  1   
 21  10  23  1   
 22  11  15  1   
 23  13  24  1   
 24  14  25  1   
 25  14  26  1   
 26  15  16  1   
 27  15  17  1   
 28  16  18  1   
 29  16  27  1   
 30  16  28  1   
 31  17  29  1   
 32  17  30  1   
 33  17  31  1   
 34  18  32  1   
 35  18  33  1   
 36  18  34  1   
@<TRIPOS>SUBSTRUCTURE
  1 ****   6 GROUP 4 **** **** 0

# MOE 2024.06 (io_trps.svl 2023.06)
