@<TRIPOS>MOLECULE
NONAME
41 42 1 0 0 
SMALL
USER_CHARGES


@<TRIPOS>ATOM
  1 CL       2.4270     2.8360     2.1240 Cl    1 <1>  -0.1770 
  2 C        1.1780     2.9230     0.9060 C.ar  1 <1>   0.1770 
  3 C        1.3920     2.3770    -0.3570 C.ar  1 <1>   0.0860 
  4 C       -0.0090     3.5460     1.2440 C.ar  1 <1>  -0.1500 
  5 C        2.6400     1.7450    -0.7150 C.2   1 <1>   0.5440 
  6 C        0.3460     2.4680    -1.2750 C.ar  1 <1>  -0.1500 
  7 C       -1.0320     3.6340     0.3140 C.ar  1 <1>  -0.1440 
  8 O        2.6780     0.5320    -0.7970 O.2   1 <1>  -0.5700 
  9 N        3.7730     2.4800    -1.0030 N.am  1 <1>  -0.6600 
 10 C       -0.8460     3.0890    -0.9460 C.ar  1 <1>  -0.1500 
 11 C       -2.3440     4.3130     0.6630 C.3   1 <1>  -0.0970 
 12 C        3.7840     3.9610    -1.1580 C.3   1 <1>   0.1400 
 13 C        5.0930     1.8240    -1.2130 C.3   1 <1>   0.1400 
 14 C        4.8100     4.5760    -0.2040 C.3   1 <1>  -0.1600 
 15 C        6.1210     2.4220    -0.2490 C.3   1 <1>  -0.1600 
 16 C        6.2100     3.9540    -0.3890 C.3   1 <1>  -0.0190 
 17 C        7.2520     4.5380     0.5650 C.2   1 <1>   0.6590 
 18 O        6.9690     5.2910     1.4620 O.2   1 <1>  -0.5700 
 19 O        8.5050     4.1690     0.3320 O.3   1 <1>  -0.4300 
 20 C        9.5680     4.6280     1.1340 C.3   1 <1>   0.1200 
 21 C       10.8590     4.0080     0.6100 C.3   1 <1>  -0.2400 
 22 H       -0.1230     3.9550     2.2320 H     1 <1>   0.1500 
 23 H        0.4790     2.0400    -2.2540 H     1 <1>   0.1500 
 24 H       -1.6350     3.1440    -1.6770 H     1 <1>   0.1500 
 25 H       -2.4140     4.4940     1.7200 H     1 <1>   0.0800 
 26 H       -3.1710     3.6910     0.3700 H     1 <1>   0.0800 
 27 H       -2.4170     5.2530     0.1470 H     1 <1>   0.0800 
 28 H        2.8130     4.3800    -0.9600 H     1 <1>   0.0800 
 29 H        4.0440     4.2000    -2.1750 H     1 <1>   0.0800 
 30 H        5.4040     1.9790    -2.2320 H     1 <1>   0.0800 
 31 H        5.0240     0.7620    -1.0450 H     1 <1>   0.0800 
 32 H        4.4780     4.4270     0.8090 H     1 <1>   0.0800 
 33 H        4.8610     5.6370    -0.3740 H     1 <1>   0.0800 
 34 H        7.0810     1.9800    -0.4470 H     1 <1>   0.0800 
 35 H        5.8420     2.1620     0.7580 H     1 <1>   0.0800 
 36 H        6.5440     4.1800    -1.3850 H     1 <1>   0.0800 
 37 H        9.3800     4.3300     2.1520 H     1 <1>   0.0800 
 38 H        9.6010     5.7030     1.0740 H     1 <1>   0.0800 
 39 H       10.8040     2.9350     0.6660 H     1 <1>   0.0800 
 40 H       11.6880     4.3400     1.2070 H     1 <1>   0.0800 
 41 H       11.0280     4.3080    -0.4080 H     1 <1>   0.0800 
@<TRIPOS>BOND
  1   1   2  1   
  2   2   3  ar  
  3   2   4  ar  
  4   3   5  1   
  5   3   6  ar  
  6   4   7  ar  
  7   4  22  1   
  8   5   8  2   
  9   5   9  am  
 10   6  10  ar  
 11   6  23  1   
 12   7  10  ar  
 13   7  11  1   
 14   9  12  1   
 15   9  13  1   
 16  10  24  1   
 17  11  25  1   
 18  11  26  1   
 19  11  27  1   
 20  12  14  1   
 21  12  28  1   
 22  12  29  1   
 23  13  15  1   
 24  13  30  1   
 25  13  31  1   
 26  14  16  1   
 27  14  32  1   
 28  14  33  1   
 29  15  16  1   
 30  15  34  1   
 31  15  35  1   
 32  16  17  1   
 33  16  36  1   
 34  17  18  2   
 35  17  19  1   
 36  19  20  1   
 37  20  21  1   
 38  20  37  1   
 39  20  38  1   
 40  21  39  1   
 41  21  40  1   
 42  21  41  1   
@<TRIPOS>SUBSTRUCTURE
  1 ****   9 GROUP 4 **** **** 0

# MOE 2024.06 (io_trps.svl 2023.06)
