@<TRIPOS>MOLECULE
NONAME
42 44 1 0 0 
SMALL
USER_CHARGES


@<TRIPOS>ATOM
  1 O        0.1690     1.3770     0.5810 O.2   1 <1>  -0.5700 
  2 C        0.8210     1.3310    -0.4350 C.2   1 <1>   0.6590 
  3 O        0.5360     2.1050    -1.4800 O.3   1 <1>  -0.4300 
  4 C        2.0100     0.3680    -0.6010 C.3   1 <1>   0.2810 
  5 C       -0.5410     3.0190    -1.4570 C.3   1 <1>   0.0400 
  6 N        1.7200    -0.9480     0.0580 N.am  1 <1>  -0.7300 
  7 C        3.3580     0.9650    -0.0910 C.3   1 <1>   0.0000 
  8 C        1.8000    -2.1510    -0.5500 C.2   1 <1>   0.5690 
  9 C        3.3450     1.2310     1.4390 C.3   1 <1>  -0.1600 
 10 C        3.6660     2.3080    -0.8080 C.3   1 <1>  -0.1600 
 11 C        4.5260    -0.0090    -0.4010 C.3   1 <1>  -0.1600 
 12 O        2.1870    -2.2760    -1.6840 O.2   1 <1>  -0.5700 
 13 C        1.3860    -3.3700     0.2300 C.3   1 <1>  -0.1790 
 14 C        4.6910     1.8130     1.9100 C.3   1 <1>  -0.0800 
 15 C        5.0120     2.8950    -0.3450 C.3   1 <1>  -0.0800 
 16 C        5.8760     0.5650     0.0650 C.3   1 <1>  -0.0800 
 17 C        4.9590     3.1380     1.1740 C.3   1 <1>  -0.1600 
 18 C        5.8180     0.8160     1.5830 C.3   1 <1>  -0.1600 
 19 C        6.1380     1.8950    -0.6620 C.3   1 <1>  -0.1600 
 20 H        2.1140     0.1950    -1.6570 H     1 <1>   0.0800 
 21 H       -0.5760     3.5290    -2.4030 H     1 <1>   0.0800 
 22 H       -0.3830     3.7240    -0.6600 H     1 <1>   0.0800 
 23 H       -1.4550     2.4740    -1.2950 H     1 <1>   0.0800 
 24 H        1.3110    -0.8610     0.9910 H     1 <1>   0.3700 
 25 H        3.1560     0.3170     1.9720 H     1 <1>   0.0800 
 26 H        2.5600     1.9220     1.6920 H     1 <1>   0.0800 
 27 H        2.8980     3.0310    -0.6020 H     1 <1>   0.0800 
 28 H        3.6930     2.1560    -1.8730 H     1 <1>   0.0800 
 29 H        4.5660    -0.2090    -1.4580 H     1 <1>   0.0800 
 30 H        4.3680    -0.9510     0.0940 H     1 <1>   0.0800 
 31 H        1.9850    -3.4530     1.1170 H     1 <1>   0.0800 
 32 H        1.5270    -4.2490    -0.3710 H     1 <1>   0.0800 
 33 H        0.3500    -3.2930     0.4990 H     1 <1>   0.0800 
 34 H        4.6590     1.9880     2.9720 H     1 <1>   0.0800 
 35 H        5.1990     3.8240    -0.8550 H     1 <1>   0.0800 
 36 H        6.6640    -0.1330    -0.1590 H     1 <1>   0.0800 
 37 H        5.8920     3.5570     1.5080 H     1 <1>   0.0800 
 38 H        4.1820     3.8460     1.4040 H     1 <1>   0.0800 
 39 H        6.7610     1.2090     1.9220 H     1 <1>   0.0800 
 40 H        5.6460    -0.1120     2.0990 H     1 <1>   0.0800 
 41 H        7.0840     2.3000    -0.3510 H     1 <1>   0.0800 
 42 H        6.1880     1.7260    -1.7240 H     1 <1>   0.0800 
@<TRIPOS>BOND
  1   1   2  2   
  2   2   3  1   
  3   2   4  1   
  4   3   5  1   
  5   4   6  1   
  6   4   7  1   
  7   4  20  1   
  8   5  21  1   
  9   5  22  1   
 10   5  23  1   
 11   6   8  am  
 12   6  24  1   
 13   7   9  1   
 14   7  10  1   
 15   7  11  1   
 16   8  12  2   
 17   8  13  1   
 18   9  14  1   
 19   9  25  1   
 20   9  26  1   
 21  10  15  1   
 22  10  27  1   
 23  10  28  1   
 24  11  16  1   
 25  11  29  1   
 26  11  30  1   
 27  13  31  1   
 28  13  32  1   
 29  13  33  1   
 30  14  17  1   
 31  14  18  1   
 32  14  34  1   
 33  15  17  1   
 34  15  19  1   
 35  15  35  1   
 36  16  18  1   
 37  16  19  1   
 38  16  36  1   
 39  17  37  1   
 40  17  38  1   
 41  18  39  1   
 42  18  40  1   
 43  19  41  1   
 44  19  42  1   
@<TRIPOS>SUBSTRUCTURE
  1 ****   7 GROUP 4 **** **** 0

# MOE 2024.06 (io_trps.svl 2023.06)
