@<TRIPOS>MOLECULE
NONAME
36 36 1 0 0 
SMALL
USER_CHARGES


@<TRIPOS>ATOM
  1 S       -0.0760    -0.6040     1.3670 S.o2  1 <1>   1.3330 
  2 O       -0.0430    -1.8650     0.6700 O.2   1 <1>  -0.6500 
  3 O        0.3830    -0.4860     2.7270 O.2   1 <1>  -0.6500 
  4 N       -1.7110    -0.0940     1.4550 N.am  1 <1>  -0.7570 
  5 C        0.6760     0.6880     0.3750 C.3   1 <1>  -0.0550 
  6 C       -2.7300    -0.1810     0.5120 C.ar  1 <1>   0.1990 
  7 C        2.1860     0.4960     0.1560 C.3   1 <1>  -0.1600 
  8 C       -4.0040     0.2340     0.8750 C.ar  1 <1>  -0.1500 
  9 C       -2.5320    -0.6570    -0.7810 C.ar  1 <1>  -0.1500 
 10 C        2.7720     1.6260    -0.7000 C.3   1 <1>  -0.1600 
 11 C       -5.0640     0.1810    -0.0160 C.ar  1 <1>   0.1170 
 12 C       -3.5790    -0.7080    -1.6840 C.ar  1 <1>  -0.1500 
 13 C        4.2740     1.4250    -0.9150 C.3   1 <1>  -0.2400 
 14 N       -6.3320     0.6080     0.3910 N.am  1 <1>  -0.5470 
 15 C       -4.8400    -0.2870    -1.3040 C.ar  1 <1>  -0.1500 
 16 C       -7.5260    -0.0380     0.3720 C.2   1 <1>   0.5690 
 17 O       -8.5130     0.5210     0.7710 O.2   1 <1>  -0.5700 
 18 C       -7.6390    -1.4600    -0.1250 C.3   1 <1>  -0.1790 
 19 H       -1.9580     0.0740     2.4260 H     1 <1>   0.4200 
 20 H        0.5140     1.6340     0.8560 H     1 <1>   0.0800 
 21 H        0.1910     0.7220    -0.5810 H     1 <1>   0.0800 
 22 H        2.3550    -0.4510    -0.3300 H     1 <1>   0.0800 
 23 H        2.6810     0.4720     1.1120 H     1 <1>   0.0800 
 24 H       -4.1760     0.6000     1.8690 H     1 <1>   0.1500 
 25 H       -1.5640    -0.9990    -1.0960 H     1 <1>   0.1500 
 26 H        2.6090     2.5730    -0.2150 H     1 <1>   0.0800 
 27 H        2.2790     1.6510    -1.6580 H     1 <1>   0.0800 
 28 H       -3.4110    -1.0760    -2.6820 H     1 <1>   0.1500 
 29 H        4.7920     1.4190     0.0280 H     1 <1>   0.0800 
 30 H        4.6700     2.2250    -1.5170 H     1 <1>   0.0800 
 31 H        4.4620     0.4940    -1.4200 H     1 <1>   0.0800 
 32 H       -6.3940     1.5270     0.8310 H     1 <1>   0.3700 
 33 H       -5.6490    -0.3170    -2.0110 H     1 <1>   0.1500 
 34 H       -6.7990    -2.0400     0.2090 H     1 <1>   0.0800 
 35 H       -7.6790    -1.4660    -1.1970 H     1 <1>   0.0800 
 36 H       -8.5390    -1.9040     0.2580 H     1 <1>   0.0800 
@<TRIPOS>BOND
  1   1   2  2   
  2   1   3  2   
  3   1   4  am  
  4   1   5  1   
  5   4   6  1   
  6   4  19  1   
  7   5   7  1   
  8   5  20  1   
  9   5  21  1   
 10   6   8  ar  
 11   6   9  ar  
 12   7  10  1   
 13   7  22  1   
 14   7  23  1   
 15   8  11  ar  
 16   8  24  1   
 17   9  12  ar  
 18   9  25  1   
 19  10  13  1   
 20  10  26  1   
 21  10  27  1   
 22  11  14  1   
 23  11  15  ar  
 24  12  15  ar  
 25  12  28  1   
 26  13  29  1   
 27  13  30  1   
 28  13  31  1   
 29  14  16  am  
 30  14  32  1   
 31  15  33  1   
 32  16  17  2   
 33  16  18  1   
 34  18  34  1   
 35  18  35  1   
 36  18  36  1   
@<TRIPOS>SUBSTRUCTURE
  1 ****   6 GROUP 4 **** **** 0

# MOE 2024.06 (io_trps.svl 2023.06)
