@<TRIPOS>MOLECULE
NONAME
35 37 1 0 0 
SMALL
USER_CHARGES


@<TRIPOS>ATOM
  1 F        1.3700    -1.5820     1.8300 F     1 <1>  -0.1900 
  2 C        0.7530    -2.2080     0.8650 C.ar  1 <1>   0.1900 
  3 C        1.3610    -2.3050    -0.3840 C.ar  1 <1>   0.0860 
  4 C       -0.4850    -2.7550     1.1470 C.ar  1 <1>  -0.1500 
  5 C        2.6560    -1.7280    -0.6610 C.2   1 <1>   0.5440 
  6 C        0.6500    -2.9860    -1.3720 C.ar  1 <1>  -0.1500 
  7 C       -1.1620    -3.4300     0.1460 C.ar  1 <1>  -0.1500 
  8 O        2.7110    -0.6940    -1.2980 O.2   1 <1>  -0.5700 
  9 N        3.8300    -2.3380    -0.2610 N.am  1 <1>  -0.6600 
 10 C       -0.5910    -3.5430    -1.1120 C.ar  1 <1>  -0.1500 
 11 C        5.1560    -1.7290    -0.5930 C.3   1 <1>   0.1400 
 12 C        3.8440    -3.6280     0.4990 C.3   1 <1>   0.1400 
 13 C        6.1870    -2.8230    -0.8600 C.3   1 <1>  -0.1600 
 14 C        5.1400    -3.7680     1.2920 C.3   1 <1>  -0.1600 
 15 C        6.3490    -3.7450     0.3580 C.3   1 <1>   0.5600 
 16 O        6.6050    -5.0400    -0.0710 O.3   1 <1>  -0.5600 
 17 O        7.4650    -3.3750     1.0980 O.3   1 <1>  -0.5600 
 18 C        7.9690    -5.2000    -0.2020 C.3   1 <1>   0.1200 
 19 C        8.5530    -4.1320     0.7010 C.3   1 <1>   0.1200 
 20 H       -0.9070    -2.6520     2.1300 H     1 <1>   0.1500 
 21 H        1.0840    -3.0710    -2.3540 H     1 <1>   0.1500 
 22 H       -2.1280    -3.8630     0.3430 H     1 <1>   0.1500 
 23 H       -1.1190    -4.0640    -1.8930 H     1 <1>   0.1500 
 24 H        5.4750    -1.1130     0.2300 H     1 <1>   0.0800 
 25 H        5.0700    -1.1030    -1.4660 H     1 <1>   0.0800 
 26 H        3.7560    -4.4470    -0.1960 H     1 <1>   0.0800 
 27 H        3.0130    -3.6680     1.1800 H     1 <1>   0.0800 
 28 H        7.1280    -2.3750    -1.1160 H     1 <1>   0.0800 
 29 H        5.8430    -3.3960    -1.7010 H     1 <1>   0.0800 
 30 H        5.1360    -4.6840     1.8540 H     1 <1>   0.0800 
 31 H        5.2020    -2.9480     1.9840 H     1 <1>   0.0800 
 32 H        8.2420    -5.0380    -1.2300 H     1 <1>   0.0800 
 33 H        8.2430    -6.1930     0.1060 H     1 <1>   0.0800 
 34 H        9.0130    -4.5580     1.5750 H     1 <1>   0.0800 
 35 H        9.2530    -3.5040     0.1800 H     1 <1>   0.0800 
@<TRIPOS>BOND
  1   1   2  1   
  2   2   3  ar  
  3   2   4  ar  
  4   3   5  1   
  5   3   6  ar  
  6   4   7  ar  
  7   4  20  1   
  8   5   8  2   
  9   5   9  am  
 10   6  10  ar  
 11   6  21  1   
 12   7  10  ar  
 13   7  22  1   
 14   9  11  1   
 15   9  12  1   
 16  10  23  1   
 17  11  13  1   
 18  11  24  1   
 19  11  25  1   
 20  12  14  1   
 21  12  26  1   
 22  12  27  1   
 23  13  15  1   
 24  13  28  1   
 25  13  29  1   
 26  14  15  1   
 27  14  30  1   
 28  14  31  1   
 29  15  16  1   
 30  15  17  1   
 31  16  18  1   
 32  17  19  1   
 33  18  19  1   
 34  18  32  1   
 35  18  33  1   
 36  19  34  1   
 37  19  35  1   
@<TRIPOS>SUBSTRUCTURE
  1 ****   9 GROUP 4 **** **** 0

# MOE 2024.06 (io_trps.svl 2023.06)
