@<TRIPOS>MOLECULE
NONAME
54 56 1 0 0 
SMALL
USER_CHARGES


@<TRIPOS>ATOM
  1 O       -1.7990    -0.7130    -1.5590 O.3   1 <1>  -0.3630 
  2 C       -2.7900    -1.2160    -0.7830 C.ar  1 <1>   0.0820 
  3 C       -1.9230    -0.6560    -2.9600 C.3   1 <1>   0.1200 
  4 C       -4.0100    -1.6690    -1.2770 C.ar  1 <1>  -0.1500 
  5 C       -2.5470    -1.2720     0.5800 C.ar  1 <1>  -0.1500 
  6 C       -0.6320    -0.0700    -3.5250 C.3   1 <1>  -0.2400 
  7 C       -4.9670    -2.1650    -0.4080 C.ar  1 <1>  -0.1500 
  8 C       -3.5040    -1.7690     1.4460 C.ar  1 <1>  -0.1500 
  9 C       -4.7230    -2.2170     0.9570 C.ar  1 <1>  -0.1430 
 10 C       -5.7870    -2.7530     1.9030 C.3   1 <1>   0.2530 
 11 N       -6.9840    -1.8880     1.8800 N.3   1 <1>  -0.8100 
 12 C       -8.0840    -2.4470     2.6960 C.3   1 <1>   0.1100 
 13 C       -6.6770    -0.4940     2.2940 C.3   1 <1>   0.1100 
 14 C       -9.3650    -1.5770     2.6260 C.3   1 <1>   0.3430 
 15 C       -7.9320     0.4120     2.3070 C.3   1 <1>   0.3430 
 16 N       -9.1400    -0.3290     1.8210 N.4   1 <1>  -0.9590 
 17 C      -10.3300     0.5270     1.6460 C.3   1 <1>   0.4810 
 18 C      -11.3220    -0.2350     0.8010 C.2   1 <1>  -0.2880 
 19 C      -11.5650     0.0070    -0.4990 C.2   1 <1>  -0.1780 
 20 C      -12.4960    -0.6750    -1.3710 C.ar  1 <1>   0.0280 
 21 C      -12.4160    -0.4970    -2.7500 C.ar  1 <1>  -0.1500 
 22 C      -13.4950    -1.5200    -0.8880 C.ar  1 <1>  -0.1500 
 23 C      -13.2870    -1.1370    -3.6120 C.ar  1 <1>  -0.1500 
 24 C      -14.3680    -2.1650    -1.7450 C.ar  1 <1>  -0.1500 
 25 C      -14.2660    -1.9750    -3.1110 C.ar  1 <1>  -0.1500 
 26 H       -2.0810    -1.6550    -3.3290 H     1 <1>   0.0800 
 27 H       -2.7630    -0.0290    -3.2030 H     1 <1>   0.0800 
 28 H       -4.2310    -1.6440    -2.3260 H     1 <1>   0.1500 
 29 H       -1.6010    -0.9240     0.9530 H     1 <1>   0.1500 
 30 H        0.2020    -0.6950    -3.2620 H     1 <1>   0.0800 
 31 H       -0.4760     0.9200    -3.1360 H     1 <1>   0.0800 
 32 H       -0.6950    -0.0130    -4.5960 H     1 <1>   0.0800 
 33 H       -5.9090    -2.5110    -0.7940 H     1 <1>   0.1500 
 34 H       -3.2900    -1.8050     2.4990 H     1 <1>   0.1500 
 35 H       -5.3950    -2.8170     2.9040 H     1 <1>   0.0800 
 36 H       -6.0560    -3.7470     1.5850 H     1 <1>   0.0800 
 37 H       -8.3210    -3.4380     2.3470 H     1 <1>   0.0800 
 38 H       -7.7700    -2.5320     3.7230 H     1 <1>   0.0800 
 39 H       -6.2260    -0.4910     3.2720 H     1 <1>   0.0800 
 40 H       -5.9620    -0.0640     1.6120 H     1 <1>   0.0800 
 41 H       -9.6760    -1.3230     3.6260 H     1 <1>   0.0800 
 42 H      -10.1500    -2.1620     2.1770 H     1 <1>   0.0800 
 43 H       -7.7450     1.2680     1.6790 H     1 <1>   0.0800 
 44 H       -8.0980     0.7700     3.3100 H     1 <1>   0.0800 
 45 H       -8.8620    -0.6860     0.8930 H     1 <1>   0.4500 
 46 H      -10.7620     0.7900     2.5980 H     1 <1>   0.0800 
 47 H      -10.0510     1.4320     1.1310 H     1 <1>   0.0800 
 48 H      -11.8320    -1.0050     1.3490 H     1 <1>   0.1500 
 49 H      -11.0250     0.7920    -1.0030 H     1 <1>   0.1500 
 50 H      -11.6620     0.1500    -3.1610 H     1 <1>   0.1500 
 51 H      -13.6040    -1.6790     0.1670 H     1 <1>   0.1500 
 52 H      -13.2060    -0.9850    -4.6750 H     1 <1>   0.1500 
 53 H      -15.1310    -2.8140    -1.3510 H     1 <1>   0.1500 
 54 H      -14.9450    -2.4750    -3.7790 H     1 <1>   0.1500 
@<TRIPOS>BOND
  1   1   2  1   
  2   1   3  1   
  3   2   4  ar  
  4   2   5  ar  
  5   3   6  1   
  6   3  26  1   
  7   3  27  1   
  8   4   7  ar  
  9   4  28  1   
 10   5   8  ar  
 11   5  29  1   
 12   6  30  1   
 13   6  31  1   
 14   6  32  1   
 15   7   9  ar  
 16   7  33  1   
 17   8   9  ar  
 18   8  34  1   
 19   9  10  1   
 20  10  11  1   
 21  10  35  1   
 22  10  36  1   
 23  11  12  1   
 24  11  13  1   
 25  12  14  1   
 26  12  37  1   
 27  12  38  1   
 28  13  15  1   
 29  13  39  1   
 30  13  40  1   
 31  14  16  1   
 32  14  41  1   
 33  14  42  1   
 34  15  16  1   
 35  15  43  1   
 36  15  44  1   
 37  16  17  1   
 38  16  45  1   
 39  17  18  1   
 40  17  46  1   
 41  17  47  1   
 42  18  19  2   
 43  18  48  1   
 44  19  20  1   
 45  19  49  1   
 46  20  21  ar  
 47  20  22  ar  
 48  21  23  ar  
 49  21  50  1   
 50  22  24  ar  
 51  22  51  1   
 52  23  25  ar  
 53  23  52  1   
 54  24  25  ar  
 55  24  53  1   
 56  25  54  1   
@<TRIPOS>SUBSTRUCTURE
  1 ****  11 GROUP 4 **** **** 0

# MOE 2024.06 (io_trps.svl 2023.06)
