@<TRIPOS>MOLECULE
NONAME
32 32 1 0 0 
SMALL
USER_CHARGES


@<TRIPOS>ATOM
  1 O       -0.5140     1.9310     2.1650 O.2   1 <1>  -0.5700 
  2 C       -0.1750     2.3010     1.0690 C.2   1 <1>   0.5690 
  3 N       -0.9800     2.2460    -0.0310 N.am  1 <1>  -0.5470 
  4 C        1.2200     2.8690     0.8940 C.3   1 <1>  -0.0990 
  5 C       -2.2910     1.7610    -0.1310 C.ar  1 <1>   0.1170 
  6 C        2.1450     1.9060     0.1300 C.3   1 <1>  -0.1600 
  7 C       -2.6260     0.4250     0.1050 C.ar  1 <1>  -0.1440 
  8 C       -3.2900     2.6500    -0.5090 C.ar  1 <1>  -0.1500 
  9 C        3.5590     2.4760    -0.0140 C.3   1 <1>  -0.0220 
 10 C       -3.9420     0.0150    -0.0310 C.ar  1 <1>  -0.1500 
 11 C       -1.5800    -0.6070     0.5090 C.3   1 <1>  -0.0970 
 12 C       -4.6000     2.2330    -0.6470 C.ar  1 <1>  -0.1500 
 13 C        4.4400     1.5060    -0.7780 C.2   1 <1>  -0.2880 
 14 C       -4.9280     0.9110    -0.4070 C.ar  1 <1>  -0.1500 
 15 C        5.5310     0.9150    -0.2820 C.2   1 <1>  -0.3000 
 16 H       -0.6100     2.6660    -0.8800 H     1 <1>   0.3700 
 17 H        1.6310     3.0610     1.8700 H     1 <1>   0.0800 
 18 H        1.1510     3.8080     0.3770 H     1 <1>   0.0800 
 19 H        1.7400     1.7090    -0.8470 H     1 <1>   0.0800 
 20 H        2.1970     0.9700     0.6610 H     1 <1>   0.0800 
 21 H       -3.0410     3.6790    -0.6900 H     1 <1>   0.1500 
 22 H        3.9780     2.6550     0.9620 H     1 <1>   0.0800 
 23 H        3.5290     3.4140    -0.5410 H     1 <1>   0.0800 
 24 H       -4.2120    -1.0100     0.1550 H     1 <1>   0.1500 
 25 H       -0.6760    -0.4710    -0.0570 H     1 <1>   0.0800 
 26 H       -1.9380    -1.6050     0.3360 H     1 <1>   0.0800 
 27 H       -1.3540    -0.5020     1.5550 H     1 <1>   0.0800 
 28 H       -5.3650     2.9320    -0.9370 H     1 <1>   0.1500 
 29 H        4.0990     1.3310    -1.7850 H     1 <1>   0.1500 
 30 H       -5.9470     0.5800    -0.5090 H     1 <1>   0.1500 
 31 H        6.1460     0.2280    -0.8380 H     1 <1>   0.1500 
 32 H        5.9020     1.0650     0.7180 H     1 <1>   0.1500 
@<TRIPOS>BOND
  1   1   2  2   
  2   2   3  am  
  3   2   4  1   
  4   3   5  1   
  5   3  16  1   
  6   4   6  1   
  7   4  17  1   
  8   4  18  1   
  9   5   7  ar  
 10   5   8  ar  
 11   6   9  1   
 12   6  19  1   
 13   6  20  1   
 14   7  10  ar  
 15   7  11  1   
 16   8  12  ar  
 17   8  21  1   
 18   9  13  1   
 19   9  22  1   
 20   9  23  1   
 21  10  14  ar  
 22  10  24  1   
 23  11  25  1   
 24  11  26  1   
 25  11  27  1   
 26  12  14  ar  
 27  12  28  1   
 28  13  15  2   
 29  13  29  1   
 30  14  30  1   
 31  15  31  1   
 32  15  32  1   
@<TRIPOS>SUBSTRUCTURE
  1 ****   3 GROUP 4 **** **** 0

# MOE 2024.06 (io_trps.svl 2023.06)
