@<TRIPOS>MOLECULE
NONAME
37 37 1 0 0 
SMALL
USER_CHARGES


@<TRIPOS>ATOM
  1 O       -0.3420    -0.3710    -0.5250 O.2   1 <1>  -0.5700 
  2 C       -1.0580    -1.3370    -0.3720 C.2   1 <1>   0.5440 
  3 N       -0.4290    -2.5350    -0.3310 N.am  1 <1>  -0.8000 
  4 C       -2.4990    -1.2070    -0.2290 C.ar  1 <1>   0.0860 
  5 C       -3.0760     0.0290     0.0620 C.ar  1 <1>  -0.1500 
  6 C       -3.3600    -2.2940    -0.3700 C.ar  1 <1>  -0.1500 
  7 C       -4.4500     0.1860     0.2070 C.ar  1 <1>   0.0830 
  8 C       -4.7290    -2.1740    -0.2190 C.ar  1 <1>   0.0830 
  9 O       -5.0190     1.3920     0.4970 O.3   1 <1>  -0.3630 
 10 C       -5.2890    -0.9210     0.0540 C.ar  1 <1>   0.0830 
 11 O       -5.4330    -3.3300    -0.3670 O.3   1 <1>  -0.3630 
 12 C       -4.2430     2.5410     0.7440 C.3   1 <1>   0.1200 
 13 O       -6.6340    -0.7670     0.1670 O.3   1 <1>  -0.3630 
 14 C       -6.5580    -3.5850     0.4440 C.3   1 <1>   0.1200 
 15 C       -5.1940     3.6880     1.0700 C.3   1 <1>  -0.2400 
 16 C       -7.2870    -0.1820    -0.9330 C.3   1 <1>   0.1200 
 17 C       -6.7680    -5.0950     0.5000 C.3   1 <1>  -0.2400 
 18 C       -8.7870    -0.1930    -0.6540 C.3   1 <1>  -0.2400 
 19 H        0.5880    -2.5540    -0.4170 H     1 <1>   0.3700 
 20 H       -0.8910    -3.4180    -0.1220 H     1 <1>   0.3700 
 21 H       -2.4120     0.8660     0.1700 H     1 <1>   0.1500 
 22 H       -2.9670    -3.2650    -0.6050 H     1 <1>   0.1500 
 23 H       -3.6690     2.7640    -0.1400 H     1 <1>   0.0800 
 24 H       -3.5890     2.3410     1.5750 H     1 <1>   0.0800 
 25 H       -7.4120    -3.1010     0.0030 H     1 <1>   0.0800 
 26 H       -6.3760    -3.1860     1.4270 H     1 <1>   0.0800 
 27 H       -5.8520     3.8700     0.2390 H     1 <1>   0.0800 
 28 H       -4.6320     4.5820     1.2670 H     1 <1>   0.0800 
 29 H       -5.7750     3.4460     1.9420 H     1 <1>   0.0800 
 30 H       -7.0540    -0.7590    -1.8120 H     1 <1>   0.0800 
 31 H       -6.9280     0.8260    -1.0530 H     1 <1>   0.0800 
 32 H       -6.9370    -5.4810    -0.4890 H     1 <1>   0.0800 
 33 H       -7.6260    -5.3190     1.1080 H     1 <1>   0.0800 
 34 H       -5.9070    -5.5720     0.9320 H     1 <1>   0.0800 
 35 H       -9.1330    -1.2030    -0.5310 H     1 <1>   0.0800 
 36 H       -9.3130     0.2530    -1.4780 H     1 <1>   0.0800 
 37 H       -8.9980     0.3730     0.2360 H     1 <1>   0.0800 
@<TRIPOS>BOND
  1   1   2  2   
  2   2   3  am  
  3   2   4  1   
  4   3  19  1   
  5   3  20  1   
  6   4   5  ar  
  7   4   6  ar  
  8   5   7  ar  
  9   5  21  1   
 10   6   8  ar  
 11   6  22  1   
 12   7   9  1   
 13   7  10  ar  
 14   8  10  ar  
 15   8  11  1   
 16   9  12  1   
 17  10  13  1   
 18  11  14  1   
 19  12  15  1   
 20  12  23  1   
 21  12  24  1   
 22  13  16  1   
 23  14  17  1   
 24  14  25  1   
 25  14  26  1   
 26  15  27  1   
 27  15  28  1   
 28  15  29  1   
 29  16  18  1   
 30  16  30  1   
 31  16  31  1   
 32  17  32  1   
 33  17  33  1   
 34  17  34  1   
 35  18  35  1   
 36  18  36  1   
 37  18  37  1   
@<TRIPOS>SUBSTRUCTURE
  1 ****  10 GROUP 4 **** **** 0

# MOE 2024.06 (io_trps.svl 2023.06)
