@<TRIPOS>MOLECULE
NONAME
33 33 1 0 0 
SMALL
USER_CHARGES


@<TRIPOS>ATOM
  1 I        0.4420    -1.3460     1.5630 I     1 <1>  -0.0810 
  2 C       -1.5280    -1.3190     0.7290 C.ar  1 <1>   0.0810 
  3 C       -2.2200    -0.1220     0.5840 C.ar  1 <1>   0.0820 
  4 C       -2.0600    -2.5390     0.3550 C.ar  1 <1>  -0.1500 
  5 O       -1.6350     1.0460     0.9730 O.3   1 <1>  -0.3630 
  6 C       -3.5200    -0.1710     0.0670 C.ar  1 <1>   0.0820 
  7 C       -3.3380    -2.5800    -0.1790 C.ar  1 <1>  -0.1440 
  8 C       -1.4590     2.0670     0.0150 C.3   1 <1>   0.2000 
  9 O       -4.2300     0.9900    -0.0290 O.3   1 <1>  -0.3630 
 10 C       -4.0570    -1.4000    -0.3170 C.ar  1 <1>  -0.1500 
 11 C       -3.9530    -3.9020    -0.6050 C.3   1 <1>   0.2640 
 12 C        0.0070     2.0680    -0.4130 C.3   1 <1>  -0.2400 
 13 C       -1.8550     3.3860     0.6730 C.3   1 <1>  -0.2400 
 14 C       -5.6170     0.9940    -0.2710 C.3   1 <1>   0.1200 
 15 O       -5.0370    -4.1470     0.2120 O.3   1 <1>  -0.6800 
 16 C       -6.1070     2.4330    -0.1550 C.3   1 <1>  -0.2400 
 17 H       -1.4820    -3.4380     0.4820 H     1 <1>   0.1500 
 18 H       -2.0870     1.8770    -0.8380 H     1 <1>   0.0800 
 19 H       -5.0480    -1.4630    -0.7280 H     1 <1>   0.1500 
 20 H       -3.2560    -4.7140    -0.4950 H     1 <1>   0.0800 
 21 H       -4.2990    -3.8620    -1.6240 H     1 <1>   0.0800 
 22 H        0.6450     2.2170     0.4400 H     1 <1>   0.0800 
 23 H        0.1830     2.8580    -1.1190 H     1 <1>   0.0800 
 24 H        0.2510     1.1330    -0.8830 H     1 <1>   0.0800 
 25 H       -1.2430     3.5720     1.5370 H     1 <1>   0.0800 
 26 H       -2.8880     3.3450     0.9700 H     1 <1>   0.0800 
 27 H       -1.7330     4.1960    -0.0220 H     1 <1>   0.0800 
 28 H       -6.0940     0.3680     0.4650 H     1 <1>   0.0800 
 29 H       -5.7940     0.6110    -1.2610 H     1 <1>   0.0800 
 30 H       -4.8000    -3.9170     1.1320 H     1 <1>   0.4000 
 31 H       -5.9090     2.8110     0.8330 H     1 <1>   0.0800 
 32 H       -7.1670     2.4740    -0.3320 H     1 <1>   0.0800 
 33 H       -5.6120     3.0520    -0.8820 H     1 <1>   0.0800 
@<TRIPOS>BOND
  1   1   2  1   
  2   2   3  ar  
  3   2   4  ar  
  4   3   5  1   
  5   3   6  ar  
  6   4   7  ar  
  7   4  17  1   
  8   5   8  1   
  9   6   9  1   
 10   6  10  ar  
 11   7  10  ar  
 12   7  11  1   
 13   8  12  1   
 14   8  13  1   
 15   8  18  1   
 16   9  14  1   
 17  10  19  1   
 18  11  15  1   
 19  11  20  1   
 20  11  21  1   
 21  12  22  1   
 22  12  23  1   
 23  12  24  1   
 24  13  25  1   
 25  13  26  1   
 26  13  27  1   
 27  14  16  1   
 28  14  28  1   
 29  14  29  1   
 30  15  30  1   
 31  16  31  1   
 32  16  32  1   
 33  16  33  1   
@<TRIPOS>SUBSTRUCTURE
  1 ****   6 GROUP 4 **** **** 0

# MOE 2024.06 (io_trps.svl 2023.06)
