@<TRIPOS>MOLECULE
NONAME
52 53 1 0 0 
SMALL
USER_CHARGES


@<TRIPOS>ATOM
  1 S       -0.1940    -0.2310    -0.3240 S.o2  1 <1>   1.3330 
  2 O       -1.2170    -0.9250     0.4160 O.2   1 <1>  -0.6500 
  3 O        1.1170    -0.8200    -0.4680 O.2   1 <1>  -0.6500 
  4 N        0.0630     1.2920     0.4500 N.am  1 <1>  -0.6930 
  5 C       -0.7910     0.2390    -1.9340 C.3   1 <1>  -0.1350 
  6 C       -0.9240     2.2750     0.4430 C.ar  1 <1>   0.1990 
  7 C        0.9800     1.2680     1.6320 C.3   1 <1>   0.2570 
  8 C       -0.6840     3.5310    -0.1190 C.ar  1 <1>  -0.1440 
  9 C       -2.1730     2.0180     0.9970 C.ar  1 <1>  -0.1500 
 10 C        2.4350     1.6420     1.3270 C.2   1 <1>   0.5690 
 11 C       -1.6890     4.4850    -0.1270 C.ar  1 <1>  -0.1500 
 12 C        0.6700     3.8860    -0.7210 C.3   1 <1>  -0.0970 
 13 C       -3.1700     2.9740     0.9830 C.ar  1 <1>  -0.1500 
 14 O        2.9500     2.5010     2.0020 O.2   1 <1>  -0.5700 
 15 N        3.1000     0.9720     0.3370 N.am  1 <1>  -0.5470 
 16 C       -2.9330     4.2140     0.4160 C.ar  1 <1>  -0.1430 
 17 C        4.4730     0.9380     0.0420 C.ar  1 <1>   0.1170 
 18 C       -4.0220     5.2720     0.3990 C.3   1 <1>  -0.0970 
 19 C        5.1830     2.0710    -0.3690 C.ar  1 <1>  -0.1430 
 20 C        5.1420    -0.2850     0.1370 C.ar  1 <1>  -0.1430 
 21 C        6.5360     1.9720    -0.6490 C.ar  1 <1>  -0.1500 
 22 C        4.5180     3.4300    -0.5370 C.3   1 <1>  -0.0970 
 23 C        6.4930    -0.3620    -0.1550 C.ar  1 <1>  -0.1500 
 24 C        4.4120    -1.5540     0.5630 C.3   1 <1>  -0.0970 
 25 C        7.1980     0.7620    -0.5460 C.ar  1 <1>  -0.1430 
 26 C        8.6810     0.6700    -0.8560 C.3   1 <1>  -0.0970 
 27 H       -0.9560    -0.6340    -2.5340 H     1 <1>   0.0800 
 28 H       -0.0740     0.8660    -2.4260 H     1 <1>   0.0800 
 29 H       -1.7150     0.7750    -1.8450 H     1 <1>   0.0800 
 30 H        0.9680     0.2880     2.0750 H     1 <1>   0.0800 
 31 H        0.6130     1.9560     2.3730 H     1 <1>   0.0800 
 32 H       -2.3700     1.0620     1.4490 H     1 <1>   0.1500 
 33 H       -1.5040     5.4540    -0.5570 H     1 <1>   0.1500 
 34 H        1.0380     3.0790    -1.3270 H     1 <1>   0.0800 
 35 H        1.3750     4.0800     0.0680 H     1 <1>   0.0800 
 36 H        0.6000     4.7640    -1.3370 H     1 <1>   0.0800 
 37 H       -4.1290     2.7500     1.4170 H     1 <1>   0.1500 
 38 H        2.5650     0.2070    -0.0940 H     1 <1>   0.3700 
 39 H       -3.9120     5.9210     1.2490 H     1 <1>   0.0800 
 40 H       -4.9950     4.8150     0.4350 H     1 <1>   0.0800 
 41 H       -3.9580     5.8600    -0.4990 H     1 <1>   0.0800 
 42 H        7.0840     2.8460    -0.9530 H     1 <1>   0.1500 
 43 H        4.4190     3.9090     0.4210 H     1 <1>   0.0800 
 44 H        3.5460     3.3170    -0.9770 H     1 <1>   0.0800 
 45 H        5.1010     4.0660    -1.1770 H     1 <1>   0.0800 
 46 H        7.0070    -1.3030    -0.0750 H     1 <1>   0.1500 
 47 H        5.0950    -2.3770     0.6700 H     1 <1>   0.0800 
 48 H        3.9220    -1.3990     1.5080 H     1 <1>   0.0800 
 49 H        3.6750    -1.8200    -0.1740 H     1 <1>   0.0800 
 50 H        8.9510     1.3880    -1.6090 H     1 <1>   0.0800 
 51 H        8.9300    -0.3110    -1.2180 H     1 <1>   0.0800 
 52 H        9.2490     0.8680     0.0340 H     1 <1>   0.0800 
@<TRIPOS>BOND
  1   1   2  2   
  2   1   3  2   
  3   1   4  am  
  4   1   5  1   
  5   4   6  1   
  6   4   7  1   
  7   5  27  1   
  8   5  28  1   
  9   5  29  1   
 10   6   8  ar  
 11   6   9  ar  
 12   7  10  1   
 13   7  30  1   
 14   7  31  1   
 15   8  11  ar  
 16   8  12  1   
 17   9  13  ar  
 18   9  32  1   
 19  10  14  2   
 20  10  15  am  
 21  11  16  ar  
 22  11  33  1   
 23  12  34  1   
 24  12  35  1   
 25  12  36  1   
 26  13  16  ar  
 27  13  37  1   
 28  15  17  1   
 29  15  38  1   
 30  16  18  1   
 31  17  19  ar  
 32  17  20  ar  
 33  18  39  1   
 34  18  40  1   
 35  18  41  1   
 36  19  21  ar  
 37  19  22  1   
 38  20  23  ar  
 39  20  24  1   
 40  21  25  ar  
 41  21  42  1   
 42  22  43  1   
 43  22  44  1   
 44  22  45  1   
 45  23  25  ar  
 46  23  46  1   
 47  24  47  1   
 48  24  48  1   
 49  24  49  1   
 50  25  26  1   
 51  26  50  1   
 52  26  51  1   
 53  26  52  1   
@<TRIPOS>SUBSTRUCTURE
  1 ****  10 GROUP 4 **** **** 0

# MOE 2024.06 (io_trps.svl 2023.06)
