@<TRIPOS>MOLECULE
NONAME
42 43 1 0 0 
SMALL
USER_CHARGES


@<TRIPOS>ATOM
  1 CL       0.9950    -1.1500    -1.2190 Cl    1 <1>  -0.1770 
  2 C        2.5680    -0.6370    -0.6660 C.ar  1 <1>   0.1770 
  3 C        3.1820     0.4440    -1.2680 C.ar  1 <1>  -0.1500 
  4 C        3.1820    -1.3170     0.3670 C.ar  1 <1>  -0.1500 
  5 C        4.4300     0.8460    -0.8250 C.ar  1 <1>  -0.1500 
  6 C        4.4290    -0.9050     0.8010 C.ar  1 <1>  -0.1500 
  7 C        5.0860     0.1840     0.2180 C.ar  1 <1>   0.0540 
  8 C        6.3980     0.6050     0.6830 C.2   1 <1>   0.4620 
  9 N        7.0620     0.0650     1.6420 N.2   1 <1>  -0.4100 
 10 N        7.0650     1.6260     0.1350 N.2   1 <1>  -0.5650 
 11 O        8.1830     0.7050     1.7630 O.3   1 <1>  -0.0190 
 12 C        8.1260     1.6240     0.8360 C.2   1 <1>   0.2980 
 13 C        9.3050     2.5730     0.6780 C.3   1 <1>   0.3200 
 14 N       10.5210     1.8690     0.1510 N.am  1 <1>  -0.6600 
 15 C       11.6310     1.7370     0.9510 C.2   1 <1>   0.5690 
 16 C       10.3410     1.2800    -1.2090 C.3   1 <1>   0.0600 
 17 O       11.6440     2.1980     2.0680 O.2   1 <1>  -0.5700 
 18 C       12.8770     0.9800     0.5010 C.3   1 <1>  -0.0990 
 19 C       14.0250     1.8500    -0.0710 C.3   1 <1>   0.0000 
 20 C       15.1950     0.9310    -0.4500 C.3   1 <1>  -0.2400 
 21 C       14.5230     2.8580     0.9760 C.3   1 <1>  -0.2400 
 22 C       13.5870     2.6190    -1.3260 C.3   1 <1>  -0.2400 
 23 H        2.6870     0.9600    -2.0710 H     1 <1>   0.1500 
 24 H        2.6860    -2.1560     0.8230 H     1 <1>   0.1500 
 25 H        4.9040     1.6900    -1.2970 H     1 <1>   0.1500 
 26 H        4.9050    -1.4380     1.6080 H     1 <1>   0.1500 
 27 H        9.5020     3.0340     1.6290 H     1 <1>   0.0800 
 28 H        9.0340     3.3550    -0.0080 H     1 <1>   0.0800 
 29 H        9.8280     1.9810    -1.8460 H     1 <1>   0.0800 
 30 H        9.7530     0.3810    -1.1390 H     1 <1>   0.0800 
 31 H       11.2820     1.0430    -1.6660 H     1 <1>   0.0800 
 32 H       12.6070     0.2180    -0.2020 H     1 <1>   0.0800 
 33 H       13.2490     0.4620     1.3670 H     1 <1>   0.0800 
 34 H       14.8920     0.2150    -1.1940 H     1 <1>   0.0800 
 35 H       15.5490     0.3940     0.4130 H     1 <1>   0.0800 
 36 H       16.0140     1.5040    -0.8490 H     1 <1>   0.0800 
 37 H       14.8110     2.3530     1.8810 H     1 <1>   0.0800 
 38 H       13.7540     3.5700     1.2200 H     1 <1>   0.0800 
 39 H       15.3740     3.4020     0.6060 H     1 <1>   0.0800 
 40 H       13.2960     1.9420    -2.1070 H     1 <1>   0.0800 
 41 H       14.3970     3.2230    -1.6960 H     1 <1>   0.0800 
 42 H       12.7610     3.2730    -1.1060 H     1 <1>   0.0800 
@<TRIPOS>BOND
  1   1   2  1   
  2   2   3  ar  
  3   2   4  ar  
  4   3   5  ar  
  5   3  23  1   
  6   4   6  ar  
  7   4  24  1   
  8   5   7  ar  
  9   5  25  1   
 10   6   7  ar  
 11   6  26  1   
 12   7   8  1   
 13   8   9  2   
 14   8  10  1   
 15   9  11  1   
 16  10  12  2   
 17  11  12  1   
 18  12  13  1   
 19  13  14  1   
 20  13  27  1   
 21  13  28  1   
 22  14  15  am  
 23  14  16  1   
 24  15  17  2   
 25  15  18  1   
 26  16  29  1   
 27  16  30  1   
 28  16  31  1   
 29  18  19  1   
 30  18  32  1   
 31  18  33  1   
 32  19  20  1   
 33  19  21  1   
 34  19  22  1   
 35  20  34  1   
 36  20  35  1   
 37  20  36  1   
 38  21  37  1   
 39  21  38  1   
 40  21  39  1   
 41  22  40  1   
 42  22  41  1   
 43  22  42  1   
@<TRIPOS>SUBSTRUCTURE
  1 ****  12 GROUP 4 **** **** 0

# MOE 2024.06 (io_trps.svl 2023.06)
