@<TRIPOS>MOLECULE
NONAME
44 45 1 0 0 
SMALL
USER_CHARGES


@<TRIPOS>ATOM
  1 O       -2.4400     0.0000     1.2290 O.3   1 <1>  -0.3630 
  2 C       -2.5990     0.8390     0.1650 C.ar  1 <1>   0.0830 
  3 C       -1.1720    -0.3270     1.7450 C.3   1 <1>   0.1200 
  4 C       -1.6670     1.7730    -0.3170 C.ar  1 <1>   0.0820 
  5 C       -3.8220     0.7320    -0.4740 C.ar  1 <1>  -0.1500 
  6 C       -1.3360    -1.5160     2.6870 C.3   1 <1>  -0.2400 
  7 O       -0.4590     1.9780     0.2490 O.3   1 <1>  -0.5320 
  8 C       -1.9810     2.5540    -1.4190 C.ar  1 <1>  -0.1500 
  9 C       -4.1430     1.5220    -1.5680 C.ar  1 <1>  -0.1430 
 10 C       -3.2110     2.4310    -2.0420 C.ar  1 <1>  -0.1500 
 11 C       -5.5120     1.3920    -2.2200 C.3   1 <1>   0.2530 
 12 N       -6.5720     1.6010    -1.2140 N.3   1 <1>  -0.8100 
 13 C       -6.5170     2.9520    -0.5980 C.3   1 <1>   0.1100 
 14 C       -7.9240     1.3200    -1.7430 C.3   1 <1>   0.1100 
 15 C       -7.6180     3.1540     0.4710 C.3   1 <1>   0.3430 
 16 C       -9.0110     1.4550    -0.6450 C.3   1 <1>   0.3430 
 17 N       -8.4150     1.8980     0.6630 N.4   1 <1>  -0.9590 
 18 C       -9.3660     1.9810     1.7960 C.3   1 <1>   0.3430 
 19 C       -9.8400     0.5830     2.1730 C.3   1 <1>  -0.2400 
 20 H       -0.7900     0.5270     2.2750 H     1 <1>   0.0800 
 21 H       -0.5220    -0.5770     0.9240 H     1 <1>   0.0800 
 22 H       -4.5340     0.0190    -0.1010 H     1 <1>   0.1500 
 23 H       -1.9960    -1.2570     3.4950 H     1 <1>   0.0800 
 24 H       -0.3810    -1.7890     3.0970 H     1 <1>   0.0800 
 25 H       -1.7350    -2.3590     2.1510 H     1 <1>   0.0800 
 26 H        0.0490     2.6800    -0.1920 H     1 <1>   0.4500 
 27 H       -1.2710     3.2660    -1.8000 H     1 <1>   0.1500 
 28 H       -3.4360     3.0480    -2.8940 H     1 <1>   0.1500 
 29 H       -5.5990     0.4030    -2.6360 H     1 <1>   0.0800 
 30 H       -5.6150     2.1060    -3.0200 H     1 <1>   0.0800 
 31 H       -6.6140     3.7090    -1.3580 H     1 <1>   0.0800 
 32 H       -5.5610     3.0960    -0.1220 H     1 <1>   0.0800 
 33 H       -7.9540     0.3180    -2.1370 H     1 <1>   0.0800 
 34 H       -8.1500     1.9940    -2.5520 H     1 <1>   0.0800 
 35 H       -8.2650     3.9590     0.1670 H     1 <1>   0.0800 
 36 H       -7.1500     3.4390     1.3990 H     1 <1>   0.0800 
 37 H       -9.4930     0.4990    -0.5220 H     1 <1>   0.0800 
 38 H       -9.7580     2.1590    -0.9690 H     1 <1>   0.0800 
 39 H       -7.6920     1.1870     0.8590 H     1 <1>   0.4500 
 40 H      -10.2070     2.6020     1.5330 H     1 <1>   0.0800 
 41 H       -8.8720     2.4230     2.6480 H     1 <1>   0.0800 
 42 H      -10.4270     0.1420     1.3890 H     1 <1>   0.0800 
 43 H      -10.4610     0.6470     3.0490 H     1 <1>   0.0800 
 44 H       -9.0040    -0.0530     2.4060 H     1 <1>   0.0800 
@<TRIPOS>BOND
  1   1   2  1   
  2   1   3  1   
  3   2   4  ar  
  4   2   5  ar  
  5   3   6  1   
  6   3  20  1   
  7   3  21  1   
  8   4   7  1   
  9   4   8  ar  
 10   5   9  ar  
 11   5  22  1   
 12   6  23  1   
 13   6  24  1   
 14   6  25  1   
 15   7  26  1   
 16   8  10  ar  
 17   8  27  1   
 18   9  10  ar  
 19   9  11  1   
 20  10  28  1   
 21  11  12  1   
 22  11  29  1   
 23  11  30  1   
 24  12  13  1   
 25  12  14  1   
 26  13  15  1   
 27  13  31  1   
 28  13  32  1   
 29  14  16  1   
 30  14  33  1   
 31  14  34  1   
 32  15  17  1   
 33  15  35  1   
 34  15  36  1   
 35  16  17  1   
 36  16  37  1   
 37  16  38  1   
 38  17  18  1   
 39  17  39  1   
 40  18  19  1   
 41  18  40  1   
 42  18  41  1   
 43  19  42  1   
 44  19  43  1   
 45  19  44  1   
@<TRIPOS>SUBSTRUCTURE
  1 ****   5 GROUP 4 **** **** 0

# MOE 2024.06 (io_trps.svl 2023.06)
