@<TRIPOS>MOLECULE
NONAME
31 32 1 0 0 
SMALL
USER_CHARGES


@<TRIPOS>ATOM
  1 N        0.1660     0.0190    -0.6020 N.ar  1 <1>  -0.6200 
  2 C        0.2120    -1.2860    -0.7400 C.ar  1 <1>   0.7710 
  3 C        1.2490     0.6330    -0.1590 C.ar  1 <1>   0.4100 
  4 N        1.2960    -2.0240    -0.4450 N.ar  1 <1>  -0.1790 
  5 N       -0.8920    -1.8710    -1.1990 N.pl3 1 <1>  -0.9000 
  6 N        1.2070     1.9870    -0.0400 N.pl3 1 <1>  -0.8380 
  7 C        2.4090    -0.0960     0.1810 C.ar  1 <1>  -0.1500 
  8 C        2.4230    -1.4430     0.0300 C.ar  1 <1>   0.2170 
  9 C        2.4320     2.8520    -0.0270 C.3   1 <1>   0.2090 
 10 C       -0.1080     2.7150    -0.0110 C.3   1 <1>   0.2090 
 11 C        3.6200    -2.3160     0.3660 C.3   1 <1>  -0.0970 
 12 C        2.1480     4.2160    -0.6610 C.3   1 <1>  -0.1600 
 13 C        0.0210     4.0440     0.7390 C.3   1 <1>  -0.1600 
 14 C        1.0450     4.9860     0.0840 C.3   1 <1>  -0.1600 
 15 H        1.2270    -3.0250    -0.5880 H     1 <1>   0.4570 
 16 H       -1.0730    -2.8580    -1.3810 H     1 <1>   0.4000 
 17 H       -1.6860    -1.2570    -1.4110 H     1 <1>   0.4000 
 18 H        3.2600     0.4310     0.5670 H     1 <1>   0.1500 
 19 H        3.2240     2.3760    -0.5790 H     1 <1>   0.0800 
 20 H        2.7560     2.9910     0.9910 H     1 <1>   0.0800 
 21 H       -0.8510     2.1080     0.4770 H     1 <1>   0.0800 
 22 H       -0.4320     2.8960    -1.0220 H     1 <1>   0.0800 
 23 H        3.3630    -3.0300     1.1290 H     1 <1>   0.0800 
 24 H        4.4340    -1.7140     0.7320 H     1 <1>   0.0800 
 25 H        3.9600    -2.8430    -0.5080 H     1 <1>   0.0800 
 26 H        1.8500     4.0560    -1.6830 H     1 <1>   0.0800 
 27 H        3.0490     4.8040    -0.6770 H     1 <1>   0.0800 
 28 H        0.3190     3.8300     1.7500 H     1 <1>   0.0800 
 29 H       -0.9380     4.5290     0.7810 H     1 <1>   0.0800 
 30 H        0.5470     5.6370    -0.6150 H     1 <1>   0.0800 
 31 H        1.4830     5.6050     0.8480 H     1 <1>   0.0800 
@<TRIPOS>BOND
  1   1   2  ar  
  2   1   3  ar  
  3   2   4  ar  
  4   2   5  1   
  5   3   6  1   
  6   3   7  ar  
  7   4   8  ar  
  8   4  15  1   
  9   5  16  1   
 10   5  17  1   
 11   6   9  1   
 12   6  10  1   
 13   7   8  ar  
 14   7  18  1   
 15   8  11  1   
 16   9  12  1   
 17   9  19  1   
 18   9  20  1   
 19  10  13  1   
 20  10  21  1   
 21  10  22  1   
 22  11  23  1   
 23  11  24  1   
 24  11  25  1   
 25  12  14  1   
 26  12  26  1   
 27  12  27  1   
 28  13  14  1   
 29  13  28  1   
 30  13  29  1   
 31  14  30  1   
 32  14  31  1   
@<TRIPOS>SUBSTRUCTURE
  1 ****   3 GROUP 4 **** **** 0

# MOE 2024.06 (io_trps.svl 2023.06)
