@<TRIPOS>MOLECULE
NONAME
46 47 1 0 0 
SMALL
USER_CHARGES


@<TRIPOS>ATOM
  1 CL       0.1780     1.4480     2.0560 Cl    1 <1>  -0.1770 
  2 C        1.1050     2.4350     0.9480 C.ar  1 <1>   0.1770 
  3 C        0.5000     3.4690     0.2440 C.ar  1 <1>   0.0820 
  4 C        2.4500     2.1470     0.8010 C.ar  1 <1>  -0.1500 
  5 O       -0.8270     3.6950     0.4120 O.3   1 <1>  -0.3630 
  6 C        1.2860     4.2430    -0.6190 C.ar  1 <1>   0.0820 
  7 C        3.2240     2.9020    -0.0670 C.ar  1 <1>  -0.1440 
  8 C       -1.6820     2.9690    -0.4400 C.3   1 <1>   0.1200 
  9 O        0.8440     5.3010    -1.3500 O.3   1 <1>  -0.3630 
 10 C        2.6310     3.9400    -0.7730 C.ar  1 <1>  -0.1500 
 11 C        4.7000     2.6160    -0.2370 C.3   1 <1>   0.4860 
 12 C       -3.1190     3.3590    -0.1120 C.3   1 <1>  -0.2400 
 13 C       -0.1500     6.1660    -0.8400 C.3   1 <1>   0.0400 
 14 N        5.4170     3.5810     0.6170 N.4   1 <1>  -0.9060 
 15 C        6.9100     3.5280     0.5240 C.3   1 <1>   0.3430 
 16 C        7.5340     4.8960     0.8790 C.3   1 <1>   0.3430 
 17 O        6.6660     5.9050     0.4710 O.3   1 <1>  -0.6800 
 18 C        8.8680     5.0860     0.1780 C.ar  1 <1>  -0.1440 
 19 C       10.0460     5.0100     0.9090 C.ar  1 <1>  -0.1500 
 20 C        8.9350     5.3250    -1.1900 C.ar  1 <1>  -0.1500 
 21 C       11.2700     5.1650     0.2820 C.ar  1 <1>  -0.1500 
 22 C       10.1590     5.4790    -1.8150 C.ar  1 <1>  -0.1500 
 23 C       11.3270     5.3980    -1.0800 C.ar  1 <1>  -0.1500 
 24 H        2.8630     1.3310     1.3690 H     1 <1>   0.1500 
 25 H       -1.5240     1.9180    -0.2720 H     1 <1>   0.0800 
 26 H       -1.4380     3.2170    -1.4600 H     1 <1>   0.0800 
 27 H        3.2000     4.5440    -1.4590 H     1 <1>   0.1500 
 28 H        4.9810     2.7440    -1.2700 H     1 <1>   0.0800 
 29 H        4.9200     1.6050     0.0650 H     1 <1>   0.0800 
 30 H       -3.3410     3.1170     0.9120 H     1 <1>   0.0800 
 31 H       -3.7970     2.8180    -0.7470 H     1 <1>   0.0800 
 32 H       -3.2650     4.4120    -0.2720 H     1 <1>   0.0800 
 33 H       -0.0760     7.1050    -1.3580 H     1 <1>   0.0800 
 34 H        0.0110     6.3130     0.2130 H     1 <1>   0.0800 
 35 H       -1.1170     5.7330    -1.0190 H     1 <1>   0.0800 
 36 H        5.0860     3.5080     1.5840 H     1 <1>   0.4500 
 37 H        5.1640     4.5420     0.3230 H     1 <1>   0.4500 
 38 H        7.1990     3.2970    -0.4880 H     1 <1>   0.0800 
 39 H        7.3140     2.7600     1.1630 H     1 <1>   0.0800 
 40 H        7.6560     4.9840     1.9460 H     1 <1>   0.0800 
 41 H        7.1590     6.7560     0.4570 H     1 <1>   0.4000 
 42 H       10.0320     4.8330     1.9710 H     1 <1>   0.1500 
 43 H        8.0390     5.3990    -1.7830 H     1 <1>   0.1500 
 44 H       12.1820     5.1060     0.8520 H     1 <1>   0.1500 
 45 H       10.2070     5.6660    -2.8750 H     1 <1>   0.1500 
 46 H       12.2810     5.5200    -1.5660 H     1 <1>   0.1500 
@<TRIPOS>BOND
  1   1   2  1   
  2   2   3  ar  
  3   2   4  ar  
  4   3   5  1   
  5   3   6  ar  
  6   4   7  ar  
  7   4  24  1   
  8   5   8  1   
  9   6   9  1   
 10   6  10  ar  
 11   7  10  ar  
 12   7  11  1   
 13   8  12  1   
 14   8  25  1   
 15   8  26  1   
 16   9  13  1   
 17  10  27  1   
 18  11  14  1   
 19  11  28  1   
 20  11  29  1   
 21  12  30  1   
 22  12  31  1   
 23  12  32  1   
 24  13  33  1   
 25  13  34  1   
 26  13  35  1   
 27  14  15  1   
 28  14  36  1   
 29  14  37  1   
 30  15  16  1   
 31  15  38  1   
 32  15  39  1   
 33  16  17  1   
 34  16  18  1   
 35  16  40  1   
 36  17  41  1   
 37  18  19  ar  
 38  18  20  ar  
 39  19  21  ar  
 40  19  42  1   
 41  20  22  ar  
 42  20  43  1   
 43  21  23  ar  
 44  21  44  1   
 45  22  23  ar  
 46  22  45  1   
 47  23  46  1   
@<TRIPOS>SUBSTRUCTURE
  1 ****  14 GROUP 4 **** **** 0

# MOE 2024.06 (io_trps.svl 2023.06)
