@<TRIPOS>MOLECULE
NONAME
44 46 1 0 0 
SMALL
USER_CHARGES


@<TRIPOS>ATOM
  1 S        0.0380    -0.7350     1.6330 S.o2  1 <1>   1.4470 
  2 O       -0.0810     0.2290     2.7040 O.2   1 <1>  -0.6500 
  3 O       -0.1800    -2.1380     1.9010 O.2   1 <1>  -0.6500 
  4 N       -1.1650    -0.2880     0.5180 N.am  1 <1>  -0.8490 
  5 C        1.5800    -0.5030     0.7090 C.ar  1 <1>  -0.0090 
  6 C       -1.1640     1.1620     0.2440 C.3   1 <1>   0.1960 
  7 C       -2.4900    -0.7450     0.9810 C.3   1 <1>   0.1960 
  8 C        1.8760    -1.2960    -0.3950 C.ar  1 <1>  -0.1500 
  9 C        2.4950     0.4830     1.0670 C.ar  1 <1>  -0.1500 
 10 C       -2.2610     1.5570    -0.7690 C.3   1 <1>   0.3430 
 11 C       -3.6120    -0.3740    -0.0120 C.3   1 <1>   0.3430 
 12 C        3.0400    -1.1130    -1.1200 C.ar  1 <1>  -0.1500 
 13 C        3.6620     0.6750     0.3480 C.ar  1 <1>  -0.1500 
 14 N       -3.6290     1.0990    -0.3320 N.4   1 <1>  -0.9590 
 15 C        3.9410    -0.1300    -0.7490 C.ar  1 <1>   0.0820 
 16 C       -4.6620     1.4150    -1.3660 C.3   1 <1>   0.2630 
 17 O        5.0690     0.0200    -1.4870 O.3   1 <1>  -0.1650 
 18 C        6.2480     0.3780    -0.9210 C.ar  1 <1>   0.0820 
 19 C        6.6680    -0.1530     0.2940 C.ar  1 <1>  -0.1500 
 20 C        7.0510     1.2870    -1.5910 C.ar  1 <1>  -0.1500 
 21 C        7.8770     0.2410     0.8390 C.ar  1 <1>  -0.1500 
 22 C        8.2600     1.6790    -1.0440 C.ar  1 <1>  -0.1500 
 23 C        8.6720     1.1580     0.1710 C.ar  1 <1>  -0.1500 
 24 H       -0.2060     1.4490    -0.1580 H     1 <1>   0.0800 
 25 H       -1.3140     1.7170     1.1560 H     1 <1>   0.0800 
 26 H       -2.7070    -0.3230     1.9490 H     1 <1>   0.0800 
 27 H       -2.4820    -1.8180     1.0900 H     1 <1>   0.0800 
 28 H        1.1860    -2.0710    -0.6890 H     1 <1>   0.1500 
 29 H        2.2960     1.1100     1.9210 H     1 <1>   0.1500 
 30 H       -2.0170     1.1110    -1.7200 H     1 <1>   0.0800 
 31 H       -2.2560     2.6270    -0.8960 H     1 <1>   0.0800 
 32 H       -4.5610    -0.6710     0.4040 H     1 <1>   0.0800 
 33 H       -3.4580    -0.9390    -0.9170 H     1 <1>   0.0800 
 34 H        3.2590    -1.7340    -1.9720 H     1 <1>   0.1500 
 35 H        4.3510     1.4490     0.6380 H     1 <1>   0.1500 
 36 H       -3.8660     1.6030     0.5360 H     1 <1>   0.4500 
 37 H       -4.4420     0.8990    -2.2870 H     1 <1>   0.0800 
 38 H       -4.6850     2.4750    -1.5620 H     1 <1>   0.0800 
 39 H       -5.6390     1.1090    -1.0260 H     1 <1>   0.0800 
 40 H        6.0560    -0.8730     0.8080 H     1 <1>   0.1500 
 41 H        6.7260     1.6850    -2.5360 H     1 <1>   0.1500 
 42 H        8.2020    -0.1670     1.7810 H     1 <1>   0.1500 
 43 H        8.8810     2.3880    -1.5640 H     1 <1>   0.1500 
 44 H        9.6120     1.4640     0.5960 H     1 <1>   0.1500 
@<TRIPOS>BOND
  1   1   2  2   
  2   1   3  2   
  3   1   4  am  
  4   1   5  1   
  5   4   6  1   
  6   4   7  1   
  7   5   8  ar  
  8   5   9  ar  
  9   6  10  1   
 10   6  24  1   
 11   6  25  1   
 12   7  11  1   
 13   7  26  1   
 14   7  27  1   
 15   8  12  ar  
 16   8  28  1   
 17   9  13  ar  
 18   9  29  1   
 19  10  14  1   
 20  10  30  1   
 21  10  31  1   
 22  11  14  1   
 23  11  32  1   
 24  11  33  1   
 25  12  15  ar  
 26  12  34  1   
 27  13  15  ar  
 28  13  35  1   
 29  14  16  1   
 30  14  36  1   
 31  15  17  1   
 32  16  37  1   
 33  16  38  1   
 34  16  39  1   
 35  17  18  1   
 36  18  19  ar  
 37  18  20  ar  
 38  19  21  ar  
 39  19  40  1   
 40  20  22  ar  
 41  20  41  1   
 42  21  23  ar  
 43  21  42  1   
 44  22  23  ar  
 45  22  43  1   
 46  23  44  1   
@<TRIPOS>SUBSTRUCTURE
  1 ****   5 GROUP 4 **** **** 0

# MOE 2024.06 (io_trps.svl 2023.06)
