@<TRIPOS>MOLECULE
NONAME
40 42 1 0 0 
SMALL
USER_CHARGES


@<TRIPOS>ATOM
  1 O       -0.7110    -1.5910     0.5020 O.co2 1 <1>  -0.9000 
  2 C        0.3330    -1.3320     1.1010 C.2   1 <1>   0.9060 
  3 O        0.3930    -0.3910     1.8970 O.co2 1 <1>  -0.9000 
  4 C        1.5770    -2.1640     0.9090 C.3   1 <1>  -0.1860 
  5 C        2.9250    -1.4710     0.5420 C.3   1 <1>  -0.0190 
  6 C        1.4420    -3.1880    -0.2260 C.3   1 <1>   0.2000 
  7 C        3.0780     0.0040     0.1310 C.2   1 <1>   0.5690 
  8 C        3.3430    -2.3400    -0.6560 C.3   1 <1>   0.2000 
  9 O        2.1280    -2.5770    -1.2550 O.3   1 <1>  -0.5600 
 10 C        2.3600    -4.3840     0.0390 C.3   1 <1>  -0.1600 
 11 O        4.1720     0.3240    -0.2800 O.2   1 <1>  -0.5700 
 12 N        2.0840     0.9330     0.2630 N.am  1 <1>  -0.5470 
 13 C        3.7350    -3.7600    -0.2250 C.3   1 <1>  -0.1600 
 14 C        2.0880     2.3020    -0.0770 C.ar  1 <1>   0.1170 
 15 C        1.0760     2.9460    -0.8210 C.ar  1 <1>   0.0830 
 16 C        3.1610     3.0720     0.3630 C.ar  1 <1>  -0.1500 
 17 O       -0.0500     2.3750    -1.3440 O.3   1 <1>  -0.3630 
 18 C        1.1880     4.3000    -1.0930 C.ar  1 <1>  -0.1500 
 19 C        3.2640     4.4250     0.0870 C.ar  1 <1>  -0.1430 
 20 C       -0.5900     1.1610    -0.8670 C.3   1 <1>   0.0400 
 21 C        2.2670     5.0400    -0.6460 C.ar  1 <1>  -0.1500 
 22 C        4.4590     5.2140     0.5880 C.3   1 <1>  -0.0970 
 23 H        1.6910    -2.6860     1.8390 H     1 <1>   0.0800 
 24 H        3.6220    -1.6180     1.3450 H     1 <1>   0.0800 
 25 H        0.4370    -3.4460    -0.5190 H     1 <1>   0.0800 
 26 H        4.0310    -1.8840    -1.3470 H     1 <1>   0.0800 
 27 H        2.1480    -5.1640    -0.6710 H     1 <1>   0.0800 
 28 H        2.2530    -4.7670     1.0370 H     1 <1>   0.0800 
 29 H        1.2470     0.6080     0.7810 H     1 <1>   0.3700 
 30 H        4.3650    -3.7540     0.6460 H     1 <1>   0.0800 
 31 H        4.2370    -4.2630    -1.0320 H     1 <1>   0.0800 
 32 H        3.9330     2.5900     0.9330 H     1 <1>   0.1500 
 33 H        0.4130     4.7760    -1.6650 H     1 <1>   0.1500 
 34 H       -1.5670     1.0310    -1.2910 H     1 <1>   0.0800 
 35 H       -0.6690     1.2040     0.2050 H     1 <1>   0.0800 
 36 H        0.0400     0.3470    -1.1760 H     1 <1>   0.0800 
 37 H        2.3240     6.0890    -0.8730 H     1 <1>   0.1500 
 38 H        5.3480     4.6100     0.5360 H     1 <1>   0.0800 
 39 H        4.2970     5.5070     1.6090 H     1 <1>   0.0800 
 40 H        4.6110     6.0950    -0.0090 H     1 <1>   0.0800 
@<TRIPOS>BOND
  1   1   2  ar  
  2   2   3  ar  
  3   2   4  1   
  4   4   5  1   
  5   4   6  1   
  6   4  23  1   
  7   5   7  1   
  8   5   8  1   
  9   5  24  1   
 10   6   9  1   
 11   6  10  1   
 12   6  25  1   
 13   7  11  2   
 14   7  12  am  
 15   8   9  1   
 16   8  13  1   
 17   8  26  1   
 18  10  13  1   
 19  10  27  1   
 20  10  28  1   
 21  12  14  1   
 22  12  29  1   
 23  13  30  1   
 24  13  31  1   
 25  14  15  ar  
 26  14  16  ar  
 27  15  17  1   
 28  15  18  ar  
 29  16  19  ar  
 30  16  32  1   
 31  17  20  1   
 32  18  21  ar  
 33  18  33  1   
 34  19  21  ar  
 35  19  22  1   
 36  20  34  1   
 37  20  35  1   
 38  20  36  1   
 39  21  37  1   
 40  22  38  1   
 41  22  39  1   
 42  22  40  1   
@<TRIPOS>SUBSTRUCTURE
  1 ****  12 GROUP 4 **** **** 0

# MOE 2024.06 (io_trps.svl 2023.06)
