@<TRIPOS>MOLECULE
NONAME
50 52 1 0 0 
SMALL
USER_CHARGES


@<TRIPOS>ATOM
  1 O       -0.8960    -0.1820    -0.3420 O.3   1 <1>  -0.5600 
  2 C       -1.5910    -1.1110     0.4210 C.3   1 <1>   0.2640 
  3 C       -1.2180     1.1420    -0.0630 C.3   1 <1>   0.0400 
  4 C       -0.9610    -2.4700     0.1550 C.ar  1 <1>  -0.1440 
  5 C        0.2660    -2.8300     0.6890 C.ar  1 <1>   0.0730 
  6 C       -1.5900    -3.3930    -0.6570 C.ar  1 <1>  -0.1500 
  7 C        1.0130    -1.9540     1.5420 C.1   1 <1>   0.4840 
  8 C        0.7840    -4.0940     0.3720 C.ar  1 <1>   0.4100 
  9 C       -0.9920    -4.6150    -0.9060 C.ar  1 <1>   0.1660 
 10 N        1.5900    -1.2540     2.2350 N.1   1 <1>  -0.5570 
 11 N        0.1770    -4.9800    -0.4130 N.ar  1 <1>  -0.6200 
 12 N        2.0140    -4.5090     0.8500 N.pl3 1 <1>  -0.8380 
 13 C       -1.6840    -5.6260    -1.7970 C.3   1 <1>  -0.0970 
 14 C        2.0550    -5.8000     1.6030 C.3   1 <1>   0.2090 
 15 C        3.1670    -4.3040    -0.0720 C.3   1 <1>   0.2090 
 16 C        2.2570    -7.0010     0.6520 C.3   1 <1>   0.3430 
 17 C        3.3310    -5.5120    -1.0210 C.3   1 <1>   0.3430 
 18 N        3.4340    -6.8200    -0.2800 N.4   1 <1>  -0.9590 
 19 C        3.5550    -7.9680    -1.2150 C.3   1 <1>   0.4860 
 20 C        3.8240    -9.2200    -0.4050 C.ar  1 <1>  -0.1430 
 21 C        5.0750    -9.4370     0.1580 C.ar  1 <1>  -0.1500 
 22 C        2.8170   -10.1560    -0.2120 C.ar  1 <1>  -0.1500 
 23 C        5.3090   -10.5700     0.9170 C.ar  1 <1>  -0.1500 
 24 C        3.0540   -11.2880     0.5470 C.ar  1 <1>  -0.1500 
 25 C        4.2990   -11.4940     1.1130 C.ar  1 <1>  -0.1500 
 26 H       -2.6250    -1.0940     0.1240 H     1 <1>   0.0800 
 27 H       -1.5100    -0.8470     1.4620 H     1 <1>   0.0800 
 28 H       -0.6450     1.7710    -0.7220 H     1 <1>   0.0800 
 29 H       -0.9580     1.3630     0.9590 H     1 <1>   0.0800 
 30 H       -2.2690     1.3000    -0.2330 H     1 <1>   0.0800 
 31 H       -2.5410    -3.1570    -1.1020 H     1 <1>   0.1500 
 32 H       -2.6250    -5.2500    -2.1530 H     1 <1>   0.0800 
 33 H       -1.8620    -6.5320    -1.2470 H     1 <1>   0.0800 
 34 H       -1.0600    -5.8490    -2.6430 H     1 <1>   0.0800 
 35 H        1.1300    -5.9300     2.1400 H     1 <1>   0.0800 
 36 H        2.8500    -5.7670     2.3270 H     1 <1>   0.0800 
 37 H        4.0650    -4.1580     0.5030 H     1 <1>   0.0800 
 38 H        3.0060    -3.4140    -0.6570 H     1 <1>   0.0800 
 39 H        1.3560    -7.1160     0.0720 H     1 <1>   0.0800 
 40 H        2.3860    -7.8940     1.2410 H     1 <1>   0.0800 
 41 H        4.2060    -5.3620    -1.6320 H     1 <1>   0.0800 
 42 H        2.4710    -5.5350    -1.6710 H     1 <1>   0.0800 
 43 H        4.2780    -6.8110     0.3040 H     1 <1>   0.4500 
 44 H        4.3700    -7.8070    -1.9020 H     1 <1>   0.0800 
 45 H        2.6460    -8.0840    -1.7830 H     1 <1>   0.0800 
 46 H        5.8800    -8.7380     0.0130 H     1 <1>   0.1500 
 47 H        1.8410   -10.0210    -0.6490 H     1 <1>   0.1500 
 48 H        6.2790   -10.7390     1.3540 H     1 <1>   0.1500 
 49 H        2.2730   -12.0150     0.6960 H     1 <1>   0.1500 
 50 H        4.4830   -12.3760     1.7030 H     1 <1>   0.1500 
@<TRIPOS>BOND
  1   1   2  1   
  2   1   3  1   
  3   2   4  1   
  4   2  26  1   
  5   2  27  1   
  6   3  28  1   
  7   3  29  1   
  8   3  30  1   
  9   4   5  ar  
 10   4   6  ar  
 11   5   7  1   
 12   5   8  ar  
 13   6   9  ar  
 14   6  31  1   
 15   7  10  3   
 16   8  11  ar  
 17   8  12  1   
 18   9  11  ar  
 19   9  13  1   
 20  12  14  1   
 21  12  15  1   
 22  13  32  1   
 23  13  33  1   
 24  13  34  1   
 25  14  16  1   
 26  14  35  1   
 27  14  36  1   
 28  15  17  1   
 29  15  37  1   
 30  15  38  1   
 31  16  18  1   
 32  16  39  1   
 33  16  40  1   
 34  17  18  1   
 35  17  41  1   
 36  17  42  1   
 37  18  19  1   
 38  18  43  1   
 39  19  20  1   
 40  19  44  1   
 41  19  45  1   
 42  20  21  ar  
 43  20  22  ar  
 44  21  23  ar  
 45  21  46  1   
 46  22  24  ar  
 47  22  47  1   
 48  23  25  ar  
 49  23  48  1   
 50  24  25  ar  
 51  24  49  1   
 52  25  50  1   
@<TRIPOS>SUBSTRUCTURE
  1 ****  12 GROUP 4 **** **** 0

# MOE 2024.06 (io_trps.svl 2023.06)
