@<TRIPOS>MOLECULE
NONAME
32 32 1 0 0 
SMALL
USER_CHARGES


@<TRIPOS>ATOM
  1 O       -0.1430    -0.4400    -1.0820 O.2   1 <1>  -0.5700 
  2 C       -0.0830    -1.4410    -0.3920 C.2   1 <1>   0.6340 
  3 O        1.0920    -1.7920     0.1350 O.3   1 <1>  -0.4300 
  4 C       -1.2440    -2.2320    -0.0390 C.ar  1 <1>   0.0860 
  5 C        2.3000    -1.2770    -0.3630 C.3   1 <1>   0.1200 
  6 C       -1.2640    -3.6390    -0.0820 C.ar  1 <1>  -0.1790 
  7 C       -2.3960    -1.5670     0.3870 C.ar  1 <1>  -0.1500 
  8 C        3.4470    -1.9870     0.3540 C.3   1 <1>  -0.1600 
  9 C       -0.1480    -4.4040    -0.5990 C.2   1 <1>   0.9790 
 10 C       -2.4050    -4.3080     0.3640 C.ar  1 <1>  -0.1500 
 11 C       -3.5230    -2.2470     0.8050 C.ar  1 <1>  -0.1500 
 12 C        4.8100    -1.4790    -0.1350 C.3   1 <1>  -0.1600 
 13 O        0.4260    -4.0620    -1.6470 O.co2 1 <1>  -0.9000 
 14 O        0.2100    -5.4500    -0.0300 O.co2 1 <1>  -0.9000 
 15 C       -3.5240    -3.6290     0.8020 C.ar  1 <1>  -0.1500 
 16 C        5.9570    -2.1990     0.5840 C.3   1 <1>  -0.1600 
 17 C        7.3180    -1.6940     0.0970 C.3   1 <1>  -0.2400 
 18 H        2.3170    -0.2160    -0.1860 H     1 <1>   0.0800 
 19 H        2.3300    -1.4750    -1.4220 H     1 <1>   0.0800 
 20 H       -2.3950    -0.4910     0.3930 H     1 <1>   0.1500 
 21 H        3.3640    -3.0440     0.1620 H     1 <1>   0.0800 
 22 H        3.3550    -1.8210     1.4130 H     1 <1>   0.0800 
 23 H       -2.3970    -5.3860     0.3530 H     1 <1>   0.1500 
 24 H       -4.3940    -1.7070     1.1330 H     1 <1>   0.1500 
 25 H        4.8820    -0.4190     0.0430 H     1 <1>   0.0800 
 26 H        4.8890    -1.6490    -1.1950 H     1 <1>   0.0800 
 27 H       -4.3890    -4.1740     1.1350 H     1 <1>   0.1500 
 28 H        5.8840    -3.2580     0.4010 H     1 <1>   0.0800 
 29 H        5.8750    -2.0380     1.6450 H     1 <1>   0.0800 
 30 H        7.4250    -1.8660    -0.9600 H     1 <1>   0.0800 
 31 H        8.1070    -2.2140     0.6100 H     1 <1>   0.0800 
 32 H        7.4190    -0.6400     0.2890 H     1 <1>   0.0800 
@<TRIPOS>BOND
  1   1   2  2   
  2   2   3  1   
  3   2   4  1   
  4   3   5  1   
  5   4   6  ar  
  6   4   7  ar  
  7   5   8  1   
  8   5  18  1   
  9   5  19  1   
 10   6   9  1   
 11   6  10  ar  
 12   7  11  ar  
 13   7  20  1   
 14   8  12  1   
 15   8  21  1   
 16   8  22  1   
 17   9  13  ar  
 18   9  14  ar  
 19  10  15  ar  
 20  10  23  1   
 21  11  15  ar  
 22  11  24  1   
 23  12  16  1   
 24  12  25  1   
 25  12  26  1   
 26  15  27  1   
 27  16  17  1   
 28  16  28  1   
 29  16  29  1   
 30  17  30  1   
 31  17  31  1   
 32  17  32  1   
@<TRIPOS>SUBSTRUCTURE
  1 ****   3 GROUP 4 **** **** 0

# MOE 2024.06 (io_trps.svl 2023.06)
