@<TRIPOS>MOLECULE
NONAME
45 46 1 0 0 
SMALL
USER_CHARGES


@<TRIPOS>ATOM
  1 S       -0.1370     4.8980    -0.5460 S.o   1 <1>   0.2430 
  2 O       -0.1280     5.6160     0.8720 O.2   1 <1>  -0.5000 
  3 C       -1.2440     3.4260    -0.3710 C.ar  1 <1>   0.0640 
  4 C        1.5050     4.0040    -0.7260 C.3   1 <1>   0.0340 
  5 C       -1.5390     2.6740    -1.4940 C.ar  1 <1>  -0.1500 
  6 C       -1.7400     3.0800     0.8730 C.ar  1 <1>  -0.1500 
  7 C        1.9560     3.3880     0.6040 C.3   1 <1>  -0.0160 
  8 C       -2.3350     1.5490    -1.3630 C.ar  1 <1>  -0.1500 
  9 C       -2.5350     1.9530     0.9920 C.ar  1 <1>  -0.1500 
 10 C        3.1810     2.5010     0.4250 C.ar  1 <1>  -0.1440 
 11 C       -2.8380     1.1790    -0.1220 C.ar  1 <1>  -0.1430 
 12 C        3.0760     1.1220     0.4830 C.ar  1 <1>   0.2110 
 13 C        4.4240     3.0720     0.2100 C.ar  1 <1>  -0.1500 
 14 C       -3.7210    -0.0620    -0.0020 C.3   1 <1>   0.0630 
 15 N        4.1580     0.3210     0.3320 N.ar  1 <1>  -0.2100 
 16 C        5.5220     2.2440     0.0550 C.ar  1 <1>  -0.1500 
 17 C       -5.1210     0.3100     0.4970 C.3   1 <1>  -0.2400 
 18 C       -3.0780    -1.1070     0.9160 C.3   1 <1>  -0.2400 
 19 C        5.3830     0.8690     0.1170 C.ar  1 <1>   0.2180 
 20 C        3.9690    -1.1560     0.4110 C.3   1 <1>   0.2480 
 21 C        6.6170    -0.0110    -0.0550 C.3   1 <1>  -0.0970 
 22 H        2.2610     4.6910    -1.0590 H     1 <1>   0.0800 
 23 H        1.4220     3.2280    -1.4640 H     1 <1>   0.0800 
 24 H       -1.1590     2.9600    -2.4590 H     1 <1>   0.1500 
 25 H       -1.5140     3.6820     1.7360 H     1 <1>   0.1500 
 26 H        1.1470     2.8160     1.0240 H     1 <1>   0.0800 
 27 H        2.1770     4.1800     1.3010 H     1 <1>   0.0800 
 28 H       -2.5690     0.9650    -2.2370 H     1 <1>   0.1500 
 29 H       -2.9230     1.6870     1.9590 H     1 <1>   0.1500 
 30 H        2.1120     0.6720     0.6540 H     1 <1>   0.1500 
 31 H        4.5430     4.1440     0.1660 H     1 <1>   0.1500 
 32 H       -3.8300    -0.5060    -0.9770 H     1 <1>   0.0800 
 33 H        6.4890     2.6890    -0.1130 H     1 <1>   0.1500 
 34 H       -5.0810     0.7120     1.4930 H     1 <1>   0.0800 
 35 H       -5.7570    -0.5570     0.5020 H     1 <1>   0.0800 
 36 H       -5.5550     1.0490    -0.1530 H     1 <1>   0.0800 
 37 H       -2.9900    -0.7340     1.9200 H     1 <1>   0.0800 
 38 H       -2.0970    -1.3580     0.5540 H     1 <1>   0.0800 
 39 H       -3.6740    -2.0020     0.9340 H     1 <1>   0.0800 
 40 H        2.9350    -1.4010     0.5850 H     1 <1>   0.0800 
 41 H        4.5550    -1.5560     1.2210 H     1 <1>   0.0800 
 42 H        4.2780    -1.6150    -0.5120 H     1 <1>   0.0800 
 43 H        6.5050    -0.6590    -0.9060 H     1 <1>   0.0800 
 44 H        6.7850    -0.6040     0.8260 H     1 <1>   0.0800 
 45 H        7.4940     0.5910    -0.2160 H     1 <1>   0.0800 
@<TRIPOS>BOND
  1   1   2  2   
  2   1   3  1   
  3   1   4  1   
  4   3   5  ar  
  5   3   6  ar  
  6   4   7  1   
  7   4  22  1   
  8   4  23  1   
  9   5   8  ar  
 10   5  24  1   
 11   6   9  ar  
 12   6  25  1   
 13   7  10  1   
 14   7  26  1   
 15   7  27  1   
 16   8  11  ar  
 17   8  28  1   
 18   9  11  ar  
 19   9  29  1   
 20  10  12  ar  
 21  10  13  ar  
 22  11  14  1   
 23  12  15  ar  
 24  12  30  1   
 25  13  16  ar  
 26  13  31  1   
 27  14  17  1   
 28  14  18  1   
 29  14  32  1   
 30  15  19  ar  
 31  15  20  1   
 32  16  19  ar  
 33  16  33  1   
 34  17  34  1   
 35  17  35  1   
 36  17  36  1   
 37  18  37  1   
 38  18  38  1   
 39  18  39  1   
 40  19  21  1   
 41  20  40  1   
 42  20  41  1   
 43  20  42  1   
 44  21  43  1   
 45  21  44  1   
 46  21  45  1   
@<TRIPOS>SUBSTRUCTURE
  1 ****   7 GROUP 4 **** **** 0

# MOE 2024.06 (io_trps.svl 2023.06)
