@<TRIPOS>MOLECULE
NONAME
44 46 1 0 0 
SMALL
USER_CHARGES


@<TRIPOS>ATOM
  1 F        0.8140    -0.3130     0.2810 F     1 <1>  -0.1900 
  2 C        1.8670    -1.0790     0.4150 C.ar  1 <1>   0.1900 
  3 C        3.0650    -0.6670    -0.1360 C.ar  1 <1>  -0.1500 
  4 C        1.7420    -2.2720     1.1010 C.ar  1 <1>  -0.1500 
  5 C        4.1750    -1.4820     0.0060 C.ar  1 <1>  -0.1500 
  6 C        2.8610    -3.0750     1.2360 C.ar  1 <1>  -0.1500 
  7 C        4.0850    -2.6940     0.6920 C.ar  1 <1>   0.1000 
  8 N        5.1870    -3.5340     0.8380 N.pl3 1 <1>  -0.8380 
  9 C        5.1830    -4.8460     0.1240 C.3   1 <1>   0.2090 
 10 C        6.5200    -2.9870     1.2380 C.3   1 <1>   0.2090 
 11 C        6.2210    -4.8670    -1.0180 C.3   1 <1>   0.3430 
 12 C        7.5360    -3.0600     0.0790 C.3   1 <1>   0.3430 
 13 N        7.5890    -4.4260    -0.5650 N.4   1 <1>  -0.9590 
 14 C        8.5880    -4.4800    -1.6660 C.3   1 <1>   0.4860 
 15 C        9.9540    -4.1820    -1.0830 C.ar  1 <1>  -0.1430 
 16 C       10.5550    -5.0860    -0.2200 C.ar  1 <1>  -0.1500 
 17 C       10.6120    -3.0000    -1.3940 C.ar  1 <1>  -0.1500 
 18 C       11.7880    -4.8140     0.3450 C.ar  1 <1>   0.0830 
 19 C       11.8490    -2.7250    -0.8370 C.ar  1 <1>  -0.1500 
 20 O       12.2850    -5.7520     1.1860 O.3   1 <1>  -0.3630 
 21 C       12.4390    -3.6250     0.0330 C.ar  1 <1>  -0.1500 
 22 C       13.5710    -5.6220     1.7530 C.3   1 <1>   0.0400 
 23 H        3.1180     0.2700    -0.6610 H     1 <1>   0.1500 
 24 H        0.7930    -2.5560     1.5190 H     1 <1>   0.1500 
 25 H        5.1080    -1.1730    -0.4210 H     1 <1>   0.1500 
 26 H        2.7920    -4.0020     1.7740 H     1 <1>   0.1500 
 27 H        4.2040    -5.0330    -0.2850 H     1 <1>   0.0800 
 28 H        5.3970    -5.6310     0.8280 H     1 <1>   0.0800 
 29 H        6.8900    -3.5500     2.0770 H     1 <1>   0.0800 
 30 H        6.4120    -1.9650     1.5620 H     1 <1>   0.0800 
 31 H        5.8700    -4.2090    -1.7960 H     1 <1>   0.0800 
 32 H        6.2700    -5.8630    -1.4260 H     1 <1>   0.0800 
 33 H        8.5100    -2.7930     0.4550 H     1 <1>   0.0800 
 34 H        7.2560    -2.3270    -0.6590 H     1 <1>   0.0800 
 35 H        7.9140    -5.0750     0.1620 H     1 <1>   0.4500 
 36 H        8.3460    -3.7580    -2.4280 H     1 <1>   0.0800 
 37 H        8.6000    -5.4610    -2.1130 H     1 <1>   0.0800 
 38 H       10.0870    -6.0210     0.0320 H     1 <1>   0.1500 
 39 H       10.1780    -2.2830    -2.0710 H     1 <1>   0.1500 
 40 H       12.3600    -1.8080    -1.0810 H     1 <1>   0.1500 
 41 H       13.3980    -3.3860     0.4530 H     1 <1>   0.1500 
 42 H       13.7630    -6.4940     2.3520 H     1 <1>   0.0800 
 43 H       13.5950    -4.7420     2.3710 H     1 <1>   0.0800 
 44 H       14.2980    -5.5580     0.9620 H     1 <1>   0.0800 
@<TRIPOS>BOND
  1   1   2  1   
  2   2   3  ar  
  3   2   4  ar  
  4   3   5  ar  
  5   3  23  1   
  6   4   6  ar  
  7   4  24  1   
  8   5   7  ar  
  9   5  25  1   
 10   6   7  ar  
 11   6  26  1   
 12   7   8  1   
 13   8   9  1   
 14   8  10  1   
 15   9  11  1   
 16   9  27  1   
 17   9  28  1   
 18  10  12  1   
 19  10  29  1   
 20  10  30  1   
 21  11  13  1   
 22  11  31  1   
 23  11  32  1   
 24  12  13  1   
 25  12  33  1   
 26  12  34  1   
 27  13  14  1   
 28  13  35  1   
 29  14  15  1   
 30  14  36  1   
 31  14  37  1   
 32  15  16  ar  
 33  15  17  ar  
 34  16  18  ar  
 35  16  38  1   
 36  17  19  ar  
 37  17  39  1   
 38  18  20  1   
 39  18  21  ar  
 40  19  21  ar  
 41  19  40  1   
 42  20  22  1   
 43  21  41  1   
 44  22  42  1   
 45  22  43  1   
 46  22  44  1   
@<TRIPOS>SUBSTRUCTURE
  1 ****  12 GROUP 4 **** **** 0

# MOE 2024.06 (io_trps.svl 2023.06)
