@<TRIPOS>MOLECULE
NONAME
44 45 1 0 0 
SMALL
USER_CHARGES


@<TRIPOS>ATOM
  1 O        0.2590     0.2140    -1.6010 O.3   1 <1>  -0.6800 
  2 C        0.4050    -1.1380    -1.3480 C.3   1 <1>   0.1200 
  3 C        0.8770    -1.2880     0.1060 C.3   1 <1>   0.3430 
  4 N        1.1820    -2.7150     0.4720 N.4   1 <1>  -0.9590 
  5 C        0.0580    -3.3480     1.2180 C.3   1 <1>   0.4860 
  6 C        2.4580    -2.8330     1.2340 C.3   1 <1>   0.3430 
  7 C       -1.1010    -3.5480     0.2660 C.ar  1 <1>  -0.1430 
  8 C        3.6810    -2.6120     0.3280 C.3   1 <1>  -0.0800 
  9 C       -2.2240    -2.7350     0.3510 C.ar  1 <1>  -0.1500 
 10 C       -1.0460    -4.5380    -0.7060 C.ar  1 <1>  -0.1500 
 11 C        3.7250    -3.6080    -0.8520 C.3   1 <1>  -0.1600 
 12 C        4.9620    -2.7320     1.1730 C.3   1 <1>  -0.1600 
 13 C       -3.2720    -2.9020    -0.5370 C.ar  1 <1>  -0.1500 
 14 C       -2.0960    -4.7020    -1.5920 C.ar  1 <1>  -0.1500 
 15 C        4.9870    -3.4130    -1.7030 C.3   1 <1>  -0.1600 
 16 C        6.2210    -2.5340     0.3200 C.3   1 <1>  -0.1600 
 17 C       -3.2070    -3.8830    -1.5090 C.ar  1 <1>  -0.1500 
 18 C        6.2560    -3.5210    -0.8510 C.3   1 <1>  -0.1600 
 19 H       -0.0820     0.3770    -2.5070 H     1 <1>   0.4000 
 20 H        1.1380    -1.5240    -2.0350 H     1 <1>   0.0800 
 21 H       -0.5470    -1.6110    -1.5110 H     1 <1>   0.0800 
 22 H        0.1190    -0.8920     0.7610 H     1 <1>   0.0800 
 23 H        1.7630    -0.6880     0.2220 H     1 <1>   0.0800 
 24 H        1.2880    -3.2490    -0.3980 H     1 <1>   0.4500 
 25 H       -0.2420    -2.7270     2.0470 H     1 <1>   0.0800 
 26 H        0.3620    -4.3080     1.6030 H     1 <1>   0.0800 
 27 H        2.5320    -3.8190     1.6630 H     1 <1>   0.0800 
 28 H        2.4720    -2.1170     2.0410 H     1 <1>   0.0800 
 29 H        3.6530    -1.6110    -0.0660 H     1 <1>   0.0800 
 30 H       -2.3000    -1.9670     1.1020 H     1 <1>   0.1500 
 31 H       -0.1970    -5.1950    -0.7850 H     1 <1>   0.1500 
 32 H        2.8720    -3.4810    -1.4940 H     1 <1>   0.0800 
 33 H        3.7150    -4.6180    -0.4770 H     1 <1>   0.0800 
 34 H        5.0080    -3.7050     1.6340 H     1 <1>   0.0800 
 35 H        4.9570    -1.9950     1.9590 H     1 <1>   0.0800 
 36 H       -4.1430    -2.2710    -0.4710 H     1 <1>   0.1500 
 37 H       -2.0550    -5.4700    -2.3470 H     1 <1>   0.1500 
 38 H        4.9600    -2.4450    -2.1740 H     1 <1>   0.0800 
 39 H        5.0180    -4.1550    -2.4830 H     1 <1>   0.0800 
 40 H        7.0980    -2.6720     0.9310 H     1 <1>   0.0800 
 41 H        6.2450    -1.5270    -0.0610 H     1 <1>   0.0800 
 42 H       -4.0250    -4.0130    -2.1990 H     1 <1>   0.1500 
 43 H        7.1200    -3.3220    -1.4640 H     1 <1>   0.0800 
 44 H        6.3510    -4.5250    -0.4720 H     1 <1>   0.0800 
@<TRIPOS>BOND
  1   1   2  1   
  2   1  19  1   
  3   2   3  1   
  4   2  20  1   
  5   2  21  1   
  6   3   4  1   
  7   3  22  1   
  8   3  23  1   
  9   4   5  1   
 10   4   6  1   
 11   4  24  1   
 12   5   7  1   
 13   5  25  1   
 14   5  26  1   
 15   6   8  1   
 16   6  27  1   
 17   6  28  1   
 18   7   9  ar  
 19   7  10  ar  
 20   8  11  1   
 21   8  12  1   
 22   8  29  1   
 23   9  13  ar  
 24   9  30  1   
 25  10  14  ar  
 26  10  31  1   
 27  11  15  1   
 28  11  32  1   
 29  11  33  1   
 30  12  16  1   
 31  12  34  1   
 32  12  35  1   
 33  13  17  ar  
 34  13  36  1   
 35  14  17  ar  
 36  14  37  1   
 37  15  18  1   
 38  15  38  1   
 39  15  39  1   
 40  16  18  1   
 41  16  40  1   
 42  16  41  1   
 43  17  42  1   
 44  18  43  1   
 45  18  44  1   
@<TRIPOS>SUBSTRUCTURE
  1 ****   4 GROUP 4 **** **** 0

# MOE 2024.06 (io_trps.svl 2023.06)
