@<TRIPOS>MOLECULE
NONAME
40 41 1 0 0 
SMALL
USER_CHARGES


@<TRIPOS>ATOM
  1 S        0.0830    -0.9850     1.4400 S.o2  1 <1>   1.4470 
  2 O       -0.3450     0.2720     2.0120 O.2   1 <1>  -0.6500 
  3 O        0.2010    -2.1490     2.2940 O.2   1 <1>  -0.6500 
  4 N       -1.0110    -1.3880     0.2090 N.am  1 <1>  -0.8490 
  5 C        1.6440    -0.7280     0.5490 C.ar  1 <1>  -0.0090 
  6 C       -0.7760    -2.7370    -0.3180 C.3   1 <1>   0.1960 
  7 C       -2.3980    -1.2370     0.6580 C.3   1 <1>   0.1960 
  8 C        2.8470    -1.1860     1.0670 C.ar  1 <1>  -0.1500 
  9 C        1.6790    -0.0560    -0.6640 C.ar  1 <1>  -0.1500 
 10 C       -1.6710    -2.9930    -1.5340 C.3   1 <1>  -0.1600 
 11 C       -3.3640    -1.4520    -0.5130 C.3   1 <1>  -0.1600 
 12 C        4.0680    -1.0140     0.4150 C.ar  1 <1>   0.0860 
 13 C        2.8710     0.1350    -1.3370 C.ar  1 <1>  -0.1500 
 14 C       -3.1520    -2.8170    -1.1780 C.3   1 <1>  -0.1600 
 15 C        4.0600    -0.3400    -0.8120 C.ar  1 <1>  -0.1430 
 16 C        5.2760    -1.5420     1.0280 C.2   1 <1>   0.5440 
 17 C        5.3480    -0.1110    -1.5950 C.3   1 <1>  -0.0970 
 18 O        6.2610    -0.8490     1.1850 O.2   1 <1>  -0.5700 
 19 N        5.3090    -2.8450     1.4470 N.am  1 <1>  -0.7300 
 20 C        6.4580    -3.5110     2.1120 C.3   1 <1>   0.0600 
 21 H       -0.9790    -3.4720     0.4450 H     1 <1>   0.0800 
 22 H        0.2540    -2.8380    -0.6170 H     1 <1>   0.0800 
 23 H       -2.5510    -0.2440     1.0480 H     1 <1>   0.0800 
 24 H       -2.6060    -1.9420     1.4470 H     1 <1>   0.0800 
 25 H        2.8380    -1.6910     2.0180 H     1 <1>   0.1500 
 26 H        0.7610     0.3220    -1.0850 H     1 <1>   0.1500 
 27 H       -1.5040    -3.9920    -1.8980 H     1 <1>   0.0800 
 28 H       -1.3990    -2.3070    -2.3170 H     1 <1>   0.0800 
 29 H       -3.2100    -0.6680    -1.2340 H     1 <1>   0.0800 
 30 H       -4.3760    -1.3750    -0.1580 H     1 <1>   0.0800 
 31 H        2.8620     0.6610    -2.2770 H     1 <1>   0.1500 
 32 H       -3.4520    -3.5960    -0.4980 H     1 <1>   0.0800 
 33 H       -3.7570    -2.8930    -2.0640 H     1 <1>   0.0800 
 34 H        5.8980    -1.0310    -1.6870 H     1 <1>   0.0800 
 35 H        5.9640     0.6050    -1.0800 H     1 <1>   0.0800 
 36 H        5.1460     0.2610    -2.5820 H     1 <1>   0.0800 
 37 H        4.4940    -3.4350     1.2720 H     1 <1>   0.3700 
 38 H        7.2640    -2.8120     2.2630 H     1 <1>   0.0800 
 39 H        6.8130    -4.3210     1.5000 H     1 <1>   0.0800 
 40 H        6.1510    -3.8950     3.0690 H     1 <1>   0.0800 
@<TRIPOS>BOND
  1   1   2  2   
  2   1   3  2   
  3   1   4  am  
  4   1   5  1   
  5   4   6  1   
  6   4   7  1   
  7   5   8  ar  
  8   5   9  ar  
  9   6  10  1   
 10   6  21  1   
 11   6  22  1   
 12   7  11  1   
 13   7  23  1   
 14   7  24  1   
 15   8  12  ar  
 16   8  25  1   
 17   9  13  ar  
 18   9  26  1   
 19  10  14  1   
 20  10  27  1   
 21  10  28  1   
 22  11  14  1   
 23  11  29  1   
 24  11  30  1   
 25  12  15  ar  
 26  12  16  1   
 27  13  15  ar  
 28  13  31  1   
 29  14  32  1   
 30  14  33  1   
 31  15  17  1   
 32  16  18  2   
 33  16  19  am  
 34  17  34  1   
 35  17  35  1   
 36  17  36  1   
 37  19  20  1   
 38  19  37  1   
 39  20  38  1   
 40  20  39  1   
 41  20  40  1   
@<TRIPOS>SUBSTRUCTURE
  1 ****   5 GROUP 4 **** **** 0

# MOE 2024.06 (io_trps.svl 2023.06)
