@<TRIPOS>MOLECULE
NONAME
41 44 1 0 0 
SMALL
USER_CHARGES


@<TRIPOS>ATOM
  1 CL       0.3760     0.2250     0.2190 Cl    1 <1>  -0.1770 
  2 C       -0.6760     1.6080     0.2150 C.ar  1 <1>   0.1770 
  3 C       -0.2770     2.7650    -0.3960 C.ar  1 <1>  -0.1500 
  4 C       -1.9090     1.5200     0.8520 C.ar  1 <1>  -0.1500 
  5 C       -1.1240     3.8810    -0.3970 C.ar  1 <1>   0.3610 
  6 C       -2.7520     2.6010     0.8360 C.ar  1 <1>  -0.1500 
  7 N       -0.6880     5.0820    -0.9100 N.ar  1 <1>  -0.1790 
  8 C       -2.4180     3.7980     0.1650 C.ar  1 <1>   0.0000 
  9 C       -1.4590     6.1840    -0.8930 C.ar  1 <1>   0.2110 
 10 C       -3.2900     4.9350     0.0780 C.ar  1 <1>   0.1000 
 11 C       -2.7370     6.1240    -0.4070 C.ar  1 <1>  -0.1500 
 12 N       -4.6080     4.8950     0.4000 N.pl3 1 <1>  -0.8380 
 13 C       -5.3610     6.0330     1.0400 C.3   1 <1>   0.2090 
 14 C       -5.5330     3.7680     0.0220 C.3   1 <1>   0.2090 
 15 C       -6.5060     6.5350     0.1440 C.3   1 <1>   0.1400 
 16 C       -6.6910     4.2600    -0.8680 C.3   1 <1>   0.1400 
 17 N       -7.4110     5.4080    -0.2370 N.am  1 <1>  -0.6600 
 18 C       -8.7530     5.4450     0.0460 C.2   1 <1>   0.6300 
 19 O       -9.2650     6.4060     0.5680 O.2   1 <1>  -0.5700 
 20 C       -9.6470     4.2570    -0.2980 C.3   1 <1>  -0.1000 
 21 C      -10.7810     3.8520     0.6010 C.3   1 <1>  -0.2000 
 22 C       -9.5750     2.9750     0.4860 C.3   1 <1>  -0.2000 
 23 H        0.6920     2.8000    -0.8590 H     1 <1>   0.1500 
 24 H       -2.1750     0.6030     1.3530 H     1 <1>   0.1500 
 25 H       -3.6880     2.5370     1.3630 H     1 <1>   0.1500 
 26 H        0.2630     5.1230    -1.2880 H     1 <1>   0.4570 
 27 H       -1.0600     7.1090    -1.2780 H     1 <1>   0.1500 
 28 H       -3.3440     7.0100    -0.4360 H     1 <1>   0.1500 
 29 H       -4.6990     6.8460     1.2750 H     1 <1>   0.0800 
 30 H       -5.7820     5.6920     1.9700 H     1 <1>   0.0800 
 31 H       -5.9400     3.3240     0.9140 H     1 <1>   0.0800 
 32 H       -4.9950     3.0100    -0.5190 H     1 <1>   0.0800 
 33 H       -6.0980     6.9770    -0.7460 H     1 <1>   0.0800 
 34 H       -7.0520     7.2990     0.6700 H     1 <1>   0.0800 
 35 H       -7.3580     3.4410    -1.0600 H     1 <1>   0.0800 
 36 H       -6.2900     4.5800    -1.8140 H     1 <1>   0.0800 
 37 H       -9.8340     4.2010    -1.3550 H     1 <1>   0.1000 
 38 H      -11.7060     3.5370     0.1490 H     1 <1>   0.1000 
 39 H      -10.9370     4.4140     1.5070 H     1 <1>   0.1000 
 40 H       -8.9140     2.9150     1.3330 H     1 <1>   0.1000 
 41 H       -9.6700     2.0380    -0.0350 H     1 <1>   0.1000 
@<TRIPOS>BOND
  1   1   2  1   
  2   2   3  ar  
  3   2   4  ar  
  4   3   5  ar  
  5   3  23  1   
  6   4   6  ar  
  7   4  24  1   
  8   5   7  ar  
  9   5   8  ar  
 10   6   8  ar  
 11   6  25  1   
 12   7   9  ar  
 13   7  26  1   
 14   8  10  ar  
 15   9  11  ar  
 16   9  27  1   
 17  10  11  ar  
 18  10  12  1   
 19  11  28  1   
 20  12  13  1   
 21  12  14  1   
 22  13  15  1   
 23  13  29  1   
 24  13  30  1   
 25  14  16  1   
 26  14  31  1   
 27  14  32  1   
 28  15  17  1   
 29  15  33  1   
 30  15  34  1   
 31  16  17  1   
 32  16  35  1   
 33  16  36  1   
 34  17  18  am  
 35  18  19  2   
 36  18  20  1   
 37  20  21  1   
 38  20  22  1   
 39  20  37  1   
 40  21  22  1   
 41  21  38  1   
 42  21  39  1   
 43  22  40  1   
 44  22  41  1   
@<TRIPOS>SUBSTRUCTURE
  1 ****  12 GROUP 4 **** **** 0

# MOE 2024.06 (io_trps.svl 2023.06)
