@<TRIPOS>MOLECULE
NONAME
48 50 1 0 0 
SMALL
USER_CHARGES


@<TRIPOS>ATOM
  1 O        0.2380     0.2390     1.1240 O.2   1 <1>  -0.5700 
  2 C        0.1940     1.1550     0.3210 C.2   1 <1>   0.7150 
  3 N       -1.0250     1.4610    -0.2360 N.am  1 <1>  -0.7300 
  4 C        1.3880     1.9060    -0.0420 C.2   1 <1>   0.3930 
  5 C       -2.3040     0.7820     0.0410 C.3   1 <1>   0.2200 
  6 O        1.2940     2.8780    -0.9050 O.3   1 <1>  -0.0190 
  7 N        2.6130     1.7920     0.3500 N.2   1 <1>  -0.5650 
  8 C       -2.8430     0.2330    -1.2870 C.3   1 <1>  -0.1600 
  9 C       -3.2210     1.7910     0.7420 C.3   1 <1>  -0.1600 
 10 N        2.4310     3.4240    -1.1040 N.2   1 <1>  -0.4100 
 11 C        3.2370     2.7650    -0.3410 C.2   1 <1>   0.4620 
 12 C       -3.9920    -0.7660    -1.0840 C.3   1 <1>  -0.1600 
 13 C       -4.6430     1.2830     1.0360 C.3   1 <1>  -0.1600 
 14 C        4.6650     3.0160    -0.2160 C.ar  1 <1>   0.0540 
 15 C       -5.3910    -0.1370    -0.9970 C.3   1 <1>  -0.1600 
 16 C       -5.5070     1.1890    -0.2290 C.3   1 <1>  -0.1600 
 17 C        5.4700     2.2550     0.6330 C.ar  1 <1>  -0.1500 
 18 C        5.2870     4.0310    -0.9430 C.ar  1 <1>  -0.1500 
 19 C        6.8350     2.4890     0.7580 C.ar  1 <1>   0.0820 
 20 C        6.6420     4.2800    -0.8330 C.ar  1 <1>  -0.1500 
 21 O        7.6330     1.7520     1.5850 O.3   1 <1>  -0.3630 
 22 C        7.4310     3.5130     0.0170 C.ar  1 <1>   0.0820 
 23 C        7.1200     0.6990     2.3710 C.3   1 <1>   0.0400 
 24 O        8.7700     3.7190     0.1600 O.3   1 <1>  -0.3630 
 25 C        9.4510     4.7290    -0.5480 C.3   1 <1>   0.0400 
 26 H       -1.0870     2.2280    -0.9070 H     1 <1>   0.3700 
 27 H       -2.1300    -0.0460     0.7100 H     1 <1>   0.0800 
 28 H       -2.0410    -0.2990    -1.7690 H     1 <1>   0.0800 
 29 H       -3.1500     1.0320    -1.9380 H     1 <1>   0.0800 
 30 H       -3.2860     2.6900     0.1550 H     1 <1>   0.0800 
 31 H       -2.7630     2.0470     1.6810 H     1 <1>   0.0800 
 32 H       -3.8060    -1.3490    -0.1970 H     1 <1>   0.0800 
 33 H       -3.9960    -1.4580    -1.9090 H     1 <1>   0.0800 
 34 H       -5.1080     1.9920     1.7000 H     1 <1>   0.0800 
 35 H       -4.6140     0.3380     1.5510 H     1 <1>   0.0800 
 36 H       -6.0480    -0.8580    -0.5400 H     1 <1>   0.0800 
 37 H       -5.7580     0.0280    -1.9950 H     1 <1>   0.0800 
 38 H       -5.2690     2.0060    -0.8880 H     1 <1>   0.0800 
 39 H       -6.5390     1.3140     0.0510 H     1 <1>   0.0800 
 40 H        5.0030     1.4720     1.1970 H     1 <1>   0.1500 
 41 H        4.6990     4.6400    -1.6090 H     1 <1>   0.1500 
 42 H        7.0640     5.0740    -1.4180 H     1 <1>   0.1500 
 43 H        7.9340     0.2760     2.9310 H     1 <1>   0.0800 
 44 H        6.6960    -0.0470     1.7230 H     1 <1>   0.0800 
 45 H        6.3800     1.0940     3.0440 H     1 <1>   0.0800 
 46 H       10.4870     4.6910    -0.2670 H     1 <1>   0.0800 
 47 H        9.0340     5.6840    -0.2800 H     1 <1>   0.0800 
 48 H        9.3510     4.5430    -1.6030 H     1 <1>   0.0800 
@<TRIPOS>BOND
  1   1   2  2   
  2   2   3  am  
  3   2   4  1   
  4   3   5  1   
  5   3  26  1   
  6   4   6  1   
  7   4   7  2   
  8   5   8  1   
  9   5   9  1   
 10   5  27  1   
 11   6  10  1   
 12   7  11  1   
 13   8  12  1   
 14   8  28  1   
 15   8  29  1   
 16   9  13  1   
 17   9  30  1   
 18   9  31  1   
 19  10  11  2   
 20  11  14  1   
 21  12  15  1   
 22  12  32  1   
 23  12  33  1   
 24  13  16  1   
 25  13  34  1   
 26  13  35  1   
 27  14  17  ar  
 28  14  18  ar  
 29  15  16  1   
 30  15  36  1   
 31  15  37  1   
 32  16  38  1   
 33  16  39  1   
 34  17  19  ar  
 35  17  40  1   
 36  18  20  ar  
 37  18  41  1   
 38  19  21  1   
 39  19  22  ar  
 40  20  22  ar  
 41  20  42  1   
 42  21  23  1   
 43  22  24  1   
 44  23  43  1   
 45  23  44  1   
 46  23  45  1   
 47  24  25  1   
 48  25  46  1   
 49  25  47  1   
 50  25  48  1   
@<TRIPOS>SUBSTRUCTURE
  1 ****   7 GROUP 4 **** **** 0

# MOE 2024.06 (io_trps.svl 2023.06)
