@<TRIPOS>MOLECULE
NONAME
46 47 1 0 0 
SMALL
USER_CHARGES


@<TRIPOS>ATOM
  1 O        1.1760    -3.3670    -1.0810 O.2   1 <1>  -0.5700 
  2 C        0.6960    -2.8400    -0.1070 C.2   1 <1>   0.6300 
  3 N        1.2900    -1.7870     0.5060 N.am  1 <1>  -0.7300 
  4 C       -0.5960    -3.3700     0.4890 C.3   1 <1>  -0.1000 
  5 C        2.5250    -1.1120     0.0340 C.3   1 <1>   0.1400 
  6 C       -1.8550    -2.5570     0.5860 C.3   1 <1>  -0.1900 
  7 C       -1.7750    -3.6740    -0.4060 C.3   1 <1>  -0.0600 
  8 C        3.7430    -2.0140     0.2370 C.3   1 <1>   0.1200 
  9 C       -1.9160    -1.1270     0.0330 C.3   1 <1>  -0.1450 
 10 C       -2.7100    -2.7120     1.8510 C.3   1 <1>  -0.1450 
 11 C       -2.6010    -4.9360    -0.2190 C.2   1 <1>  -0.1900 
 12 O        4.9070    -1.2550    -0.0100 O.3   1 <1>  -0.3630 
 13 C       -2.1670    -6.1950    -0.0780 C.2   1 <1>  -0.2760 
 14 C        6.1400    -1.8100     0.1030 C.ar  1 <1>   0.0820 
 15 C       -3.1250    -7.3550     0.1390 C.3   1 <1>  -0.1020 
 16 C       -0.7120    -6.6430    -0.1300 C.3   1 <1>  -0.1020 
 17 C        7.2240    -0.9670    -0.0870 C.ar  1 <1>  -0.1500 
 18 C        6.3610    -3.1540     0.3950 C.ar  1 <1>  -0.1500 
 19 C        8.5160    -1.4510     0.0140 C.ar  1 <1>  -0.1500 
 20 C        7.6550    -3.6370     0.4960 C.ar  1 <1>  -0.1500 
 21 C        8.7320    -2.7870     0.3070 C.ar  1 <1>  -0.1500 
 22 H        0.8250    -1.3780     1.3170 H     1 <1>   0.3700 
 23 H       -0.3950    -4.0760     1.2720 H     1 <1>   0.1000 
 24 H        2.4250    -0.8830    -1.0130 H     1 <1>   0.0800 
 25 H        2.6580    -0.1970     0.5850 H     1 <1>   0.0800 
 26 H       -1.6840    -3.4070    -1.4460 H     1 <1>   0.1000 
 27 H        3.7160    -2.8360    -0.4560 H     1 <1>   0.0800 
 28 H        3.7840    -2.3690     1.2510 H     1 <1>   0.0800 
 29 H       -2.9320    -0.8690    -0.2070 H     1 <1>   0.0800 
 30 H       -1.3270    -1.0310    -0.8620 H     1 <1>   0.0800 
 31 H       -1.5470    -0.4270     0.7610 H     1 <1>   0.0800 
 32 H       -2.3720    -2.0350     2.6150 H     1 <1>   0.0800 
 33 H       -2.6510    -3.7140     2.2380 H     1 <1>   0.0800 
 34 H       -3.7400    -2.4960     1.6290 H     1 <1>   0.0800 
 35 H       -3.6520    -4.7030    -0.2150 H     1 <1>   0.1500 
 36 H       -2.9000    -7.8520     1.0660 H     1 <1>   0.0800 
 37 H       -3.0380    -8.0630    -0.6650 H     1 <1>   0.0800 
 38 H       -4.1420    -7.0090     0.1780 H     1 <1>   0.0800 
 39 H       -0.5990    -7.4440    -0.8380 H     1 <1>   0.0800 
 40 H       -0.3960    -6.9880     0.8370 H     1 <1>   0.0800 
 41 H       -0.0640    -5.8460    -0.4420 H     1 <1>   0.0800 
 42 H        7.0480     0.0680    -0.3140 H     1 <1>   0.1500 
 43 H        5.5460    -3.8360     0.5440 H     1 <1>   0.1500 
 44 H        9.3510    -0.7900    -0.1340 H     1 <1>   0.1500 
 45 H        7.8250    -4.6750     0.7210 H     1 <1>   0.1500 
 46 H        9.7360    -3.1650     0.3860 H     1 <1>   0.1500 
@<TRIPOS>BOND
  1   1   2  2   
  2   2   3  am  
  3   2   4  1   
  4   3   5  1   
  5   3  22  1   
  6   4   6  1   
  7   4   7  1   
  8   4  23  1   
  9   5   8  1   
 10   5  24  1   
 11   5  25  1   
 12   6   7  1   
 13   6   9  1   
 14   6  10  1   
 15   7  11  1   
 16   7  26  1   
 17   8  12  1   
 18   8  27  1   
 19   8  28  1   
 20   9  29  1   
 21   9  30  1   
 22   9  31  1   
 23  10  32  1   
 24  10  33  1   
 25  10  34  1   
 26  11  13  2   
 27  11  35  1   
 28  12  14  1   
 29  13  15  1   
 30  13  16  1   
 31  14  17  ar  
 32  14  18  ar  
 33  15  36  1   
 34  15  37  1   
 35  15  38  1   
 36  16  39  1   
 37  16  40  1   
 38  16  41  1   
 39  17  19  ar  
 40  17  42  1   
 41  18  20  ar  
 42  18  43  1   
 43  19  21  ar  
 44  19  44  1   
 45  20  21  ar  
 46  20  45  1   
 47  21  46  1   
@<TRIPOS>SUBSTRUCTURE
  1 ****   2 GROUP 4 **** **** 0

# MOE 2024.06 (io_trps.svl 2023.06)
