@<TRIPOS>MOLECULE
NONAME
53 55 1 0 0 
SMALL
USER_CHARGES


@<TRIPOS>ATOM
  1 S        0.0500     1.0770    -1.5070 S.3   1 <1>  -0.0800 
  2 C        0.4550    -0.2130    -0.3840 C.2   1 <1>   0.1040 
  3 C       -1.5490     1.2810    -0.8020 C.2   1 <1>  -0.1400 
  4 N        1.6980    -0.8250    -0.4130 N.am  1 <1>  -0.4940 
  5 C       -0.5950    -0.4670     0.4490 C.2   1 <1>  -0.0860 
  6 C       -1.7160     0.4020     0.2030 C.2   1 <1>  -0.1500 
  7 C       -2.4340     2.3600    -1.4100 C.3   1 <1>   0.1000 
  8 C        2.7800    -0.7210    -1.2460 C.2   1 <1>   0.5690 
  9 C       -0.5840    -1.4780     1.4710 C.2   1 <1>   0.7160 
 10 C       -1.9100     3.7480    -1.0320 C.3   1 <1>  -0.2400 
 11 C       -3.8880     2.2050    -0.9530 C.3   1 <1>  -0.2400 
 12 O        2.8160    -0.0280    -2.2330 O.2   1 <1>  -0.5700 
 13 C        4.0090    -1.5430    -0.8980 C.3   1 <1>   0.0450 
 14 O        0.4300    -1.6580     2.1270 O.2   1 <1>  -0.5700 
 15 N       -1.6780    -2.2760     1.7270 N.am  1 <1>  -0.6600 
 16 C        3.6440    -2.8410    -0.1770 C.ar  1 <1>  -0.1430 
 17 C       -1.7740    -3.0950     2.9700 C.3   1 <1>   0.1400 
 18 C       -2.6780    -2.6680     0.6920 C.3   1 <1>   0.1400 
 19 C        3.1630    -3.9530    -0.8630 C.ar  1 <1>  -0.1430 
 20 C        3.7730    -2.8930     1.2040 C.ar  1 <1>  -0.1500 
 21 C       -3.2310    -3.1620     3.4590 C.3   1 <1>   0.1200 
 22 C       -4.0840    -2.7410     1.3090 C.3   1 <1>   0.1200 
 23 C        2.8240    -5.0970    -0.1550 C.ar  1 <1>  -0.1500 
 24 C        2.9880    -3.9520    -2.3770 C.3   1 <1>  -0.0970 
 25 C        3.4280    -4.0350     1.9020 C.ar  1 <1>  -0.1500 
 26 O       -4.0850    -3.5790     2.4300 O.3   1 <1>  -0.5600 
 27 C        2.9540    -5.1400     1.2210 C.ar  1 <1>  -0.1500 
 28 H        1.8350    -1.5120     0.3400 H     1 <1>   0.3700 
 29 H       -2.6000     0.3240     0.8110 H     1 <1>   0.1500 
 30 H       -2.4030     2.2560    -2.4820 H     1 <1>   0.0800 
 31 H       -1.9010     3.8660     0.0370 H     1 <1>   0.0800 
 32 H       -2.5300     4.5140    -1.4630 H     1 <1>   0.0800 
 33 H       -0.9070     3.8790    -1.3970 H     1 <1>   0.0800 
 34 H       -3.9640     2.3300     0.1130 H     1 <1>   0.0800 
 35 H       -4.2550     1.2300    -1.2170 H     1 <1>   0.0800 
 36 H       -4.5070     2.9420    -1.4310 H     1 <1>   0.0800 
 37 H        4.6480    -0.9410    -0.2800 H     1 <1>   0.0800 
 38 H        4.5540    -1.7590    -1.7980 H     1 <1>   0.0800 
 39 H       -1.1580    -2.6700     3.7440 H     1 <1>   0.0800 
 40 H       -1.4170    -4.0900     2.7680 H     1 <1>   0.0800 
 41 H       -2.4190    -3.6390     0.3060 H     1 <1>   0.0800 
 42 H       -2.6790    -1.9800    -0.1330 H     1 <1>   0.0800 
 43 H        4.1370    -2.0410     1.7530 H     1 <1>   0.1500 
 44 H       -3.5570    -2.1980     3.8080 H     1 <1>   0.0800 
 45 H       -3.3180    -3.8690     4.2660 H     1 <1>   0.0800 
 46 H       -4.7820    -3.1460     0.5970 H     1 <1>   0.0800 
 47 H       -4.4210    -1.7640     1.6070 H     1 <1>   0.0800 
 48 H        2.4530    -5.9640    -0.6710 H     1 <1>   0.1500 
 49 H        2.3410    -3.1470    -2.6780 H     1 <1>   0.0800 
 50 H        2.5510    -4.8740    -2.7150 H     1 <1>   0.0800 
 51 H        3.9410    -3.8360    -2.8590 H     1 <1>   0.0800 
 52 H        3.5260    -4.0630     2.9730 H     1 <1>   0.1500 
 53 H        2.6860    -6.0310     1.7600 H     1 <1>   0.1500 
@<TRIPOS>BOND
  1   1   2  1   
  2   1   3  1   
  3   2   4  1   
  4   2   5  2   
  5   3   6  2   
  6   3   7  1   
  7   4   8  am  
  8   4  28  1   
  9   5   6  1   
 10   5   9  1   
 11   6  29  1   
 12   7  10  1   
 13   7  11  1   
 14   7  30  1   
 15   8  12  2   
 16   8  13  1   
 17   9  14  2   
 18   9  15  am  
 19  10  31  1   
 20  10  32  1   
 21  10  33  1   
 22  11  34  1   
 23  11  35  1   
 24  11  36  1   
 25  13  16  1   
 26  13  37  1   
 27  13  38  1   
 28  15  17  1   
 29  15  18  1   
 30  16  19  ar  
 31  16  20  ar  
 32  17  21  1   
 33  17  39  1   
 34  17  40  1   
 35  18  22  1   
 36  18  41  1   
 37  18  42  1   
 38  19  23  ar  
 39  19  24  1   
 40  20  25  ar  
 41  20  43  1   
 42  21  26  1   
 43  21  44  1   
 44  21  45  1   
 45  22  26  1   
 46  22  46  1   
 47  22  47  1   
 48  23  27  ar  
 49  23  48  1   
 50  24  49  1   
 51  24  50  1   
 52  24  51  1   
 53  25  27  ar  
 54  25  52  1   
 55  27  53  1   
@<TRIPOS>SUBSTRUCTURE
  1 ****   5 GROUP 4 **** **** 0

# MOE 2024.06 (io_trps.svl 2023.06)
