@<TRIPOS>MOLECULE
NONAME
48 50 1 0 0 
SMALL
USER_CHARGES


@<TRIPOS>ATOM
  1 O        1.2410     0.2970    -1.8340 O.3   1 <1>  -0.3630 
  2 C        2.2070     0.9350    -1.1260 C.ar  1 <1>   0.0820 
  3 C        0.0340     0.9450    -2.1690 C.3   1 <1>   0.0400 
  4 C        3.3640     0.2210    -0.8730 C.ar  1 <1>  -0.1500 
  5 C        2.0910     2.2400    -0.6560 C.ar  1 <1>  -0.1500 
  6 C        4.4130     0.7780    -0.1550 C.ar  1 <1>   0.1000 
  7 C        3.1300     2.8080     0.0600 C.ar  1 <1>  -0.1500 
  8 N        5.5580     0.0220     0.0860 N.pl3 1 <1>  -0.8380 
  9 C        4.2810     2.0830     0.3100 C.ar  1 <1>  -0.1500 
 10 C        5.4570    -1.0810     1.0820 C.3   1 <1>   0.2090 
 11 C        6.9030     0.6510    -0.0420 C.3   1 <1>   0.2090 
 12 C        6.5450    -2.1430     0.8170 C.3   1 <1>   0.3430 
 13 C        7.9740    -0.4300    -0.2970 C.3   1 <1>   0.3430 
 14 N        7.9310    -1.5500     0.7230 N.4   1 <1>  -0.9590 
 15 C        8.9420    -2.5880     0.4240 C.3   1 <1>   0.4810 
 16 C       10.3040    -1.9460     0.5330 C.2   1 <1>  -0.2880 
 17 C       11.1400    -1.7400    -0.4990 C.2   1 <1>  -0.1780 
 18 C       12.4490    -1.1240    -0.4740 C.ar  1 <1>   0.0280 
 19 C       13.0650    -0.7530    -1.6670 C.ar  1 <1>  -0.1500 
 20 C       13.1410    -0.8790     0.7120 C.ar  1 <1>  -0.1500 
 21 C       14.3110    -0.1540    -1.6790 C.ar  1 <1>  -0.1500 
 22 C       14.3880    -0.2800     0.7060 C.ar  1 <1>  -0.1500 
 23 C       14.9750     0.0860    -0.4910 C.ar  1 <1>  -0.1500 
 24 H       -0.5690     0.2570    -2.7340 H     1 <1>   0.0800 
 25 H        0.2570     1.8110    -2.7670 H     1 <1>   0.0800 
 26 H       -0.4770     1.2210    -1.2640 H     1 <1>   0.0800 
 27 H        3.4480    -0.7800    -1.2470 H     1 <1>   0.1500 
 28 H        1.2070     2.8230    -0.8350 H     1 <1>   0.1500 
 29 H        3.0390     3.8170     0.4250 H     1 <1>   0.1500 
 30 H        5.0740     2.5340     0.8740 H     1 <1>   0.1500 
 31 H        5.5650    -0.6790     2.0740 H     1 <1>   0.0800 
 32 H        4.4840    -1.5390     1.0160 H     1 <1>   0.0800 
 33 H        6.8940     1.3470    -0.8640 H     1 <1>   0.0800 
 34 H        7.1370     1.1950     0.8560 H     1 <1>   0.0800 
 35 H        6.3030    -2.6360    -0.1110 H     1 <1>   0.0800 
 36 H        6.5110    -2.8810     1.6010 H     1 <1>   0.0800 
 37 H        8.9470     0.0350    -0.2940 H     1 <1>   0.0800 
 38 H        7.8080    -0.8350    -1.2810 H     1 <1>   0.0800 
 39 H        8.1650    -1.1380     1.6330 H     1 <1>   0.4500 
 40 H        8.8680    -3.4050     1.1240 H     1 <1>   0.0800 
 41 H        8.7930    -2.9730    -0.5730 H     1 <1>   0.0800 
 42 H       10.5460    -1.6620     1.5420 H     1 <1>   0.1500 
 43 H       10.8490    -2.0510    -1.4890 H     1 <1>   0.1500 
 44 H       12.5680    -0.9300    -2.6040 H     1 <1>   0.1500 
 45 H       12.7160    -1.1610     1.6560 H     1 <1>   0.1500 
 46 H       14.7680     0.1260    -2.6130 H     1 <1>   0.1500 
 47 H       14.9060    -0.0990     1.6320 H     1 <1>   0.1500 
 48 H       15.9460     0.5520    -0.4970 H     1 <1>   0.1500 
@<TRIPOS>BOND
  1   1   2  1   
  2   1   3  1   
  3   2   4  ar  
  4   2   5  ar  
  5   3  24  1   
  6   3  25  1   
  7   3  26  1   
  8   4   6  ar  
  9   4  27  1   
 10   5   7  ar  
 11   5  28  1   
 12   6   8  1   
 13   6   9  ar  
 14   7   9  ar  
 15   7  29  1   
 16   8  10  1   
 17   8  11  1   
 18   9  30  1   
 19  10  12  1   
 20  10  31  1   
 21  10  32  1   
 22  11  13  1   
 23  11  33  1   
 24  11  34  1   
 25  12  14  1   
 26  12  35  1   
 27  12  36  1   
 28  13  14  1   
 29  13  37  1   
 30  13  38  1   
 31  14  15  1   
 32  14  39  1   
 33  15  16  1   
 34  15  40  1   
 35  15  41  1   
 36  16  17  2   
 37  16  42  1   
 38  17  18  1   
 39  17  43  1   
 40  18  19  ar  
 41  18  20  ar  
 42  19  21  ar  
 43  19  44  1   
 44  20  22  ar  
 45  20  45  1   
 46  21  23  ar  
 47  21  46  1   
 48  22  23  ar  
 49  22  47  1   
 50  23  48  1   
@<TRIPOS>SUBSTRUCTURE
  1 ****  13 GROUP 4 **** **** 0

# MOE 2024.06 (io_trps.svl 2023.06)
