@<TRIPOS>MOLECULE
NONAME
53 56 1 0 0 
SMALL
USER_CHARGES


@<TRIPOS>ATOM
  1 O        1.5110    -2.6620    -1.1500 O.2   1 <1>  -0.5700 
  2 C        0.8340    -2.7790    -0.1490 C.2   1 <1>   0.7060 
  3 O       -0.4180    -3.2180    -0.3100 O.3   1 <1>  -0.2330 
  4 C        1.2990    -2.5120     1.1810 C.2   1 <1>   0.0290 
  5 C       -1.2820    -3.4280     0.7140 C.ar  1 <1>   0.0820 
  6 C        2.6410    -2.0270     1.3440 C.2   1 <1>   0.6160 
  7 C        0.4550    -2.6950     2.2320 C.2   1 <1>  -0.1780 
  8 C       -2.5680    -3.8990     0.4490 C.ar  1 <1>   0.0830 
  9 C       -0.8700    -3.1690     2.0250 C.ar  1 <1>   0.0280 
 10 O        2.7910    -0.9200     1.8250 O.2   1 <1>  -0.5700 
 11 N        3.7590    -2.7820     1.0520 N.am  1 <1>  -0.6600 
 12 O       -2.8990    -4.1330    -0.8510 O.3   1 <1>  -0.3630 
 13 C       -3.4470    -4.1090     1.5040 C.ar  1 <1>  -0.1500 
 14 C       -1.7730    -3.3860     3.0650 C.ar  1 <1>  -0.1500 
 15 C        5.1420    -2.2060     1.1170 C.3   1 <1>   0.1400 
 16 C        3.7420    -4.1860     0.5260 C.3   1 <1>   0.1400 
 17 C       -4.1930    -4.5420    -1.2250 C.3   1 <1>   0.1200 
 18 C       -3.0460    -3.8510     2.8070 C.ar  1 <1>  -0.1500 
 19 C        5.8740    -2.3140    -0.2340 C.3   1 <1>   0.2090 
 20 C        4.4310    -4.2810    -0.8470 C.3   1 <1>   0.2090 
 21 C       -4.2230    -4.6690    -2.7450 C.3   1 <1>  -0.2400 
 22 N        5.7990    -3.6870    -0.8180 N.pl3 1 <1>  -0.8380 
 23 C        6.8930    -4.5430    -0.7000 C.ar  1 <1>   0.1000 
 24 C        7.6290    -4.9210    -1.8240 C.ar  1 <1>  -0.1430 
 25 C        7.2650    -5.0410     0.5440 C.ar  1 <1>  -0.1500 
 26 C        8.7090    -5.7790    -1.6870 C.ar  1 <1>  -0.1500 
 27 C        7.2550    -4.3950    -3.2020 C.3   1 <1>  -0.0970 
 28 C        8.3430    -5.8950     0.6770 C.ar  1 <1>  -0.1500 
 29 C        9.0680    -6.2660    -0.4420 C.ar  1 <1>  -0.1500 
 30 H        0.7670    -2.4810     3.2410 H     1 <1>   0.1500 
 31 H       -4.4450    -4.4710     1.3420 H     1 <1>   0.1500 
 32 H       -1.4710    -3.1880     4.0790 H     1 <1>   0.1500 
 33 H        5.7050    -2.7330     1.8650 H     1 <1>   0.0800 
 34 H        5.1120    -1.1710     1.4080 H     1 <1>   0.0800 
 35 H        2.7390    -4.5590     0.4420 H     1 <1>   0.0800 
 36 H        4.2660    -4.8230     1.2160 H     1 <1>   0.0800 
 37 H       -4.8960    -3.7990    -0.8920 H     1 <1>   0.0800 
 38 H       -4.3990    -5.4910    -0.7600 H     1 <1>   0.0800 
 39 H       -3.7350    -4.0160     3.6190 H     1 <1>   0.1500 
 40 H        6.9060    -2.0360    -0.1060 H     1 <1>   0.0800 
 41 H        5.4310    -1.6200    -0.9270 H     1 <1>   0.0800 
 42 H        3.8400    -3.7620    -1.5820 H     1 <1>   0.0800 
 43 H        4.4960    -5.3120    -1.1460 H     1 <1>   0.0800 
 44 H       -3.9960    -3.7210    -3.1990 H     1 <1>   0.0800 
 45 H       -5.2000    -4.9800    -3.0660 H     1 <1>   0.0800 
 46 H       -3.5050    -5.4020    -3.0680 H     1 <1>   0.0800 
 47 H        6.7020    -4.7580     1.4110 H     1 <1>   0.1500 
 48 H        9.2790    -6.0730    -2.5500 H     1 <1>   0.1500 
 49 H        7.2640    -3.3200    -3.1920 H     1 <1>   0.0800 
 50 H        6.2650    -4.7260    -3.4580 H     1 <1>   0.0800 
 51 H        7.9410    -4.7400    -3.9520 H     1 <1>   0.0800 
 52 H        8.6190    -6.2720     1.6450 H     1 <1>   0.1500 
 53 H        9.9080    -6.9310    -0.3450 H     1 <1>   0.1500 
@<TRIPOS>BOND
  1   1   2  2   
  2   2   3  1   
  3   2   4  1   
  4   3   5  1   
  5   4   6  1   
  6   4   7  2   
  7   5   8  ar  
  8   5   9  ar  
  9   6  10  2   
 10   6  11  am  
 11   7   9  1   
 12   7  30  1   
 13   8  12  1   
 14   8  13  ar  
 15   9  14  ar  
 16  11  15  1   
 17  11  16  1   
 18  12  17  1   
 19  13  18  ar  
 20  13  31  1   
 21  14  18  ar  
 22  14  32  1   
 23  15  19  1   
 24  15  33  1   
 25  15  34  1   
 26  16  20  1   
 27  16  35  1   
 28  16  36  1   
 29  17  21  1   
 30  17  37  1   
 31  17  38  1   
 32  18  39  1   
 33  19  22  1   
 34  19  40  1   
 35  19  41  1   
 36  20  22  1   
 37  20  42  1   
 38  20  43  1   
 39  21  44  1   
 40  21  45  1   
 41  21  46  1   
 42  22  23  1   
 43  23  24  ar  
 44  23  25  ar  
 45  24  26  ar  
 46  24  27  1   
 47  25  28  ar  
 48  25  47  1   
 49  26  29  ar  
 50  26  48  1   
 51  27  49  1   
 52  27  50  1   
 53  27  51  1   
 54  28  29  ar  
 55  28  52  1   
 56  29  53  1   
@<TRIPOS>SUBSTRUCTURE
  1 ****  16 GROUP 4 **** **** 0

# MOE 2024.06 (io_trps.svl 2023.06)
