@<TRIPOS>MOLECULE
NONAME
40 42 1 0 0 
SMALL
USER_CHARGES


@<TRIPOS>ATOM
  1 BR      -0.5940     1.2610     1.2070 Br    1 <1>  -0.0580 
  2 C       -2.0450     0.4690     0.2300 C.2   1 <1>   0.0980 
  3 S       -3.4410     0.0060     1.1740 S.3   1 <1>  -0.0800 
  4 C       -2.1830     0.2000    -1.0790 C.2   1 <1>  -0.1500 
  5 C       -4.2400    -0.5740    -0.2900 C.2   1 <1>  -0.1400 
  6 C       -3.4500    -0.4020    -1.3730 C.2   1 <1>  -0.1500 
  7 C       -5.6300    -1.1510    -0.1220 C.3   1 <1>   0.5230 
  8 N       -6.5070    -0.1030     0.4620 N.4   1 <1>  -0.9590 
  9 C       -7.8520    -0.6470     0.8720 C.3   1 <1>   0.3430 
 10 C       -6.6580     1.0850    -0.4610 C.3   1 <1>   0.3430 
 11 C       -8.7550     0.4280     1.5120 C.3   1 <1>   0.2090 
 12 C       -7.5390     2.1980     0.1430 C.3   1 <1>   0.2090 
 13 N       -8.8250     1.6580     0.6730 N.pl3 1 <1>  -0.8380 
 14 C       -9.9820     1.8670    -0.0750 C.ar  1 <1>   0.1000 
 15 C      -10.9580     2.7690     0.3530 C.ar  1 <1>  -0.1430 
 16 C      -10.1820     1.1720    -1.2640 C.ar  1 <1>  -0.1500 
 17 C      -12.1020     2.9570    -0.4040 C.ar  1 <1>  -0.1500 
 18 C      -10.7800     3.5520     1.6460 C.3   1 <1>  -0.0970 
 19 C      -11.3260     1.3650    -2.0160 C.ar  1 <1>  -0.1500 
 20 C      -12.2890     2.2590    -1.5850 C.ar  1 <1>  -0.1500 
 21 H       -1.4480     0.3970    -1.8420 H     1 <1>   0.1500 
 22 H       -3.6910    -0.6730    -2.3880 H     1 <1>   0.1500 
 23 H       -5.5810    -2.0030     0.5370 H     1 <1>   0.0800 
 24 H       -6.0140    -1.4730    -1.0760 H     1 <1>   0.0800 
 25 H       -6.0290     0.2400     1.3060 H     1 <1>   0.4500 
 26 H       -7.7260    -1.4550     1.5730 H     1 <1>   0.0800 
 27 H       -8.3630    -1.0360     0.0070 H     1 <1>   0.0800 
 28 H       -7.1090     0.7680    -1.3860 H     1 <1>   0.0800 
 29 H       -5.6900     1.4980    -0.6920 H     1 <1>   0.0800 
 30 H       -8.3810     0.6890     2.4860 H     1 <1>   0.0800 
 31 H       -9.7480     0.0290     1.6430 H     1 <1>   0.0800 
 32 H       -7.7470     2.9390    -0.6120 H     1 <1>   0.0800 
 33 H       -7.0100     2.6900     0.9400 H     1 <1>   0.0800 
 34 H       -9.4440     0.4770    -1.6070 H     1 <1>   0.1500 
 35 H      -12.8590     3.6500    -0.0810 H     1 <1>   0.1500 
 36 H      -10.7080     2.8740     2.4760 H     1 <1>   0.0800 
 37 H      -11.6070     4.2160     1.8160 H     1 <1>   0.0800 
 38 H       -9.8780     4.1350     1.5960 H     1 <1>   0.0800 
 39 H      -11.4730     0.8240    -2.9340 H     1 <1>   0.1500 
 40 H      -13.1820     2.4140    -2.1660 H     1 <1>   0.1500 
@<TRIPOS>BOND
  1   1   2  1   
  2   2   3  1   
  3   2   4  2   
  4   3   5  1   
  5   4   6  1   
  6   4  21  1   
  7   5   6  2   
  8   5   7  1   
  9   6  22  1   
 10   7   8  1   
 11   7  23  1   
 12   7  24  1   
 13   8   9  1   
 14   8  10  1   
 15   8  25  1   
 16   9  11  1   
 17   9  26  1   
 18   9  27  1   
 19  10  12  1   
 20  10  28  1   
 21  10  29  1   
 22  11  13  1   
 23  11  30  1   
 24  11  31  1   
 25  12  13  1   
 26  12  32  1   
 27  12  33  1   
 28  13  14  1   
 29  14  15  ar  
 30  14  16  ar  
 31  15  17  ar  
 32  15  18  1   
 33  16  19  ar  
 34  16  34  1   
 35  17  20  ar  
 36  17  35  1   
 37  18  36  1   
 38  18  37  1   
 39  18  38  1   
 40  19  20  ar  
 41  19  39  1   
 42  20  40  1   
@<TRIPOS>SUBSTRUCTURE
  1 ****  10 GROUP 4 **** **** 0

# MOE 2024.06 (io_trps.svl 2023.06)
