@<TRIPOS>MOLECULE
NONAME
35 36 1 0 0 
SMALL
USER_CHARGES


@<TRIPOS>ATOM
  1 S       -0.1010     1.3890     0.9430 S.3   1 <1>   0.1810 
  2 N       -1.4040     0.6400     0.1690 N.2   1 <1>  -0.5100 
  3 C        0.9500     1.0410    -0.3940 C.2   1 <1>   0.4340 
  4 C       -0.9360     0.2320    -0.9460 C.2   1 <1>   0.5710 
  5 S        2.6590     1.5610    -0.3280 S.3   1 <1>  -0.2860 
  6 N        0.3750     0.4220    -1.3300 N.2   1 <1>  -0.5650 
  7 S       -1.9640    -0.6350    -2.1260 S.3   1 <1>  -0.2850 
  8 C        2.8660     2.4270     1.3070 C.3   1 <1>   0.1310 
  9 C       -3.6210    -0.7150    -1.3140 C.3   1 <1>  -0.0100 
 10 C        4.2790     2.9600     1.4910 C.2   1 <1>   0.5690 
 11 O        4.4630     3.7990     2.3380 O.2   1 <1>  -0.5700 
 12 N        5.2970     2.4900     0.7290 N.am  1 <1>  -0.7300 
 13 C        6.7040     2.8970     0.8590 C.3   1 <1>   0.2840 
 14 C        7.5670     1.7850     0.2930 C.ar  1 <1>  -0.1430 
 15 C        7.9350     1.7930    -1.0440 C.ar  1 <1>  -0.1500 
 16 C        7.9900     0.7450     1.1060 C.ar  1 <1>  -0.1500 
 17 C        8.7190     0.7750    -1.5590 C.ar  1 <1>  -0.1500 
 18 C        8.7750    -0.2720     0.5900 C.ar  1 <1>  -0.1500 
 19 C        9.1440    -0.2620    -0.7450 C.ar  1 <1>  -0.1430 
 20 C       10.0030    -1.3790    -1.3110 C.3   1 <1>  -0.0970 
 21 H        2.6400     1.7190     2.0810 H     1 <1>   0.0800 
 22 H        2.1670     3.2430     1.3310 H     1 <1>   0.0800 
 23 H       -4.2890    -1.2290    -1.9800 H     1 <1>   0.0800 
 24 H       -3.9500     0.2940    -1.1370 H     1 <1>   0.0800 
 25 H       -3.5080    -1.2500    -0.3880 H     1 <1>   0.0800 
 26 H        5.1240     1.7810     0.0110 H     1 <1>   0.3700 
 27 H        6.9430     3.0710     1.8950 H     1 <1>   0.0800 
 28 H        6.8650     3.8110     0.3140 H     1 <1>   0.0800 
 29 H        7.6130     2.5900    -1.6910 H     1 <1>   0.1500 
 30 H        7.7080     0.7230     2.1440 H     1 <1>   0.1500 
 31 H        8.9960     0.7930    -2.5990 H     1 <1>   0.1500 
 32 H        9.0950    -1.0720     1.2330 H     1 <1>   0.1500 
 33 H       10.6060    -1.0150    -2.1230 H     1 <1>   0.0800 
 34 H        9.3740    -2.1720    -1.6730 H     1 <1>   0.0800 
 35 H       10.6560    -1.7710    -0.5520 H     1 <1>   0.0800 
@<TRIPOS>BOND
  1   1   2  1   
  2   1   3  1   
  3   2   4  2   
  4   3   5  1   
  5   3   6  2   
  6   4   6  1   
  7   4   7  1   
  8   5   8  1   
  9   7   9  1   
 10   8  10  1   
 11   8  21  1   
 12   8  22  1   
 13   9  23  1   
 14   9  24  1   
 15   9  25  1   
 16  10  11  2   
 17  10  12  am  
 18  12  13  1   
 19  12  26  1   
 20  13  14  1   
 21  13  27  1   
 22  13  28  1   
 23  14  15  ar  
 24  14  16  ar  
 25  15  17  ar  
 26  15  29  1   
 27  16  18  ar  
 28  16  30  1   
 29  17  19  ar  
 30  17  31  1   
 31  18  19  ar  
 32  18  32  1   
 33  19  20  1   
 34  20  33  1   
 35  20  34  1   
 36  20  35  1   
@<TRIPOS>SUBSTRUCTURE
  1 ****   5 GROUP 4 **** **** 0

# MOE 2024.06 (io_trps.svl 2023.06)
