@<TRIPOS>MOLECULE
NONAME
42 43 1 0 0 
SMALL
USER_CHARGES


@<TRIPOS>ATOM
  1 O       -5.2820     4.3060    -1.3390 O.3   1 <1>  -0.3630 
  2 C       -4.2650     4.5060    -0.4600 C.ar  1 <1>   0.0830 
  3 C       -6.0570     5.4410    -1.6740 C.3   1 <1>   0.2640 
  4 C       -3.0850     5.1220    -0.8850 C.ar  1 <1>   0.0820 
  5 C       -4.4030     4.0640     0.8540 C.ar  1 <1>  -0.1440 
  6 C       -7.2130     5.4930    -0.6890 C.ar  1 <1>  -0.1440 
  7 O       -3.0090     5.5270    -2.1850 O.3   1 <1>  -0.3630 
  8 C       -2.0460     5.2930     0.0230 C.ar  1 <1>  -0.1500 
  9 C       -3.3530     4.2440     1.7430 C.ar  1 <1>  -0.1500 
 10 C       -5.6840     3.4080     1.3330 C.3   1 <1>   0.4870 
 11 C       -8.3430     4.7170    -0.8980 C.ar  1 <1>  -0.1500 
 12 C       -7.1380     6.2970     0.4370 C.ar  1 <1>  -0.1500 
 13 C       -1.8230     6.0770    -2.7180 C.3   1 <1>   0.0400 
 14 C       -2.1830     4.8540     1.3280 C.ar  1 <1>  -0.1500 
 15 N       -5.9770     2.2710     0.4410 N.4   1 <1>  -0.9060 
 16 C       -9.3770     4.7290     0.0210 C.ar  1 <1>  -0.1500 
 17 C       -8.1720     6.3060     1.3570 C.ar  1 <1>  -0.1500 
 18 C       -7.3240     1.6830     0.6660 C.3   1 <1>   0.2630 
 19 C       -9.2940     5.5180     1.1570 C.ar  1 <1>  -0.1430 
 20 C      -10.4320     5.5440     2.1620 C.3   1 <1>  -0.0970 
 21 H       -6.4140     5.3150    -2.6810 H     1 <1>   0.0800 
 22 H       -5.4480     6.3270    -1.6260 H     1 <1>   0.0800 
 23 H       -1.1240     5.7640    -0.2630 H     1 <1>   0.1500 
 24 H       -3.4310     3.9180     2.7670 H     1 <1>   0.1500 
 25 H       -6.4910     4.1210     1.3000 H     1 <1>   0.0800 
 26 H       -5.5700     3.0670     2.3490 H     1 <1>   0.0800 
 27 H       -8.4250     4.1050    -1.7800 H     1 <1>   0.1500 
 28 H       -6.2750     6.9200     0.6050 H     1 <1>   0.1500 
 29 H       -1.9900     6.2850    -3.7590 H     1 <1>   0.0800 
 30 H       -1.0270     5.3620    -2.6130 H     1 <1>   0.0800 
 31 H       -1.5950     6.9900    -2.1970 H     1 <1>   0.0800 
 32 H       -1.3720     4.9920     2.0240 H     1 <1>   0.1500 
 33 H       -5.2190     1.5830     0.5100 H     1 <1>   0.4500 
 34 H       -5.9060     2.6790    -0.5090 H     1 <1>   0.4500 
 35 H      -10.2560     4.1340    -0.1560 H     1 <1>   0.1500 
 36 H       -8.1060     6.9390     2.2260 H     1 <1>   0.1500 
 37 H       -7.3900     1.2600     1.6550 H     1 <1>   0.0800 
 38 H       -7.5160     0.9050    -0.0560 H     1 <1>   0.0800 
 39 H       -8.0830     2.4430     0.5630 H     1 <1>   0.0800 
 40 H      -10.9870     4.6240     2.1360 H     1 <1>   0.0800 
 41 H      -11.1000     6.3550     1.9300 H     1 <1>   0.0800 
 42 H      -10.0540     5.6860     3.1580 H     1 <1>   0.0800 
@<TRIPOS>BOND
  1   1   2  1   
  2   1   3  1   
  3   2   4  ar  
  4   2   5  ar  
  5   3   6  1   
  6   3  21  1   
  7   3  22  1   
  8   4   7  1   
  9   4   8  ar  
 10   5   9  ar  
 11   5  10  1   
 12   6  11  ar  
 13   6  12  ar  
 14   7  13  1   
 15   8  14  ar  
 16   8  23  1   
 17   9  14  ar  
 18   9  24  1   
 19  10  15  1   
 20  10  25  1   
 21  10  26  1   
 22  11  16  ar  
 23  11  27  1   
 24  12  17  ar  
 25  12  28  1   
 26  13  29  1   
 27  13  30  1   
 28  13  31  1   
 29  14  32  1   
 30  15  18  1   
 31  15  33  1   
 32  15  34  1   
 33  16  19  ar  
 34  16  35  1   
 35  17  19  ar  
 36  17  36  1   
 37  18  37  1   
 38  18  38  1   
 39  18  39  1   
 40  19  20  1   
 41  20  40  1   
 42  20  41  1   
 43  20  42  1   
@<TRIPOS>SUBSTRUCTURE
  1 ****   1 GROUP 4 **** **** 0

# MOE 2024.06 (io_trps.svl 2023.06)
