@<TRIPOS>MOLECULE
NONAME
33 34 1 0 0 
SMALL
USER_CHARGES


@<TRIPOS>ATOM
  1 O        0.3090    -0.6060    -1.1230 O.2   1 <1>  -0.5700 
  2 C        0.2680    -1.6450    -0.4900 C.2   1 <1>   0.4140 
  3 C        1.3460    -2.1890     0.2400 C.3   1 <1>  -0.7150 
  4 C       -1.0540    -2.3780    -0.6100 C.3   1 <1>  -0.0990 
  5 C        1.2760    -3.5200     0.7010 C.2   1 <1>   0.4140 
  6 C        2.4760    -1.3900     0.5150 C.2   1 <1>   0.4140 
  7 C       -1.2000    -3.4870     0.4310 C.3   1 <1>   0.0630 
  8 O        2.1380    -4.0820     1.3530 O.2   1 <1>  -0.5700 
  9 C        0.0500    -4.3630     0.4210 C.3   1 <1>  -0.0990 
 10 O        2.3980    -0.2110     0.8230 O.2   1 <1>  -0.5700 
 11 C        3.8900    -1.9630     0.4670 C.3   1 <1>  -0.0990 
 12 C       -2.4720    -4.3070     0.2120 C.ar  1 <1>  -0.1440 
 13 C        4.8940    -1.0590    -0.2660 C.3   1 <1>  -0.2400 
 14 C       -2.6610    -5.0510    -0.9450 C.ar  1 <1>  -0.1500 
 15 C       -3.4630    -4.3150     1.1830 C.ar  1 <1>  -0.1500 
 16 C       -3.8180    -5.7900    -1.1280 C.ar  1 <1>  -0.1500 
 17 C       -4.6210    -5.0530     1.0030 C.ar  1 <1>  -0.1500 
 18 C       -4.7990    -5.7910    -0.1530 C.ar  1 <1>  -0.1500 
 19 H       -1.1130    -2.7810    -1.6020 H     1 <1>   0.0800 
 20 H       -1.8530    -1.6700    -0.4880 H     1 <1>   0.0800 
 21 H       -1.2500    -3.0140     1.3980 H     1 <1>   0.0800 
 22 H       -0.0400    -5.1190     1.1790 H     1 <1>   0.0800 
 23 H        0.1790    -4.8450    -0.5280 H     1 <1>   0.0800 
 24 H        3.8650    -2.9110    -0.0360 H     1 <1>   0.0800 
 25 H        4.2150    -2.1280     1.4770 H     1 <1>   0.0800 
 26 H        4.5480    -0.8730    -1.2670 H     1 <1>   0.0800 
 27 H        5.8600    -1.5280    -0.3050 H     1 <1>   0.0800 
 28 H        4.9810    -0.1170     0.2460 H     1 <1>   0.0800 
 29 H       -1.9060    -5.0590    -1.7120 H     1 <1>   0.1500 
 30 H       -3.3370    -3.7450     2.0870 H     1 <1>   0.1500 
 31 H       -3.9530    -6.3620    -2.0280 H     1 <1>   0.1500 
 32 H       -5.3820    -5.0510     1.7630 H     1 <1>   0.1500 
 33 H       -5.6980    -6.3650    -0.2940 H     1 <1>   0.1500 
@<TRIPOS>BOND
  1   1   2  2   
  2   2   3  1   
  3   2   4  1   
  4   3   5  1   
  5   3   6  1   
  6   4   7  1   
  7   4  19  1   
  8   4  20  1   
  9   5   8  2   
 10   5   9  1   
 11   6  10  2   
 12   6  11  1   
 13   7   9  1   
 14   7  12  1   
 15   7  21  1   
 16   9  22  1   
 17   9  23  1   
 18  11  13  1   
 19  11  24  1   
 20  11  25  1   
 21  12  14  ar  
 22  12  15  ar  
 23  13  26  1   
 24  13  27  1   
 25  13  28  1   
 26  14  16  ar  
 27  14  29  1   
 28  15  17  ar  
 29  15  30  1   
 30  16  18  ar  
 31  16  31  1   
 32  17  18  ar  
 33  17  32  1   
 34  18  33  1   
@<TRIPOS>SUBSTRUCTURE
  1 ****   7 GROUP 4 **** **** 0

# MOE 2024.06 (io_trps.svl 2023.06)
