@<TRIPOS>MOLECULE
NONAME
36 37 1 0 0 
SMALL
USER_CHARGES


@<TRIPOS>ATOM
  1 BR       0.5450     1.0930     2.4210 Br    1 <1>  -0.1110 
  2 C        1.2550     2.3050     1.0980 C.ar  1 <1>   0.1110 
  3 C        0.4630     3.3310     0.6020 C.ar  1 <1>   0.0820 
  4 C        2.5580     2.0990     0.6810 C.ar  1 <1>  -0.1500 
  5 O       -0.8140     3.4540     1.0400 O.3   1 <1>  -0.3630 
  6 C        1.0260     4.1990    -0.3430 C.ar  1 <1>   0.0830 
  7 C        3.1020     2.9500    -0.2700 C.ar  1 <1>  -0.1440 
  8 C       -1.7880     2.7940     0.2670 C.3   1 <1>   0.1200 
  9 O        0.3970     5.2700    -0.8960 O.3   1 <1>  -0.3630 
 10 C        2.3270     3.9860    -0.7760 C.ar  1 <1>  -0.1500 
 11 C        4.5260     2.7660    -0.7450 C.3   1 <1>   0.4860 
 12 C       -3.1490     3.0380     0.9110 C.3   1 <1>  -0.2400 
 13 C       -0.4910     6.0540    -0.1260 C.3   1 <1>   0.0400 
 14 N        5.3670     3.6610     0.0740 N.4   1 <1>  -0.7990 
 15 C        6.7900     3.5850    -0.2660 C.3   1 <1>   0.2960 
 16 C        7.6120     2.5280     0.3880 C.3   1 <1>  -0.2000 
 17 C        7.7720     3.9680     0.7850 C.3   1 <1>  -0.2000 
 18 H        3.1130     1.2780     1.1030 H     1 <1>   0.1500 
 19 H       -1.5580     1.7420     0.2490 H     1 <1>   0.0800 
 20 H       -1.7580     3.1900    -0.7340 H     1 <1>   0.0800 
 21 H        2.7140     4.6600    -1.5220 H     1 <1>   0.1500 
 22 H        4.6040     3.0250    -1.7890 H     1 <1>   0.0800 
 23 H        4.8320     1.7400    -0.6160 H     1 <1>   0.0800 
 24 H       -3.1580     2.6460     1.9120 H     1 <1>   0.0800 
 25 H       -3.9150     2.5430     0.3420 H     1 <1>   0.0800 
 26 H       -3.3660     4.0910     0.9350 H     1 <1>   0.0800 
 27 H       -0.5610     7.0260    -0.5800 H     1 <1>   0.0800 
 28 H       -0.1110     6.1430     0.8770 H     1 <1>   0.0800 
 29 H       -1.4600     5.5890    -0.1230 H     1 <1>   0.0800 
 30 H        5.2330     3.4190     1.0610 H     1 <1>   0.4500 
 31 H        5.0230     4.6220    -0.0330 H     1 <1>   0.4500 
 32 H        7.0130     3.8540    -1.2890 H     1 <1>   0.1000 
 33 H        8.4200     2.0740    -0.1610 H     1 <1>   0.1000 
 34 H        7.1730     1.8520     1.1010 H     1 <1>   0.1000 
 35 H        7.4360     4.2690     1.7620 H     1 <1>   0.1000 
 36 H        8.6830     4.4650     0.4960 H     1 <1>   0.1000 
@<TRIPOS>BOND
  1   1   2  1   
  2   2   3  ar  
  3   2   4  ar  
  4   3   5  1   
  5   3   6  ar  
  6   4   7  ar  
  7   4  18  1   
  8   5   8  1   
  9   6   9  1   
 10   6  10  ar  
 11   7  10  ar  
 12   7  11  1   
 13   8  12  1   
 14   8  19  1   
 15   8  20  1   
 16   9  13  1   
 17  10  21  1   
 18  11  14  1   
 19  11  22  1   
 20  11  23  1   
 21  12  24  1   
 22  12  25  1   
 23  12  26  1   
 24  13  27  1   
 25  13  28  1   
 26  13  29  1   
 27  14  15  1   
 28  14  30  1   
 29  14  31  1   
 30  15  16  1   
 31  15  17  1   
 32  15  32  1   
 33  16  17  1   
 34  16  33  1   
 35  16  34  1   
 36  17  35  1   
 37  17  36  1   
@<TRIPOS>SUBSTRUCTURE
  1 ****   7 GROUP 4 **** **** 0

# MOE 2024.06 (io_trps.svl 2023.06)
