@<TRIPOS>MOLECULE
NONAME
49 52 1 0 0 
SMALL
USER_CHARGES


@<TRIPOS>ATOM
  1 CL      -1.2910    -0.4540    -2.2880 Cl    1 <1>  -0.1770 
  2 C       -2.2870     0.5650    -1.2820 C.ar  1 <1>   0.1770 
  3 C       -2.5570     1.8570    -1.6850 C.ar  1 <1>  -0.1500 
  4 C       -2.7880     0.0600    -0.0980 C.ar  1 <1>  -0.1500 
  5 C       -3.3460     2.6970    -0.8990 C.ar  1 <1>   0.0860 
  6 C       -3.5800     0.8730     0.6940 C.ar  1 <1>  -0.1500 
  7 C       -3.6230     4.0600    -1.3180 C.2   1 <1>   0.5440 
  8 C       -3.8540     2.1700     0.2940 C.ar  1 <1>  -0.1500 
  9 O       -3.6290     4.3590    -2.4940 O.2   1 <1>  -0.5700 
 10 N       -3.8740     5.0350    -0.3990 N.am  1 <1>  -0.7300 
 11 C       -4.1450     6.4810    -0.7140 C.3   1 <1>   0.2810 
 12 C       -3.1710     7.4050     0.0390 C.2   1 <1>   0.6590 
 13 C       -5.6450     6.8300    -0.4620 C.3   1 <1>   0.0000 
 14 O       -2.6950     8.3890    -0.4710 O.2   1 <1>  -0.5700 
 15 O       -2.8690     7.0570     1.2910 O.3   1 <1>  -0.4300 
 16 C       -6.5540     5.9480    -1.3600 C.3   1 <1>  -0.1600 
 17 C       -5.9240     8.3130    -0.8270 C.3   1 <1>  -0.1600 
 18 C       -6.0680     6.6120     1.0160 C.3   1 <1>  -0.1600 
 19 C       -1.9820     7.8240     2.0790 C.3   1 <1>   0.0400 
 20 C       -8.0410     6.2910    -1.1610 C.3   1 <1>  -0.0800 
 21 C       -7.4090     8.6690    -0.6260 C.3   1 <1>  -0.0800 
 22 C       -7.5540     6.9590     1.2220 C.3   1 <1>  -0.0800 
 23 C       -8.2730     7.7680    -1.5250 C.3   1 <1>  -0.1600 
 24 C       -8.4170     6.0640     0.3140 C.3   1 <1>  -0.1600 
 25 C       -7.7880     8.4340     0.8470 C.3   1 <1>  -0.1600 
 26 H       -2.1550     2.2190    -2.6150 H     1 <1>   0.1500 
 27 H       -2.5620    -0.9510     0.1920 H     1 <1>   0.1500 
 28 H       -3.9830     0.4930     1.6170 H     1 <1>   0.1500 
 29 H       -4.4830     2.7810     0.9170 H     1 <1>   0.1500 
 30 H       -3.7240     4.8510     0.5940 H     1 <1>   0.3700 
 31 H       -3.9530     6.6420    -1.7600 H     1 <1>   0.0800 
 32 H       -6.4110     4.9070    -1.1310 H     1 <1>   0.0800 
 33 H       -6.2890     6.0850    -2.3940 H     1 <1>   0.0800 
 34 H       -5.6510     8.4950    -1.8520 H     1 <1>   0.0800 
 35 H       -5.3340     8.9720    -0.2150 H     1 <1>   0.0800 
 36 H       -5.4770     7.2290     1.6690 H     1 <1>   0.0800 
 37 H       -5.9080     5.5870     1.3000 H     1 <1>   0.0800 
 38 H       -1.8910     7.3600     3.0440 H     1 <1>   0.0800 
 39 H       -2.3800     8.8190     2.1810 H     1 <1>   0.0800 
 40 H       -1.0230     7.8580     1.5900 H     1 <1>   0.0800 
 41 H       -8.6460     5.6630    -1.7920 H     1 <1>   0.0800 
 42 H       -7.5730     9.7020    -0.8830 H     1 <1>   0.0800 
 43 H       -7.8260     6.7990     2.2510 H     1 <1>   0.0800 
 44 H       -9.3120     8.0160    -1.3990 H     1 <1>   0.0800 
 45 H       -8.0200     7.9330    -2.5580 H     1 <1>   0.0800 
 46 H       -8.2690     5.0300     0.5730 H     1 <1>   0.0800 
 47 H       -9.4590     6.2910     0.4620 H     1 <1>   0.0800 
 48 H       -7.1970     9.0700     1.4830 H     1 <1>   0.0800 
 49 H       -8.8220     8.6890     1.0010 H     1 <1>   0.0800 
@<TRIPOS>BOND
  1   1   2  1   
  2   2   3  ar  
  3   2   4  ar  
  4   3   5  ar  
  5   3  26  1   
  6   4   6  ar  
  7   4  27  1   
  8   5   7  1   
  9   5   8  ar  
 10   6   8  ar  
 11   6  28  1   
 12   7   9  2   
 13   7  10  am  
 14   8  29  1   
 15  10  11  1   
 16  10  30  1   
 17  11  12  1   
 18  11  13  1   
 19  11  31  1   
 20  12  14  2   
 21  12  15  1   
 22  13  16  1   
 23  13  17  1   
 24  13  18  1   
 25  15  19  1   
 26  16  20  1   
 27  16  32  1   
 28  16  33  1   
 29  17  21  1   
 30  17  34  1   
 31  17  35  1   
 32  18  22  1   
 33  18  36  1   
 34  18  37  1   
 35  19  38  1   
 36  19  39  1   
 37  19  40  1   
 38  20  23  1   
 39  20  24  1   
 40  20  41  1   
 41  21  23  1   
 42  21  25  1   
 43  21  42  1   
 44  22  24  1   
 45  22  25  1   
 46  22  43  1   
 47  23  44  1   
 48  23  45  1   
 49  24  46  1   
 50  24  47  1   
 51  25  48  1   
 52  25  49  1   
@<TRIPOS>SUBSTRUCTURE
  1 ****  10 GROUP 4 **** **** 0

# MOE 2024.06 (io_trps.svl 2023.06)
