@<TRIPOS>MOLECULE
NONAME
44 46 1 0 0 
SMALL
USER_CHARGES


@<TRIPOS>ATOM
  1 F       -2.2060     0.4970     2.6820 F     1 <1>  -0.1900 
  2 C       -2.5420     1.0130     1.5320 C.ar  1 <1>   0.1900 
  3 C       -3.6480     0.5040     0.8780 C.ar  1 <1>  -0.1500 
  4 C       -1.7860     2.0460     1.0150 C.ar  1 <1>  -0.1500 
  5 C       -4.0180     1.0550    -0.3420 C.ar  1 <1>  -0.1440 
  6 C       -2.1540     2.5860    -0.2050 C.ar  1 <1>  -0.1500 
  7 C       -3.2620     2.0920    -0.8790 C.ar  1 <1>  -0.1500 
  8 C       -5.2390     0.5340    -1.0780 C.3   1 <1>   0.4870 
  9 N       -6.4600     0.9960    -0.3650 N.4   1 <1>  -0.9590 
 10 C       -7.6810     0.3270    -0.8940 C.3   1 <1>   0.3430 
 11 C       -6.5830     2.4840    -0.3830 C.3   1 <1>   0.3430 
 12 C       -8.8890     0.7180    -0.0450 C.3   1 <1>  -0.1600 
 13 C       -7.7740     2.9150     0.4730 C.3   1 <1>  -0.1600 
 14 C       -9.0790     2.2450     0.0120 C.3   1 <1>  -0.0800 
 15 C      -10.2540     2.6460     0.9240 C.3   1 <1>  -0.0170 
 16 C      -11.5590     2.0170     0.4600 C.ar  1 <1>  -0.1430 
 17 C      -12.2090     2.5080    -0.6620 C.ar  1 <1>  -0.1500 
 18 C      -12.1080     0.9450     1.1480 C.ar  1 <1>  -0.1500 
 19 C      -13.3870     1.9270    -1.0990 C.ar  1 <1>  -0.1500 
 20 C      -13.2860     0.3640     0.7120 C.ar  1 <1>  -0.1500 
 21 C      -13.9250     0.8530    -0.4120 C.ar  1 <1>  -0.1500 
 22 H       -4.1880    -0.3080     1.3320 H     1 <1>   0.1500 
 23 H       -0.9310     2.4130     1.5550 H     1 <1>   0.1500 
 24 H       -1.5730     3.3880    -0.6300 H     1 <1>   0.1500 
 25 H       -3.5200     2.5290    -1.8300 H     1 <1>   0.1500 
 26 H       -5.2060    -0.5430    -1.0980 H     1 <1>   0.0800 
 27 H       -5.2400     0.8940    -2.0940 H     1 <1>   0.0800 
 28 H       -6.3490     0.7240     0.6190 H     1 <1>   0.4500 
 29 H       -7.5600    -0.7450    -0.8690 H     1 <1>   0.0800 
 30 H       -7.8510     0.6270    -1.9160 H     1 <1>   0.0800 
 31 H       -6.7240     2.8280    -1.3950 H     1 <1>   0.0800 
 32 H       -5.6840     2.9370     0.0070 H     1 <1>   0.0800 
 33 H       -8.7770     0.3180     0.9470 H     1 <1>   0.0800 
 34 H       -9.7630     0.2610    -0.4790 H     1 <1>   0.0800 
 35 H       -7.8770     3.9840     0.4070 H     1 <1>   0.0800 
 36 H       -7.5740     2.6750     1.5030 H     1 <1>   0.0800 
 37 H       -9.3030     2.5940    -0.9830 H     1 <1>   0.0800 
 38 H      -10.3690     3.7170     0.9200 H     1 <1>   0.0800 
 39 H      -10.0520     2.3510     1.9390 H     1 <1>   0.0800 
 40 H      -11.8050     3.3450    -1.2020 H     1 <1>   0.1500 
 41 H      -11.6250     0.5550     2.0270 H     1 <1>   0.1500 
 42 H      -13.8870     2.3120    -1.9700 H     1 <1>   0.1500 
 43 H      -13.7080    -0.4680     1.2500 H     1 <1>   0.1500 
 44 H      -14.8410     0.4020    -0.7510 H     1 <1>   0.1500 
@<TRIPOS>BOND
  1   1   2  1   
  2   2   3  ar  
  3   2   4  ar  
  4   3   5  ar  
  5   3  22  1   
  6   4   6  ar  
  7   4  23  1   
  8   5   7  ar  
  9   5   8  1   
 10   6   7  ar  
 11   6  24  1   
 12   7  25  1   
 13   8   9  1   
 14   8  26  1   
 15   8  27  1   
 16   9  10  1   
 17   9  11  1   
 18   9  28  1   
 19  10  12  1   
 20  10  29  1   
 21  10  30  1   
 22  11  13  1   
 23  11  31  1   
 24  11  32  1   
 25  12  14  1   
 26  12  33  1   
 27  12  34  1   
 28  13  14  1   
 29  13  35  1   
 30  13  36  1   
 31  14  15  1   
 32  14  37  1   
 33  15  16  1   
 34  15  38  1   
 35  15  39  1   
 36  16  17  ar  
 37  16  18  ar  
 38  17  19  ar  
 39  17  40  1   
 40  18  20  ar  
 41  18  41  1   
 42  19  21  ar  
 43  19  42  1   
 44  20  21  ar  
 45  20  43  1   
 46  21  44  1   
@<TRIPOS>SUBSTRUCTURE
  1 ****   9 GROUP 4 **** **** 0

# MOE 2024.06 (io_trps.svl 2023.06)
