@<TRIPOS>MOLECULE
NONAME
40 41 1 0 0 
SMALL
USER_CHARGES


@<TRIPOS>ATOM
  1 S       -0.1810    -0.2320    -0.1600 S.o2  1 <1>   1.4470 
  2 O       -0.2060    -0.9400    -1.4190 O.2   1 <1>  -0.6500 
  3 O       -0.1690    -0.9540     1.0910 O.2   1 <1>  -0.6500 
  4 N       -1.5870     0.6810    -0.2000 N.am  1 <1>  -0.9140 
  5 C        1.1230     1.0290    -0.1660 C.ar  1 <1>  -0.0090 
  6 C       -2.7610    -0.0730     0.2170 C.3   1 <1>   0.1960 
  7 C        1.9020     1.2600    -1.2950 C.ar  1 <1>  -0.1500 
  8 C        1.3610     1.8110     0.9590 C.ar  1 <1>  -0.1500 
  9 C       -3.9880     0.8340     0.1250 C.3   1 <1>  -0.0990 
 10 C        2.8850     2.2350    -1.3010 C.ar  1 <1>  -0.1500 
 11 C        2.3420     2.7880     0.9620 C.ar  1 <1>  -0.1500 
 12 C       -5.2750     0.1220     0.5060 C.2   1 <1>   0.5690 
 13 C        3.1060     3.0000    -0.1710 C.ar  1 <1>  -0.1500 
 14 O       -5.2160    -1.0570     0.7670 O.2   1 <1>  -0.5700 
 15 N       -6.4620     0.8100     0.5370 N.am  1 <1>  -0.6600 
 16 C       -7.7410     0.1210     0.8720 C.3   1 <1>   0.1400 
 17 C       -6.6320     2.2590     0.2270 C.3   1 <1>   0.1400 
 18 C       -8.7220     0.2600    -0.2980 C.3   1 <1>  -0.1600 
 19 C       -7.5970     2.4230    -0.9530 C.3   1 <1>  -0.1600 
 20 C       -8.9410     1.7300    -0.6830 C.3   1 <1>  -0.1600 
 21 H       -1.7000     0.8760    -1.1920 H     1 <1>   0.4200 
 22 H       -2.6420    -0.4100     1.2350 H     1 <1>   0.0800 
 23 H       -2.8890    -0.9390    -0.4140 H     1 <1>   0.0800 
 24 H        1.7410     0.6690    -2.1810 H     1 <1>   0.1500 
 25 H        0.7680     1.6500     1.8440 H     1 <1>   0.1500 
 26 H       -4.0910     1.1930    -0.8810 H     1 <1>   0.0800 
 27 H       -3.8470     1.6640     0.7920 H     1 <1>   0.0800 
 28 H        3.4790     2.3970    -2.1850 H     1 <1>   0.1500 
 29 H        2.5110     3.3810     1.8440 H     1 <1>   0.1500 
 30 H        3.8700     3.7590    -0.1730 H     1 <1>   0.1500 
 31 H       -8.1590     0.5680     1.7570 H     1 <1>   0.0800 
 32 H       -7.5740    -0.9230     1.0760 H     1 <1>   0.0800 
 33 H       -5.6950     2.7260    -0.0130 H     1 <1>   0.0800 
 34 H       -7.0350     2.7540     1.0940 H     1 <1>   0.0800 
 35 H       -9.6620    -0.1870    -0.0270 H     1 <1>   0.0800 
 36 H       -8.3320    -0.2840    -1.1400 H     1 <1>   0.0800 
 37 H       -7.1440     2.0030    -1.8340 H     1 <1>   0.0800 
 38 H       -7.7630     3.4700    -1.1360 H     1 <1>   0.0800 
 39 H       -9.4480     2.2370     0.1210 H     1 <1>   0.0800 
 40 H       -9.5640     1.7880    -1.5580 H     1 <1>   0.0800 
@<TRIPOS>BOND
  1   1   2  2   
  2   1   3  2   
  3   1   4  am  
  4   1   5  1   
  5   4   6  1   
  6   4  21  1   
  7   5   7  ar  
  8   5   8  ar  
  9   6   9  1   
 10   6  22  1   
 11   6  23  1   
 12   7  10  ar  
 13   7  24  1   
 14   8  11  ar  
 15   8  25  1   
 16   9  12  1   
 17   9  26  1   
 18   9  27  1   
 19  10  13  ar  
 20  10  28  1   
 21  11  13  ar  
 22  11  29  1   
 23  12  14  2   
 24  12  15  am  
 25  13  30  1   
 26  15  16  1   
 27  15  17  1   
 28  16  18  1   
 29  16  31  1   
 30  16  32  1   
 31  17  19  1   
 32  17  33  1   
 33  17  34  1   
 34  18  20  1   
 35  18  35  1   
 36  18  36  1   
 37  19  20  1   
 38  19  37  1   
 39  19  38  1   
 40  20  39  1   
 41  20  40  1   
@<TRIPOS>SUBSTRUCTURE
  1 ****   6 GROUP 4 **** **** 0

# MOE 2024.06 (io_trps.svl 2023.06)
