@<TRIPOS>MOLECULE
NONAME
46 48 1 0 0 
SMALL
USER_CHARGES


@<TRIPOS>ATOM
  1 S       -0.2650    -0.1320    -0.2590 S.3   1 <1>  -0.0800 
  2 C        1.1170     0.9310    -0.2660 C.2   1 <1>   0.1040 
  3 C       -1.4250     1.1890    -0.0990 C.2   1 <1>  -0.0450 
  4 N        2.3860     0.3880    -0.3730 N.am  1 <1>  -0.4940 
  5 C        0.7160     2.2400    -0.1570 C.2   1 <1>  -0.0860 
  6 C       -0.7210     2.3590    -0.0500 C.2   1 <1>  -0.1810 
  7 C       -2.8200     0.8140    -0.0550 C.2   1 <1>   0.7150 
  8 C        2.8550    -0.8920    -0.5120 C.2   1 <1>   0.6300 
  9 C        1.6480     3.3480    -0.1610 C.2   1 <1>   0.8060 
 10 C       -1.3840     3.7270     0.1170 C.3   1 <1>  -0.0590 
 11 O       -3.7020     1.6520    -0.0710 O.2   1 <1>  -0.5700 
 12 N       -3.1560    -0.5200    -0.0120 N.am  1 <1>  -0.5470 
 13 O        2.1600    -1.8710    -0.6040 O.2   1 <1>  -0.5700 
 14 C        4.3660    -1.0570    -0.5620 C.3   1 <1>  -0.1000 
 15 O        1.3360     4.5190    -0.2560 O.2   1 <1>  -0.5700 
 16 O        2.9570     3.0680    -0.0620 O.3   1 <1>  -0.4300 
 17 C       -4.3860    -1.1900     0.0550 C.ar  1 <1>   0.1170 
 18 C        5.0860    -1.8040     0.5220 C.3   1 <1>  -0.2000 
 19 C        5.2750    -0.3260     0.3880 C.3   1 <1>  -0.2000 
 20 C        3.9370     4.0830    -0.0670 C.3   1 <1>   0.1200 
 21 C       -4.4360    -2.5190    -0.3540 C.ar  1 <1>  -0.1500 
 22 C       -5.5570    -0.6030     0.5270 C.ar  1 <1>  -0.1500 
 23 C        5.3050     3.4190     0.0510 C.3   1 <1>  -0.2400 
 24 C       -5.6160    -3.2380    -0.3010 C.ar  1 <1>  -0.1500 
 25 C       -6.7400    -1.3180     0.5800 C.ar  1 <1>  -0.1500 
 26 C       -6.7720    -2.6380     0.1650 C.ar  1 <1>  -0.1500 
 27 H        3.1400     1.0770    -0.3210 H     1 <1>   0.3700 
 28 H       -2.4380     3.6570     0.2980 H     1 <1>   0.0800 
 29 H       -1.2400     4.3160    -0.7710 H     1 <1>   0.0800 
 30 H       -0.9520     4.2480     0.9520 H     1 <1>   0.0800 
 31 H       -2.3450    -1.1310    -0.0950 H     1 <1>   0.3700 
 32 H        4.7080    -1.2210    -1.5680 H     1 <1>   0.1000 
 33 H        5.8890    -2.4640     0.2420 H     1 <1>   0.1000 
 34 H        4.5070    -2.1890     1.3450 H     1 <1>   0.1000 
 35 H        4.8640     0.2960     1.1640 H     1 <1>   0.1000 
 36 H        6.2230     0.0370     0.0270 H     1 <1>   0.1000 
 37 H        3.7540     4.7420     0.7660 H     1 <1>   0.0800 
 38 H        3.8540     4.6360    -0.9890 H     1 <1>   0.0800 
 39 H       -3.5460    -2.9960    -0.7200 H     1 <1>   0.1500 
 40 H       -5.5530     0.4180     0.8600 H     1 <1>   0.1500 
 41 H        5.3780     2.8760     0.9760 H     1 <1>   0.0800 
 42 H        6.0720     4.1740     0.0410 H     1 <1>   0.0800 
 43 H        5.4730     2.7550    -0.7780 H     1 <1>   0.0800 
 44 H       -5.6370    -4.2650    -0.6240 H     1 <1>   0.1500 
 45 H       -7.6360    -0.8470     0.9450 H     1 <1>   0.1500 
 46 H       -7.6920    -3.1950     0.2060 H     1 <1>   0.1500 
@<TRIPOS>BOND
  1   1   2  1   
  2   1   3  1   
  3   2   4  1   
  4   2   5  2   
  5   3   6  2   
  6   3   7  1   
  7   4   8  am  
  8   4  27  1   
  9   5   6  1   
 10   5   9  1   
 11   6  10  1   
 12   7  11  2   
 13   7  12  am  
 14   8  13  2   
 15   8  14  1   
 16   9  15  2   
 17   9  16  1   
 18  10  28  1   
 19  10  29  1   
 20  10  30  1   
 21  12  17  1   
 22  12  31  1   
 23  14  18  1   
 24  14  19  1   
 25  14  32  1   
 26  16  20  1   
 27  17  21  ar  
 28  17  22  ar  
 29  18  19  1   
 30  18  33  1   
 31  18  34  1   
 32  19  35  1   
 33  19  36  1   
 34  20  23  1   
 35  20  37  1   
 36  20  38  1   
 37  21  24  ar  
 38  21  39  1   
 39  22  25  ar  
 40  22  40  1   
 41  23  41  1   
 42  23  42  1   
 43  23  43  1   
 44  24  26  ar  
 45  24  44  1   
 46  25  26  ar  
 47  25  45  1   
 48  26  46  1   
@<TRIPOS>SUBSTRUCTURE
  1 ****   1 GROUP 4 **** **** 0

# MOE 2024.06 (io_trps.svl 2023.06)
