@<TRIPOS>MOLECULE
NONAME
45 47 1 0 0 
SMALL
USER_CHARGES


@<TRIPOS>ATOM
  1 S        0.8410     0.3720    -1.4870 S.o2  1 <1>   1.3330 
  2 O        2.2100     0.4300    -1.9420 O.2   1 <1>  -0.6500 
  3 O        0.5080    -0.3540    -0.2880 O.2   1 <1>  -0.6500 
  4 N        0.3300     2.0120    -1.2860 N.am  1 <1>  -0.6930 
  5 C       -0.1830    -0.1770    -2.8340 C.3   1 <1>  -0.1350 
  6 C       -0.9440     2.3170    -0.8190 C.ar  1 <1>   0.1990 
  7 C        1.4060     3.0210    -1.0350 C.3   1 <1>   0.2570 
  8 C       -1.3220     2.0320     0.4870 C.ar  1 <1>  -0.1500 
  9 C       -1.8580     2.9260    -1.6720 C.ar  1 <1>  -0.1500 
 10 C        2.1440     2.8450     0.2980 C.2   1 <1>   0.5690 
 11 C       -2.5940     2.3420     0.9300 C.ar  1 <1>   0.0820 
 12 C       -3.1330     3.2450    -1.2350 C.ar  1 <1>  -0.1500 
 13 O        1.9470     3.6410     1.1860 O.2   1 <1>  -0.5700 
 14 N        3.0230     1.8230     0.4510 N.am  1 <1>  -0.7300 
 15 O       -2.9380     2.0350     2.2070 O.3   1 <1>  -0.3630 
 16 C       -3.5030     2.9590     0.0670 C.ar  1 <1>   0.0830 
 17 C        3.7760     1.5270     1.6920 C.3   1 <1>   0.2840 
 18 C       -4.3150     2.0800     2.5300 C.3   1 <1>   0.1200 
 19 O       -4.7550     3.2930     0.4810 O.3   1 <1>  -0.3630 
 20 C        5.2010     2.0560     1.5950 C.ar  1 <1>   0.1670 
 21 C       -4.9720     3.3050     1.8800 C.3   1 <1>   0.1200 
 22 N        6.1580     1.1780     1.3200 N.ar  1 <1>  -0.6200 
 23 C        5.4270     3.4100     1.7960 C.ar  1 <1>  -0.1500 
 24 C        7.3830     1.6730     1.2410 C.ar  1 <1>   0.1600 
 25 C        6.7090     3.9100     1.7140 C.ar  1 <1>  -0.1500 
 26 C        7.7090     3.0060     1.4270 C.ar  1 <1>  -0.1500 
 27 H        0.0540    -1.1930    -3.0840 H     1 <1>   0.0800 
 28 H       -0.0220     0.4380    -3.6970 H     1 <1>   0.0800 
 29 H       -1.2170    -0.1240    -2.5570 H     1 <1>   0.0800 
 30 H        0.9700     4.0040    -1.0440 H     1 <1>   0.0800 
 31 H        2.1260     2.9800    -1.8320 H     1 <1>   0.0800 
 32 H       -0.6260     1.5660     1.1610 H     1 <1>   0.1500 
 33 H       -1.5660     3.1520    -2.6810 H     1 <1>   0.1500 
 34 H       -3.8410     3.7170    -1.8920 H     1 <1>   0.1500 
 35 H        3.2000     1.1750    -0.3300 H     1 <1>   0.3700 
 36 H        3.7930     0.4630     1.8510 H     1 <1>   0.0800 
 37 H        3.2830     1.9820     2.5330 H     1 <1>   0.0800 
 38 H       -4.4020     2.1220     3.6010 H     1 <1>   0.0800 
 39 H       -4.7720     1.1750     2.1720 H     1 <1>   0.0800 
 40 H       -4.5500     4.2110     2.2780 H     1 <1>   0.0800 
 41 H       -6.0340     3.3050     2.0510 H     1 <1>   0.0800 
 42 H        4.6000     4.0650     2.0100 H     1 <1>   0.1500 
 43 H        8.1720     0.9760     1.0170 H     1 <1>   0.1500 
 44 H        6.9160     4.9550     1.8640 H     1 <1>   0.1500 
 45 H        8.7310     3.3280     1.3480 H     1 <1>   0.1500 
@<TRIPOS>BOND
  1   1   2  2   
  2   1   3  2   
  3   1   4  am  
  4   1   5  1   
  5   4   6  1   
  6   4   7  1   
  7   5  27  1   
  8   5  28  1   
  9   5  29  1   
 10   6   8  ar  
 11   6   9  ar  
 12   7  10  1   
 13   7  30  1   
 14   7  31  1   
 15   8  11  ar  
 16   8  32  1   
 17   9  12  ar  
 18   9  33  1   
 19  10  13  2   
 20  10  14  am  
 21  11  15  1   
 22  11  16  ar  
 23  12  16  ar  
 24  12  34  1   
 25  14  17  1   
 26  14  35  1   
 27  15  18  1   
 28  16  19  1   
 29  17  20  1   
 30  17  36  1   
 31  17  37  1   
 32  18  21  1   
 33  18  38  1   
 34  18  39  1   
 35  19  21  1   
 36  20  22  ar  
 37  20  23  ar  
 38  21  40  1   
 39  21  41  1   
 40  22  24  ar  
 41  23  25  ar  
 42  23  42  1   
 43  24  26  ar  
 44  24  43  1   
 45  25  26  ar  
 46  25  44  1   
 47  26  45  1   
@<TRIPOS>SUBSTRUCTURE
  1 ****  10 GROUP 4 **** **** 0

# MOE 2024.06 (io_trps.svl 2023.06)
