@<TRIPOS>MOLECULE
NONAME
35 36 1 0 0 
SMALL
USER_CHARGES


@<TRIPOS>ATOM
  1 O       -0.4130     0.2990    -0.9440 O.2   1 <1>  -0.5700 
  2 C       -0.7640     1.1930    -0.1970 C.2   1 <1>   0.7800 
  3 O        0.0570     2.2180     0.0750 O.3   1 <1>  -0.2330 
  4 N       -2.0070     1.2020     0.3860 N.am  1 <1>  -0.6600 
  5 C        1.3490     2.3510    -0.3280 C.ar  1 <1>   0.0830 
  6 C       -3.0130     0.1310     0.1280 C.3   1 <1>   0.1400 
  7 C       -2.5120     2.2940     1.2700 C.3   1 <1>   0.1400 
  8 C        2.2400     1.2860    -0.3640 C.ar  1 <1>  -0.1500 
  9 C        1.7770     3.6190    -0.6900 C.ar  1 <1>  -0.1500 
 10 C       -4.3620     0.7450    -0.2810 C.3   1 <1>   0.1200 
 11 C       -3.8900     2.7800     0.7910 C.3   1 <1>   0.1200 
 12 C        3.5530     1.4770    -0.7710 C.ar  1 <1>   0.1170 
 13 C        3.0820     3.8180    -1.1030 C.ar  1 <1>  -0.1500 
 14 O       -4.7730     1.7030     0.6540 O.3   1 <1>  -0.5600 
 15 N        4.4280     0.3860    -0.8140 N.am  1 <1>  -0.5470 
 16 C        3.9620     2.7520    -1.1480 C.ar  1 <1>  -0.1500 
 17 C        5.6840     0.2320    -0.3180 C.2   1 <1>   0.5690 
 18 O        6.2900    -0.7880    -0.5190 O.2   1 <1>  -0.5700 
 19 C        6.3370     1.3150     0.5090 C.3   1 <1>  -0.1790 
 20 H       -3.1460    -0.4520     1.0220 H     1 <1>   0.0800 
 21 H       -2.6740    -0.5300    -0.6510 H     1 <1>   0.0800 
 22 H       -1.8300     3.1260     1.2840 H     1 <1>   0.0800 
 23 H       -2.6010     1.9210     2.2750 H     1 <1>   0.0800 
 24 H        1.9210     0.3030    -0.0700 H     1 <1>   0.1500 
 25 H        1.0880     4.4430    -0.6530 H     1 <1>   0.1500 
 26 H       -5.1190    -0.0180    -0.3250 H     1 <1>   0.0800 
 27 H       -4.2870     1.2140    -1.2470 H     1 <1>   0.0800 
 28 H       -3.8080     3.2820    -0.1570 H     1 <1>   0.0800 
 29 H       -4.3140     3.4610     1.5080 H     1 <1>   0.0800 
 30 H        3.4110     4.8020    -1.3930 H     1 <1>   0.1500 
 31 H        4.0710    -0.4640    -1.2490 H     1 <1>   0.3700 
 32 H        4.9700     2.9080    -1.4860 H     1 <1>   0.1500 
 33 H        7.0940     0.8800     1.1340 H     1 <1>   0.0800 
 34 H        6.7960     2.0360    -0.1390 H     1 <1>   0.0800 
 35 H        5.6100     1.7990     1.1330 H     1 <1>   0.0800 
@<TRIPOS>BOND
  1   1   2  2   
  2   2   3  1   
  3   2   4  am  
  4   3   5  1   
  5   4   6  1   
  6   4   7  1   
  7   5   8  ar  
  8   5   9  ar  
  9   6  10  1   
 10   6  20  1   
 11   6  21  1   
 12   7  11  1   
 13   7  22  1   
 14   7  23  1   
 15   8  12  ar  
 16   8  24  1   
 17   9  13  ar  
 18   9  25  1   
 19  10  14  1   
 20  10  26  1   
 21  10  27  1   
 22  11  14  1   
 23  11  28  1   
 24  11  29  1   
 25  12  15  1   
 26  12  16  ar  
 27  13  16  ar  
 28  13  30  1   
 29  15  17  am  
 30  15  31  1   
 31  16  32  1   
 32  17  18  2   
 33  17  19  1   
 34  19  33  1   
 35  19  34  1   
 36  19  35  1   
@<TRIPOS>SUBSTRUCTURE
  1 ****   5 GROUP 4 **** **** 0

# MOE 2024.06 (io_trps.svl 2023.06)
