@<TRIPOS>MOLECULE
NONAME
39 40 1 0 0 
SMALL
USER_CHARGES


@<TRIPOS>ATOM
  1 O       -0.3690    -0.3340     0.0360 O.3   1 <1>  -0.3630 
  2 C       -1.5340    -0.9910    -0.2340 C.ar  1 <1>   0.0830 
  3 C        0.5380    -0.7340     1.0380 C.3   1 <1>   0.0400 
  4 C       -2.0650    -2.1000     0.4480 C.ar  1 <1>   0.0830 
  5 C       -2.2380    -0.4760    -1.3090 C.ar  1 <1>  -0.1500 
  6 O       -1.4520    -2.6840     1.5000 O.3   1 <1>  -0.5330 
  7 C       -3.2760    -2.6450     0.0460 C.ar  1 <1>  -0.1500 
  8 C       -3.4440    -1.0230    -1.7080 C.ar  1 <1>  -0.1500 
  9 C       -3.9770    -2.1060    -1.0250 C.ar  1 <1>  -0.1430 
 10 C       -5.3140    -2.6840    -1.4490 C.3   1 <1>   0.4860 
 11 N       -6.3480    -2.2820    -0.4560 N.4   1 <1>  -0.9590 
 12 C       -7.5860    -3.0860    -0.6430 C.3   1 <1>   0.3430 
 13 C       -6.5710    -0.8050    -0.4730 C.3   1 <1>   0.3430 
 14 C       -8.5740    -2.9080     0.5120 C.3   1 <1>  -0.1600 
 15 C       -6.9890    -0.3310     0.9180 C.3   1 <1>  -0.1600 
 16 C       -9.2720    -1.5410     0.5070 C.3   1 <1>  -0.1600 
 17 C       -8.4930    -0.4290     1.2240 C.3   1 <1>  -0.1600 
 18 H        1.3800    -0.0680     1.0120 H     1 <1>   0.0800 
 19 H        0.8600    -1.7400     0.8350 H     1 <1>   0.0800 
 20 H        0.0510    -0.6710     1.9950 H     1 <1>   0.0800 
 21 H       -1.8260     0.3670    -1.8370 H     1 <1>   0.1500 
 22 H       -1.8810    -3.4960     1.8170 H     1 <1>   0.4500 
 23 H       -3.6670    -3.4950     0.5750 H     1 <1>   0.1500 
 24 H       -3.9510    -0.5910    -2.5540 H     1 <1>   0.1500 
 25 H       -5.2340    -3.7590    -1.4880 H     1 <1>   0.0800 
 26 H       -5.5780    -2.3270    -2.4310 H     1 <1>   0.0800 
 27 H       -5.9610    -2.4980     0.4690 H     1 <1>   0.4500 
 28 H       -7.3240    -4.1300    -0.7030 H     1 <1>   0.0800 
 29 H       -8.0660    -2.8120    -1.5700 H     1 <1>   0.0800 
 30 H       -7.3120    -0.5320    -1.2080 H     1 <1>   0.0800 
 31 H       -5.6500    -0.3050    -0.7240 H     1 <1>   0.0800 
 32 H       -8.1030    -3.1010     1.4590 H     1 <1>   0.0800 
 33 H       -9.3370    -3.6570     0.3860 H     1 <1>   0.0800 
 34 H       -6.7100     0.7050     1.0110 H     1 <1>   0.0800 
 35 H       -6.4260    -0.8620     1.6650 H     1 <1>   0.0800 
 36 H      -10.2230    -1.6400     1.0050 H     1 <1>   0.0800 
 37 H       -9.4880    -1.2430    -0.5060 H     1 <1>   0.0800 
 38 H       -8.9600     0.5100     0.9720 H     1 <1>   0.0800 
 39 H       -8.6130    -0.5500     2.2890 H     1 <1>   0.0800 
@<TRIPOS>BOND
  1   1   2  1   
  2   1   3  1   
  3   2   4  ar  
  4   2   5  ar  
  5   3  18  1   
  6   3  19  1   
  7   3  20  1   
  8   4   6  1   
  9   4   7  ar  
 10   5   8  ar  
 11   5  21  1   
 12   6  22  1   
 13   7   9  ar  
 14   7  23  1   
 15   8   9  ar  
 16   8  24  1   
 17   9  10  1   
 18  10  11  1   
 19  10  25  1   
 20  10  26  1   
 21  11  12  1   
 22  11  13  1   
 23  11  27  1   
 24  12  14  1   
 25  12  28  1   
 26  12  29  1   
 27  13  15  1   
 28  13  30  1   
 29  13  31  1   
 30  14  16  1   
 31  14  32  1   
 32  14  33  1   
 33  15  17  1   
 34  15  34  1   
 35  15  35  1   
 36  16  17  1   
 37  16  36  1   
 38  16  37  1   
 39  17  38  1   
 40  17  39  1   
@<TRIPOS>SUBSTRUCTURE
  1 ****   9 GROUP 4 **** **** 0

# MOE 2024.06 (io_trps.svl 2023.06)
