@<TRIPOS>MOLECULE
NONAME
39 40 1 0 0 
SMALL
USER_CHARGES


@<TRIPOS>ATOM
  1 S       -0.3160     0.9310    -0.3930 S.3   1 <1>  -0.3320 
  2 C        1.3120     1.5980    -0.1310 C.ar  1 <1>   0.7720 
  3 C       -0.0660    -0.8310    -0.9130 C.3   1 <1>  -0.0100 
  4 N        2.2960     0.7600    -0.3150 N.ar  1 <1>  -0.6200 
  5 N        1.4300     2.8920     0.2410 N.ar  1 <1>  -0.2100 
  6 C        3.5310     1.2200    -0.1460 C.ar  1 <1>   0.3630 
  7 C        2.6760     3.3800     0.4930 C.ar  1 <1>   0.2180 
  8 C        0.1780     3.7130     0.3590 C.3   1 <1>   0.2480 
  9 C        3.7550     2.5330     0.2970 C.ar  1 <1>  -0.1440 
 10 C        4.5790     0.2820    -0.4460 C.2   1 <1>   0.0870 
 11 C        2.7970     4.8340     0.9810 C.3   1 <1>  -0.0960 
 12 C        5.1970     2.9650     0.5470 C.3   1 <1>   0.6240 
 13 O        5.5950     0.6130    -1.2350 O.3   1 <1>  -0.2800 
 14 C        4.7350    -1.0220    -0.0760 C.2   1 <1>  -0.1500 
 15 O        5.3440     3.2810     1.8780 O.3   1 <1>  -0.6800 
 16 O        5.4430     4.1160    -0.1790 O.3   1 <1>  -0.5600 
 17 C        6.3880    -0.4230    -1.3730 C.2   1 <1>  -0.0100 
 18 C        5.9100    -1.4750    -0.6730 C.2   1 <1>  -0.1500 
 19 C        6.7800     4.4940    -0.2510 C.3   1 <1>   0.1200 
 20 C        6.8560     5.7340    -1.1330 C.3   1 <1>  -0.2400 
 21 H       -1.0350    -1.2610    -1.0950 H     1 <1>   0.0800 
 22 H        0.4380    -1.3490    -0.1160 H     1 <1>   0.0800 
 23 H        0.5280    -0.8350    -1.8100 H     1 <1>   0.0800 
 24 H       -0.4070     3.6230    -0.5400 H     1 <1>   0.0800 
 25 H        0.3760     4.7580     0.4980 H     1 <1>   0.0800 
 26 H       -0.4070     3.3640     1.1940 H     1 <1>   0.0800 
 27 H        2.1670     4.9970     1.8370 H     1 <1>   0.0800 
 28 H        2.5150     5.5110     0.1950 H     1 <1>   0.0800 
 29 H        3.7850     5.1120     1.2870 H     1 <1>   0.0800 
 30 H        5.9400     2.2320     0.2940 H     1 <1>   0.0800 
 31 H        4.0860    -1.6110     0.5470 H     1 <1>   0.1500 
 32 H        5.5860     2.4820     2.3790 H     1 <1>   0.4000 
 33 H        7.2690    -0.3370    -1.9860 H     1 <1>   0.1500 
 34 H        6.3250    -2.4640    -0.5850 H     1 <1>   0.1500 
 35 H        7.3520     3.6890    -0.6820 H     1 <1>   0.0800 
 36 H        7.1390     4.7140     0.7400 H     1 <1>   0.0800 
 37 H        6.4870     5.5120    -2.1190 H     1 <1>   0.0800 
 38 H        7.8770     6.0590    -1.2150 H     1 <1>   0.0800 
 39 H        6.2770     6.5300    -0.7020 H     1 <1>   0.0800 
@<TRIPOS>BOND
  1   1   2  1   
  2   1   3  1   
  3   2   4  ar  
  4   2   5  ar  
  5   3  21  1   
  6   3  22  1   
  7   3  23  1   
  8   4   6  ar  
  9   5   7  ar  
 10   5   8  1   
 11   6   9  ar  
 12   6  10  1   
 13   7   9  ar  
 14   7  11  1   
 15   8  24  1   
 16   8  25  1   
 17   8  26  1   
 18   9  12  1   
 19  10  13  1   
 20  10  14  2   
 21  11  27  1   
 22  11  28  1   
 23  11  29  1   
 24  12  15  1   
 25  12  16  1   
 26  12  30  1   
 27  13  17  1   
 28  14  18  1   
 29  14  31  1   
 30  15  32  1   
 31  16  19  1   
 32  17  18  2   
 33  17  33  1   
 34  18  34  1   
 35  19  20  1   
 36  19  35  1   
 37  19  36  1   
 38  20  37  1   
 39  20  38  1   
 40  20  39  1   
@<TRIPOS>SUBSTRUCTURE
  1 ****   9 GROUP 4 **** **** 0

# MOE 2024.06 (io_trps.svl 2023.06)
