@<TRIPOS>MOLECULE
NONAME
47 47 1 0 0 
SMALL
USER_CHARGES


@<TRIPOS>ATOM
  1 O        1.1840     1.4030    -2.6480 O.2   1 <1>  -0.5700 
  2 C        0.5880     0.5960    -1.9740 C.2   1 <1>   0.5690 
  3 N        1.1320     0.0930    -0.8310 N.am  1 <1>  -0.7300 
  4 C       -0.8350     0.2050    -2.3450 C.3   1 <1>   0.1810 
  5 C        2.4370     0.4900    -0.2620 C.3   1 <1>   0.1400 
  6 O       -1.7270     0.5640    -1.2950 O.3   1 <1>  -0.3620 
  7 C        2.2230     1.6530     0.7110 C.3   1 <1>  -0.1600 
  8 C       -2.0430     1.8570    -0.9980 C.ar  1 <1>   0.0830 
  9 C        1.6250     2.8620    -0.0140 C.3   1 <1>   0.3430 
 10 C       -2.7930     2.1030     0.1530 C.ar  1 <1>  -0.1440 
 11 C       -1.6520     2.9220    -1.8070 C.ar  1 <1>  -0.1500 
 12 N        1.2810     3.9500     0.9420 N.4   1 <1>  -0.9590 
 13 C       -3.1340     3.4130     0.4840 C.ar  1 <1>  -0.1430 
 14 C       -3.2570     0.9450     1.0420 C.3   1 <1>  -0.0970 
 15 C       -1.9990     4.2190    -1.4820 C.ar  1 <1>  -0.1430 
 16 C        0.0370     3.6060     1.6990 C.3   1 <1>   0.2630 
 17 C        1.0640     5.2170     0.1870 C.3   1 <1>   0.2630 
 18 C       -2.7370     4.4570    -0.3380 C.ar  1 <1>  -0.1500 
 19 C       -3.9580     3.7440     1.7220 C.3   1 <1>  -0.0970 
 20 C       -1.6070     5.3660    -2.3980 C.3   1 <1>  -0.0970 
 21 H        0.5680    -0.5520    -0.2680 H     1 <1>   0.3700 
 22 H       -0.8930    -0.8600    -2.4700 H     1 <1>   0.0800 
 23 H       -1.1500     0.6760    -3.2570 H     1 <1>   0.0800 
 24 H        3.1040     0.7850    -1.0570 H     1 <1>   0.0800 
 25 H        2.8750    -0.3520     0.2480 H     1 <1>   0.0800 
 26 H        3.1740     1.9230     1.1330 H     1 <1>   0.0800 
 27 H        1.5790     1.3150     1.5020 H     1 <1>   0.0800 
 28 H        0.7330     2.5680    -0.5430 H     1 <1>   0.0800 
 29 H        2.3340     3.2170    -0.7450 H     1 <1>   0.0800 
 30 H       -1.0910     2.7620    -2.7090 H     1 <1>   0.1500 
 31 H        2.0650     4.0760     1.5980 H     1 <1>   0.4500 
 32 H       -3.1950    -0.0020     0.5380 H     1 <1>   0.0800 
 33 H       -4.2860     1.0780     1.3240 H     1 <1>   0.0800 
 34 H       -2.6550     0.8980     1.9300 H     1 <1>   0.0800 
 35 H       -0.7650     3.4050     1.0100 H     1 <1>   0.0800 
 36 H       -0.2540     4.4220     2.3390 H     1 <1>   0.0800 
 37 H        0.1920     2.7300     2.3070 H     1 <1>   0.0800 
 38 H        0.2470     5.0990    -0.5060 H     1 <1>   0.0800 
 39 H        1.9500     5.4810    -0.3660 H     1 <1>   0.0800 
 40 H        0.8270     6.0220     0.8650 H     1 <1>   0.0800 
 41 H       -3.0230     5.4660    -0.0950 H     1 <1>   0.1500 
 42 H       -4.9720     3.4140     1.5810 H     1 <1>   0.0800 
 43 H       -3.9760     4.8030     1.9060 H     1 <1>   0.0800 
 44 H       -3.5520     3.2600     2.5910 H     1 <1>   0.0800 
 45 H       -0.6640     5.1670    -2.8760 H     1 <1>   0.0800 
 46 H       -1.5290     6.2870    -1.8500 H     1 <1>   0.0800 
 47 H       -2.3560     5.4860    -3.1610 H     1 <1>   0.0800 
@<TRIPOS>BOND
  1   1   2  2   
  2   2   3  am  
  3   2   4  1   
  4   3   5  1   
  5   3  21  1   
  6   4   6  1   
  7   4  22  1   
  8   4  23  1   
  9   5   7  1   
 10   5  24  1   
 11   5  25  1   
 12   6   8  1   
 13   7   9  1   
 14   7  26  1   
 15   7  27  1   
 16   8  10  ar  
 17   8  11  ar  
 18   9  12  1   
 19   9  28  1   
 20   9  29  1   
 21  10  13  ar  
 22  10  14  1   
 23  11  15  ar  
 24  11  30  1   
 25  12  16  1   
 26  12  17  1   
 27  12  31  1   
 28  13  18  ar  
 29  13  19  1   
 30  14  32  1   
 31  14  33  1   
 32  14  34  1   
 33  15  18  ar  
 34  15  20  1   
 35  16  35  1   
 36  16  36  1   
 37  16  37  1   
 38  17  38  1   
 39  17  39  1   
 40  17  40  1   
 41  18  41  1   
 42  19  42  1   
 43  19  43  1   
 44  19  44  1   
 45  20  45  1   
 46  20  46  1   
 47  20  47  1   
@<TRIPOS>SUBSTRUCTURE
  1 ****   8 GROUP 4 **** **** 0

# MOE 2024.06 (io_trps.svl 2023.06)
