@<TRIPOS>MOLECULE
NONAME
51 54 1 0 0 
SMALL
USER_CHARGES


@<TRIPOS>ATOM
  1 O       -0.6770     0.0270    -1.3380 O.2   1 <1>  -0.5700 
  2 C       -1.6770     0.4110    -0.7840 C.2   1 <1>   0.5690 
  3 N       -1.8480     1.5890    -0.1110 N.am  1 <1>  -0.4770 
  4 C       -2.9420    -0.4010    -0.7880 C.3   1 <1>  -0.0990 
  5 C       -0.9290     2.6430     0.0680 C.ar  1 <1>   0.1170 
  6 C       -3.2270     1.6900     0.4030 C.3   1 <1>   0.1400 
  7 C       -4.0060     0.6330    -0.3840 C.3   1 <1>  -0.0190 
  8 C       -0.9190     3.3890     1.2430 C.ar  1 <1>  -0.1500 
  9 C       -0.0170     2.9800    -0.9270 C.ar  1 <1>  -0.1500 
 10 C       -5.1740     0.0890     0.4330 C.2   1 <1>   0.5690 
 11 C       -0.0370     4.4410     1.4130 C.ar  1 <1>  -0.1500 
 12 C        0.8670     4.0310    -0.7590 C.ar  1 <1>  -0.1500 
 13 O       -4.9250    -0.7340     1.2810 O.2   1 <1>  -0.5700 
 14 N       -6.4570     0.5330     0.2320 N.am  1 <1>  -0.6600 
 15 C        0.8600     4.7720     0.4110 C.ar  1 <1>  -0.1430 
 16 C       -7.5860    -0.1250     0.9700 C.3   1 <1>   0.1400 
 17 C       -6.8440     1.6670    -0.6710 C.3   1 <1>   0.1400 
 18 C        1.8310     5.9230     0.5950 C.3   1 <1>  -0.0970 
 19 C       -8.9180    -0.0250     0.2120 C.3   1 <1>   0.1400 
 20 C       -8.1500     2.3560    -0.2370 C.3   1 <1>   0.1400 
 21 N       -9.2850     1.3940    -0.0960 N.am  1 <1>  -0.6600 
 22 C      -10.6110     1.7430    -0.2890 C.2   1 <1>   0.7150 
 23 O      -11.4140     0.8370    -0.4420 O.2   1 <1>  -0.5700 
 24 C      -11.0950     3.1110    -0.3280 C.2   1 <1>   0.0550 
 25 O      -10.3840     4.1490     0.1140 O.3   1 <1>  -0.2800 
 26 C      -12.2960     3.5820    -0.7680 C.2   1 <1>  -0.1500 
 27 C      -11.0900     5.2480    -0.0350 C.2   1 <1>  -0.0100 
 28 C      -12.2900     4.9650    -0.5810 C.2   1 <1>  -0.1500 
 29 H       -2.8400    -1.1890    -0.0640 H     1 <1>   0.0800 
 30 H       -3.1330    -0.8180    -1.7590 H     1 <1>   0.0800 
 31 H       -3.6260     2.6770     0.2460 H     1 <1>   0.0800 
 32 H       -3.2260     1.4550     1.4550 H     1 <1>   0.0800 
 33 H       -4.3630     1.0860    -1.2890 H     1 <1>   0.0800 
 34 H       -1.5970     3.1440     2.0380 H     1 <1>   0.1500 
 35 H        0.0040     2.4150    -1.8410 H     1 <1>   0.1500 
 36 H       -0.0480     5.0010     2.3320 H     1 <1>   0.1500 
 37 H        1.5620     4.2660    -1.5450 H     1 <1>   0.1500 
 38 H       -7.6930     0.3380     1.9360 H     1 <1>   0.0800 
 39 H       -7.3570    -1.1650     1.1300 H     1 <1>   0.0800 
 40 H       -6.9670     1.2910    -1.6720 H     1 <1>   0.0800 
 41 H       -6.0650     2.4080    -0.6830 H     1 <1>   0.0800 
 42 H        1.4150     6.6660     1.2510 H     1 <1>   0.0800 
 43 H        2.0440     6.3880    -0.3510 H     1 <1>   0.0800 
 44 H        2.7490     5.5590     1.0180 H     1 <1>   0.0800 
 45 H       -9.6920    -0.4760     0.8080 H     1 <1>   0.0800 
 46 H       -8.8470    -0.5790    -0.7080 H     1 <1>   0.0800 
 47 H       -8.3990     3.1020    -0.9710 H     1 <1>   0.0800 
 48 H       -7.9930     2.8530     0.7050 H     1 <1>   0.0800 
 49 H      -13.1060     3.0060    -1.1790 H     1 <1>   0.1500 
 50 H      -10.6690     6.1900     0.2720 H     1 <1>   0.1500 
 51 H      -13.0930     5.6370    -0.8280 H     1 <1>   0.1500 
@<TRIPOS>BOND
  1   1   2  2   
  2   2   3  am  
  3   2   4  1   
  4   3   5  1   
  5   3   6  1   
  6   4   7  1   
  7   4  29  1   
  8   4  30  1   
  9   5   8  ar  
 10   5   9  ar  
 11   6   7  1   
 12   6  31  1   
 13   6  32  1   
 14   7  10  1   
 15   7  33  1   
 16   8  11  ar  
 17   8  34  1   
 18   9  12  ar  
 19   9  35  1   
 20  10  13  2   
 21  10  14  am  
 22  11  15  ar  
 23  11  36  1   
 24  12  15  ar  
 25  12  37  1   
 26  14  16  1   
 27  14  17  1   
 28  15  18  1   
 29  16  19  1   
 30  16  38  1   
 31  16  39  1   
 32  17  20  1   
 33  17  40  1   
 34  17  41  1   
 35  18  42  1   
 36  18  43  1   
 37  18  44  1   
 38  19  21  1   
 39  19  45  1   
 40  19  46  1   
 41  20  21  1   
 42  20  47  1   
 43  20  48  1   
 44  21  22  am  
 45  22  23  2   
 46  22  24  1   
 47  24  25  1   
 48  24  26  2   
 49  25  27  1   
 50  26  28  1   
 51  26  49  1   
 52  27  28  2   
 53  27  50  1   
 54  28  51  1   
@<TRIPOS>SUBSTRUCTURE
  1 ****  17 GROUP 4 **** **** 0

# MOE 2024.06 (io_trps.svl 2023.06)
