@<TRIPOS>MOLECULE
NONAME
40 41 1 0 0 
SMALL
USER_CHARGES


@<TRIPOS>ATOM
  1 CL      -0.2350     0.1010    -0.6780 Cl    1 <1>  -0.1770 
  2 C        1.2690     0.9320    -0.3760 C.ar  1 <1>   0.1770 
  3 C        2.4630     0.3010    -0.6780 C.ar  1 <1>  -0.1500 
  4 C        1.2410     2.2080     0.1600 C.ar  1 <1>  -0.1500 
  5 C        3.6600     0.9580    -0.4400 C.ar  1 <1>  -0.1500 
  6 C        2.4370     2.8660     0.3980 C.ar  1 <1>  -0.1500 
  7 C        3.6350     2.2380     0.0970 C.ar  1 <1>   0.1020 
  8 S        5.1420     3.1650     0.4390 S.3   1 <1>  -0.3320 
  9 C        6.5590     2.0920    -0.0490 C.3   1 <1>   0.0700 
 10 C        7.8380     2.8820     0.2390 C.3   1 <1>  -0.1600 
 11 C        9.0990     2.0850    -0.1220 C.3   1 <1>  -0.1600 
 12 C       10.3530     2.9130     0.1740 C.3   1 <1>   0.3430 
 13 N       11.5780     2.1890    -0.2600 N.4   1 <1>  -0.9590 
 14 C       11.8890     1.0030     0.6200 C.3   1 <1>   0.3430 
 15 C       12.7570     3.1270    -0.2980 C.3   1 <1>   0.3430 
 16 C       13.1980     0.3020     0.1980 C.3   1 <1>   0.1100 
 17 C       14.0560     2.4020    -0.7110 C.3   1 <1>   0.1100 
 18 N       14.3220     1.2490     0.1620 N.3   1 <1>  -0.9000 
 19 H        2.4490    -0.6910    -1.0940 H     1 <1>   0.1500 
 20 H        0.2990     2.6750     0.3850 H     1 <1>   0.1500 
 21 H        4.5820     0.4660    -0.6760 H     1 <1>   0.1500 
 22 H        2.4440     3.8580     0.8140 H     1 <1>   0.1500 
 23 H        6.4480     1.8730    -1.0970 H     1 <1>   0.0800 
 24 H        6.4980     1.1940     0.5400 H     1 <1>   0.0800 
 25 H        7.8540     3.1360     1.2860 H     1 <1>   0.0800 
 26 H        7.8090     3.7980    -0.3280 H     1 <1>   0.0800 
 27 H        9.0670     1.8380    -1.1700 H     1 <1>   0.0800 
 28 H        9.1080     1.1760     0.4540 H     1 <1>   0.0800 
 29 H       10.4070     3.1340     1.2280 H     1 <1>   0.0800 
 30 H       10.2800     3.8480    -0.3590 H     1 <1>   0.0800 
 31 H       11.4370     1.8400    -1.2150 H     1 <1>   0.4500 
 32 H       11.0820     0.2910     0.5800 H     1 <1>   0.0800 
 33 H       11.9950     1.3290     1.6410 H     1 <1>   0.0800 
 34 H       12.9090     3.5570     0.6790 H     1 <1>   0.0800 
 35 H       12.5670     3.9310    -0.9890 H     1 <1>   0.0800 
 36 H       13.0730    -0.1560    -0.7690 H     1 <1>   0.0800 
 37 H       13.4220    -0.4790     0.9060 H     1 <1>   0.0800 
 38 H       14.8810     3.0910    -0.6410 H     1 <1>   0.0800 
 39 H       13.9840     2.0780    -1.7360 H     1 <1>   0.0800 
 40 H       15.1810     0.7640    -0.1480 H     1 <1>   0.3600 
@<TRIPOS>BOND
  1   1   2  1   
  2   2   3  ar  
  3   2   4  ar  
  4   3   5  ar  
  5   3  19  1   
  6   4   6  ar  
  7   4  20  1   
  8   5   7  ar  
  9   5  21  1   
 10   6   7  ar  
 11   6  22  1   
 12   7   8  1   
 13   8   9  1   
 14   9  10  1   
 15   9  23  1   
 16   9  24  1   
 17  10  11  1   
 18  10  25  1   
 19  10  26  1   
 20  11  12  1   
 21  11  27  1   
 22  11  28  1   
 23  12  13  1   
 24  12  29  1   
 25  12  30  1   
 26  13  14  1   
 27  13  15  1   
 28  13  31  1   
 29  14  16  1   
 30  14  32  1   
 31  14  33  1   
 32  15  17  1   
 33  15  34  1   
 34  15  35  1   
 35  16  18  1   
 36  16  36  1   
 37  16  37  1   
 38  17  18  1   
 39  17  38  1   
 40  17  39  1   
 41  18  40  1   
@<TRIPOS>SUBSTRUCTURE
  1 ****   9 GROUP 4 **** **** 0

# MOE 2024.06 (io_trps.svl 2023.06)
