@<TRIPOS>MOLECULE
NONAME
57 59 1 0 0 
SMALL
USER_CHARGES


@<TRIPOS>ATOM
  1 O       -1.4120    -2.0410     2.1670 O.2   1 <1>  -0.5700 
  2 C       -1.0280    -2.2360     1.0400 C.2   1 <1>   0.5690 
  3 N        0.2310    -1.9150     0.6000 N.am  1 <1>  -0.5470 
  4 C       -2.0020    -2.8640     0.0330 C.3   1 <1>   0.1710 
  5 C        1.2840    -1.2290     1.2320 C.ar  1 <1>   0.1170 
  6 N       -3.0300    -1.9250    -0.5070 N.3   1 <1>  -0.8100 
  7 C        2.6050    -1.4430     0.8170 C.ar  1 <1>  -0.1440 
  8 C        1.0340    -0.3120     2.2490 C.ar  1 <1>  -0.1500 
  9 C       -2.4730    -0.7030    -1.1350 C.3   1 <1>   0.1100 
 10 C       -4.0130    -2.5910    -1.3910 C.3   1 <1>   0.1100 
 11 C        3.6290    -0.7260     1.4260 C.ar  1 <1>  -0.1500 
 12 C        2.8940    -2.4620    -0.2950 C.3   1 <1>  -0.0170 
 13 C        2.0610     0.3890     2.8480 C.ar  1 <1>  -0.1500 
 14 C       -3.5850     0.2870    -1.5640 C.3   1 <1>   0.3430 
 15 C       -5.1300    -1.6240    -1.8600 C.3   1 <1>   0.3430 
 16 C        3.3620     0.1830     2.4340 C.ar  1 <1>  -0.1500 
 17 C        4.3740    -2.7620    -0.5670 C.3   1 <1>  -0.2400 
 18 N       -4.9510    -0.2560    -1.2660 N.4   1 <1>  -0.9590 
 19 C       -6.0390     0.7030    -1.5530 C.3   1 <1>   0.4810 
 20 C       -7.3080     0.1750    -0.9290 C.2   1 <1>  -0.2880 
 21 C       -7.8510     0.6350     0.2120 C.2   1 <1>  -0.1780 
 22 C       -9.0640     0.1830     0.8590 C.ar  1 <1>   0.0280 
 23 C       -9.3050     0.5120     2.1910 C.ar  1 <1>  -0.1500 
 24 C      -10.0260    -0.5780     0.1980 C.ar  1 <1>  -0.1500 
 25 C      -10.4530     0.0950     2.8400 C.ar  1 <1>  -0.1500 
 26 C      -11.1760    -0.9990     0.8410 C.ar  1 <1>  -0.1500 
 27 C      -11.3920    -0.6640     2.1650 C.ar  1 <1>  -0.1500 
 28 H        0.4790    -2.2680    -0.3190 H     1 <1>   0.3700 
 29 H       -2.5040    -3.6680     0.5430 H     1 <1>   0.0800 
 30 H       -1.4420    -3.2930    -0.7780 H     1 <1>   0.0800 
 31 H        0.0290    -0.1340     2.5820 H     1 <1>   0.1500 
 32 H       -1.8280    -0.1970    -0.4370 H     1 <1>   0.0800 
 33 H       -1.8790    -0.9680    -1.9940 H     1 <1>   0.0800 
 34 H       -3.5140    -3.0030    -2.2530 H     1 <1>   0.0800 
 35 H       -4.4690    -3.4100    -0.8590 H     1 <1>   0.0800 
 36 H        4.6550    -0.8560     1.1370 H     1 <1>   0.1500 
 37 H        2.4200    -3.3930    -0.0330 H     1 <1>   0.0800 
 38 H        2.4520    -2.1080    -1.2090 H     1 <1>   0.0800 
 39 H        1.8470     1.0930     3.6340 H     1 <1>   0.1500 
 40 H       -3.4890     0.4890    -2.6180 H     1 <1>   0.0800 
 41 H       -3.4380     1.2160    -1.0380 H     1 <1>   0.0800 
 42 H       -6.0820    -2.0320    -1.5620 H     1 <1>   0.0800 
 43 H       -5.1200    -1.5640    -2.9350 H     1 <1>   0.0800 
 44 H        4.1660     0.7280     2.8970 H     1 <1>   0.1500 
 45 H        4.8540    -3.1200     0.3280 H     1 <1>   0.0800 
 46 H        4.8810    -1.8800    -0.9150 H     1 <1>   0.0800 
 47 H        4.4600    -3.5210    -1.3240 H     1 <1>   0.0800 
 48 H       -4.9400    -0.4340    -0.2490 H     1 <1>   0.4500 
 49 H       -5.8010     1.6580    -1.1130 H     1 <1>   0.0800 
 50 H       -6.1660     0.8350    -2.6150 H     1 <1>   0.0800 
 51 H       -7.7530    -0.6200    -1.4980 H     1 <1>   0.1500 
 52 H       -7.3650     1.4310     0.7510 H     1 <1>   0.1500 
 53 H       -8.5880     1.1010     2.7340 H     1 <1>   0.1500 
 54 H       -9.8890    -0.8430    -0.8320 H     1 <1>   0.1500 
 55 H      -10.6190     0.3600     3.8700 H     1 <1>   0.1500 
 56 H      -11.9070    -1.5860     0.3130 H     1 <1>   0.1500 
 57 H      -12.2870    -0.9900     2.6680 H     1 <1>   0.1500 
@<TRIPOS>BOND
  1   1   2  2   
  2   2   3  am  
  3   2   4  1   
  4   3   5  1   
  5   3  28  1   
  6   4   6  1   
  7   4  29  1   
  8   4  30  1   
  9   5   7  ar  
 10   5   8  ar  
 11   6   9  1   
 12   6  10  1   
 13   7  11  ar  
 14   7  12  1   
 15   8  13  ar  
 16   8  31  1   
 17   9  14  1   
 18   9  32  1   
 19   9  33  1   
 20  10  15  1   
 21  10  34  1   
 22  10  35  1   
 23  11  16  ar  
 24  11  36  1   
 25  12  17  1   
 26  12  37  1   
 27  12  38  1   
 28  13  16  ar  
 29  13  39  1   
 30  14  18  1   
 31  14  40  1   
 32  14  41  1   
 33  15  18  1   
 34  15  42  1   
 35  15  43  1   
 36  16  44  1   
 37  17  45  1   
 38  17  46  1   
 39  17  47  1   
 40  18  19  1   
 41  18  48  1   
 42  19  20  1   
 43  19  49  1   
 44  19  50  1   
 45  20  21  2   
 46  20  51  1   
 47  21  22  1   
 48  21  52  1   
 49  22  23  ar  
 50  22  24  ar  
 51  23  25  ar  
 52  23  53  1   
 53  24  26  ar  
 54  24  54  1   
 55  25  27  ar  
 56  25  55  1   
 57  26  27  ar  
 58  26  56  1   
 59  27  57  1   
@<TRIPOS>SUBSTRUCTURE
  1 ****   6 GROUP 4 **** **** 0

# MOE 2024.06 (io_trps.svl 2023.06)
