@<TRIPOS>MOLECULE
NONAME
34 35 1 0 0 
SMALL
USER_CHARGES


@<TRIPOS>ATOM
  1 F        0.3990    -0.1760    -0.2040 F     1 <1>  -0.1900 
  2 C        0.2320    -1.4480     0.0390 C.ar  1 <1>   0.1900 
  3 C       -0.9970    -2.0190    -0.2180 C.ar  1 <1>  -0.1500 
  4 C        1.2870    -2.1700     0.5420 C.ar  1 <1>  -0.1500 
  5 C       -1.2150    -3.3770     0.0330 C.ar  1 <1>  -0.1440 
  6 C        1.0880    -3.5120     0.7910 C.ar  1 <1>  -0.1500 
  7 C       -0.1380    -4.1240     0.5500 C.ar  1 <1>  -0.1430 
  8 C       -2.6210    -3.9810    -0.2600 C.3   1 <1>   0.5050 
  9 C       -0.1500    -5.6170     0.8790 C.3   1 <1>  -0.0960 
 10 N       -3.1460    -4.5300     1.0480 N.am  1 <1>  -0.7300 
 11 C       -3.7160    -2.9490    -0.5680 C.2   1 <1>   0.5690 
 12 C       -2.6680    -4.9580    -1.4830 C.3   1 <1>   1.0200 
 13 C       -4.2390    -3.8400     1.4280 C.2   1 <1>   0.6900 
 14 O       -3.7900    -2.2790    -1.5760 O.2   1 <1>  -0.5700 
 15 N       -4.6030    -2.9360     0.4680 N.am  1 <1>  -0.0850 
 16 F       -3.9090    -5.3040    -1.8210 F     1 <1>  -0.3400 
 17 F       -2.1100    -4.4620    -2.5820 F     1 <1>  -0.3400 
 18 F       -2.0450    -6.1100    -1.2610 F     1 <1>  -0.3400 
 19 O       -4.7720    -4.0130     2.5020 O.2   1 <1>  -0.5700 
 20 O       -5.6470    -2.0070     0.6060 O.3   1 <1>  -0.3160 
 21 C       -6.8370    -2.5490     0.0820 C.3   1 <1>   0.1200 
 22 C       -7.9400    -1.5080     0.2470 C.3   1 <1>  -0.2400 
 23 H       -1.7440    -1.3560    -0.6150 H     1 <1>   0.1500 
 24 H        2.2330    -1.6940     0.7290 H     1 <1>   0.1500 
 25 H        1.9150    -4.0840     1.1790 H     1 <1>   0.1500 
 26 H        0.2560    -6.1700     0.0500 H     1 <1>   0.0800 
 27 H       -1.1200    -6.0110     1.1050 H     1 <1>   0.0800 
 28 H        0.4690    -5.8130     1.7370 H     1 <1>   0.0800 
 29 H       -2.4900    -4.8350     1.7680 H     1 <1>   0.3700 
 30 H       -7.0780    -3.4460     0.6290 H     1 <1>   0.0800 
 31 H       -6.6850    -2.7780    -0.9590 H     1 <1>   0.0800 
 32 H       -8.0770    -1.2770     1.2880 H     1 <1>   0.0800 
 33 H       -8.8650    -1.8930    -0.1430 H     1 <1>   0.0800 
 34 H       -7.6860    -0.6120    -0.2910 H     1 <1>   0.0800 
@<TRIPOS>BOND
  1   1   2  1   
  2   2   3  ar  
  3   2   4  ar  
  4   3   5  ar  
  5   3  23  1   
  6   4   6  ar  
  7   4  24  1   
  8   5   7  ar  
  9   5   8  1   
 10   6   7  ar  
 11   6  25  1   
 12   7   9  1   
 13   8  10  1   
 14   8  11  1   
 15   8  12  1   
 16   9  26  1   
 17   9  27  1   
 18   9  28  1   
 19  10  13  am  
 20  10  29  1   
 21  11  14  2   
 22  11  15  am  
 23  12  16  1   
 24  12  17  1   
 25  12  18  1   
 26  13  15  am  
 27  13  19  2   
 28  15  20  1   
 29  20  21  1   
 30  21  22  1   
 31  21  30  1   
 32  21  31  1   
 33  22  32  1   
 34  22  33  1   
 35  22  34  1   
@<TRIPOS>SUBSTRUCTURE
  1 ****   8 GROUP 4 **** **** 0

# MOE 2024.06 (io_trps.svl 2023.06)
