@<TRIPOS>MOLECULE
ka-07618
43 45 1 0 0 
SMALL
USER_CHARGES


@<TRIPOS>ATOM
  1 N       -0.2690     0.4170     0.6450 N.pl3 1 <1>  -0.5690 
  2 C       -0.2800    -0.9530     0.9340 C.ar  1 <1>   0.1000 
  3 C        0.9530     1.1340     0.5880 C.ar  1 <1>   0.1000 
  4 C       -1.5300     1.2160     0.7680 C.3   1 <1>   0.2090 
  5 C        0.2590    -1.8640     0.0280 C.ar  1 <1>  -0.1440 
  6 C       -0.8650    -1.4340     2.1010 C.ar  1 <1>  -0.1500 
  7 C        2.0920     0.6870    -0.1090 C.ar  1 <1>  -0.1440 
  8 C        1.0530     2.3530     1.2670 C.ar  1 <1>  -0.1500 
  9 C       -2.8130     0.5060     0.3070 C.3   1 <1>  -0.1600 
 10 C        0.1790    -3.2250     0.2760 C.ar  1 <1>  -0.1500 
 11 C        0.9390    -1.3530    -1.2310 C.3   1 <1>  -0.0170 
 12 C       -0.9490    -2.7920     2.3440 C.ar  1 <1>  -0.1500 
 13 C        3.2360     1.4720    -0.1290 C.ar  1 <1>  -0.1500 
 14 C        2.2340    -0.6370    -0.8640 C.3   1 <1>  -0.0170 
 15 C        2.1970     3.1240     1.2350 C.ar  1 <1>  -0.1500 
 16 C       -2.7030    -0.1400    -1.0730 C.3   1 <1>   0.3430 
 17 C       -0.4320    -3.6900     1.4280 C.ar  1 <1>  -0.1500 
 18 C        3.2950     2.6850     0.5280 C.ar  1 <1>  -0.1500 
 19 N       -2.5840    -1.6100    -0.9220 N.4   1 <1>  -0.9060 
 20 C       -2.4690    -2.3300    -2.2190 C.3   1 <1>   0.2630 
 21 H       -1.4120     2.1120     0.1810 H     1 <1>   0.0800 
 22 H       -1.6490     1.5140     1.7960 H     1 <1>   0.0800 
 23 H       -1.2450    -0.7390     2.8280 H     1 <1>   0.1500 
 24 H        0.2340     2.7230     1.8510 H     1 <1>   0.1500 
 25 H       -3.5770     1.2600     0.2550 H     1 <1>   0.0800 
 26 H       -3.1350    -0.2000     1.0520 H     1 <1>   0.0800 
 27 H        0.6040    -3.9350    -0.4130 H     1 <1>   0.1500 
 28 H        0.2990    -0.6760    -1.7660 H     1 <1>   0.0800 
 29 H        1.1740    -2.1750    -1.8830 H     1 <1>   0.0800 
 30 H       -1.4030    -3.1520     3.2520 H     1 <1>   0.1500 
 31 H        4.1110     1.1400    -0.6600 H     1 <1>   0.1500 
 32 H        2.8370    -1.2990    -0.2680 H     1 <1>   0.0800 
 33 H        2.7720    -0.4500    -1.7770 H     1 <1>   0.0800 
 34 H        2.2370     4.0610     1.7640 H     1 <1>   0.1500 
 35 H       -1.8430     0.2550    -1.5910 H     1 <1>   0.0800 
 36 H       -3.5860     0.0910    -1.6480 H     1 <1>   0.0800 
 37 H       -0.4860    -4.7480     1.6220 H     1 <1>   0.1500 
 38 H        4.1930     3.2770     0.4960 H     1 <1>   0.1500 
 39 H       -3.3700    -1.9760    -0.3700 H     1 <1>   0.4500 
 40 H       -1.7360    -1.7900    -0.3490 H     1 <1>   0.4500 
 41 H       -3.3550    -2.1770    -2.8140 H     1 <1>   0.0800 
 42 H       -2.3470    -3.3880    -2.0460 H     1 <1>   0.0800 
 43 H       -1.6140    -1.9720    -2.7690 H     1 <1>   0.0800 
@<TRIPOS>BOND
  1   1   2  1   
  2   1   3  1   
  3   1   4  1   
  4   2   5  ar  
  5   2   6  ar  
  6   3   7  ar  
  7   3   8  ar  
  8   4   9  1   
  9   4  21  1   
 10   4  22  1   
 11   5  10  ar  
 12   5  11  1   
 13   6  12  ar  
 14   6  23  1   
 15   7  13  ar  
 16   7  14  1   
 17   8  15  ar  
 18   8  24  1   
 19   9  16  1   
 20   9  25  1   
 21   9  26  1   
 22  10  17  ar  
 23  10  27  1   
 24  11  14  1   
 25  11  28  1   
 26  11  29  1   
 27  12  17  ar  
 28  12  30  1   
 29  13  18  ar  
 30  13  31  1   
 31  14  32  1   
 32  14  33  1   
 33  15  18  ar  
 34  15  34  1   
 35  16  19  1   
 36  16  35  1   
 37  16  36  1   
 38  17  37  1   
 39  18  38  1   
 40  19  20  1   
 41  19  39  1   
 42  19  40  1   
 43  20  41  1   
 44  20  42  1   
 45  20  43  1   
@<TRIPOS>SUBSTRUCTURE
  1 ****   1 GROUP 4 **** **** 0

# MOE 2024.06 (io_trps.svl 2023.06)
