@<TRIPOS>MOLECULE
NONAME
45 47 1 0 0 
SMALL
USER_CHARGES


@<TRIPOS>ATOM
  1 O        2.8850     1.7610    -1.2440 O.co2 1 <1>  -0.9000 
  2 C        3.1920     1.4070    -0.1030 C.2   1 <1>   0.9060 
  3 O        3.7330     2.1870     0.6920 O.co2 1 <1>  -0.9000 
  4 C        2.9220    -0.0090     0.3960 C.3   1 <1>  -0.1860 
  5 C        4.1650    -0.9660     0.4930 C.3   1 <1>  -0.0190 
  6 C        1.7340    -0.7250    -0.3000 C.3   1 <1>  -0.0800 
  7 C        5.4970    -0.5100    -0.1410 C.2   1 <1>   0.5690 
  8 C        3.7320    -2.3950     0.0450 C.3   1 <1>  -0.0800 
  9 C        2.1950    -1.3100    -1.6510 C.3   1 <1>  -0.1600 
 10 C        1.3020    -1.9030     0.5990 C.3   1 <1>  -0.1600 
 11 O        6.1420    -1.2740    -0.8280 O.2   1 <1>  -0.5700 
 12 N        5.9940     0.7140     0.1560 N.am  1 <1>  -0.7300 
 13 C        3.2940    -2.3700    -1.4360 C.3   1 <1>  -0.1600 
 14 C        2.5070    -2.8310     0.8800 C.3   1 <1>  -0.1600 
 15 C        7.1300     1.3450    -0.5330 C.3   1 <1>   0.2200 
 16 C        8.4810     0.7770    -0.0260 C.3   1 <1>   0.2000 
 17 C        6.9750     2.8590    -0.3700 C.3   1 <1>  -0.2400 
 18 O        8.8740     1.3090     1.2040 O.3   1 <1>  -0.5600 
 19 C        9.6710     1.0530    -0.9400 C.3   1 <1>  -0.1600 
 20 C       10.2250     1.0680     1.4030 C.3   1 <1>   0.1200 
 21 C       10.8580     1.0570     0.0130 C.3   1 <1>  -0.1600 
 22 H        2.6020     0.1600     1.4070 H     1 <1>   0.0800 
 23 H        4.4010    -1.0350     1.5380 H     1 <1>   0.0800 
 24 H        0.9180    -0.0370    -0.4460 H     1 <1>   0.0800 
 25 H        4.5400    -3.0920     0.1850 H     1 <1>   0.0800 
 26 H        2.5770    -0.5180    -2.2720 H     1 <1>   0.0800 
 27 H        1.3580    -1.7480    -2.1650 H     1 <1>   0.0800 
 28 H        0.5210    -2.4570     0.1090 H     1 <1>   0.0800 
 29 H        0.9060    -1.5280     1.5270 H     1 <1>   0.0800 
 30 H        5.3290     1.4040     0.5640 H     1 <1>   0.3700 
 31 H        2.9220    -3.3390    -1.7160 H     1 <1>   0.0800 
 32 H        4.1290    -2.1500    -2.0760 H     1 <1>   0.0800 
 33 H        2.7560    -2.7970     1.9260 H     1 <1>   0.0800 
 34 H        2.2450    -3.8460     0.6380 H     1 <1>   0.0800 
 35 H        7.0400     1.1030    -1.5790 H     1 <1>   0.0800 
 36 H        8.3840    -0.2880     0.1030 H     1 <1>   0.0800 
 37 H        7.0270     3.1270     0.6710 H     1 <1>   0.0800 
 38 H        6.0220     3.1710    -0.7610 H     1 <1>   0.0800 
 39 H        7.7490     3.3800    -0.8990 H     1 <1>   0.0800 
 40 H        9.5680     2.0150    -1.4070 H     1 <1>   0.0800 
 41 H        9.7540     0.2980    -1.7020 H     1 <1>   0.0800 
 42 H       10.3220     0.1100     1.8840 H     1 <1>   0.0800 
 43 H       10.6250     1.8430     2.0330 H     1 <1>   0.0800 
 44 H       11.4690     1.9310    -0.1320 H     1 <1>   0.0800 
 45 H       11.4650     0.1770    -0.1070 H     1 <1>   0.0800 
@<TRIPOS>BOND
  1   1   2  ar  
  2   2   3  ar  
  3   2   4  1   
  4   4   5  1   
  5   4   6  1   
  6   4  22  1   
  7   5   7  1   
  8   5   8  1   
  9   5  23  1   
 10   6   9  1   
 11   6  10  1   
 12   6  24  1   
 13   7  11  2   
 14   7  12  am  
 15   8  13  1   
 16   8  14  1   
 17   8  25  1   
 18   9  13  1   
 19   9  26  1   
 20   9  27  1   
 21  10  14  1   
 22  10  28  1   
 23  10  29  1   
 24  12  15  1   
 25  12  30  1   
 26  13  31  1   
 27  13  32  1   
 28  14  33  1   
 29  14  34  1   
 30  15  16  1   
 31  15  17  1   
 32  15  35  1   
 33  16  18  1   
 34  16  19  1   
 35  16  36  1   
 36  17  37  1   
 37  17  38  1   
 38  17  39  1   
 39  18  20  1   
 40  19  21  1   
 41  19  40  1   
 42  19  41  1   
 43  20  21  1   
 44  20  42  1   
 45  20  43  1   
 46  21  44  1   
 47  21  45  1   
@<TRIPOS>SUBSTRUCTURE
  1 ****   7 GROUP 4 **** **** 0

# MOE 2024.06 (io_trps.svl 2023.06)
