@<TRIPOS>MOLECULE
NONAME
38 38 1 0 0 
SMALL
USER_CHARGES


@<TRIPOS>ATOM
  1 O        0.7750    -0.4750    -1.2580 O.2   1 <1>  -0.5700 
  2 C        0.4310    -1.6420    -1.1670 C.2   1 <1>   0.7150 
  3 N       -0.4990    -2.0550    -2.0800 N.am  1 <1>  -0.4300 
  4 C        0.9970    -2.4850    -0.1340 C.2   1 <1>   0.0550 
  5 N       -1.1170    -3.3850    -2.2550 N.am  1 <1>  -0.4300 
  6 O        0.6250    -3.7510     0.0420 O.3   1 <1>  -0.2800 
  7 C        1.9430    -2.1890     0.8020 C.2   1 <1>  -0.1500 
  8 C       -2.1870    -3.9000    -1.6000 C.2   1 <1>   0.5690 
  9 C        1.2980    -4.2600     1.0490 C.2   1 <1>  -0.0100 
 10 C        2.1370    -3.3400     1.5670 C.2   1 <1>  -0.1500 
 11 O       -2.5900    -5.0080    -1.8690 O.2   1 <1>  -0.5700 
 12 C       -2.8980    -3.1010    -0.5210 C.3   1 <1>  -0.0990 
 13 C       -3.8710    -2.0660    -1.1090 C.3   1 <1>  -0.1600 
 14 C       -4.5620    -1.2610    -0.0020 C.3   1 <1>  -0.1600 
 15 C       -5.5260    -0.2260    -0.5940 C.3   1 <1>  -0.1600 
 16 C       -6.2160     0.5830     0.5120 C.3   1 <1>  -0.1600 
 17 C       -7.1780     1.6180    -0.0800 C.3   1 <1>  -0.1600 
 18 C       -7.8660     2.4260     1.0240 C.3   1 <1>  -0.2400 
 19 H       -0.8160    -1.3150    -2.7130 H     1 <1>   0.3700 
 20 H       -0.6500    -4.0360    -2.8970 H     1 <1>   0.3700 
 21 H        2.4510    -1.2500     0.9380 H     1 <1>   0.1500 
 22 H        1.1220    -5.2840     1.3320 H     1 <1>   0.1500 
 23 H        2.8210    -3.4400     2.3920 H     1 <1>   0.1500 
 24 H       -2.1660    -2.6130     0.0940 H     1 <1>   0.0800 
 25 H       -3.4410    -3.7880     0.1030 H     1 <1>   0.0800 
 26 H       -4.6120    -2.5770    -1.7010 H     1 <1>   0.0800 
 27 H       -3.3340    -1.3940    -1.7560 H     1 <1>   0.0800 
 28 H       -3.8200    -0.7570     0.5930 H     1 <1>   0.0800 
 29 H       -5.1090    -1.9310     0.6410 H     1 <1>   0.0800 
 30 H       -6.2720    -0.7290    -1.1860 H     1 <1>   0.0800 
 31 H       -4.9820     0.4440    -1.2380 H     1 <1>   0.0800 
 32 H       -5.4710     1.0860     1.1050 H     1 <1>   0.0800 
 33 H       -6.7620    -0.0850     1.1570 H     1 <1>   0.0800 
 34 H       -7.9270     1.1190    -0.6720 H     1 <1>   0.0800 
 35 H       -6.6360     2.2900    -0.7240 H     1 <1>   0.0800 
 36 H       -8.4320     1.7760     1.6680 H     1 <1>   0.0800 
 37 H       -8.5360     3.1460     0.5900 H     1 <1>   0.0800 
 38 H       -7.1360     2.9510     1.6160 H     1 <1>   0.0800 
@<TRIPOS>BOND
  1   1   2  2   
  2   2   3  am  
  3   2   4  1   
  4   3   5  1   
  5   3  19  1   
  6   4   6  1   
  7   4   7  2   
  8   5   8  am  
  9   5  20  1   
 10   6   9  1   
 11   7  10  1   
 12   7  21  1   
 13   8  11  2   
 14   8  12  1   
 15   9  10  2   
 16   9  22  1   
 17  10  23  1   
 18  12  13  1   
 19  12  24  1   
 20  12  25  1   
 21  13  14  1   
 22  13  26  1   
 23  13  27  1   
 24  14  15  1   
 25  14  28  1   
 26  14  29  1   
 27  15  16  1   
 28  15  30  1   
 29  15  31  1   
 30  16  17  1   
 31  16  32  1   
 32  16  33  1   
 33  17  18  1   
 34  17  34  1   
 35  17  35  1   
 36  18  36  1   
 37  18  37  1   
 38  18  38  1   
@<TRIPOS>SUBSTRUCTURE
  1 ****  12 GROUP 4 **** **** 0

# MOE 2024.06 (io_trps.svl 2023.06)
