@<TRIPOS>MOLECULE
NONAME
47 49 1 0 0 
SMALL
USER_CHARGES


@<TRIPOS>ATOM
  1 F        1.4590    -1.8000    -2.0810 F     1 <1>  -0.1900 
  2 C        0.3780    -1.9500    -1.3520 C.ar  1 <1>   0.1900 
  3 C        0.4890    -2.3920    -0.0270 C.ar  1 <1>   0.1000 
  4 C       -0.8340    -1.6570    -1.9440 C.ar  1 <1>  -0.1500 
  5 N        1.6930    -2.7010     0.6190 N.pl3 1 <1>  -0.8380 
  6 C       -0.6950    -2.5290     0.6870 C.ar  1 <1>  -0.1500 
  7 C       -1.9960    -1.8040    -1.2040 C.ar  1 <1>  -0.1500 
  8 C        2.4110    -3.9120     0.1140 C.3   1 <1>   0.2090 
  9 C        2.6310    -1.5610     0.8350 C.3   1 <1>   0.2090 
 10 C       -1.9220    -2.2400     0.1100 C.ar  1 <1>  -0.1500 
 11 C        3.5240    -4.3300     1.0880 C.3   1 <1>   0.1400 
 12 C        3.7590    -1.9480     1.8100 C.3   1 <1>   0.1400 
 13 N        4.4630    -3.1940     1.3630 N.am  1 <1>  -0.6600 
 14 C        5.7330    -3.1970     0.8520 C.2   1 <1>   0.6900 
 15 O        6.0460    -3.9940    -0.0120 O.2   1 <1>  -0.5700 
 16 N        6.6360    -2.3070     1.3560 N.am  1 <1>  -0.5470 
 17 C        7.9300    -1.9660     0.9350 C.ar  1 <1>   0.1170 
 18 C        8.8230    -1.4370     1.8600 C.ar  1 <1>  -0.1500 
 19 C        8.3540    -2.1140    -0.3820 C.ar  1 <1>  -0.1500 
 20 C       10.1020    -1.0700     1.4820 C.ar  1 <1>  -0.1500 
 21 C        9.6320    -1.7510    -0.7670 C.ar  1 <1>  -0.1500 
 22 C       10.5170    -1.2230     0.1690 C.ar  1 <1>   0.0830 
 23 O       11.7880    -0.8390    -0.1180 O.3   1 <1>  -0.3620 
 24 C       12.3140    -1.0010    -1.4150 C.3   1 <1>   0.1200 
 25 C       13.7560    -0.5040    -1.4040 C.3   1 <1>  -0.2400 
 26 H       -0.8670    -1.3200    -2.9650 H     1 <1>   0.1500 
 27 H       -0.6420    -2.8680     1.7050 H     1 <1>   0.1500 
 28 H       -2.9520    -1.5800    -1.6470 H     1 <1>   0.1500 
 29 H        2.8450    -3.7050    -0.8490 H     1 <1>   0.0800 
 30 H        1.7110    -4.7210     0.0000 H     1 <1>   0.0800 
 31 H        2.0850    -0.7220     1.2310 H     1 <1>   0.0800 
 32 H        3.0640    -1.2650    -0.1050 H     1 <1>   0.0800 
 33 H       -2.8230    -2.3550     0.6870 H     1 <1>   0.1500 
 34 H        4.0580    -5.1700     0.6790 H     1 <1>   0.0800 
 35 H        3.0760    -4.6470     2.0130 H     1 <1>   0.0800 
 36 H        3.3330    -2.1150     2.7840 H     1 <1>   0.0800 
 37 H        4.4460    -1.1250     1.8820 H     1 <1>   0.0800 
 38 H        6.3560    -1.9410     2.2580 H     1 <1>   0.3700 
 39 H        8.5210    -1.3130     2.8830 H     1 <1>   0.1500 
 40 H        7.6790    -2.5170    -1.1160 H     1 <1>   0.1500 
 41 H       10.7900    -0.6640     2.2010 H     1 <1>   0.1500 
 42 H        9.9140    -1.8860    -1.7930 H     1 <1>   0.1500 
 43 H       11.7170    -0.4230    -2.0990 H     1 <1>   0.0800 
 44 H       12.2730    -2.0460    -1.6710 H     1 <1>   0.0800 
 45 H       13.7860     0.5350    -1.1300 H     1 <1>   0.0800 
 46 H       14.1870    -0.6150    -2.3830 H     1 <1>   0.0800 
 47 H       14.3390    -1.0770    -0.7050 H     1 <1>   0.0800 
@<TRIPOS>BOND
  1   1   2  1   
  2   2   3  ar  
  3   2   4  ar  
  4   3   5  1   
  5   3   6  ar  
  6   4   7  ar  
  7   4  26  1   
  8   5   8  1   
  9   5   9  1   
 10   6  10  ar  
 11   6  27  1   
 12   7  10  ar  
 13   7  28  1   
 14   8  11  1   
 15   8  29  1   
 16   8  30  1   
 17   9  12  1   
 18   9  31  1   
 19   9  32  1   
 20  10  33  1   
 21  11  13  1   
 22  11  34  1   
 23  11  35  1   
 24  12  13  1   
 25  12  36  1   
 26  12  37  1   
 27  13  14  am  
 28  14  15  2   
 29  14  16  am  
 30  16  17  1   
 31  16  38  1   
 32  17  18  ar  
 33  17  19  ar  
 34  18  20  ar  
 35  18  39  1   
 36  19  21  ar  
 37  19  40  1   
 38  20  22  ar  
 39  20  41  1   
 40  21  22  ar  
 41  21  42  1   
 42  22  23  1   
 43  23  24  1   
 44  24  25  1   
 45  24  43  1   
 46  24  44  1   
 47  25  45  1   
 48  25  46  1   
 49  25  47  1   
@<TRIPOS>SUBSTRUCTURE
  1 ****  14 GROUP 4 **** **** 0

# MOE 2024.06 (io_trps.svl 2023.06)
