@<TRIPOS>MOLECULE
NONAME
54 55 1 0 0 
SMALL
USER_CHARGES


@<TRIPOS>ATOM
  1 O       -3.3880     1.8400     0.8270 O.2   1 <1>  -0.5700 
  2 C       -3.7740     2.8760     0.3400 C.2   1 <1>   0.5690 
  3 N       -5.0920     3.1840     0.3730 N.am  1 <1>  -0.7300 
  4 C       -2.7310     3.8240    -0.2820 C.3   1 <1>   0.4040 
  5 C       -5.8990     3.9320    -0.6270 C.3   1 <1>   0.1400 
  6 N       -1.4340     3.8700     0.4930 N.4   1 <1>  -0.9590 
  7 C       -7.2650     3.2480    -0.8350 C.3   1 <1>   0.1400 
  8 C       -1.6280     4.4580     1.8520 C.3   1 <1>   0.3430 
  9 C       -0.3410     4.5420    -0.2670 C.3   1 <1>   0.3430 
 10 N       -7.1350     1.7710    -1.0460 N.am  1 <1>  -0.7300 
 11 C       -0.3330     4.3320     2.6570 C.3   1 <1>  -0.1600 
 12 C        0.9740     4.4140     0.5030 C.3   1 <1>  -0.1600 
 13 C       -7.0830     0.8630    -0.0270 C.2   1 <1>   0.5690 
 14 C        0.8560     4.9710     1.9280 C.3   1 <1>  -0.1600 
 15 O       -7.0870     1.2270     1.1270 O.2   1 <1>  -0.5700 
 16 C       -6.9600    -0.6500    -0.2990 C.3   1 <1>   0.4040 
 17 N       -6.2770    -1.4120     0.8160 N.4   1 <1>  -0.9590 
 18 C       -4.8640    -0.9660     1.0110 C.3   1 <1>   0.3430 
 19 C       -6.3960    -2.8880     0.6550 C.3   1 <1>   0.3430 
 20 C       -4.2770    -1.6410     2.2520 C.3   1 <1>  -0.1600 
 21 C       -5.8330    -3.5890     1.8930 C.3   1 <1>  -0.1600 
 22 C       -4.3860    -3.1690     2.1780 C.3   1 <1>  -0.1600 
 23 H       -5.6850     2.5550     0.9430 H     1 <1>   0.3700 
 24 H       -3.1530     4.8110    -0.3420 H     1 <1>   0.0800 
 25 H       -2.5350     3.4810    -1.2830 H     1 <1>   0.0800 
 26 H       -5.3780     3.9770    -1.5680 H     1 <1>   0.0800 
 27 H       -6.0600     4.9390    -0.2800 H     1 <1>   0.0800 
 28 H       -1.1590     2.8880     0.6500 H     1 <1>   0.4500 
 29 H       -7.8790     3.4290     0.0320 H     1 <1>   0.0800 
 30 H       -7.7670     3.6890    -1.6800 H     1 <1>   0.0800 
 31 H       -2.4200     3.9410     2.3720 H     1 <1>   0.0800 
 32 H       -1.8980     5.4980     1.7680 H     1 <1>   0.0800 
 33 H       -0.5770     5.5850    -0.4020 H     1 <1>   0.0800 
 34 H       -0.2300     4.0880    -1.2390 H     1 <1>   0.0800 
 35 H       -7.1540     1.4760    -2.0270 H     1 <1>   0.3700 
 36 H       -0.1320     3.2920     2.8470 H     1 <1>   0.0800 
 37 H       -0.4650     4.8110     3.6120 H     1 <1>   0.0800 
 38 H        1.7450     4.9500    -0.0250 H     1 <1>   0.0800 
 39 H        1.2690     3.3800     0.5370 H     1 <1>   0.0800 
 40 H        1.7660     4.7770     2.4730 H     1 <1>   0.0800 
 41 H        0.7220     6.0390     1.8880 H     1 <1>   0.0800 
 42 H       -6.4180    -0.7930    -1.2170 H     1 <1>   0.0800 
 43 H       -7.9550    -1.0370    -0.4350 H     1 <1>   0.0800 
 44 H       -6.7670    -1.1390     1.6840 H     1 <1>   0.4500 
 45 H       -4.8300     0.1020     1.1460 H     1 <1>   0.0800 
 46 H       -4.2720    -1.2220     0.1480 H     1 <1>   0.0800 
 47 H       -5.8450    -3.2060    -0.2160 H     1 <1>   0.0800 
 48 H       -7.4290    -3.1670     0.5260 H     1 <1>   0.0800 
 49 H       -4.7860    -1.2770     3.1270 H     1 <1>   0.0800 
 50 H       -3.2420    -1.3590     2.3450 H     1 <1>   0.0800 
 51 H       -5.8710    -4.6540     1.7420 H     1 <1>   0.0800 
 52 H       -6.4540    -3.3650     2.7440 H     1 <1>   0.0800 
 53 H       -4.0540    -3.6030     3.1060 H     1 <1>   0.0800 
 54 H       -3.7420    -3.5380     1.3960 H     1 <1>   0.0800 
@<TRIPOS>BOND
  1   1   2  2   
  2   2   3  am  
  3   2   4  1   
  4   3   5  1   
  5   3  23  1   
  6   4   6  1   
  7   4  24  1   
  8   4  25  1   
  9   5   7  1   
 10   5  26  1   
 11   5  27  1   
 12   6   8  1   
 13   6   9  1   
 14   6  28  1   
 15   7  10  1   
 16   7  29  1   
 17   7  30  1   
 18   8  11  1   
 19   8  31  1   
 20   8  32  1   
 21   9  12  1   
 22   9  33  1   
 23   9  34  1   
 24  10  13  am  
 25  10  35  1   
 26  11  14  1   
 27  11  36  1   
 28  11  37  1   
 29  12  14  1   
 30  12  38  1   
 31  12  39  1   
 32  13  15  2   
 33  13  16  1   
 34  14  40  1   
 35  14  41  1   
 36  16  17  1   
 37  16  42  1   
 38  16  43  1   
 39  17  18  1   
 40  17  19  1   
 41  17  44  1   
 42  18  20  1   
 43  18  45  1   
 44  18  46  1   
 45  19  21  1   
 46  19  47  1   
 47  19  48  1   
 48  20  22  1   
 49  20  49  1   
 50  20  50  1   
 51  21  22  1   
 52  21  51  1   
 53  21  52  1   
 54  22  53  1   
 55  22  54  1   
@<TRIPOS>SUBSTRUCTURE
  1 ****   1 GROUP 4 **** **** 0

# MOE 2024.06 (io_trps.svl 2023.06)
