@<TRIPOS>MOLECULE
NONAME
43 45 1 0 0 
SMALL
USER_CHARGES


@<TRIPOS>ATOM
  1 O        0.3720     0.3360     0.7340 O.3   1 <1>  -0.3630 
  2 C        0.2900     1.5810     0.1860 C.ar  1 <1>   0.0830 
  3 C        1.2100    -0.7020     0.1850 C.3   1 <1>   0.2800 
  4 C        1.4070     2.1380    -0.4130 C.ar  1 <1>  -0.1440 
  5 C       -0.8940     2.2950     0.2620 C.ar  1 <1>  -0.1500 
  6 C        2.5200     0.1440     0.5730 C.3   1 <1>  -0.0800 
  7 C       -0.1090    -1.4340    -0.2800 C.3   1 <1>  -0.2400 
  8 C        2.0860    -1.9040    -0.3540 C.3   1 <1>  -0.2400 
  9 C        1.3410     3.4150    -0.9460 C.ar  1 <1>  -0.1500 
 10 C        2.6450     1.2760    -0.4400 C.3   1 <1>   0.3430 
 11 C       -0.9620     3.5690    -0.2750 C.ar  1 <1>  -0.1500 
 12 C        4.0140    -0.2080     0.7080 C.3   1 <1>  -0.1600 
 13 C        0.1550     4.1280    -0.8780 C.ar  1 <1>  -0.1500 
 14 O        3.8040     1.9760    -0.1060 O.3   1 <1>  -0.5600 
 15 C        4.6650     1.1770     0.6460 C.3   1 <1>   0.2000 
 16 C        6.0630     1.1760     0.0090 C.3   1 <1>  -0.1600 
 17 C        6.7030     2.5730    -0.1210 C.3   1 <1>  -0.0800 
 18 C        8.0390     2.4630    -0.8650 C.3   1 <1>  -0.2400 
 19 C        6.9300     3.2340     1.2450 C.3   1 <1>  -0.2400 
 20 H       -1.7480     1.8500     0.7400 H     1 <1>   0.1500 
 21 H        2.3360     0.5900     1.5420 H     1 <1>   0.0800 
 22 H       -1.0490    -0.9090    -0.1670 H     1 <1>   0.0800 
 23 H       -0.2440    -2.3510     0.2690 H     1 <1>   0.0800 
 24 H       -0.0780    -1.6550    -1.3350 H     1 <1>   0.0800 
 25 H        2.6900    -1.5810    -1.1840 H     1 <1>   0.0800 
 26 H        1.6050    -2.7940    -0.7280 H     1 <1>   0.0800 
 27 H        2.7010    -2.3020     0.4330 H     1 <1>   0.0800 
 28 H        2.2130     3.8480    -1.4050 H     1 <1>   0.1500 
 29 H        2.7850     0.8790    -1.4300 H     1 <1>   0.0800 
 30 H       -1.8800     4.1270    -0.2210 H     1 <1>   0.1500 
 31 H        4.4010    -0.7960    -0.1040 H     1 <1>   0.0800 
 32 H        4.2370    -0.7010     1.6380 H     1 <1>   0.0800 
 33 H        0.1030     5.1200    -1.2920 H     1 <1>   0.1500 
 34 H        4.6970     1.5990     1.6350 H     1 <1>   0.0800 
 35 H        5.9890     0.7350    -0.9690 H     1 <1>   0.0800 
 36 H        6.7070     0.5480     0.5980 H     1 <1>   0.0800 
 37 H        6.0470     3.2020    -0.7010 H     1 <1>   0.0800 
 38 H        8.7300     1.8460    -0.3190 H     1 <1>   0.0800 
 39 H        8.4760     3.4380    -0.9920 H     1 <1>   0.0800 
 40 H        7.8890     2.0340    -1.8400 H     1 <1>   0.0800 
 41 H        7.5300     2.6050     1.8790 H     1 <1>   0.0800 
 42 H        5.9920     3.4290     1.7320 H     1 <1>   0.0800 
 43 H        7.4350     4.1760     1.1210 H     1 <1>   0.0800 
@<TRIPOS>BOND
  1   1   2  1   
  2   1   3  1   
  3   2   4  ar  
  4   2   5  ar  
  5   3   6  1   
  6   3   7  1   
  7   3   8  1   
  8   4   9  ar  
  9   4  10  1   
 10   5  11  ar  
 11   5  20  1   
 12   6  10  1   
 13   6  12  1   
 14   6  21  1   
 15   7  22  1   
 16   7  23  1   
 17   7  24  1   
 18   8  25  1   
 19   8  26  1   
 20   8  27  1   
 21   9  13  ar  
 22   9  28  1   
 23  10  14  1   
 24  10  29  1   
 25  11  13  ar  
 26  11  30  1   
 27  12  15  1   
 28  12  31  1   
 29  12  32  1   
 30  13  33  1   
 31  14  15  1   
 32  15  16  1   
 33  15  34  1   
 34  16  17  1   
 35  16  35  1   
 36  16  36  1   
 37  17  18  1   
 38  17  19  1   
 39  17  37  1   
 40  18  38  1   
 41  18  39  1   
 42  18  40  1   
 43  19  41  1   
 44  19  42  1   
 45  19  43  1   
@<TRIPOS>SUBSTRUCTURE
  1 ****  10 GROUP 4 **** **** 0

# MOE 2024.06 (io_trps.svl 2023.06)
