@<TRIPOS>MOLECULE
NONAME
35 36 1 0 0 
SMALL
USER_CHARGES


@<TRIPOS>ATOM
  1 I        1.3550    -2.4710    -3.3510 I     1 <1>  -0.0810 
  2 C        2.1000    -2.0950    -1.3830 C.ar  1 <1>   0.0810 
  3 C        1.3160    -2.3750    -0.2680 C.ar  1 <1>   0.0830 
  4 C        3.3760    -1.5710    -1.2860 C.ar  1 <1>  -0.1500 
  5 O        0.0690    -2.8870    -0.4410 O.3   1 <1>  -0.3630 
  6 C        1.8650    -2.1080     0.9820 C.ar  1 <1>  -0.1500 
  7 C        3.9210    -1.3020    -0.0350 C.ar  1 <1>  -0.0090 
  8 C       -0.7720    -3.1800     0.6520 C.3   1 <1>   0.0400 
  9 C        3.1440    -1.5830     1.0860 C.ar  1 <1>  -0.1500 
 10 S        5.5960    -0.6300     0.1370 S.o2  1 <1>   1.4470 
 11 O        5.6280     0.3300     1.2180 O.2   1 <1>  -0.6500 
 12 O        6.1290    -0.2730    -1.1560 O.2   1 <1>  -0.6500 
 13 N        6.4850    -1.9610     0.6430 N.am  1 <1>  -0.9140 
 14 C        7.7820    -1.6260     1.2250 C.3   1 <1>   0.1960 
 15 C        8.8070    -1.3120     0.1200 C.3   1 <1>   0.2000 
 16 O        8.7320    -2.2870    -0.8730 O.3   1 <1>  -0.5600 
 17 C       10.2630    -1.3450     0.5640 C.3   1 <1>  -0.1600 
 18 C        9.8950    -2.2610    -1.6350 C.3   1 <1>   0.1200 
 19 C       10.9970    -1.7570    -0.7040 C.3   1 <1>  -0.1600 
 20 H        3.9460    -1.3710    -2.1770 H     1 <1>   0.1500 
 21 H        1.3160    -2.3020     1.8850 H     1 <1>   0.1500 
 22 H       -1.6980    -3.5670     0.2660 H     1 <1>   0.0800 
 23 H       -0.9560    -2.2760     1.2040 H     1 <1>   0.0800 
 24 H       -0.2970    -3.9210     1.2700 H     1 <1>   0.0800 
 25 H        3.5560    -1.3840     2.0630 H     1 <1>   0.1500 
 26 H        6.7500    -2.4260    -0.2330 H     1 <1>   0.4200 
 27 H        8.1310    -2.4800     1.7790 H     1 <1>   0.0800 
 28 H        7.7020    -0.8030     1.9150 H     1 <1>   0.0800 
 29 H        8.5880    -0.3620    -0.3390 H     1 <1>   0.0800 
 30 H       10.4010    -2.0910     1.3270 H     1 <1>   0.0800 
 31 H       10.5850    -0.3890     0.9370 H     1 <1>   0.0800 
 32 H        9.7380    -1.5850    -2.4580 H     1 <1>   0.0800 
 33 H       10.0890    -3.2540    -2.0020 H     1 <1>   0.0800 
 34 H       11.7170    -2.5320    -0.5070 H     1 <1>   0.0800 
 35 H       11.4990    -0.9200    -1.1570 H     1 <1>   0.0800 
@<TRIPOS>BOND
  1   1   2  1   
  2   2   3  ar  
  3   2   4  ar  
  4   3   5  1   
  5   3   6  ar  
  6   4   7  ar  
  7   4  20  1   
  8   5   8  1   
  9   6   9  ar  
 10   6  21  1   
 11   7   9  ar  
 12   7  10  1   
 13   8  22  1   
 14   8  23  1   
 15   8  24  1   
 16   9  25  1   
 17  10  11  2   
 18  10  12  2   
 19  10  13  am  
 20  13  14  1   
 21  13  26  1   
 22  14  15  1   
 23  14  27  1   
 24  14  28  1   
 25  15  16  1   
 26  15  17  1   
 27  15  29  1   
 28  16  18  1   
 29  17  19  1   
 30  17  30  1   
 31  17  31  1   
 32  18  19  1   
 33  18  32  1   
 34  18  33  1   
 35  19  34  1   
 36  19  35  1   
@<TRIPOS>SUBSTRUCTURE
  1 ****   7 GROUP 4 **** **** 0

# MOE 2024.06 (io_trps.svl 2023.06)
