@<TRIPOS>MOLECULE
NONAME
46 48 1 0 0 
SMALL
USER_CHARGES


@<TRIPOS>ATOM
  1 S       -0.1110     0.5250    -1.0550 S.o2  1 <1>   1.4470 
  2 O       -0.7080     1.1780    -2.2020 O.2   1 <1>  -0.6500 
  3 O       -0.1020    -0.9200    -0.9950 O.2   1 <1>  -0.6500 
  4 N       -0.9580     1.0610     0.3110 N.am  1 <1>  -0.8490 
  5 C        1.5650     1.1620    -0.7820 C.ar  1 <1>  -0.0090 
  6 C       -2.2600     0.4370     0.4480 C.3   1 <1>   0.1960 
  7 C       -1.2050     2.4920     0.3520 C.3   1 <1>   0.1960 
  8 C        2.2420     1.8630    -1.7730 C.ar  1 <1>  -0.1500 
  9 C        2.2210     0.9650     0.4270 C.ar  1 <1>  -0.1500 
 10 C       -3.0000     1.3080     1.4570 C.3   1 <1>  -0.1600 
 11 C       -2.2750     2.6540     1.4240 C.3   1 <1>  -0.1600 
 12 C        3.5200     2.3510    -1.5640 C.ar  1 <1>  -0.1500 
 13 C        3.4970     1.4520     0.6420 C.ar  1 <1>  -0.1500 
 14 C        4.1700     2.1540    -0.3530 C.ar  1 <1>   0.1170 
 15 N        5.4560     2.6790    -0.1800 N.am  1 <1>  -0.5470 
 16 C        6.4700     2.3350     0.6680 C.2   1 <1>   0.6900 
 17 O        6.3980     1.3370     1.3590 O.2   1 <1>  -0.5700 
 18 N        7.5930     3.1220     0.6990 N.am  1 <1>  -0.6600 
 19 C        7.6190     4.5690     0.3500 C.3   1 <1>   0.1400 
 20 C        8.8660     2.6170     1.2830 C.3   1 <1>   0.1400 
 21 C        8.7450     4.8330    -0.6540 C.3   1 <1>  -0.1600 
 22 C       10.0170     2.8720     0.3020 C.3   1 <1>  -0.1600 
 23 C       10.0990     4.3480    -0.1150 C.3   1 <1>  -0.1600 
 24 H       -2.1650    -0.5820     0.7850 H     1 <1>   0.0800 
 25 H       -2.7760     0.4540    -0.5000 H     1 <1>   0.0800 
 26 H       -1.5930     2.8340    -0.5950 H     1 <1>   0.0800 
 27 H       -0.3080     3.0370     0.5930 H     1 <1>   0.0800 
 28 H        1.7600     2.0280    -2.7230 H     1 <1>   0.1500 
 29 H        1.7220     0.4200     1.2120 H     1 <1>   0.1500 
 30 H       -2.9300     0.8690     2.4360 H     1 <1>   0.0800 
 31 H       -4.0370     1.4010     1.1860 H     1 <1>   0.0800 
 32 H       -2.9370     3.4680     1.1870 H     1 <1>   0.0800 
 33 H       -1.8060     2.8460     2.3730 H     1 <1>   0.0800 
 34 H        4.0160     2.8870    -2.3520 H     1 <1>   0.1500 
 35 H        3.9710     1.2850     1.5920 H     1 <1>   0.1500 
 36 H        5.7620     3.3430    -0.8810 H     1 <1>   0.3700 
 37 H        7.7970     5.1360     1.2480 H     1 <1>   0.0800 
 38 H        6.6770     4.8900    -0.0580 H     1 <1>   0.0800 
 39 H        8.7970     1.5610     1.4870 H     1 <1>   0.0800 
 40 H        9.0510     3.1260     2.2130 H     1 <1>   0.0800 
 41 H        8.7980     5.8870    -0.8620 H     1 <1>   0.0800 
 42 H        8.5200     4.3270    -1.5770 H     1 <1>   0.0800 
 43 H        9.8680     2.2560    -0.5680 H     1 <1>   0.0800 
 44 H       10.9430     2.5720     0.7590 H     1 <1>   0.0800 
 45 H       10.3770     4.9430     0.7390 H     1 <1>   0.0800 
 46 H       10.8580     4.4710    -0.8680 H     1 <1>   0.0800 
@<TRIPOS>BOND
  1   1   2  2   
  2   1   3  2   
  3   1   4  am  
  4   1   5  1   
  5   4   6  1   
  6   4   7  1   
  7   5   8  ar  
  8   5   9  ar  
  9   6  10  1   
 10   6  24  1   
 11   6  25  1   
 12   7  11  1   
 13   7  26  1   
 14   7  27  1   
 15   8  12  ar  
 16   8  28  1   
 17   9  13  ar  
 18   9  29  1   
 19  10  11  1   
 20  10  30  1   
 21  10  31  1   
 22  11  32  1   
 23  11  33  1   
 24  12  14  ar  
 25  12  34  1   
 26  13  14  ar  
 27  13  35  1   
 28  14  15  1   
 29  15  16  am  
 30  15  36  1   
 31  16  17  2   
 32  16  18  am  
 33  18  19  1   
 34  18  20  1   
 35  19  21  1   
 36  19  37  1   
 37  19  38  1   
 38  20  22  1   
 39  20  39  1   
 40  20  40  1   
 41  21  23  1   
 42  21  41  1   
 43  21  42  1   
 44  22  23  1   
 45  22  43  1   
 46  22  44  1   
 47  23  45  1   
 48  23  46  1   
@<TRIPOS>SUBSTRUCTURE
  1 ****  14 GROUP 4 **** **** 0

# MOE 2024.06 (io_trps.svl 2023.06)
