@<TRIPOS>MOLECULE
NONAME
52 53 1 0 0 
SMALL
USER_CHARGES


@<TRIPOS>ATOM
  1 O        0.2420    -0.6850     1.7750 O.2   1 <1>  -0.5700 
  2 C        0.7770    -1.4390     0.9830 C.2   1 <1>   0.5440 
  3 N       -0.0290    -2.3100     0.2980 N.am  1 <1>  -0.7300 
  4 C        2.2080    -1.3990     0.7520 C.ar  1 <1>   0.0860 
  5 C       -1.4780    -2.4200     0.5200 C.3   1 <1>   0.2200 
  6 C        2.9430    -0.2370     1.0000 C.ar  1 <1>  -0.1500 
  7 C        2.9180    -2.5050     0.2740 C.ar  1 <1>  -0.1500 
  8 C       -1.9490    -3.8280     0.1770 C.3   1 <1>  -0.1600 
  9 C       -2.1980    -1.4080    -0.3660 C.3   1 <1>  -0.1600 
 10 C        4.3030    -0.1760     0.7690 C.ar  1 <1>  -0.1500 
 11 C        4.2780    -2.4430     0.0410 C.ar  1 <1>  -0.1500 
 12 C       -3.4670    -3.9790     0.3560 C.3   1 <1>   0.5030 
 13 C       -3.7200    -1.4800    -0.1970 C.3   1 <1>   0.5030 
 14 C        4.9970    -1.2780     0.2800 C.ar  1 <1>   0.1000 
 15 N       -4.2000    -2.8710    -0.2810 N.4   1 <1>  -0.9060 
 16 C       -3.8650    -4.0890     1.8310 C.3   1 <1>  -0.2400 
 17 C       -3.9400    -5.2450    -0.3560 C.3   1 <1>  -0.2400 
 18 C       -4.1860    -0.8410     1.1140 C.3   1 <1>  -0.2400 
 19 C       -4.3950    -0.7420    -1.3510 C.3   1 <1>  -0.2400 
 20 N        6.3630    -1.2380     0.0360 N.pl3 1 <1>  -0.8380 
 21 C        7.0040    -0.0230    -0.5310 C.3   1 <1>   0.1290 
 22 C        7.2650    -2.1710     0.7600 C.3   1 <1>   0.1290 
 23 H        0.3730    -2.8370    -0.4780 H     1 <1>   0.3700 
 24 H       -1.6770    -2.2100     1.5580 H     1 <1>   0.0800 
 25 H        2.4320     0.6290     1.3830 H     1 <1>   0.1500 
 26 H        2.4050    -3.4290     0.0880 H     1 <1>   0.1500 
 27 H       -1.4430    -4.5350     0.8100 H     1 <1>   0.0800 
 28 H       -1.6820    -4.0500    -0.8410 H     1 <1>   0.0800 
 29 H       -1.9340    -1.5870    -1.3930 H     1 <1>   0.0800 
 30 H       -1.8610    -0.4170    -0.1130 H     1 <1>   0.0800 
 31 H        4.8400     0.7300     0.9770 H     1 <1>   0.1500 
 32 H        4.8050    -3.3000    -0.3360 H     1 <1>   0.1500 
 33 H       -5.1620    -2.8900     0.0640 H     1 <1>   0.4500 
 34 H       -4.2510    -3.0940    -1.2760 H     1 <1>   0.4500 
 35 H       -3.4540    -3.3000     2.4280 H     1 <1>   0.0800 
 36 H       -3.4830    -5.0080     2.2400 H     1 <1>   0.0800 
 37 H       -4.9340    -4.1020     1.9480 H     1 <1>   0.0800 
 38 H       -3.7110    -5.2140    -1.4070 H     1 <1>   0.0800 
 39 H       -4.9980    -5.3920    -0.2300 H     1 <1>   0.0800 
 40 H       -3.4420    -6.1060     0.0570 H     1 <1>   0.0800 
 41 H       -3.6520    -1.2090     1.9660 H     1 <1>   0.0800 
 42 H       -5.2410    -0.9810     1.2660 H     1 <1>   0.0800 
 43 H       -4.0010     0.2190     1.0810 H     1 <1>   0.0800 
 44 H       -4.1240    -1.1660    -2.3020 H     1 <1>   0.0800 
 45 H       -4.0840     0.2880    -1.3570 H     1 <1>   0.0800 
 46 H       -5.4670    -0.7580    -1.2510 H     1 <1>   0.0800 
 47 H        6.2800     0.5510    -1.0820 H     1 <1>   0.0800 
 48 H        7.7970    -0.3100    -1.2000 H     1 <1>   0.0800 
 49 H        7.4080     0.5830     0.2620 H     1 <1>   0.0800 
 50 H        7.8790    -2.7010     0.0530 H     1 <1>   0.0800 
 51 H        6.6900    -2.8830     1.3270 H     1 <1>   0.0800 
 52 H        7.8950    -1.6210     1.4370 H     1 <1>   0.0800 
@<TRIPOS>BOND
  1   1   2  2   
  2   2   3  am  
  3   2   4  1   
  4   3   5  1   
  5   3  23  1   
  6   4   6  ar  
  7   4   7  ar  
  8   5   8  1   
  9   5   9  1   
 10   5  24  1   
 11   6  10  ar  
 12   6  25  1   
 13   7  11  ar  
 14   7  26  1   
 15   8  12  1   
 16   8  27  1   
 17   8  28  1   
 18   9  13  1   
 19   9  29  1   
 20   9  30  1   
 21  10  14  ar  
 22  10  31  1   
 23  11  14  ar  
 24  11  32  1   
 25  12  15  1   
 26  12  16  1   
 27  12  17  1   
 28  13  15  1   
 29  13  18  1   
 30  13  19  1   
 31  14  20  1   
 32  15  33  1   
 33  15  34  1   
 34  16  35  1   
 35  16  36  1   
 36  16  37  1   
 37  17  38  1   
 38  17  39  1   
 39  17  40  1   
 40  18  41  1   
 41  18  42  1   
 42  18  43  1   
 43  19  44  1   
 44  19  45  1   
 45  19  46  1   
 46  20  21  1   
 47  20  22  1   
 48  21  47  1   
 49  21  48  1   
 50  21  49  1   
 51  22  50  1   
 52  22  51  1   
 53  22  52  1   
@<TRIPOS>SUBSTRUCTURE
  1 ****   3 GROUP 4 **** **** 0

# MOE 2024.06 (io_trps.svl 2023.06)
