@<TRIPOS>MOLECULE
NONAME
41 42 1 0 0 
SMALL
USER_CHARGES


@<TRIPOS>ATOM
  1 O       -0.8540    -1.6880     3.0120 O.2   1 <1>  -0.5700 
  2 C       -0.9140    -2.2830     1.9560 C.2   1 <1>   0.5440 
  3 N        0.2610    -2.7740     1.4800 N.am  1 <1>  -0.7300 
  4 C       -2.1880    -2.5050     1.3170 C.ar  1 <1>   0.0860 
  5 C        0.4990    -3.5730     0.2670 C.3   1 <1>   0.2200 
  6 C       -2.5070    -1.9650     0.0650 C.ar  1 <1>   0.3920 
  7 C       -3.1560    -3.2740     1.9490 C.ar  1 <1>  -0.1500 
  8 C        0.8140    -5.0120     0.6940 C.3   1 <1>  -0.1600 
  9 C        1.6110    -2.8840    -0.5290 C.3   1 <1>  -0.1600 
 10 O       -1.5850    -1.1940    -0.5470 O.3   1 <1>  -0.3630 
 11 N       -3.6630    -2.1600    -0.5730 N.ar  1 <1>  -0.6200 
 12 C       -4.3550    -3.4730     1.3020 C.ar  1 <1>  -0.1500 
 13 C        0.7250    -5.9990    -0.4800 C.3   1 <1>  -0.1600 
 14 C        2.0200    -3.6090    -1.8220 C.3   1 <1>  -0.1600 
 15 C       -1.8520    -0.5450    -1.7720 C.3   1 <1>   0.1200 
 16 C       -4.5530    -2.9030     0.0580 C.ar  1 <1>   0.1600 
 17 C        2.0130    -6.1500    -1.3050 C.3   1 <1>  -0.1600 
 18 C        2.8400    -4.8770    -1.5460 C.3   1 <1>  -0.1600 
 19 C       -0.6170     0.2580    -2.1710 C.3   1 <1>  -0.2400 
 20 H        1.0850    -2.5590     2.0410 H     1 <1>   0.3700 
 21 H       -0.3940    -3.5810    -0.3330 H     1 <1>   0.0800 
 22 H       -2.9630    -3.6950     2.9210 H     1 <1>   0.1500 
 23 H        0.0750    -5.3070     1.4180 H     1 <1>   0.0800 
 24 H        1.7790    -5.0700     1.1660 H     1 <1>   0.0800 
 25 H        2.4780    -2.7590     0.0960 H     1 <1>   0.0800 
 26 H        1.2600    -1.9030    -0.7930 H     1 <1>   0.0800 
 27 H       -5.1320    -4.0630     1.7560 H     1 <1>   0.1500 
 28 H       -0.0820    -5.7080    -1.1310 H     1 <1>   0.0800 
 29 H        0.4700    -6.9710    -0.0930 H     1 <1>   0.0800 
 30 H        2.6390    -2.9340    -2.3880 H     1 <1>   0.0800 
 31 H        1.1580    -3.8330    -2.4260 H     1 <1>   0.0800 
 32 H       -2.7010     0.1020    -1.6330 H     1 <1>   0.0800 
 33 H       -2.0810    -1.2930    -2.5120 H     1 <1>   0.0800 
 34 H       -5.4940    -3.0660    -0.4410 H     1 <1>   0.1500 
 35 H        1.7440    -6.5710    -2.2590 H     1 <1>   0.0800 
 36 H        2.6500    -6.8680    -0.8180 H     1 <1>   0.0800 
 37 H        3.4880    -4.7090    -0.7020 H     1 <1>   0.0800 
 38 H        3.4810    -5.0610    -2.3910 H     1 <1>   0.0800 
 39 H       -0.3700     0.9640    -1.3980 H     1 <1>   0.0800 
 40 H       -0.8150     0.7980    -3.0790 H     1 <1>   0.0800 
 41 H        0.2150    -0.4000    -2.3410 H     1 <1>   0.0800 
@<TRIPOS>BOND
  1   1   2  2   
  2   2   3  am  
  3   2   4  1   
  4   3   5  1   
  5   3  20  1   
  6   4   6  ar  
  7   4   7  ar  
  8   5   8  1   
  9   5   9  1   
 10   5  21  1   
 11   6  10  1   
 12   6  11  ar  
 13   7  12  ar  
 14   7  22  1   
 15   8  13  1   
 16   8  23  1   
 17   8  24  1   
 18   9  14  1   
 19   9  25  1   
 20   9  26  1   
 21  10  15  1   
 22  11  16  ar  
 23  12  16  ar  
 24  12  27  1   
 25  13  17  1   
 26  13  28  1   
 27  13  29  1   
 28  14  18  1   
 29  14  30  1   
 30  14  31  1   
 31  15  19  1   
 32  15  32  1   
 33  15  33  1   
 34  16  34  1   
 35  17  18  1   
 36  17  35  1   
 37  17  36  1   
 38  18  37  1   
 39  18  38  1   
 40  19  39  1   
 41  19  40  1   
 42  19  41  1   
@<TRIPOS>SUBSTRUCTURE
  1 ****   5 GROUP 4 **** **** 0

# MOE 2024.06 (io_trps.svl 2023.06)
