@<TRIPOS>MOLECULE
NONAME
44 45 1 0 0 
SMALL
USER_CHARGES


@<TRIPOS>ATOM
  1 O       -0.6660    -0.2020     0.5640 O.2   1 <1>  -0.5700 
  2 C       -0.8950    -1.2920     0.0980 C.2   1 <1>   0.5690 
  3 N        0.0620    -2.2440    -0.1080 N.am  1 <1>  -0.5470 
  4 C       -2.3300    -1.6590    -0.2840 C.3   1 <1>  -0.0190 
  5 C        1.4530    -2.2880     0.1140 C.ar  1 <1>   0.1170 
  6 C       -3.1610    -0.4390    -0.7320 C.3   1 <1>  -0.1600 
  7 C       -3.0410    -2.3790     0.8770 C.3   1 <1>  -0.1600 
  8 C        2.1260    -3.4730    -0.2070 C.ar  1 <1>   0.0820 
  9 C        2.1820    -1.2220     0.6290 C.ar  1 <1>  -0.1500 
 10 C       -4.5970    -0.8320    -1.0830 C.3   1 <1>   0.1400 
 11 C       -4.4830    -2.7510     0.5170 C.3   1 <1>   0.1400 
 12 O        1.3750    -4.5000    -0.7120 O.3   1 <1>  -0.3630 
 13 C        3.4990    -3.5690    -0.0090 C.ar  1 <1>  -0.1500 
 14 C        3.5480    -1.3220     0.8250 C.ar  1 <1>  -0.1500 
 15 N       -5.2170    -1.5320     0.0770 N.am  1 <1>  -0.6600 
 16 C        1.9730    -5.7290    -1.0670 C.3   1 <1>   0.0400 
 17 C        4.2130    -2.5000     0.5050 C.ar  1 <1>   0.0820 
 18 C       -6.3470    -1.1180     0.7360 C.2   1 <1>   0.5690 
 19 O        5.5510    -2.6830     0.6650 O.3   1 <1>  -0.3630 
 20 O       -6.8260    -1.7430     1.6520 O.2   1 <1>  -0.5700 
 21 C       -7.0500     0.1580     0.3350 C.3   1 <1>  -0.1790 
 22 C        6.3660    -1.6540     1.1810 C.3   1 <1>   0.0400 
 23 H       -0.2690    -3.1310    -0.4910 H     1 <1>   0.3700 
 24 H       -2.2800    -2.3380    -1.1170 H     1 <1>   0.0800 
 25 H       -2.6960     0.0190    -1.5870 H     1 <1>   0.0800 
 26 H       -3.1870     0.2950     0.0550 H     1 <1>   0.0800 
 27 H       -3.0550    -1.7410     1.7440 H     1 <1>   0.0800 
 28 H       -2.5030    -3.2720     1.1400 H     1 <1>   0.0800 
 29 H        1.6900    -0.3020     0.8840 H     1 <1>   0.1500 
 30 H       -4.5980    -1.4960    -1.9300 H     1 <1>   0.0800 
 31 H       -5.1520     0.0480    -1.3540 H     1 <1>   0.0800 
 32 H       -4.9600    -3.1970     1.3730 H     1 <1>   0.0800 
 33 H       -4.4920    -3.4730    -0.2810 H     1 <1>   0.0800 
 34 H        4.0470    -4.4600    -0.2430 H     1 <1>   0.1500 
 35 H        4.0700    -0.4740     1.2250 H     1 <1>   0.1500 
 36 H        1.2040    -6.3820    -1.4390 H     1 <1>   0.0800 
 37 H        2.4280    -6.1620    -0.1930 H     1 <1>   0.0800 
 38 H        2.7060    -5.5530    -1.8350 H     1 <1>   0.0800 
 39 H       -7.4070     0.0770    -0.6730 H     1 <1>   0.0800 
 40 H       -6.3760     0.9880     0.4230 H     1 <1>   0.0800 
 41 H       -7.8890     0.3270     0.9850 H     1 <1>   0.0800 
 42 H        7.3770    -2.0160     1.2200 H     1 <1>   0.0800 
 43 H        6.0290    -1.4050     2.1720 H     1 <1>   0.0800 
 44 H        6.3080    -0.8010     0.5280 H     1 <1>   0.0800 
@<TRIPOS>BOND
  1   1   2  2   
  2   2   3  am  
  3   2   4  1   
  4   3   5  1   
  5   3  23  1   
  6   4   6  1   
  7   4   7  1   
  8   4  24  1   
  9   5   8  ar  
 10   5   9  ar  
 11   6  10  1   
 12   6  25  1   
 13   6  26  1   
 14   7  11  1   
 15   7  27  1   
 16   7  28  1   
 17   8  12  1   
 18   8  13  ar  
 19   9  14  ar  
 20   9  29  1   
 21  10  15  1   
 22  10  30  1   
 23  10  31  1   
 24  11  15  1   
 25  11  32  1   
 26  11  33  1   
 27  12  16  1   
 28  13  17  ar  
 29  13  34  1   
 30  14  17  ar  
 31  14  35  1   
 32  15  18  am  
 33  16  36  1   
 34  16  37  1   
 35  16  38  1   
 36  17  19  1   
 37  18  20  2   
 38  18  21  1   
 39  19  22  1   
 40  21  39  1   
 41  21  40  1   
 42  21  41  1   
 43  22  42  1   
 44  22  43  1   
 45  22  44  1   
@<TRIPOS>SUBSTRUCTURE
  1 ****   3 GROUP 4 **** **** 0

# MOE 2024.06 (io_trps.svl 2023.06)
