@<TRIPOS>MOLECULE
NONAME
47 50 1 0 0 
SMALL
USER_CHARGES


@<TRIPOS>ATOM
  1 S       -0.0740    -0.5380     0.5250 S.3   1 <1>  -0.0800 
  2 C        1.2190     0.6470     0.3290 C.2   1 <1>   0.1660 
  3 C       -1.2540     0.6830     0.0920 C.2   1 <1>  -0.1400 
  4 N        2.5150     0.3400     0.5300 N.2   1 <1>  -0.5760 
  5 C        0.7370     1.8630    -0.0380 C.2   1 <1>  -0.0860 
  6 C       -0.6910     1.8530    -0.1660 C.2   1 <1>  -0.1810 
  7 C       -2.7430     0.6180    -0.0270 C.3   1 <1>   0.0200 
  8 C        3.3430     1.3120     0.3480 C.2   1 <1>   0.6510 
  9 C        1.6820     2.9060    -0.2280 C.2   1 <1>   0.7160 
 10 C       -1.7280     2.8780    -0.5340 C.3   1 <1>   0.0210 
 11 C       -3.0610     2.0790    -0.4440 C.3   1 <1>  -0.1600 
 12 S        5.0490     0.8630     0.6240 S.3   1 <1>  -0.3710 
 13 N        3.0270     2.6150    -0.0280 N.am  1 <1>  -0.4200 
 14 O        1.3100     4.0250    -0.5590 O.2   1 <1>  -0.5700 
 15 C        4.9900    -0.9300     1.1170 C.3   1 <1>   0.1310 
 16 C        4.0170     3.7340    -0.2350 C.3   1 <1>   0.2200 
 17 C        6.3880    -1.4630     1.3650 C.2   1 <1>   0.6590 
 18 C        4.9730     3.4910    -1.4170 C.3   1 <1>  -0.1600 
 19 C        4.7450     4.1490     1.0560 C.3   1 <1>  -0.1600 
 20 O        6.7720    -1.7410     2.4720 O.2   1 <1>  -0.5700 
 21 O        7.1550    -1.6240     0.2910 O.3   1 <1>  -0.4300 
 22 C        5.8730     4.7140    -1.6450 C.3   1 <1>  -0.1600 
 23 C        5.6480     5.3650     0.7990 C.3   1 <1>  -0.1600 
 24 C        8.4770    -2.1110     0.3910 C.3   1 <1>   0.0400 
 25 C        6.6200     5.1020    -0.3600 C.3   1 <1>  -0.1600 
 26 H       -3.1900     0.3650     0.9180 H     1 <1>   0.0800 
 27 H       -3.0340    -0.0870    -0.7860 H     1 <1>   0.0800 
 28 H       -1.5560     3.2460    -1.5300 H     1 <1>   0.0800 
 29 H       -1.7110     3.6970     0.1650 H     1 <1>   0.0800 
 30 H       -3.7110     2.5330     0.2830 H     1 <1>   0.0800 
 31 H       -3.5570     2.0870    -1.3990 H     1 <1>   0.0800 
 32 H        4.5170    -1.4710     0.3190 H     1 <1>   0.0800 
 33 H        4.3990    -0.9980     2.0120 H     1 <1>   0.0800 
 34 H        3.4750     4.6180    -0.5210 H     1 <1>   0.0800 
 35 H        4.3990     3.3060    -2.3090 H     1 <1>   0.0800 
 36 H        5.6080     2.6450    -1.2430 H     1 <1>   0.0800 
 37 H        5.3620     3.3580     1.4330 H     1 <1>   0.0800 
 38 H        4.0210     4.4020     1.8100 H     1 <1>   0.0800 
 39 H        5.2720     5.5470    -1.9710 H     1 <1>   0.0800 
 40 H        6.5840     4.4980    -2.4240 H     1 <1>   0.0800 
 41 H        6.2060     5.5940     1.6910 H     1 <1>   0.0800 
 42 H        5.0390     6.2220     0.5650 H     1 <1>   0.0800 
 43 H        8.9010    -2.1560    -0.5970 H     1 <1>   0.0800 
 44 H        8.4540    -3.0940     0.8300 H     1 <1>   0.0800 
 45 H        9.0490    -1.4420     1.0100 H     1 <1>   0.0800 
 46 H        7.2100     5.9840    -0.5410 H     1 <1>   0.0800 
 47 H        7.2940     4.3070    -0.0870 H     1 <1>   0.0800 
@<TRIPOS>BOND
  1   1   2  1   
  2   1   3  1   
  3   2   4  1   
  4   2   5  2   
  5   3   6  2   
  6   3   7  1   
  7   4   8  2   
  8   5   6  1   
  9   5   9  1   
 10   6  10  1   
 11   7  11  1   
 12   7  26  1   
 13   7  27  1   
 14   8  12  1   
 15   8  13  1   
 16   9  13  am  
 17   9  14  2   
 18  10  11  1   
 19  10  28  1   
 20  10  29  1   
 21  11  30  1   
 22  11  31  1   
 23  12  15  1   
 24  13  16  1   
 25  15  17  1   
 26  15  32  1   
 27  15  33  1   
 28  16  18  1   
 29  16  19  1   
 30  16  34  1   
 31  17  20  2   
 32  17  21  1   
 33  18  22  1   
 34  18  35  1   
 35  18  36  1   
 36  19  23  1   
 37  19  37  1   
 38  19  38  1   
 39  21  24  1   
 40  22  25  1   
 41  22  39  1   
 42  22  40  1   
 43  23  25  1   
 44  23  41  1   
 45  23  42  1   
 46  24  43  1   
 47  24  44  1   
 48  24  45  1   
 49  25  46  1   
 50  25  47  1   
@<TRIPOS>SUBSTRUCTURE
  1 ****   8 GROUP 4 **** **** 0

# MOE 2024.06 (io_trps.svl 2023.06)
