@<TRIPOS>MOLECULE
NONAME
34 34 1 0 0 
SMALL
USER_CHARGES


@<TRIPOS>ATOM
  1 O       -0.9070    -1.5280    -2.5680 O.2   1 <1>  -0.5700 
  2 C       -0.1830    -1.2730    -1.6360 C.2   1 <1>   0.5690 
  3 N       -0.6610    -1.0770    -0.3800 N.am  1 <1>  -0.7300 
  4 C        1.3150    -1.1840    -1.8750 C.3   1 <1>   0.0440 
  5 C       -2.0600    -1.2380     0.0640 C.3   1 <1>   0.1400 
  6 C        2.1270    -1.1350    -0.5760 C.ar  1 <1>  -0.1430 
  7 C       -2.1650    -2.3910     1.0760 C.3   1 <1>  -0.0800 
  8 C        2.3680    -2.2750     0.1880 C.ar  1 <1>  -0.1440 
  9 C        2.6120     0.0910    -0.1450 C.ar  1 <1>  -0.1500 
 10 C       -3.6250    -2.5760     1.5090 C.3   1 <1>  -0.2400 
 11 C       -1.2850    -2.1650     2.3170 C.3   1 <1>  -0.2400 
 12 C        3.0900    -2.1650     1.3660 C.ar  1 <1>  -0.1500 
 13 C        1.8580    -3.6480    -0.2310 C.3   1 <1>  -0.0970 
 14 C        3.3310     0.1920     1.0320 C.ar  1 <1>  -0.1500 
 15 C        3.5700    -0.9390     1.7890 C.ar  1 <1>  -0.1500 
 16 H        0.0270    -0.9260     0.3650 H     1 <1>   0.3700 
 17 H        1.5020    -0.3040    -2.4610 H     1 <1>   0.0800 
 18 H        1.6190    -2.0260    -2.4670 H     1 <1>   0.0800 
 19 H       -2.6860    -1.4440    -0.7890 H     1 <1>   0.0800 
 20 H       -2.3940    -0.3190     0.5130 H     1 <1>   0.0800 
 21 H       -1.8480    -3.2960     0.5840 H     1 <1>   0.0800 
 22 H        2.4320     0.9820    -0.7220 H     1 <1>   0.1500 
 23 H       -3.9890    -1.6950     2.0080 H     1 <1>   0.0800 
 24 H       -3.7130    -3.4120     2.1790 H     1 <1>   0.0800 
 25 H       -4.2470    -2.7670     0.6510 H     1 <1>   0.0800 
 26 H       -1.5420    -1.2390     2.8000 H     1 <1>   0.0800 
 27 H       -0.2440    -2.1380     2.0490 H     1 <1>   0.0800 
 28 H       -1.4210    -2.9680     3.0200 H     1 <1>   0.0800 
 29 H        3.2860    -3.0360     1.9660 H     1 <1>   0.1500 
 30 H        0.7890    -3.6330    -0.3430 H     1 <1>   0.0800 
 31 H        2.1040    -4.3920     0.5050 H     1 <1>   0.0800 
 32 H        2.3050    -3.9400    -1.1640 H     1 <1>   0.0800 
 33 H        3.7040     1.1470     1.3580 H     1 <1>   0.1500 
 34 H        4.1300    -0.8660     2.7050 H     1 <1>   0.1500 
@<TRIPOS>BOND
  1   1   2  2   
  2   2   3  am  
  3   2   4  1   
  4   3   5  1   
  5   3  16  1   
  6   4   6  1   
  7   4  17  1   
  8   4  18  1   
  9   5   7  1   
 10   5  19  1   
 11   5  20  1   
 12   6   8  ar  
 13   6   9  ar  
 14   7  10  1   
 15   7  11  1   
 16   7  21  1   
 17   8  12  ar  
 18   8  13  1   
 19   9  14  ar  
 20   9  22  1   
 21  10  23  1   
 22  10  24  1   
 23  10  25  1   
 24  11  26  1   
 25  11  27  1   
 26  11  28  1   
 27  12  15  ar  
 28  12  29  1   
 29  13  30  1   
 30  13  31  1   
 31  13  32  1   
 32  14  15  ar  
 33  14  33  1   
 34  15  34  1   
@<TRIPOS>SUBSTRUCTURE
  1 ****   3 GROUP 4 **** **** 0

# MOE 2024.06 (io_trps.svl 2023.06)
