@<TRIPOS>MOLECULE
NONAME
41 42 1 0 0 
SMALL
USER_CHARGES


@<TRIPOS>ATOM
  1 O       -0.3370    -0.2880     0.9270 O.3   1 <1>  -0.3630 
  2 C       -1.4750    -0.7690     0.3620 C.ar  1 <1>   0.0830 
  3 C        0.4650    -1.0720     1.7830 C.3   1 <1>   0.0400 
  4 C       -2.1540     0.0600    -0.5220 C.ar  1 <1>  -0.1440 
  5 C       -1.9740    -2.0410     0.6290 C.ar  1 <1>  -0.1500 
  6 C       -3.3210    -0.3860    -1.1160 C.ar  1 <1>  -0.1500 
  7 C       -1.6190     1.4500    -0.8410 C.3   1 <1>  -0.0960 
  8 C       -3.1420    -2.4900     0.0330 C.ar  1 <1>  -0.1430 
  9 C       -3.8280    -1.6480    -0.8380 C.ar  1 <1>  -0.1430 
 10 C       -3.6210    -3.9010     0.3570 C.3   1 <1>  -0.0970 
 11 C       -5.1310    -2.0600    -1.4950 C.3   1 <1>   0.4860 
 12 N       -6.2220    -1.9460    -0.4900 N.4   1 <1>  -0.9590 
 13 C       -7.4800    -2.5830    -0.9670 C.3   1 <1>   0.3430 
 14 C       -6.4270    -0.5320    -0.0540 C.3   1 <1>   0.3430 
 15 C       -8.5180    -2.5760     0.1570 C.3   1 <1>  -0.1600 
 16 C       -7.4500    -0.4880     1.0820 C.3   1 <1>  -0.1600 
 17 C       -8.7720    -1.1590     0.6870 C.3   1 <1>  -0.1600 
 18 H        1.3150    -0.4820     2.0760 H     1 <1>   0.0800 
 19 H        0.7940    -1.9460     1.2500 H     1 <1>   0.0800 
 20 H       -0.1100    -1.3400     2.6520 H     1 <1>   0.0800 
 21 H       -1.4530    -2.6910     1.3040 H     1 <1>   0.1500 
 22 H       -3.8330     0.2660    -1.8020 H     1 <1>   0.1500 
 23 H       -0.6320     1.3710    -1.2590 H     1 <1>   0.0800 
 24 H       -1.5610     2.0340     0.0610 H     1 <1>   0.0800 
 25 H       -2.2480     1.9650    -1.5440 H     1 <1>   0.0800 
 26 H       -2.8330    -4.4700     0.8200 H     1 <1>   0.0800 
 27 H       -3.9090    -4.4240    -0.5360 H     1 <1>   0.0800 
 28 H       -4.4500    -3.8710     1.0410 H     1 <1>   0.0800 
 29 H       -5.0480    -3.0760    -1.8430 H     1 <1>   0.0800 
 30 H       -5.3350    -1.4260    -2.3420 H     1 <1>   0.0800 
 31 H       -5.8910    -2.4510     0.3400 H     1 <1>   0.4500 
 32 H       -7.2900    -3.6000    -1.2730 H     1 <1>   0.0800 
 33 H       -7.8660    -2.0390    -1.8140 H     1 <1>   0.0800 
 34 H       -6.7820     0.0590    -0.8830 H     1 <1>   0.0800 
 35 H       -5.4960    -0.1100     0.2910 H     1 <1>   0.0800 
 36 H       -8.1830    -3.2130     0.9570 H     1 <1>   0.0800 
 37 H       -9.4410    -2.9870    -0.2150 H     1 <1>   0.0800 
 38 H       -7.6360     0.5390     1.3460 H     1 <1>   0.0800 
 39 H       -7.0370    -0.9710     1.9500 H     1 <1>   0.0800 
 40 H       -9.4310    -1.2000     1.5400 H     1 <1>   0.0800 
 41 H       -9.2600    -0.5720    -0.0740 H     1 <1>   0.0800 
@<TRIPOS>BOND
  1   1   2  1   
  2   1   3  1   
  3   2   4  ar  
  4   2   5  ar  
  5   3  18  1   
  6   3  19  1   
  7   3  20  1   
  8   4   6  ar  
  9   4   7  1   
 10   5   8  ar  
 11   5  21  1   
 12   6   9  ar  
 13   6  22  1   
 14   7  23  1   
 15   7  24  1   
 16   7  25  1   
 17   8   9  ar  
 18   8  10  1   
 19   9  11  1   
 20  10  26  1   
 21  10  27  1   
 22  10  28  1   
 23  11  12  1   
 24  11  29  1   
 25  11  30  1   
 26  12  13  1   
 27  12  14  1   
 28  12  31  1   
 29  13  15  1   
 30  13  32  1   
 31  13  33  1   
 32  14  16  1   
 33  14  34  1   
 34  14  35  1   
 35  15  17  1   
 36  15  36  1   
 37  15  37  1   
 38  16  17  1   
 39  16  38  1   
 40  16  39  1   
 41  17  40  1   
 42  17  41  1   
@<TRIPOS>SUBSTRUCTURE
  1 ****   9 GROUP 4 **** **** 0

# MOE 2024.06 (io_trps.svl 2023.06)
