@<TRIPOS>MOLECULE
NONAME
53 54 1 0 0 
SMALL
USER_CHARGES


@<TRIPOS>ATOM
  1 S        0.0620    -0.6240     1.1170 S.o2  1 <1>   1.4470 
  2 O        0.2880    -1.2630     2.3920 O.2   1 <1>  -0.6500 
  3 O        1.0620    -0.7450     0.0780 O.2   1 <1>  -0.6500 
  4 N       -0.0480     1.0690     1.4580 N.am  1 <1>  -0.6930 
  5 C       -1.5980    -1.0250     0.5050 C.ar  1 <1>  -0.0090 
  6 C       -0.5530     1.9620     0.5210 C.ar  1 <1>   0.1990 
  7 C        0.8820     1.6050     2.5030 C.3   1 <1>   0.2570 
  8 C       -1.9550    -0.7790    -0.8170 C.ar  1 <1>  -0.1500 
  9 C       -2.5650    -1.5640     1.3470 C.ar  1 <1>  -0.1500 
 10 C        0.0770     2.1730    -0.7000 C.ar  1 <1>  -0.1500 
 11 C       -1.7190     2.6620     0.7990 C.ar  1 <1>  -0.1500 
 12 C        2.2910     1.9670     2.0130 C.2   1 <1>   0.5690 
 13 C       -3.2270    -1.0620    -1.2830 C.ar  1 <1>  -0.1500 
 14 C       -3.8390    -1.8510     0.8890 C.ar  1 <1>  -0.1500 
 15 C       -0.4380     3.0640    -1.6240 C.ar  1 <1>  -0.1430 
 16 C       -2.2510     3.5520    -0.1180 C.ar  1 <1>  -0.1430 
 17 O        2.8580     2.8870     2.5530 O.2   1 <1>  -0.5700 
 18 N        2.8820     1.2700     1.0010 N.am  1 <1>  -0.7300 
 19 C       -4.1710    -1.6000    -0.4290 C.ar  1 <1>  -0.1500 
 20 C       -1.6040     3.7500    -1.3280 C.ar  1 <1>  -0.1500 
 21 C        0.2660     3.2940    -2.9500 C.3   1 <1>  -0.0970 
 22 C       -3.5280     4.3130     0.1870 C.3   1 <1>  -0.0970 
 23 C        4.1550     1.6200     0.3460 C.3   1 <1>   0.1400 
 24 C        3.8610     2.0310    -1.0950 C.3   1 <1>  -0.1600 
 25 C        5.1350     2.4470    -1.8220 C.3   1 <1>   0.1200 
 26 O        4.7850     2.7820    -3.1240 O.3   1 <1>  -0.5600 
 27 C        5.8530     3.2130    -3.9030 C.3   1 <1>   0.0400 
 28 H        0.9770     0.9000     3.3080 H     1 <1>   0.0800 
 29 H        0.4460     2.4970     2.9150 H     1 <1>   0.0800 
 30 H       -1.2290    -0.3560    -1.4910 H     1 <1>   0.1500 
 31 H       -2.3180    -1.7620     2.3770 H     1 <1>   0.1500 
 32 H        0.9770     1.6360    -0.9270 H     1 <1>   0.1500 
 33 H       -2.2070     2.4980     1.7410 H     1 <1>   0.1500 
 34 H       -3.4810    -0.8610    -2.3100 H     1 <1>   0.1500 
 35 H       -4.5720    -2.2700     1.5580 H     1 <1>   0.1500 
 36 H        2.3640     0.4980     0.5550 H     1 <1>   0.3700 
 37 H       -5.1610    -1.8220    -0.7890 H     1 <1>   0.1500 
 38 H       -2.0100     4.4430    -2.0440 H     1 <1>   0.1500 
 39 H        1.2420     2.8410    -2.9530 H     1 <1>   0.0800 
 40 H        0.3830     4.3480    -3.1260 H     1 <1>   0.0800 
 41 H       -0.3120     2.8690    -3.7500 H     1 <1>   0.0800 
 42 H       -3.9810     3.9570     1.0940 H     1 <1>   0.0800 
 43 H       -4.2310     4.1870    -0.6170 H     1 <1>   0.0800 
 44 H       -3.3110     5.3600     0.2980 H     1 <1>   0.0800 
 45 H        4.8120     0.7670     0.3680 H     1 <1>   0.0800 
 46 H        4.6280     2.4330     0.8730 H     1 <1>   0.0800 
 47 H        3.1800     2.8640    -1.0910 H     1 <1>   0.0800 
 48 H        3.4140     1.2030    -1.6180 H     1 <1>   0.0800 
 49 H        5.8410     1.6350    -1.8530 H     1 <1>   0.0800 
 50 H        5.5780     3.3080    -1.3490 H     1 <1>   0.0800 
 51 H        5.4790     3.4430    -4.8850 H     1 <1>   0.0800 
 52 H        6.5850     2.4260    -3.9690 H     1 <1>   0.0800 
 53 H        6.2820     4.0960    -3.4620 H     1 <1>   0.0800 
@<TRIPOS>BOND
  1   1   2  2   
  2   1   3  2   
  3   1   4  am  
  4   1   5  1   
  5   4   6  1   
  6   4   7  1   
  7   5   8  ar  
  8   5   9  ar  
  9   6  10  ar  
 10   6  11  ar  
 11   7  12  1   
 12   7  28  1   
 13   7  29  1   
 14   8  13  ar  
 15   8  30  1   
 16   9  14  ar  
 17   9  31  1   
 18  10  15  ar  
 19  10  32  1   
 20  11  16  ar  
 21  11  33  1   
 22  12  17  2   
 23  12  18  am  
 24  13  19  ar  
 25  13  34  1   
 26  14  19  ar  
 27  14  35  1   
 28  15  20  ar  
 29  15  21  1   
 30  16  20  ar  
 31  16  22  1   
 32  18  23  1   
 33  18  36  1   
 34  19  37  1   
 35  20  38  1   
 36  21  39  1   
 37  21  40  1   
 38  21  41  1   
 39  22  42  1   
 40  22  43  1   
 41  22  44  1   
 42  23  24  1   
 43  23  45  1   
 44  23  46  1   
 45  24  25  1   
 46  24  47  1   
 47  24  48  1   
 48  25  26  1   
 49  25  49  1   
 50  25  50  1   
 51  26  27  1   
 52  27  51  1   
 53  27  52  1   
 54  27  53  1   
@<TRIPOS>SUBSTRUCTURE
  1 ****  10 GROUP 4 **** **** 0

# MOE 2024.06 (io_trps.svl 2023.06)
