@<TRIPOS>MOLECULE
NONAME
39 43 1 0 0 
SMALL
USER_CHARGES


@<TRIPOS>ATOM
  1 CL      -0.2070    -0.5720    -0.6870 Cl    1 <1>  -0.1770 
  2 C       -1.2760    -1.7520     0.0230 C.ar  1 <1>   0.1770 
  3 C       -2.6360    -1.5110     0.0270 C.ar  1 <1>  -0.1500 
  4 C       -0.7440    -2.9050     0.5670 C.ar  1 <1>  -0.1500 
  5 C       -3.5160    -2.4410     0.5820 C.ar  1 <1>   0.0860 
  6 C       -1.5990    -3.8340     1.1310 C.ar  1 <1>  -0.1500 
  7 C       -4.9510    -2.2280     0.5900 C.2   1 <1>   0.5440 
  8 C       -2.9640    -3.5990     1.1370 C.ar  1 <1>  -0.1500 
  9 O       -5.6320    -2.6220     1.5220 O.2   1 <1>  -0.5700 
 10 N       -5.5670    -1.5910    -0.4480 N.am  1 <1>  -0.4300 
 11 N       -7.0050    -1.3440    -0.5010 N.am  1 <1>  -0.1200 
 12 C       -7.6260    -0.3140     0.1770 C.2   1 <1>   0.5690 
 13 C       -7.9400    -2.2660    -0.9340 C.2   1 <1>   0.5690 
 14 O       -7.1650     0.7600     0.4820 O.2   1 <1>  -0.5700 
 15 C       -9.0160    -0.7840     0.4940 C.3   1 <1>  -0.0190 
 16 O       -7.7480    -3.3440    -1.4420 O.2   1 <1>  -0.5700 
 17 C       -9.2900    -1.6250    -0.7660 C.3   1 <1>  -0.0190 
 18 C      -10.3360    -0.1020     0.9410 C.3   1 <1>   0.1530 
 19 C      -10.7540    -2.1530    -0.7300 C.3   1 <1>   0.1530 
 20 C      -11.0510    -1.3190     1.5470 C.2   1 <1>  -0.2880 
 21 C      -11.1910     0.2970    -0.3030 C.3   1 <1>  -0.1950 
 22 C      -11.2150    -2.3640     0.7190 C.2   1 <1>  -0.2880 
 23 C      -11.5390    -0.8840    -1.1980 C.3   1 <1>  -0.1950 
 24 C      -12.6240    -0.0960    -0.5110 C.3   1 <1>  -0.2000 
 25 H       -2.9990    -0.5910    -0.3930 H     1 <1>   0.1500 
 26 H        0.3190    -3.0670     0.5500 H     1 <1>   0.1500 
 27 H       -1.2050    -4.7370     1.5660 H     1 <1>   0.1500 
 28 H       -3.6250    -4.3250     1.5810 H     1 <1>   0.1500 
 29 H       -5.0280    -1.2920    -1.2620 H     1 <1>   0.3700 
 30 H       -8.7860    -1.4620     1.3040 H     1 <1>   0.0800 
 31 H       -9.2670    -0.9630    -1.6170 H     1 <1>   0.0800 
 32 H      -10.1950     0.6900     1.6550 H     1 <1>   0.0800 
 33 H      -10.9250    -3.0030    -1.3690 H     1 <1>   0.0800 
 34 H      -11.3420    -1.2540     2.5820 H     1 <1>   0.1500 
 35 H      -10.8370     1.1940    -0.7830 H     1 <1>   0.1000 
 36 H      -11.6640    -3.3140     0.9530 H     1 <1>   0.1500 
 37 H      -11.4870    -0.7490    -2.2660 H     1 <1>   0.1000 
 38 H      -13.2430     0.5480    -1.1120 H     1 <1>   0.1000 
 39 H      -13.1920    -0.5560     0.2780 H     1 <1>   0.1000 
@<TRIPOS>BOND
  1   1   2  1   
  2   2   3  ar  
  3   2   4  ar  
  4   3   5  ar  
  5   3  25  1   
  6   4   6  ar  
  7   4  26  1   
  8   5   7  1   
  9   5   8  ar  
 10   6   8  ar  
 11   6  27  1   
 12   7   9  2   
 13   7  10  am  
 14   8  28  1   
 15  10  11  1   
 16  10  29  1   
 17  11  12  am  
 18  11  13  am  
 19  12  14  2   
 20  12  15  1   
 21  13  16  2   
 22  13  17  1   
 23  15  17  1   
 24  15  18  1   
 25  15  30  1   
 26  17  19  1   
 27  17  31  1   
 28  18  20  1   
 29  18  21  1   
 30  18  32  1   
 31  19  22  1   
 32  19  23  1   
 33  19  33  1   
 34  20  22  2   
 35  20  34  1   
 36  21  23  1   
 37  21  24  1   
 38  21  35  1   
 39  22  36  1   
 40  23  24  1   
 41  23  37  1   
 42  24  38  1   
 43  24  39  1   
@<TRIPOS>SUBSTRUCTURE
  1 ****  11 GROUP 4 **** **** 0

# MOE 2024.06 (io_trps.svl 2023.06)
