@<TRIPOS>MOLECULE
NONAME
38 39 1 0 0 
SMALL
USER_CHARGES


@<TRIPOS>ATOM
  1 S       -0.3450     0.1170     1.5000 S.3   1 <1>  -0.3220 
  2 C        1.3110    -0.0060     0.8470 C.cat 1 <1>   0.8920 
  3 C       -1.1210     1.7430     0.9600 C.3   1 <1>  -0.0360 
  4 N        1.9920     0.9560     0.2620 N.pl3 1 <1>  -0.7000 
  5 N        2.0310    -1.1150     0.9240 N.pl3 1 <1>  -0.7640 
  6 C       -0.3810     2.3550    -0.2010 C.2   1 <1>   0.9060 
  7 C        3.1800     0.4550    -0.1170 C.2   1 <1>   0.4260 
  8 C        3.2490    -0.8330     0.2940 C.2   1 <1>   0.2770 
  9 C        1.6040    -2.4160     1.4750 C.3   1 <1>   0.4920 
 10 O       -0.4670     1.8410    -1.3130 O.co2 1 <1>  -0.9000 
 11 O        0.5100     3.1770     0.0440 O.co2 1 <1>  -0.9000 
 12 N        4.1720     1.1050    -0.8180 N.am  1 <1>  -0.4360 
 13 C        4.4490    -1.5630     0.0060 C.2   1 <1>   0.7030 
 14 C        0.7820    -3.1630     0.4310 C.2   1 <1>  -0.2760 
 15 C        5.3360     0.4100    -1.0940 C.2   1 <1>   0.6900 
 16 C        3.9270     2.4970    -1.3050 C.3   1 <1>   0.0600 
 17 O        4.5910    -2.7180     0.3750 O.2   1 <1>  -0.5700 
 18 N        5.4610    -0.9200    -0.7000 N.am  1 <1>  -0.4200 
 19 C       -0.5340    -3.3750     0.5530 C.2   1 <1>  -0.3000 
 20 C        1.5640    -3.6690    -0.7750 C.3   1 <1>  -0.1020 
 21 O        6.2520     0.9590    -1.6730 O.2   1 <1>  -0.5700 
 22 C        6.7270    -1.6490    -1.0240 C.3   1 <1>   0.0600 
 23 H       -1.0970     2.4090     1.8000 H     1 <1>   0.0800 
 24 H       -2.1340     1.5350     0.6740 H     1 <1>   0.0800 
 25 H        1.6040     1.9000     0.0460 H     1 <1>   0.4500 
 26 H        1.0070    -2.2530     2.3570 H     1 <1>   0.0800 
 27 H        2.4600    -3.0030     1.7640 H     1 <1>   0.0800 
 28 H        2.9740     2.5490    -1.8060 H     1 <1>   0.0800 
 29 H        4.6920     2.8050    -1.9960 H     1 <1>   0.0800 
 30 H        3.9150     3.1780    -0.4720 H     1 <1>   0.0800 
 31 H       -1.1310    -3.9010    -0.1730 H     1 <1>   0.1500 
 32 H       -1.1350    -3.0390     1.3810 H     1 <1>   0.1500 
 33 H        1.9480    -2.8460    -1.3500 H     1 <1>   0.0800 
 34 H        0.9290    -4.2530    -1.4190 H     1 <1>   0.0800 
 35 H        2.3830    -4.2910    -0.4600 H     1 <1>   0.0800 
 36 H        6.5750    -2.7150    -1.0140 H     1 <1>   0.0800 
 37 H        7.4830    -1.3950    -0.3010 H     1 <1>   0.0800 
 38 H        7.0760    -1.3700    -2.0030 H     1 <1>   0.0800 
@<TRIPOS>BOND
  1   1   2  1   
  2   1   3  1   
  3   2   4  ar  
  4   2   5  ar  
  5   3   6  1   
  6   3  23  1   
  7   3  24  1   
  8   4   7  1   
  9   4  25  1   
 10   5   8  1   
 11   5   9  1   
 12   6  10  ar  
 13   6  11  ar  
 14   7   8  2   
 15   7  12  1   
 16   8  13  1   
 17   9  14  1   
 18   9  26  1   
 19   9  27  1   
 20  12  15  am  
 21  12  16  1   
 22  13  17  2   
 23  13  18  am  
 24  14  19  2   
 25  14  20  1   
 26  15  18  am  
 27  15  21  2   
 28  16  28  1   
 29  16  29  1   
 30  16  30  1   
 31  18  22  1   
 32  19  31  1   
 33  19  32  1   
 34  20  33  1   
 35  20  34  1   
 36  20  35  1   
 37  22  36  1   
 38  22  37  1   
 39  22  38  1   
@<TRIPOS>SUBSTRUCTURE
  1 ****   7 GROUP 4 **** **** 0

# MOE 2024.06 (io_trps.svl 2023.06)
