@<TRIPOS>MOLECULE
NONAME
27 28 1 0 0 
SMALL
USER_CHARGES


@<TRIPOS>ATOM
  1 S        0.1650     0.0530     0.8560 S.o2  1 <1>   1.2120 
  2 O        1.0270    -0.0590     2.0140 O.2   1 <1>  -0.6500 
  3 O       -0.6090    -1.0780     0.3910 O.2   1 <1>  -0.6500 
  4 C       -0.8890     1.4310     1.0540 C.2   1 <1>  -0.1670 
  5 C        1.0180     0.8410    -0.4980 C.3   1 <1>   0.0060 
  6 C       -0.6740     2.4490     0.1980 C.2   1 <1>   0.1140 
  7 C        0.3840     2.2180    -0.7230 C.2   1 <1>  -0.0710 
  8 N       -1.4970     3.5800     0.3180 N.pl3 1 <1>  -0.8380 
  9 N        0.9170     2.9560    -1.7230 N.pl3 1 <1>   0.7620 
 10 C       -0.8050     4.8460     0.7000 C.3   1 <1>   0.2090 
 11 C       -2.3720     3.8700    -0.8550 C.3   1 <1>   0.2090 
 12 O        0.5310     4.1110    -2.0590 O.co2 1 <1>  -0.8830 
 13 O        1.8810     2.4940    -2.4050 O.co2 1 <1>  -0.8830 
 14 C       -1.8540     5.9210     1.0440 C.3   1 <1>   0.1200 
 15 C       -3.3890     4.9650    -0.4790 C.3   1 <1>   0.1200 
 16 O       -2.7560     6.1310    -0.0130 O.3   1 <1>  -0.5600 
 17 H       -1.6350     1.4100     1.8190 H     1 <1>   0.1500 
 18 H        0.9280     0.2590    -1.3950 H     1 <1>   0.0800 
 19 H        2.0600     0.9630    -0.2730 H     1 <1>   0.0800 
 20 H       -0.1890     5.2040    -0.1060 H     1 <1>   0.0800 
 21 H       -0.1720     4.6670     1.5500 H     1 <1>   0.0800 
 22 H       -2.8900     2.9750    -1.1470 H     1 <1>   0.0800 
 23 H       -1.7900     4.2080    -1.6930 H     1 <1>   0.0800 
 24 H       -1.3660     6.8560     1.2470 H     1 <1>   0.0800 
 25 H       -2.4130     5.6220     1.9120 H     1 <1>   0.0800 
 26 H       -4.0460     4.6050     0.2920 H     1 <1>   0.0800 
 27 H       -3.9730     5.2330    -1.3400 H     1 <1>   0.0800 
@<TRIPOS>BOND
  1   1   2  2   
  2   1   3  2   
  3   1   4  1   
  4   1   5  1   
  5   4   6  2   
  6   4  17  1   
  7   5   7  1   
  8   5  18  1   
  9   5  19  1   
 10   6   7  1   
 11   6   8  1   
 12   7   9  2   
 13   8  10  1   
 14   8  11  1   
 15   9  12  ar  
 16   9  13  ar  
 17  10  14  1   
 18  10  20  1   
 19  10  21  1   
 20  11  15  1   
 21  11  22  1   
 22  11  23  1   
 23  14  16  1   
 24  14  24  1   
 25  14  25  1   
 26  15  16  1   
 27  15  26  1   
 28  15  27  1   
@<TRIPOS>SUBSTRUCTURE
  1 ****   6 GROUP 4 **** **** 0

# MOE 2024.06 (io_trps.svl 2023.06)
