@<TRIPOS>MOLECULE
NONAME
34 37 1 0 0 
SMALL
USER_CHARGES


@<TRIPOS>ATOM
  1 O       -0.6420    -0.5610     0.8530 O.2   1 <1>  -0.5700 
  2 C       -1.3660    -1.2850     0.2210 C.2   1 <1>   0.5690 
  3 N       -1.1440    -2.5990    -0.1650 N.am  1 <1>  -0.2370 
  4 C       -2.6990    -0.8790    -0.3310 C.3   1 <1>  -0.0190 
  5 C        0.0990    -3.2690    -0.1410 C.ar  1 <1>   0.1170 
  6 C       -2.3500    -3.1390    -0.5870 C.2   1 <1>   0.5690 
  7 C       -3.8520     0.1090    -0.0630 C.3   1 <1>   0.3380 
  8 C       -3.4270    -2.2040    -0.1330 C.3   1 <1>  -0.0190 
  9 C        1.2660    -2.6220    -0.5280 C.ar  1 <1>  -0.1500 
 10 C        0.1830    -4.5940     0.2700 C.ar  1 <1>  -0.1500 
 11 O       -2.5450    -4.1740    -1.1690 O.2   1 <1>  -0.5700 
 12 O       -4.8140    -0.7070     0.5350 O.3   1 <1>  -0.5600 
 13 C       -4.5440     0.2280    -1.4070 C.2   1 <1>  -0.2880 
 14 C       -4.8710    -1.7750    -0.3650 C.3   1 <1>   0.3380 
 15 C        2.5120    -3.2490    -0.5200 C.ar  1 <1>   0.0860 
 16 C        1.4010    -5.2450     0.2930 C.ar  1 <1>  -0.1500 
 17 C       -5.1200    -0.9540    -1.6180 C.2   1 <1>  -0.2880 
 18 C        3.6950    -2.5230    -0.9440 C.2   1 <1>   0.4230 
 19 C        2.5490    -4.5810    -0.0970 C.ar  1 <1>  -0.1500 
 20 O        3.6480    -1.4600    -1.5050 O.2   1 <1>  -0.5700 
 21 C        5.0770    -3.0930    -0.6890 C.3   1 <1>  -0.1790 
 22 H       -2.4510    -0.7420    -1.3730 H     1 <1>   0.0800 
 23 H       -3.6670     1.0090     0.4970 H     1 <1>   0.0800 
 24 H       -3.4480    -2.4470     0.9200 H     1 <1>   0.0800 
 25 H        1.2150    -1.5950    -0.8460 H     1 <1>   0.1500 
 26 H       -0.7050    -5.1230     0.5700 H     1 <1>   0.1500 
 27 H       -4.4770     1.1240    -1.9990 H     1 <1>   0.1500 
 28 H       -5.6450    -2.4650    -0.0730 H     1 <1>   0.0800 
 29 H        1.4520    -6.2720     0.6120 H     1 <1>   0.1500 
 30 H       -5.6810    -1.3540    -2.4450 H     1 <1>   0.1500 
 31 H        3.4800    -5.1180    -0.0730 H     1 <1>   0.1500 
 32 H        5.2460    -3.9420    -1.3240 H     1 <1>   0.0800 
 33 H        5.1750    -3.3810     0.3410 H     1 <1>   0.0800 
 34 H        5.8220    -2.3490    -0.9070 H     1 <1>   0.0800 
@<TRIPOS>BOND
  1   1   2  2   
  2   2   3  am  
  3   2   4  1   
  4   3   5  1   
  5   3   6  am  
  6   4   7  1   
  7   4   8  1   
  8   4  22  1   
  9   5   9  ar  
 10   5  10  ar  
 11   6   8  1   
 12   6  11  2   
 13   7  12  1   
 14   7  13  1   
 15   7  23  1   
 16   8  14  1   
 17   8  24  1   
 18   9  15  ar  
 19   9  25  1   
 20  10  16  ar  
 21  10  26  1   
 22  12  14  1   
 23  13  17  2   
 24  13  27  1   
 25  14  17  1   
 26  14  28  1   
 27  15  18  1   
 28  15  19  ar  
 29  16  19  ar  
 30  16  29  1   
 31  17  30  1   
 32  18  20  2   
 33  18  21  1   
 34  19  31  1   
 35  21  32  1   
 36  21  33  1   
 37  21  34  1   
@<TRIPOS>SUBSTRUCTURE
  1 ****   3 GROUP 4 **** **** 0

# MOE 2024.06 (io_trps.svl 2023.06)
