@<TRIPOS>MOLECULE
NONAME
30 31 1 0 0 
SMALL
USER_CHARGES


@<TRIPOS>ATOM
  1 O        0.9130    -0.6620     0.4750 O.2   1 <1>  -0.5700 
  2 C        0.8960    -1.8510     0.2830 C.2   1 <1>   0.5690 
  3 N        1.9120    -2.5730    -0.2580 N.am  1 <1>  -0.4200 
  4 C       -0.2740    -2.7460     0.6420 C.3   1 <1>  -0.0190 
  5 C        1.6110    -3.8980    -0.3150 C.2   1 <1>   0.5690 
  6 C        3.1780    -1.9770    -0.7420 C.3   1 <1>   0.1400 
  7 C        0.2210    -4.1600     0.2320 C.3   1 <1>  -0.0190 
  8 C       -1.5900    -2.2670     0.0000 C.3   1 <1>  -0.0220 
  9 O        2.3350    -4.7650    -0.7310 O.2   1 <1>  -0.5700 
 10 C        4.1060    -1.6760     0.4340 C.3   1 <1>  -0.0990 
 11 C       -0.6600    -4.9320    -0.7690 C.3   1 <1>  -0.0220 
 12 C       -2.5530    -3.4230    -0.1870 C.2   1 <1>  -0.2880 
 13 C        5.2790    -0.8590    -0.0450 C.2   1 <1>   0.5690 
 14 C       -2.1290    -4.6370    -0.5380 C.2   1 <1>  -0.2880 
 15 O        6.2020    -1.4000    -0.5910 O.2   1 <1>  -0.5700 
 16 N        5.2730     0.4740     0.1280 N.am  1 <1>  -0.8000 
 17 H       -0.3940    -2.7260     1.7110 H     1 <1>   0.0800 
 18 H        2.9510    -1.0660    -1.2700 H     1 <1>   0.0800 
 19 H        3.6640    -2.6520    -1.4280 H     1 <1>   0.0800 
 20 H        0.3210    -4.7560     1.1210 H     1 <1>   0.0800 
 21 H       -1.4020    -1.8220    -0.9620 H     1 <1>   0.0800 
 22 H       -2.0330    -1.5140     0.6300 H     1 <1>   0.0800 
 23 H        4.4710    -2.5960     0.8530 H     1 <1>   0.0800 
 24 H        3.5830    -1.1270     1.1950 H     1 <1>   0.0800 
 25 H       -0.4720    -5.9860    -0.6600 H     1 <1>   0.0800 
 26 H       -0.4130    -4.6570    -1.7800 H     1 <1>   0.0800 
 27 H       -3.5900    -3.1680    -0.0370 H     1 <1>   0.1500 
 28 H       -2.7830    -5.4770    -0.7040 H     1 <1>   0.1500 
 29 H        6.0700     1.0220    -0.1960 H     1 <1>   0.3700 
 30 H        4.5090     0.9910     0.5650 H     1 <1>   0.3700 
@<TRIPOS>BOND
  1   1   2  2   
  2   2   3  am  
  3   2   4  1   
  4   3   5  am  
  5   3   6  1   
  6   4   7  1   
  7   4   8  1   
  8   4  17  1   
  9   5   7  1   
 10   5   9  2   
 11   6  10  1   
 12   6  18  1   
 13   6  19  1   
 14   7  11  1   
 15   7  20  1   
 16   8  12  1   
 17   8  21  1   
 18   8  22  1   
 19  10  13  1   
 20  10  23  1   
 21  10  24  1   
 22  11  14  1   
 23  11  25  1   
 24  11  26  1   
 25  12  14  2   
 26  12  27  1   
 27  13  15  2   
 28  13  16  am  
 29  14  28  1   
 30  16  29  1   
 31  16  30  1   
@<TRIPOS>SUBSTRUCTURE
  1 ****   3 GROUP 4 **** **** 0

# MOE 2024.06 (io_trps.svl 2023.06)
