@<TRIPOS>MOLECULE
NONAME
37 38 1 0 0 
SMALL
USER_CHARGES


@<TRIPOS>ATOM
  1 N        0.1640    -0.0510     0.2450 N.3   1 <1>  -0.8100 
  2 C        0.3800     0.7430    -0.9930 C.3   1 <1>   0.1100 
  3 C       -1.1510    -0.7310     0.2020 C.3   1 <1>   0.1100 
  4 C        1.2570    -1.0050     0.4860 C.3   1 <1>   0.2480 
  5 C       -0.7860     1.7210    -1.2820 C.3   1 <1>   0.3430 
  6 C       -2.3190     0.2650    -0.0140 C.3   1 <1>   0.3430 
  7 C        2.5350    -0.2320     0.7290 C.2   1 <1>  -0.2880 
  8 N       -1.8150     1.6670    -0.1930 N.4   1 <1>  -0.9590 
  9 C        3.6460    -0.3190    -0.0240 C.2   1 <1>  -0.1780 
 10 C       -2.8990     2.6790    -0.3430 C.3   1 <1>   0.2630 
 11 C        4.8950     0.3960     0.1340 C.ar  1 <1>   0.0280 
 12 C        5.9180     0.2230    -0.7950 C.ar  1 <1>  -0.1500 
 13 C        5.1300     1.2710     1.1930 C.ar  1 <1>  -0.1500 
 14 C        7.1210     0.8960    -0.6790 C.ar  1 <1>  -0.1500 
 15 C        6.3300     1.9480     1.3160 C.ar  1 <1>  -0.1500 
 16 C        7.3290     1.7620     0.3790 C.ar  1 <1>  -0.1500 
 17 H        1.2850     1.3190    -0.9010 H     1 <1>   0.0800 
 18 H        0.5060     0.0850    -1.8360 H     1 <1>   0.0800 
 19 H       -1.1590    -1.4610    -0.5900 H     1 <1>   0.0800 
 20 H       -1.3130    -1.2570     1.1280 H     1 <1>   0.0800 
 21 H        1.0400    -1.5970     1.3590 H     1 <1>   0.0800 
 22 H        1.3700    -1.6680    -0.3560 H     1 <1>   0.0800 
 23 H       -1.2360     1.4660    -2.2280 H     1 <1>   0.0800 
 24 H       -0.3890     2.7190    -1.3660 H     1 <1>   0.0800 
 25 H       -2.9750     0.2190     0.8400 H     1 <1>   0.0800 
 26 H       -2.8860    -0.0380    -0.8780 H     1 <1>   0.0800 
 27 H        2.4490     0.4110     1.5850 H     1 <1>   0.1500 
 28 H       -1.2630     1.8390     0.6660 H     1 <1>   0.4500 
 29 H        3.6510    -0.9910    -0.8640 H     1 <1>   0.1500 
 30 H       -3.4650     2.4910    -1.2410 H     1 <1>   0.0800 
 31 H       -2.4790     3.6700    -0.4000 H     1 <1>   0.0800 
 32 H       -3.5670     2.6380     0.5020 H     1 <1>   0.0800 
 33 H        5.7740    -0.4470    -1.6240 H     1 <1>   0.1500 
 34 H        4.3720     1.4290     1.9360 H     1 <1>   0.1500 
 35 H        7.8960     0.7460    -1.4100 H     1 <1>   0.1500 
 36 H        6.4870     2.6190     2.1420 H     1 <1>   0.1500 
 37 H        8.2640     2.2870     0.4720 H     1 <1>   0.1500 
@<TRIPOS>BOND
  1   1   2  1   
  2   1   3  1   
  3   1   4  1   
  4   2   5  1   
  5   2  17  1   
  6   2  18  1   
  7   3   6  1   
  8   3  19  1   
  9   3  20  1   
 10   4   7  1   
 11   4  21  1   
 12   4  22  1   
 13   5   8  1   
 14   5  23  1   
 15   5  24  1   
 16   6   8  1   
 17   6  25  1   
 18   6  26  1   
 19   7   9  2   
 20   7  27  1   
 21   8  10  1   
 22   8  28  1   
 23   9  11  1   
 24   9  29  1   
 25  10  30  1   
 26  10  31  1   
 27  10  32  1   
 28  11  12  ar  
 29  11  13  ar  
 30  12  14  ar  
 31  12  33  1   
 32  13  15  ar  
 33  13  34  1   
 34  14  16  ar  
 35  14  35  1   
 36  15  16  ar  
 37  15  36  1   
 38  16  37  1   
@<TRIPOS>SUBSTRUCTURE
  1 ****   7 GROUP 4 **** **** 0

# MOE 2024.06 (io_trps.svl 2023.06)
