@<TRIPOS>MOLECULE
NONAME
41 42 1 0 0 
SMALL
USER_CHARGES


@<TRIPOS>ATOM
  1 O       -0.5100    -0.2110     0.5600 O.3   1 <1>  -0.2170 
  2 N       -1.5810    -0.6470    -0.0600 N.2   1 <1>  -0.5130 
  3 C        0.4630    -1.1810     0.8410 C.3   1 <1>   0.1200 
  4 C       -2.5130     0.1830    -0.3280 C.2   1 <1>   0.4750 
  5 C        1.6570    -0.4890     1.4960 C.3   1 <1>  -0.2400 
  6 C       -2.5850     1.6150    -0.0960 C.2   1 <1>  -0.0860 
  7 C       -3.7870    -0.3940    -0.9320 C.3   1 <1>  -0.0990 
  8 C       -3.8220     2.2580     0.0480 C.2   1 <1>   0.1080 
  9 C       -1.6920     2.6430     0.0350 C.2   1 <1>  -0.3320 
 10 C       -5.0380     0.0180    -0.1240 C.3   1 <1>   0.0000 
 11 N       -3.7240     3.5240     0.2870 N.2   1 <1>  -0.7070 
 12 C       -5.1620     1.5590    -0.1080 C.3   1 <1>   0.0210 
 13 N       -2.4040     3.7560     0.2920 N.pl3 1 <1>   0.3000 
 14 C       -0.1730     2.6460    -0.0880 C.3   1 <1>   0.0200 
 15 C       -6.2890    -0.5960    -0.7730 C.3   1 <1>  -0.2400 
 16 C       -4.9360    -0.5160     1.3190 C.3   1 <1>  -0.2400 
 17 C        0.3650     3.9310    -0.7330 C.3   1 <1>  -0.1600 
 18 C        1.8830     3.8640    -0.9270 C.3   1 <1>  -0.2400 
 19 H        0.0260    -1.9100     1.5000 H     1 <1>   0.0800 
 20 H        0.7460    -1.6500    -0.0850 H     1 <1>   0.0800 
 21 H        1.3500    -0.0090     2.4080 H     1 <1>   0.0800 
 22 H        2.0730     0.2410     0.8250 H     1 <1>   0.0800 
 23 H        2.4150    -1.2150     1.7270 H     1 <1>   0.0800 
 24 H       -3.8690    -0.0380    -1.9430 H     1 <1>   0.0800 
 25 H       -3.7130    -1.4670    -0.9690 H     1 <1>   0.0800 
 26 H       -5.8220     1.8780     0.6780 H     1 <1>   0.0800 
 27 H       -5.5820     1.8980    -1.0380 H     1 <1>   0.0800 
 28 H       -2.0170     4.6940     0.4490 H     1 <1>   0.2700 
 29 H        0.2600     2.5170     0.8880 H     1 <1>   0.0800 
 30 H        0.1270     1.8140    -0.7000 H     1 <1>   0.0800 
 31 H       -7.1750    -0.3040    -0.2360 H     1 <1>   0.0800 
 32 H       -6.2290    -1.6700    -0.7680 H     1 <1>   0.0800 
 33 H       -6.3890    -0.2680    -1.7930 H     1 <1>   0.0800 
 34 H       -4.1100    -0.0670     1.8440 H     1 <1>   0.0800 
 35 H       -4.7950    -1.5820     1.3190 H     1 <1>   0.0800 
 36 H       -5.8340    -0.2940     1.8680 H     1 <1>   0.0800 
 37 H       -0.1080     4.0710    -1.6910 H     1 <1>   0.0800 
 38 H        0.1320     4.7790    -0.1130 H     1 <1>   0.0800 
 39 H        2.1440     3.0390    -1.5690 H     1 <1>   0.0800 
 40 H        2.3790     3.7360     0.0190 H     1 <1>   0.0800 
 41 H        2.2380     4.7730    -1.3800 H     1 <1>   0.0800 
@<TRIPOS>BOND
  1   1   2  1   
  2   1   3  1   
  3   2   4  2   
  4   3   5  1   
  5   3  19  1   
  6   3  20  1   
  7   4   6  1   
  8   4   7  1   
  9   5  21  1   
 10   5  22  1   
 11   5  23  1   
 12   6   8  1   
 13   6   9  2   
 14   7  10  1   
 15   7  24  1   
 16   7  25  1   
 17   8  11  2   
 18   8  12  1   
 19   9  13  1   
 20   9  14  1   
 21  10  12  1   
 22  10  15  1   
 23  10  16  1   
 24  11  13  1   
 25  12  26  1   
 26  12  27  1   
 27  13  28  1   
 28  14  17  1   
 29  14  29  1   
 30  14  30  1   
 31  15  31  1   
 32  15  32  1   
 33  15  33  1   
 34  16  34  1   
 35  16  35  1   
 36  16  36  1   
 37  17  18  1   
 38  17  37  1   
 39  17  38  1   
 40  18  39  1   
 41  18  40  1   
 42  18  41  1   
@<TRIPOS>SUBSTRUCTURE
  1 ****   6 GROUP 4 **** **** 0

# MOE 2024.06 (io_trps.svl 2023.06)
