@<TRIPOS>MOLECULE
NONAME
44 46 1 0 0 
SMALL
USER_CHARGES


@<TRIPOS>ATOM
  1 CL       0.0850     0.5890     0.3320 Cl    1 <1>  -0.1770 
  2 C        1.4940    -0.4390     0.4040 C.ar  1 <1>   0.1770 
  3 C        1.4090    -1.6580     1.0540 C.ar  1 <1>  -0.1500 
  4 C        2.6700    -0.0160    -0.1890 C.ar  1 <1>  -0.1500 
  5 C        2.5280    -2.4720     1.1100 C.ar  1 <1>  -0.1500 
  6 C        3.7910    -0.8290    -0.1340 C.ar  1 <1>  -0.1500 
  7 C        3.7090    -2.0530     0.5170 C.ar  1 <1>   0.1020 
  8 S        5.1180    -3.1700     0.6350 S.3   1 <1>  -0.3320 
  9 C        6.5220    -2.3400    -0.2310 C.3   1 <1>   0.0700 
 10 C        7.7380    -3.2660    -0.1530 C.3   1 <1>  -0.0990 
 11 C        8.9690    -2.6730    -0.8200 C.2   1 <1>   0.5690 
 12 O        8.8480    -1.6410    -1.4380 O.2   1 <1>  -0.5700 
 13 N       10.1800    -3.3060    -0.7110 N.am  1 <1>  -0.6600 
 14 C       10.3780    -4.6030     0.0160 C.3   1 <1>   0.1400 
 15 C       11.4050    -2.7040    -1.3290 C.3   1 <1>   0.1400 
 16 C       11.6900    -5.3070    -0.3670 C.3   1 <1>   0.1400 
 17 C       12.6580    -2.9560    -0.4750 C.3   1 <1>   0.1400 
 18 N       12.8800    -4.4130    -0.2040 N.am  1 <1>  -0.6600 
 19 C       14.1420    -4.9560    -0.0520 C.2   1 <1>   0.7150 
 20 O       14.2640    -6.1620    -0.1810 O.2   1 <1>  -0.5700 
 21 C       15.2920    -4.1310     0.2620 C.2   1 <1>   0.0550 
 22 O       16.4690    -4.3500    -0.3180 O.3   1 <1>  -0.2800 
 23 C       15.4290    -3.0740     1.1140 C.2   1 <1>  -0.1500 
 24 C       17.3380    -3.4750     0.1320 C.2   1 <1>  -0.0100 
 25 C       16.7550    -2.6500     1.0270 C.2   1 <1>  -0.1500 
 26 H        0.4810    -1.9610     1.5060 H     1 <1>   0.1500 
 27 H        2.7050     0.9370    -0.6860 H     1 <1>   0.1500 
 28 H        2.4910    -3.4240     1.6080 H     1 <1>   0.1500 
 29 H        4.7010    -0.4980    -0.5950 H     1 <1>   0.1500 
 30 H        6.7080    -1.4050     0.2680 H     1 <1>   0.0800 
 31 H        6.2230    -2.1700    -1.2510 H     1 <1>   0.0800 
 32 H        7.4990    -4.1940    -0.6370 H     1 <1>   0.0800 
 33 H        7.9600    -3.4560     0.8800 H     1 <1>   0.0800 
 34 H        9.5600    -5.2680    -0.1990 H     1 <1>   0.0800 
 35 H       10.3850    -4.4130     1.0750 H     1 <1>   0.0800 
 36 H       11.2750    -1.6420    -1.4470 H     1 <1>   0.0800 
 37 H       11.5500    -3.1260    -2.3080 H     1 <1>   0.0800 
 38 H       11.6350    -5.6330    -1.3910 H     1 <1>   0.0800 
 39 H       11.8100    -6.1820     0.2490 H     1 <1>   0.0800 
 40 H       12.5470    -2.4370     0.4610 H     1 <1>   0.0800 
 41 H       13.5120    -2.5470    -0.9870 H     1 <1>   0.0800 
 42 H       14.6800    -2.6390     1.7510 H     1 <1>   0.1500 
 43 H       18.3500    -3.5090    -0.2330 H     1 <1>   0.1500 
 44 H       17.1960    -1.8340     1.5730 H     1 <1>   0.1500 
@<TRIPOS>BOND
  1   1   2  1   
  2   2   3  ar  
  3   2   4  ar  
  4   3   5  ar  
  5   3  26  1   
  6   4   6  ar  
  7   4  27  1   
  8   5   7  ar  
  9   5  28  1   
 10   6   7  ar  
 11   6  29  1   
 12   7   8  1   
 13   8   9  1   
 14   9  10  1   
 15   9  30  1   
 16   9  31  1   
 17  10  11  1   
 18  10  32  1   
 19  10  33  1   
 20  11  12  2   
 21  11  13  am  
 22  13  14  1   
 23  13  15  1   
 24  14  16  1   
 25  14  34  1   
 26  14  35  1   
 27  15  17  1   
 28  15  36  1   
 29  15  37  1   
 30  16  18  1   
 31  16  38  1   
 32  16  39  1   
 33  17  18  1   
 34  17  40  1   
 35  17  41  1   
 36  18  19  am  
 37  19  20  2   
 38  19  21  1   
 39  21  22  1   
 40  21  23  2   
 41  22  24  1   
 42  23  25  1   
 43  23  42  1   
 44  24  25  2   
 45  24  43  1   
 46  25  44  1   
@<TRIPOS>SUBSTRUCTURE
  1 ****  11 GROUP 4 **** **** 0

# MOE 2024.06 (io_trps.svl 2023.06)
