@<TRIPOS>MOLECULE
NONAME
37 38 1 0 0 
SMALL
USER_CHARGES


@<TRIPOS>ATOM
  1 O       -0.1140    -0.7010     0.0200 O.2   1 <1>  -0.5700 
  2 C       -0.1430     0.5090    -0.0900 C.2   1 <1>   0.6900 
  3 N       -1.3170     1.1830    -0.3580 N.am  1 <1>  -0.3680 
  4 N        0.9940     1.2630     0.0500 N.am  1 <1>  -0.5470 
  5 N       -2.6150     0.6850    -0.3200 N.2   1 <1>  -0.5120 
  6 C        2.3400     0.8760     0.1070 C.ar  1 <1>   0.1170 
  7 C       -3.6320     1.3610    -0.6590 C.2   1 <1>   0.3280 
  8 C        3.2530     1.7140     0.7380 C.ar  1 <1>  -0.1500 
  9 C        2.8110    -0.3040    -0.4620 C.ar  1 <1>  -0.1500 
 10 C       -5.0230     0.7540    -0.5830 C.3   1 <1>  -0.0990 
 11 C       -3.6410     2.8030    -1.1650 C.3   1 <1>  -0.0990 
 12 C        4.5960     1.3850     0.8020 C.ar  1 <1>  -0.1500 
 13 C        4.1520    -0.6380    -0.3990 C.ar  1 <1>  -0.1500 
 14 C       -5.9600     1.6220     0.2740 C.3   1 <1>  -0.0800 
 15 C       -4.5770     3.6740    -0.3140 C.3   1 <1>  -0.1600 
 16 C        5.0470     0.2070     0.2330 C.ar  1 <1>  -0.1500 
 17 C       -5.9880     3.0700    -0.2450 C.3   1 <1>  -0.1600 
 18 C       -7.3740     1.0320     0.2940 C.3   1 <1>  -0.2400 
 19 H       -1.1980     2.1460    -0.6600 H     1 <1>   0.3700 
 20 H        0.8240     2.2310     0.2960 H     1 <1>   0.3700 
 21 H        2.9160     2.6290     1.1870 H     1 <1>   0.1500 
 22 H        2.1270    -0.9690    -0.9590 H     1 <1>   0.1500 
 23 H       -5.4130     0.6620    -1.5790 H     1 <1>   0.0800 
 24 H       -4.9560    -0.2330    -0.1600 H     1 <1>   0.0800 
 25 H       -2.6590     3.2340    -1.1570 H     1 <1>   0.0800 
 26 H       -3.9860     2.8010    -2.1840 H     1 <1>   0.0800 
 27 H        5.2910     2.0420     1.2960 H     1 <1>   0.1500 
 28 H        4.4970    -1.5560    -0.8430 H     1 <1>   0.1500 
 29 H       -5.5810     1.6290     1.2840 H     1 <1>   0.0800 
 30 H       -4.1770     3.7520     0.6830 H     1 <1>   0.0800 
 31 H       -4.6290     4.6650    -0.7290 H     1 <1>   0.0800 
 32 H        6.0910    -0.0530     0.2820 H     1 <1>   0.1500 
 33 H       -6.4320     3.0940    -1.2250 H     1 <1>   0.0800 
 34 H       -6.5980     3.6740     0.4050 H     1 <1>   0.0800 
 35 H       -7.7910     1.0060    -0.6970 H     1 <1>   0.0800 
 36 H       -8.0170     1.6250     0.9220 H     1 <1>   0.0800 
 37 H       -7.3540     0.0300     0.6850 H     1 <1>   0.0800 
@<TRIPOS>BOND
  1   1   2  2   
  2   2   3  am  
  3   2   4  am  
  4   3   5  1   
  5   3  19  1   
  6   4   6  1   
  7   4  20  1   
  8   5   7  2   
  9   6   8  ar  
 10   6   9  ar  
 11   7  10  1   
 12   7  11  1   
 13   8  12  ar  
 14   8  21  1   
 15   9  13  ar  
 16   9  22  1   
 17  10  14  1   
 18  10  23  1   
 19  10  24  1   
 20  11  15  1   
 21  11  25  1   
 22  11  26  1   
 23  12  16  ar  
 24  12  27  1   
 25  13  16  ar  
 26  13  28  1   
 27  14  17  1   
 28  14  18  1   
 29  14  29  1   
 30  15  17  1   
 31  15  30  1   
 32  15  31  1   
 33  16  32  1   
 34  17  33  1   
 35  17  34  1   
 36  18  35  1   
 37  18  36  1   
 38  18  37  1   
@<TRIPOS>SUBSTRUCTURE
  1 ****   3 GROUP 4 **** **** 0

# MOE 2024.06 (io_trps.svl 2023.06)
