@<TRIPOS>MOLECULE
NONAME
34 34 1 0 0 
SMALL
USER_CHARGES


@<TRIPOS>ATOM
  1 I        0.4140    -0.2630     0.4030 I     1 <1>  -0.0810 
  2 C       -1.5770    -1.0430     0.3200 C.ar  1 <1>   0.0810 
  3 C       -1.8090    -2.4030     0.1590 C.ar  1 <1>  -0.1440 
  4 C       -2.6030    -0.1220     0.4350 C.ar  1 <1>  -0.1500 
  5 C       -3.1290    -2.8190     0.1150 C.ar  1 <1>  -0.1500 
  6 C       -0.6920    -3.4310     0.0270 C.3   1 <1>  -0.0960 
  7 C       -3.9180    -0.5570     0.3920 C.ar  1 <1>  -0.1430 
  8 C       -4.1850    -1.9190     0.2260 C.ar  1 <1>   0.1170 
  9 C       -5.0350     0.4690     0.5300 C.3   1 <1>  -0.0960 
 10 N       -5.4910    -2.4270     0.1900 N.am  1 <1>  -0.5470 
 11 C       -6.4500    -2.2210    -0.7580 C.2   1 <1>   0.5690 
 12 O       -6.2810    -1.5370    -1.7360 O.2   1 <1>  -0.5700 
 13 C       -7.7900    -2.9080    -0.5670 C.3   1 <1>  -0.0990 
 14 C       -8.6230    -2.3110     0.5850 C.3   1 <1>  -0.0800 
 15 C       -9.8930    -3.1420     0.8030 C.3   1 <1>  -0.2400 
 16 C       -9.0050    -0.8520     0.3010 C.3   1 <1>  -0.2400 
 17 H       -2.3740     0.9210     0.5550 H     1 <1>   0.1500 
 18 H       -3.3560    -3.8610    -0.0170 H     1 <1>   0.1500 
 19 H       -0.0860    -3.2110    -0.8330 H     1 <1>   0.0800 
 20 H       -1.0920    -4.4210    -0.0910 H     1 <1>   0.0800 
 21 H       -0.0720    -3.4220     0.9070 H     1 <1>   0.0800 
 22 H       -4.6550     1.4080     0.8900 H     1 <1>   0.0800 
 23 H       -5.7800     0.1200     1.2210 H     1 <1>   0.0800 
 24 H       -5.4960     0.6340    -0.4280 H     1 <1>   0.0800 
 25 H       -5.7240    -3.0820     0.9320 H     1 <1>   0.3700 
 26 H       -7.6090    -3.9510    -0.3840 H     1 <1>   0.0800 
 27 H       -8.3440    -2.8350    -1.4860 H     1 <1>   0.0800 
 28 H       -8.0420    -2.3410     1.4920 H     1 <1>   0.0800 
 29 H      -10.5080    -3.1340    -0.0800 H     1 <1>   0.0800 
 30 H      -10.4660    -2.7400     1.6210 H     1 <1>   0.0800 
 31 H       -9.6420    -4.1610     1.0380 H     1 <1>   0.0800 
 32 H       -9.5850    -0.7810    -0.6030 H     1 <1>   0.0800 
 33 H       -8.1270    -0.2420     0.1870 H     1 <1>   0.0800 
 34 H       -9.5860    -0.4520     1.1120 H     1 <1>   0.0800 
@<TRIPOS>BOND
  1   1   2  1   
  2   2   3  ar  
  3   2   4  ar  
  4   3   5  ar  
  5   3   6  1   
  6   4   7  ar  
  7   4  17  1   
  8   5   8  ar  
  9   5  18  1   
 10   6  19  1   
 11   6  20  1   
 12   6  21  1   
 13   7   8  ar  
 14   7   9  1   
 15   8  10  1   
 16   9  22  1   
 17   9  23  1   
 18   9  24  1   
 19  10  11  am  
 20  10  25  1   
 21  11  12  2   
 22  11  13  1   
 23  13  14  1   
 24  13  26  1   
 25  13  27  1   
 26  14  15  1   
 27  14  16  1   
 28  14  28  1   
 29  15  29  1   
 30  15  30  1   
 31  15  31  1   
 32  16  32  1   
 33  16  33  1   
 34  16  34  1   
@<TRIPOS>SUBSTRUCTURE
  1 ****   8 GROUP 4 **** **** 0

# MOE 2024.06 (io_trps.svl 2023.06)
