@<TRIPOS>MOLECULE
NONAME
41 45 1 0 0 
SMALL
USER_CHARGES


@<TRIPOS>ATOM
  1 O        0.5950    -0.7710     2.0360 O.2   1 <1>  -0.5700 
  2 C        0.2700    -1.3380     1.0240 C.2   1 <1>   0.5690 
  3 N        1.0680    -2.0620     0.1480 N.am  1 <1>  -0.2370 
  4 C       -1.1250    -1.3440     0.4670 C.3   1 <1>  -0.0190 
  5 C        2.4810    -2.0270     0.1020 C.ar  1 <1>   0.1170 
  6 C        0.2460    -2.7960    -0.6950 C.2   1 <1>   0.5690 
  7 C       -2.5310    -1.0180     1.0210 C.3   1 <1>   0.1530 
  8 C       -1.1340    -2.7630    -0.1060 C.3   1 <1>  -0.0190 
  9 C        3.1690    -0.8350     0.3050 C.ar  1 <1>  -0.1500 
 10 C        3.2160    -3.1830    -0.1480 C.ar  1 <1>  -0.1500 
 11 O        0.5420    -3.3990    -1.6940 O.2   1 <1>  -0.5700 
 12 C       -3.1770    -2.2800     1.6150 C.2   1 <1>  -0.2880 
 13 C       -3.4090    -0.7850    -0.2570 C.3   1 <1>  -0.1950 
 14 C       -2.5610    -3.1630    -0.5700 C.3   1 <1>   0.1530 
 15 C        4.5560    -0.7970     0.2520 C.ar  1 <1>   0.0830 
 16 C        4.5980    -3.1520    -0.1910 C.ar  1 <1>  -0.1500 
 17 C       -3.2350    -3.3480     0.7990 C.2   1 <1>  -0.2880 
 18 C       -3.4160    -2.0070    -1.1620 C.3   1 <1>  -0.1950 
 19 C       -3.0210    -0.6780    -1.7180 C.3   1 <1>  -0.2000 
 20 O        5.2650     0.3460     0.4510 O.3   1 <1>  -0.2320 
 21 C        5.2690    -1.9600     0.0110 C.ar  1 <1>  -0.1500 
 22 C        4.9250     1.5800     0.0860 C.2   1 <1>   0.6590 
 23 O        3.9460     1.8470    -0.5610 O.2   1 <1>  -0.5700 
 24 C        5.8700     2.6650     0.5400 C.3   1 <1>  -0.1790 
 25 H       -0.9760    -0.6190    -0.3070 H     1 <1>   0.0800 
 26 H       -2.5330    -0.1660     1.6810 H     1 <1>   0.0800 
 27 H       -0.9640    -3.4430     0.7160 H     1 <1>   0.0800 
 28 H        2.6170     0.0630     0.5110 H     1 <1>   0.1500 
 29 H        2.7060    -4.1160    -0.3140 H     1 <1>   0.1500 
 30 H       -3.5590    -2.2060     2.6190 H     1 <1>   0.1500 
 31 H       -4.3750    -0.3910     0.0120 H     1 <1>   0.1000 
 32 H       -2.5680    -4.0590    -1.1670 H     1 <1>   0.0800 
 33 H        5.1510    -4.0550    -0.3850 H     1 <1>   0.1500 
 34 H       -3.6800    -4.3070     1.0050 H     1 <1>   0.1500 
 35 H       -4.3820    -2.3720    -1.4680 H     1 <1>   0.1000 
 36 H       -2.0210    -0.5910    -2.1020 H     1 <1>   0.1000 
 37 H       -3.7150    -0.1810    -2.3740 H     1 <1>   0.1000 
 38 H        6.3440    -1.9290    -0.0210 H     1 <1>   0.1500 
 39 H        5.9250     2.6680     1.6120 H     1 <1>   0.0800 
 40 H        5.5150     3.6210     0.2010 H     1 <1>   0.0800 
 41 H        6.8460     2.4860     0.1310 H     1 <1>   0.0800 
@<TRIPOS>BOND
  1   1   2  2   
  2   2   3  am  
  3   2   4  1   
  4   3   5  1   
  5   3   6  am  
  6   4   7  1   
  7   4   8  1   
  8   4  25  1   
  9   5   9  ar  
 10   5  10  ar  
 11   6   8  1   
 12   6  11  2   
 13   7  12  1   
 14   7  13  1   
 15   7  26  1   
 16   8  14  1   
 17   8  27  1   
 18   9  15  ar  
 19   9  28  1   
 20  10  16  ar  
 21  10  29  1   
 22  12  17  2   
 23  12  30  1   
 24  13  18  1   
 25  13  19  1   
 26  13  31  1   
 27  14  17  1   
 28  14  18  1   
 29  14  32  1   
 30  15  20  1   
 31  15  21  ar  
 32  16  21  ar  
 33  16  33  1   
 34  17  34  1   
 35  18  19  1   
 36  18  35  1   
 37  19  36  1   
 38  19  37  1   
 39  20  22  1   
 40  21  38  1   
 41  22  23  2   
 42  22  24  1   
 43  24  39  1   
 44  24  40  1   
 45  24  41  1   
@<TRIPOS>SUBSTRUCTURE
  1 ****   3 GROUP 4 **** **** 0

# MOE 2024.06 (io_trps.svl 2023.06)
