@<TRIPOS>MOLECULE
NONAME
33 34 1 0 0 
SMALL
USER_CHARGES


@<TRIPOS>ATOM
  1 O       -0.9070     2.7190    -1.7720 O.2   1 <1>  -0.5700 
  2 C       -1.2080     2.1290    -0.7630 C.2   1 <1>   0.5940 
  3 C       -2.5690     1.7640    -0.4540 C.2   1 <1>  -0.2370 
  4 C       -0.0920     1.8250     0.2470 C.3   1 <1>  -0.0190 
  5 N       -3.6300     2.6060    -0.7350 N.pl3 1 <1>   0.0480 
  6 C       -3.0850     0.6340     0.1290 C.2   1 <1>  -0.1810 
  7 C        0.4920     3.1210     0.8360 C.3   1 <1>  -0.2400 
  8 C        1.0380     0.9850    -0.3740 C.3   1 <1>  -0.2400 
  9 C       -4.7930     2.0200    -0.3030 C.ar  1 <1>  -0.1520 
 10 C       -3.5430     3.9320    -1.3840 C.3   1 <1>   0.0160 
 11 C       -4.4780     0.7850     0.2490 C.ar  1 <1>   0.0000 
 12 C       -2.3800    -0.6380     0.5670 C.3   1 <1>  -0.0590 
 13 C       -6.1230     2.4590    -0.3450 C.ar  1 <1>  -0.1500 
 14 C       -5.4960    -0.0200     0.7770 C.ar  1 <1>  -0.1500 
 15 C       -7.1120     1.6590     0.1740 C.ar  1 <1>  -0.1500 
 16 C       -6.7990     0.4160     0.7380 C.ar  1 <1>  -0.1500 
 17 H       -0.5140     1.2720     1.0650 H     1 <1>   0.0800 
 18 H        0.9390     3.7160     0.0590 H     1 <1>   0.0800 
 19 H        1.2410     2.8960     1.5740 H     1 <1>   0.0800 
 20 H       -0.2870     3.6980     1.3020 H     1 <1>   0.0800 
 21 H        1.5180     1.5350    -1.1650 H     1 <1>   0.0800 
 22 H        0.6450     0.0740    -0.7900 H     1 <1>   0.0800 
 23 H        1.7750     0.7340     0.3680 H     1 <1>   0.0800 
 24 H       -3.3450     3.7970    -2.4320 H     1 <1>   0.0800 
 25 H       -2.7420     4.4960    -0.9420 H     1 <1>   0.0800 
 26 H       -4.4620     4.4710    -1.2580 H     1 <1>   0.0800 
 27 H       -2.2650    -0.6440     1.6360 H     1 <1>   0.0800 
 28 H       -1.4170    -0.7240     0.1040 H     1 <1>   0.0800 
 29 H       -2.9620    -1.4940     0.2770 H     1 <1>   0.0800 
 30 H       -6.3660     3.4110    -0.7780 H     1 <1>   0.1500 
 31 H       -5.2430    -0.9720     1.2060 H     1 <1>   0.1500 
 32 H       -8.1390     1.9790     0.1530 H     1 <1>   0.1500 
 33 H       -7.5900    -0.1920     1.1390 H     1 <1>   0.1500 
@<TRIPOS>BOND
  1   1   2  2   
  2   2   3  1   
  3   2   4  1   
  4   3   5  1   
  5   3   6  2   
  6   4   7  1   
  7   4   8  1   
  8   4  17  1   
  9   5   9  1   
 10   5  10  1   
 11   6  11  1   
 12   6  12  1   
 13   7  18  1   
 14   7  19  1   
 15   7  20  1   
 16   8  21  1   
 17   8  22  1   
 18   8  23  1   
 19   9  11  ar  
 20   9  13  ar  
 21  10  24  1   
 22  10  25  1   
 23  10  26  1   
 24  11  14  ar  
 25  12  27  1   
 26  12  28  1   
 27  12  29  1   
 28  13  15  ar  
 29  13  30  1   
 30  14  16  ar  
 31  14  31  1   
 32  15  16  ar  
 33  15  32  1   
 34  16  33  1   
@<TRIPOS>SUBSTRUCTURE
  1 ****   3 GROUP 4 **** **** 0

# MOE 2024.06 (io_trps.svl 2023.06)
