@<TRIPOS>MOLECULE
NONAME
41 43 1 0 0 
SMALL
USER_CHARGES


@<TRIPOS>ATOM
  1 N        0.2880    -0.4640     0.2340 N.4   1 <1>  -0.9590 
  2 C       -1.0470    -1.1250     0.0090 C.3   1 <1>   0.3430 
  3 C        0.7590     0.4560    -0.8510 C.3   1 <1>   0.3430 
  4 C        1.3520    -1.4780     0.5020 C.3   1 <1>   0.5240 
  5 C       -2.2630    -0.2650     0.4640 C.3   1 <1>   0.3430 
  6 C       -0.3290     1.3600    -1.4340 C.3   1 <1>  -0.1600 
  7 C        2.4880    -0.7300     1.1520 C.2   1 <1>  -0.1810 
  8 N       -2.4960     1.0360    -0.2740 N.4   1 <1>  -0.9590 
  9 C       -1.3120     1.9380    -0.4180 C.3   1 <1>   0.3430 
 10 C        3.6260    -0.2670     0.4540 C.ar  1 <1>   0.0000 
 11 C        2.6170    -0.3580     2.4500 C.2   1 <1>  -0.3020 
 12 C       -3.6170     1.7910     0.3820 C.3   1 <1>   0.2630 
 13 C        4.4020     0.4110     1.3880 C.ar  1 <1>  -0.1520 
 14 C        4.0710    -0.3600    -0.8720 C.ar  1 <1>  -0.1500 
 15 N        3.7850     0.3340     2.6090 N.pl3 1 <1>   0.0330 
 16 C        5.6010     1.0250     1.0200 C.ar  1 <1>  -0.1500 
 17 C        5.2530     0.2450    -1.2330 C.ar  1 <1>  -0.1500 
 18 C        6.0160     0.9410    -0.2880 C.ar  1 <1>  -0.1500 
 19 H        0.2860     0.0740     1.1130 H     1 <1>   0.4500 
 20 H       -1.0790    -2.0420     0.5760 H     1 <1>   0.0800 
 21 H       -1.1580    -1.3910    -1.0300 H     1 <1>   0.0800 
 22 H        1.1890    -0.1210    -1.6560 H     1 <1>   0.0800 
 23 H        1.5510     1.0770    -0.4560 H     1 <1>   0.0800 
 24 H        1.6810    -1.9570    -0.4070 H     1 <1>   0.0800 
 25 H        0.9950    -2.2320     1.1850 H     1 <1>   0.0800 
 26 H       -2.1470    -0.0570     1.5150 H     1 <1>   0.0800 
 27 H       -3.1490    -0.8720     0.3660 H     1 <1>   0.0800 
 28 H       -0.8500     0.8540    -2.2270 H     1 <1>   0.0800 
 29 H        0.1820     2.1860    -1.8970 H     1 <1>   0.0800 
 30 H       -2.8260     0.8190    -1.2290 H     1 <1>   0.4500 
 31 H       -1.6490     2.8950    -0.7860 H     1 <1>   0.0800 
 32 H       -0.8320     2.1030     0.5340 H     1 <1>   0.0800 
 33 H        1.9660    -0.5380     3.2900 H     1 <1>   0.1500 
 34 H       -3.3470     2.0770     1.3860 H     1 <1>   0.0800 
 35 H       -4.5090     1.1850     0.4250 H     1 <1>   0.0800 
 36 H       -3.8460     2.6860    -0.1770 H     1 <1>   0.0800 
 37 H        3.5060    -0.9070    -1.6020 H     1 <1>   0.1500 
 38 H        4.1710     0.7130     3.4840 H     1 <1>   0.2700 
 39 H        6.1880     1.5520     1.7520 H     1 <1>   0.1500 
 40 H        5.6130     0.1860    -2.2460 H     1 <1>   0.1500 
 41 H        6.9370     1.4050    -0.5970 H     1 <1>   0.1500 
@<TRIPOS>BOND
  1   1   2  1   
  2   1   3  1   
  3   1   4  1   
  4   1  19  1   
  5   2   5  1   
  6   2  20  1   
  7   2  21  1   
  8   3   6  1   
  9   3  22  1   
 10   3  23  1   
 11   4   7  1   
 12   4  24  1   
 13   4  25  1   
 14   5   8  1   
 15   5  26  1   
 16   5  27  1   
 17   6   9  1   
 18   6  28  1   
 19   6  29  1   
 20   7  10  1   
 21   7  11  2   
 22   8   9  1   
 23   8  12  1   
 24   8  30  1   
 25   9  31  1   
 26   9  32  1   
 27  10  13  ar  
 28  10  14  ar  
 29  11  15  1   
 30  11  33  1   
 31  12  34  1   
 32  12  35  1   
 33  12  36  1   
 34  13  15  1   
 35  13  16  ar  
 36  14  17  ar  
 37  14  37  1   
 38  15  38  1   
 39  16  18  ar  
 40  16  39  1   
 41  17  18  ar  
 42  17  40  1   
 43  18  41  1   
@<TRIPOS>SUBSTRUCTURE
  1 ****   3 GROUP 4 **** **** 0

# MOE 2024.06 (io_trps.svl 2023.06)
