@<TRIPOS>MOLECULE
NONAME
46 47 1 0 0 
SMALL
USER_CHARGES


@<TRIPOS>ATOM
  1 CL      -0.3170     0.7010     2.0800 Cl    1 <1>  -0.1770 
  2 C       -1.6490     0.2430     1.0470 C.ar  1 <1>   0.1770 
  3 C       -1.7690    -1.0710     0.6170 C.ar  1 <1>  -0.1440 
  4 C       -2.5560     1.2140     0.6690 C.ar  1 <1>  -0.1500 
  5 C       -2.8340    -1.4060    -0.2080 C.ar  1 <1>  -0.1500 
  6 C       -0.7600    -2.1170     1.0440 C.3   1 <1>   0.4870 
  7 C       -3.6110     0.8690    -0.1580 C.ar  1 <1>  -0.1500 
  8 C       -3.7480    -0.4380    -0.5930 C.ar  1 <1>  -0.1500 
  9 N        0.1970    -2.3470    -0.0730 N.4   1 <1>  -0.9590 
 10 C        0.9940    -3.6060     0.1590 C.3   1 <1>   0.3430 
 11 C        1.1000    -1.1490    -0.2620 C.3   1 <1>   0.3430 
 12 C        2.0540    -3.8280    -0.9380 C.3   1 <1>   0.1400 
 13 C        2.1730    -1.3800    -1.3470 C.3   1 <1>   0.1400 
 14 N        2.9290    -2.6260    -1.0480 N.am  1 <1>  -0.6600 
 15 C        3.9730    -2.5270    -0.1770 C.2   1 <1>   0.6900 
 16 O        3.8900    -3.0420     0.9210 O.2   1 <1>  -0.5700 
 17 N        5.0530    -1.8080    -0.5450 N.am  1 <1>  -0.7300 
 18 C        6.2640    -1.6190     0.2810 C.3   1 <1>   0.1400 
 19 C        6.7730    -0.1900     0.1000 C.3   1 <1>  -0.1600 
 20 C        8.0300     0.0610     0.9440 C.3   1 <1>  -0.1600 
 21 C        8.5390     1.4930     0.7620 C.3   1 <1>  -0.2400 
 22 H       -2.4400     2.2260     1.0170 H     1 <1>   0.1500 
 23 H       -2.9750    -2.4170    -0.5550 H     1 <1>   0.1500 
 24 H       -1.2830    -3.0310     1.2750 H     1 <1>   0.0800 
 25 H       -0.2330    -1.8000     1.9290 H     1 <1>   0.0800 
 26 H       -4.3270     1.6170    -0.4600 H     1 <1>   0.1500 
 27 H       -4.5770    -0.7000    -1.2320 H     1 <1>   0.1500 
 28 H       -0.3560    -2.4570    -0.9300 H     1 <1>   0.4500 
 29 H        0.3380    -4.4600     0.1940 H     1 <1>   0.0800 
 30 H        1.5070    -3.5430     1.1060 H     1 <1>   0.0800 
 31 H        1.6050    -0.9300     0.6650 H     1 <1>   0.0800 
 32 H        0.5130    -0.2840    -0.5270 H     1 <1>   0.0800 
 33 H        1.5830    -4.0240    -1.8850 H     1 <1>   0.0800 
 34 H        2.6550    -4.6860    -0.6840 H     1 <1>   0.0800 
 35 H        2.8440    -0.5380    -1.3650 H     1 <1>   0.0800 
 36 H        1.7140    -1.4580    -2.3170 H     1 <1>   0.0800 
 37 H        5.1600    -1.6080    -1.5380 H     1 <1>   0.3700 
 38 H        7.0170    -2.3250    -0.0260 H     1 <1>   0.0800 
 39 H        6.0320    -1.7970     1.3190 H     1 <1>   0.0800 
 40 H        6.0030     0.5000     0.3990 H     1 <1>   0.0800 
 41 H        7.0050    -0.0220    -0.9380 H     1 <1>   0.0800 
 42 H        8.8050    -0.6290     0.6550 H     1 <1>   0.0800 
 43 H        7.8060    -0.1050     1.9840 H     1 <1>   0.0800 
 44 H        8.7940     1.6760    -0.2670 H     1 <1>   0.0800 
 45 H        9.4170     1.6500     1.3630 H     1 <1>   0.0800 
 46 H        7.7870     2.2010     1.0650 H     1 <1>   0.0800 
@<TRIPOS>BOND
  1   1   2  1   
  2   2   3  ar  
  3   2   4  ar  
  4   3   5  ar  
  5   3   6  1   
  6   4   7  ar  
  7   4  22  1   
  8   5   8  ar  
  9   5  23  1   
 10   6   9  1   
 11   6  24  1   
 12   6  25  1   
 13   7   8  ar  
 14   7  26  1   
 15   8  27  1   
 16   9  10  1   
 17   9  11  1   
 18   9  28  1   
 19  10  12  1   
 20  10  29  1   
 21  10  30  1   
 22  11  13  1   
 23  11  31  1   
 24  11  32  1   
 25  12  14  1   
 26  12  33  1   
 27  12  34  1   
 28  13  14  1   
 29  13  35  1   
 30  13  36  1   
 31  14  15  am  
 32  15  16  2   
 33  15  17  am  
 34  17  18  1   
 35  17  37  1   
 36  18  19  1   
 37  18  38  1   
 38  18  39  1   
 39  19  20  1   
 40  19  40  1   
 41  19  41  1   
 42  20  21  1   
 43  20  42  1   
 44  20  43  1   
 45  21  44  1   
 46  21  45  1   
 47  21  46  1   
@<TRIPOS>SUBSTRUCTURE
  1 ****  11 GROUP 4 **** **** 0

# MOE 2024.06 (io_trps.svl 2023.06)
