@<TRIPOS>MOLECULE
NONAME
54 56 1 0 0 
SMALL
USER_CHARGES


@<TRIPOS>ATOM
  1 O       -0.4630    -0.5250    -1.1400 O.2   1 <1>  -0.5700 
  2 C       -1.0810    -1.5280    -0.8470 C.2   1 <1>   0.6900 
  3 N       -0.4300    -2.5920    -0.2320 N.am  1 <1>  -0.4200 
  4 N       -2.4390    -1.6040    -1.1160 N.am  1 <1>  -0.4360 
  5 C       -1.1260    -3.7180     0.1880 C.2   1 <1>   0.7030 
  6 C        1.0420    -2.4900     0.0200 C.3   1 <1>   0.0600 
  7 C       -3.1210    -2.7310    -0.6980 C.2   1 <1>   0.4260 
  8 C       -3.1460    -0.4860    -1.8090 C.3   1 <1>   0.0600 
  9 O       -0.5500    -4.6230     0.7660 O.2   1 <1>  -0.5700 
 10 C       -2.5380    -3.7780    -0.0680 C.2   1 <1>   0.2770 
 11 N       -4.4440    -2.9930    -0.8170 N.pl3 1 <1>  -0.7000 
 12 N       -3.5580    -4.7050     0.1950 N.pl3 1 <1>  -0.7640 
 13 C       -4.6860    -4.1790    -0.2730 C.cat 1 <1>   0.6560 
 14 C       -3.3320    -6.0090     0.8710 C.3   1 <1>   0.3540 
 15 C       -6.1060    -4.7710    -0.2390 C.3   1 <1>   0.2540 
 16 C       -2.8620    -7.0260    -0.1630 C.3   1 <1>  -0.2400 
 17 N       -7.1460    -3.7220    -0.4340 N.3   1 <1>  -0.8100 
 18 C       -8.4220    -4.3090    -0.9140 C.3   1 <1>   0.1100 
 19 C       -7.3910    -2.9550     0.8160 C.3   1 <1>   0.1100 
 20 C       -9.4890    -3.2300    -1.1750 C.3   1 <1>   0.1400 
 21 C       -8.4150    -1.8280     0.6020 C.3   1 <1>   0.1400 
 22 N       -9.6750    -2.3720     0.0300 N.am  1 <1>  -0.6600 
 23 C      -10.8960    -2.1100     0.5920 C.2   1 <1>   0.7800 
 24 O      -11.0210    -1.4330     1.5950 O.2   1 <1>  -0.5700 
 25 O      -11.9750    -2.6290     0.0050 O.3   1 <1>  -0.4300 
 26 C      -13.2640    -2.3950     0.5260 C.3   1 <1>   0.1200 
 27 C      -14.2710    -3.1210    -0.3600 C.3   1 <1>  -0.2400 
 28 H        1.5250    -1.9760    -0.7940 H     1 <1>   0.0800 
 29 H        1.4880    -3.4660     0.1100 H     1 <1>   0.0800 
 30 H        1.2150    -1.9400     0.9280 H     1 <1>   0.0800 
 31 H       -2.4530     0.0920    -2.3980 H     1 <1>   0.0800 
 32 H       -3.6010     0.1620    -1.0810 H     1 <1>   0.0800 
 33 H       -3.9020    -0.8720    -2.4690 H     1 <1>   0.0800 
 34 H       -5.1920    -2.4240    -1.2230 H     1 <1>   0.4500 
 35 H       -4.2430    -6.3520     1.3310 H     1 <1>   0.0800 
 36 H       -2.5900    -5.9000     1.6450 H     1 <1>   0.0800 
 37 H       -6.2720    -5.2850     0.6910 H     1 <1>   0.0800 
 38 H       -6.1720    -5.4900    -1.0370 H     1 <1>   0.0800 
 39 H       -3.5940    -7.1500    -0.9400 H     1 <1>   0.0800 
 40 H       -2.7100    -7.9780     0.3140 H     1 <1>   0.0800 
 41 H       -1.9260    -6.7190    -0.5950 H     1 <1>   0.0800 
 42 H       -8.8060    -5.0050    -0.1870 H     1 <1>   0.0800 
 43 H       -8.2520    -4.8450    -1.8320 H     1 <1>   0.0800 
 44 H       -6.4740    -2.5180     1.1690 H     1 <1>   0.0800 
 45 H       -7.7640    -3.6110     1.5860 H     1 <1>   0.0800 
 46 H      -10.4120    -3.7090    -1.4500 H     1 <1>   0.0800 
 47 H       -9.1800    -2.6130    -2.0000 H     1 <1>   0.0800 
 48 H       -8.0110    -1.0940    -0.0730 H     1 <1>   0.0800 
 49 H       -8.6070    -1.3410     1.5430 H     1 <1>   0.0800 
 50 H      -13.4430    -1.3330     0.5260 H     1 <1>   0.0800 
 51 H      -13.2970    -2.7680     1.5360 H     1 <1>   0.0800 
 52 H      -14.2180    -2.7440    -1.3660 H     1 <1>   0.0800 
 53 H      -15.2650    -2.9590     0.0150 H     1 <1>   0.0800 
 54 H      -14.0720    -4.1770    -0.3590 H     1 <1>   0.0800 
@<TRIPOS>BOND
  1   1   2  2   
  2   2   3  am  
  3   2   4  am  
  4   3   5  am  
  5   3   6  1   
  6   4   7  1   
  7   4   8  1   
  8   5   9  2   
  9   5  10  1   
 10   6  28  1   
 11   6  29  1   
 12   6  30  1   
 13   7  10  2   
 14   7  11  1   
 15   8  31  1   
 16   8  32  1   
 17   8  33  1   
 18  10  12  1   
 19  11  13  ar  
 20  11  34  1   
 21  12  13  ar  
 22  12  14  1   
 23  13  15  1   
 24  14  16  1   
 25  14  35  1   
 26  14  36  1   
 27  15  17  1   
 28  15  37  1   
 29  15  38  1   
 30  16  39  1   
 31  16  40  1   
 32  16  41  1   
 33  17  18  1   
 34  17  19  1   
 35  18  20  1   
 36  18  42  1   
 37  18  43  1   
 38  19  21  1   
 39  19  44  1   
 40  19  45  1   
 41  20  22  1   
 42  20  46  1   
 43  20  47  1   
 44  21  22  1   
 45  21  48  1   
 46  21  49  1   
 47  22  23  am  
 48  23  24  2   
 49  23  25  1   
 50  25  26  1   
 51  26  27  1   
 52  26  50  1   
 53  26  51  1   
 54  27  52  1   
 55  27  53  1   
 56  27  54  1   
@<TRIPOS>SUBSTRUCTURE
  1 ****  11 GROUP 4 **** **** 0

# MOE 2024.06 (io_trps.svl 2023.06)
