@<TRIPOS>MOLECULE
NONAME
46 47 1 0 0 
SMALL
USER_CHARGES


@<TRIPOS>ATOM
  1 CL      -0.6490    -0.1270     2.0030 Cl    1 <1>  -0.1770 
  2 C       -0.8540    -1.6050     1.1020 C.ar  1 <1>   0.1770 
  3 C        0.0130    -2.6570     1.3300 C.ar  1 <1>  -0.1500 
  4 C       -1.8730    -1.7000     0.1740 C.ar  1 <1>  -0.1500 
  5 C       -0.1340    -3.8350     0.6090 C.ar  1 <1>  -0.1440 
  6 C       -2.0260    -2.8770    -0.5390 C.ar  1 <1>  -0.1500 
  7 C       -1.1620    -3.9380    -0.3210 C.ar  1 <1>  -0.1500 
  8 C        0.8190    -4.9940     0.8360 C.3   1 <1>   0.4870 
  9 N        1.7850    -5.0410    -0.2940 N.4   1 <1>  -0.9590 
 10 C        2.5980    -6.3120    -0.2460 C.3   1 <1>   0.3430 
 11 C        2.6680    -3.8140    -0.3080 C.3   1 <1>   0.3430 
 12 C        3.6750    -6.3550    -1.3490 C.3   1 <1>   0.1400 
 13 C        3.7460    -3.8740    -1.4110 C.3   1 <1>   0.1400 
 14 N        4.5260    -5.1330    -1.2820 N.am  1 <1>  -0.6600 
 15 C        5.5460    -5.1300    -0.3800 C.2   1 <1>   0.6900 
 16 O        5.4150    -5.7180     0.6760 O.2   1 <1>  -0.5700 
 17 N        6.6560    -4.4190    -0.6680 N.am  1 <1>  -0.7300 
 18 C        7.8550    -4.3360     0.1910 C.3   1 <1>   0.1400 
 19 C        8.3970    -2.9080     0.1530 C.3   1 <1>  -0.1600 
 20 C        9.6430    -2.7660     1.0370 C.3   1 <1>  -0.1600 
 21 C       10.1860    -1.3340     0.9980 C.3   1 <1>  -0.2400 
 22 H        0.7850    -2.5350     2.0700 H     1 <1>   0.1500 
 23 H       -2.5350    -0.8660     0.0170 H     1 <1>   0.1500 
 24 H       -2.8230    -2.9630    -1.2600 H     1 <1>   0.1500 
 25 H       -1.3110    -4.8450    -0.8840 H     1 <1>   0.1500 
 26 H        0.2550    -5.9110     0.8820 H     1 <1>   0.0800 
 27 H        1.3430    -4.8680     1.7700 H     1 <1>   0.0800 
 28 H        1.2360    -5.0320    -1.1610 H     1 <1>   0.4500 
 29 H        1.9530    -7.1690    -0.3490 H     1 <1>   0.0800 
 30 H        3.0980    -6.3860     0.7070 H     1 <1>   0.0800 
 31 H        3.1700    -3.7230     0.6420 H     1 <1>   0.0800 
 32 H        2.0680    -2.9310    -0.4510 H     1 <1>   0.0800 
 33 H        3.2180    -6.4280    -2.3200 H     1 <1>   0.0800 
 34 H        4.2920    -7.2280    -1.2080 H     1 <1>   0.0800 
 35 H        4.4020    -3.0260    -1.3120 H     1 <1>   0.0800 
 36 H        3.2890    -3.8270    -2.3840 H     1 <1>   0.0800 
 37 H        6.7850    -4.1350    -1.6380 H     1 <1>   0.3700 
 38 H        8.5990    -5.0260    -0.1690 H     1 <1>   0.0800 
 39 H        7.6020    -4.6060     1.2040 H     1 <1>   0.0800 
 40 H        7.6370    -2.2320     0.5040 H     1 <1>   0.0800 
 41 H        8.6510    -2.6480    -0.8600 H     1 <1>   0.0800 
 42 H       10.4090    -3.4430     0.6970 H     1 <1>   0.0800 
 43 H        9.3980    -3.0230     2.0540 H     1 <1>   0.0800 
 44 H       10.4620    -1.0620    -0.0050 H     1 <1>   0.0800 
 45 H       11.0570    -1.2550     1.6250 H     1 <1>   0.0800 
 46 H        9.4450    -0.6410     1.3550 H     1 <1>   0.0800 
@<TRIPOS>BOND
  1   1   2  1   
  2   2   3  ar  
  3   2   4  ar  
  4   3   5  ar  
  5   3  22  1   
  6   4   6  ar  
  7   4  23  1   
  8   5   7  ar  
  9   5   8  1   
 10   6   7  ar  
 11   6  24  1   
 12   7  25  1   
 13   8   9  1   
 14   8  26  1   
 15   8  27  1   
 16   9  10  1   
 17   9  11  1   
 18   9  28  1   
 19  10  12  1   
 20  10  29  1   
 21  10  30  1   
 22  11  13  1   
 23  11  31  1   
 24  11  32  1   
 25  12  14  1   
 26  12  33  1   
 27  12  34  1   
 28  13  14  1   
 29  13  35  1   
 30  13  36  1   
 31  14  15  am  
 32  15  16  2   
 33  15  17  am  
 34  17  18  1   
 35  17  37  1   
 36  18  19  1   
 37  18  38  1   
 38  18  39  1   
 39  19  20  1   
 40  19  40  1   
 41  19  41  1   
 42  20  21  1   
 43  20  42  1   
 44  20  43  1   
 45  21  44  1   
 46  21  45  1   
 47  21  46  1   
@<TRIPOS>SUBSTRUCTURE
  1 ****  11 GROUP 4 **** **** 0

# MOE 2024.06 (io_trps.svl 2023.06)
