@<TRIPOS>MOLECULE
NONAME
32 34 1 0 0 
SMALL
USER_CHARGES


@<TRIPOS>ATOM
  1 S        0.2870     0.2540    -0.0040 S.3   1 <1>  -0.3320 
  2 C        1.8110    -0.6850    -0.0040 C.ar  1 <1>   0.7220 
  3 C       -1.0630    -1.0110    -0.0030 C.3   1 <1>  -0.0100 
  4 N        1.6770    -2.0340    -0.0030 N.ar  1 <1>  -0.3100 
  5 N        2.9140     0.0190    -0.0050 N.ar  1 <1>  -0.5670 
  6 N        2.7380    -2.7880    -0.0020 N.ar  1 <1>  -0.2560 
  7 C        3.9940    -0.7680    -0.0050 C.ar  1 <1>   0.1050 
  8 C        3.9120    -2.1460    -0.0030 C.ar  1 <1>   0.2560 
  9 N        5.3110    -0.3770    -0.0050 N.pl3 1 <1>   0.0480 
 10 C        5.2400    -2.6400    -0.0030 C.ar  1 <1>   0.0000 
 11 C        6.0950    -1.5360    -0.0040 C.ar  1 <1>  -0.1520 
 12 C        5.6400     1.0790    -0.0060 C.3   1 <1>   0.0960 
 13 C        5.7430    -3.9410    -0.0020 C.ar  1 <1>  -0.1500 
 14 C        7.4780    -1.7560    -0.0050 C.ar  1 <1>  -0.1500 
 15 C        7.1310     1.4380    -0.0090 C.3   1 <1>  -0.1600 
 16 C        7.1050    -4.1380    -0.0020 C.ar  1 <1>  -0.1500 
 17 C        7.9690    -3.0440    -0.0040 C.ar  1 <1>  -0.1500 
 18 C        7.3290     2.9570    -0.0110 C.3   1 <1>  -0.2400 
 19 H       -2.0030    -0.4880    -0.0030 H     1 <1>   0.0800 
 20 H       -0.9560    -1.6090     0.8850 H     1 <1>   0.0800 
 21 H       -0.9560    -1.6110    -0.8880 H     1 <1>   0.0800 
 22 H        5.1780     1.5150     0.8610 H     1 <1>   0.0800 
 23 H        5.1750     1.5150    -0.8730 H     1 <1>   0.0800 
 24 H        5.0580    -4.7710    -0.0010 H     1 <1>   0.1500 
 25 H        8.1770    -0.9450    -0.0060 H     1 <1>   0.1500 
 26 H        7.5960     1.0310    -0.8900 H     1 <1>   0.0800 
 27 H        7.5990     1.0330     0.8720 H     1 <1>   0.0800 
 28 H        7.5100    -5.1350    -0.0020 H     1 <1>   0.1500 
 29 H        9.0320    -3.2170    -0.0040 H     1 <1>   0.1500 
 30 H        6.8820     3.3970    -0.8860 H     1 <1>   0.0800 
 31 H        8.3800     3.1910    -0.0130 H     1 <1>   0.0800 
 32 H        6.8850     3.3990     0.8640 H     1 <1>   0.0800 
@<TRIPOS>BOND
  1   1   2  1   
  2   1   3  1   
  3   2   4  ar  
  4   2   5  ar  
  5   3  19  1   
  6   3  20  1   
  7   3  21  1   
  8   4   6  ar  
  9   5   7  ar  
 10   6   8  ar  
 11   7   8  ar  
 12   7   9  1   
 13   8  10  1   
 14   9  11  1   
 15   9  12  1   
 16  10  11  ar  
 17  10  13  ar  
 18  11  14  ar  
 19  12  15  1   
 20  12  22  1   
 21  12  23  1   
 22  13  16  ar  
 23  13  24  1   
 24  14  17  ar  
 25  14  25  1   
 26  15  18  1   
 27  15  26  1   
 28  15  27  1   
 29  16  17  ar  
 30  16  28  1   
 31  17  29  1   
 32  18  30  1   
 33  18  31  1   
 34  18  32  1   
@<TRIPOS>SUBSTRUCTURE
  1 ****   7 GROUP 4 **** **** 0

# MOE 2024.06 (io_trps.svl 2023.06)
