@<TRIPOS>MOLECULE
NONAME
61 65 1 0 0 
SMALL
USER_CHARGES


@<TRIPOS>ATOM
  1 O       -0.7990    -2.2610    -2.0730 O.2   1 <1>  -0.5700 
  2 C       -0.4330    -1.8630    -0.9790 C.2   1 <1>   0.4690 
  3 C        0.8590    -2.2000    -0.4390 C.ar  1 <1>   0.0860 
  4 C       -1.2860    -1.0620    -0.1570 C.2   1 <1>  -0.1240 
  5 C        1.1880    -1.7610     0.8490 C.ar  1 <1>   0.0830 
  6 C        1.8080    -2.9540    -1.1350 C.ar  1 <1>  -0.1500 
  7 C       -0.8780    -0.6820     1.0740 C.2   1 <1>  -0.0730 
  8 C       -2.6450    -0.6430    -0.7000 C.3   1 <1>   0.2480 
  9 O        0.3130    -1.0250     1.5680 O.3   1 <1>  -0.1590 
 10 C        2.4170    -2.0700     1.4130 C.ar  1 <1>  -0.1500 
 11 C        3.0340    -3.2630    -0.5760 C.ar  1 <1>  -0.1440 
 12 N       -3.7350    -1.5220    -0.1990 N.3   1 <1>  -0.8100 
 13 C        3.3350    -2.8180     0.7040 C.ar  1 <1>  -0.1500 
 14 C        4.0560    -4.0830    -1.3420 C.3   1 <1>  -0.0970 
 15 C       -5.1100    -1.0650    -0.5930 C.3   1 <1>   0.1900 
 16 C       -3.4910    -2.9190    -0.6560 C.3   1 <1>   0.1100 
 17 C       -5.4130     0.3880    -0.1240 C.3   1 <1>  -0.0800 
 18 C       -6.2040    -2.0410    -0.0430 C.3   1 <1>   0.4230 
 19 C       -4.6370    -3.9080    -0.3640 C.3   1 <1>   0.3430 
 20 C       -5.2060     0.5970     1.3930 C.3   1 <1>  -0.1600 
 21 C       -6.8240     0.8690    -0.5310 C.3   1 <1>  -0.1600 
 22 N       -5.6830    -3.3160     0.5260 N.4   1 <1>  -0.9590 
 23 C       -7.2480    -2.5130    -1.0530 C.3   1 <1>  -0.1600 
 24 C       -5.4340     2.0610     1.7920 C.3   1 <1>  -0.1600 
 25 C       -7.0400     2.3380    -0.1450 C.3   1 <1>  -0.1600 
 26 C       -6.8580    -4.2040     0.6820 C.3   1 <1>   0.3430 
 27 C       -7.7970    -3.8190    -0.4630 C.3   1 <1>  -0.1600 
 28 C       -6.8220     2.5500     1.3580 C.3   1 <1>  -0.1600 
 29 H        1.5660    -3.2940    -2.1270 H     1 <1>   0.1500 
 30 H       -1.4680    -0.0830     1.7460 H     1 <1>   0.1500 
 31 H       -2.6380    -0.6270    -1.7770 H     1 <1>   0.0800 
 32 H       -2.8030     0.3650    -0.3640 H     1 <1>   0.0800 
 33 H        2.6470    -1.7230     2.4050 H     1 <1>   0.1500 
 34 H        4.2880    -3.0560     1.1460 H     1 <1>   0.1500 
 35 H        3.6960    -4.3260    -2.3260 H     1 <1>   0.0800 
 36 H        4.2600    -4.9990    -0.8170 H     1 <1>   0.0800 
 37 H        4.9720    -3.5280    -1.4410 H     1 <1>   0.0800 
 38 H       -5.1650    -1.0710    -1.6690 H     1 <1>   0.0800 
 39 H       -2.6090    -3.3000    -0.1720 H     1 <1>   0.0800 
 40 H       -3.2980    -2.9300    -1.7160 H     1 <1>   0.0800 
 41 H       -4.7400     1.0460    -0.6440 H     1 <1>   0.0800 
 42 H       -6.7320    -1.5290     0.7440 H     1 <1>   0.0800 
 43 H       -4.2260    -4.7970     0.0860 H     1 <1>   0.0800 
 44 H       -5.0820    -4.1970    -1.3010 H     1 <1>   0.0800 
 45 H       -4.2050     0.3190     1.6740 H     1 <1>   0.0800 
 46 H       -5.8840    -0.0210     1.9540 H     1 <1>   0.0800 
 47 H       -7.5850     0.2890    -0.0420 H     1 <1>   0.0800 
 48 H       -6.9530     0.7680    -1.5960 H     1 <1>   0.0800 
 49 H       -5.2200    -3.0790     1.4140 H     1 <1>   0.4500 
 50 H       -6.7860    -2.7030    -2.0060 H     1 <1>   0.0800 
 51 H       -8.0240    -1.7810    -1.1890 H     1 <1>   0.0800 
 52 H       -4.6810     2.6780     1.3310 H     1 <1>   0.0800 
 53 H       -5.3350     2.1660     2.8580 H     1 <1>   0.0800 
 54 H       -8.0400     2.6390    -0.4080 H     1 <1>   0.0800 
 55 H       -6.3560     2.9610    -0.6960 H     1 <1>   0.0800 
 56 H       -7.3420    -4.0030     1.6250 H     1 <1>   0.0800 
 57 H       -6.5800    -5.2450     0.6400 H     1 <1>   0.0800 
 58 H       -7.8230    -4.5960    -1.2080 H     1 <1>   0.0800 
 59 H       -8.7940    -3.6850    -0.0800 H     1 <1>   0.0800 
 60 H       -6.9230     3.5960     1.5910 H     1 <1>   0.0800 
 61 H       -7.5780     2.0180     1.9090 H     1 <1>   0.0800 
@<TRIPOS>BOND
  1   1   2  2   
  2   2   3  1   
  3   2   4  1   
  4   3   5  ar  
  5   3   6  ar  
  6   4   7  2   
  7   4   8  1   
  8   5   9  1   
  9   5  10  ar  
 10   6  11  ar  
 11   6  29  1   
 12   7   9  1   
 13   7  30  1   
 14   8  12  1   
 15   8  31  1   
 16   8  32  1   
 17  10  13  ar  
 18  10  33  1   
 19  11  13  ar  
 20  11  14  1   
 21  12  15  1   
 22  12  16  1   
 23  13  34  1   
 24  14  35  1   
 25  14  36  1   
 26  14  37  1   
 27  15  17  1   
 28  15  18  1   
 29  15  38  1   
 30  16  19  1   
 31  16  39  1   
 32  16  40  1   
 33  17  20  1   
 34  17  21  1   
 35  17  41  1   
 36  18  22  1   
 37  18  23  1   
 38  18  42  1   
 39  19  22  1   
 40  19  43  1   
 41  19  44  1   
 42  20  24  1   
 43  20  45  1   
 44  20  46  1   
 45  21  25  1   
 46  21  47  1   
 47  21  48  1   
 48  22  26  1   
 49  22  49  1   
 50  23  27  1   
 51  23  50  1   
 52  23  51  1   
 53  24  28  1   
 54  24  52  1   
 55  24  53  1   
 56  25  28  1   
 57  25  54  1   
 58  25  55  1   
 59  26  27  1   
 60  26  56  1   
 61  26  57  1   
 62  27  58  1   
 63  27  59  1   
 64  28  60  1   
 65  28  61  1   
@<TRIPOS>SUBSTRUCTURE
  1 ****  12 GROUP 4 **** **** 0

# MOE 2024.06 (io_trps.svl 2023.06)
