@<TRIPOS>MOLECULE
NONAME
24 25 1 0 0 
SMALL
USER_CHARGES


@<TRIPOS>ATOM
  1 O        1.4550    -3.7140     0.6880 O.3   1 <1>  -0.6800 
  2 C        1.0240    -2.3930     0.6670 C.3   1 <1>   0.1200 
  3 C       -0.5040    -2.3390     0.8680 C.3   1 <1>  -0.0800 
  4 C       -1.4110    -3.2530    -0.0210 C.3   1 <1>   0.4230 
  5 C       -1.0600    -0.9280     0.5730 C.3   1 <1>   0.0580 
  6 N       -0.6460    -4.0450    -1.0080 N.4   1 <1>  -0.8530 
  7 C       -2.3550    -2.2480    -0.7200 C.3   1 <1>   0.0580 
  8 C       -2.4640    -0.9110     1.1440 C.2   1 <1>  -0.2880 
  9 C       -1.4260    -1.0470    -0.9060 C.3   1 <1>  -0.1600 
 10 C       -3.2300    -1.6850     0.3810 C.2   1 <1>  -0.2880 
 11 H        2.3950    -3.7610     0.9810 H     1 <1>   0.4000 
 12 H        1.3230    -1.9560    -0.2720 H     1 <1>   0.0800 
 13 H        1.5180    -1.8640     1.4670 H     1 <1>   0.0800 
 14 H       -0.7000    -2.5610     1.9040 H     1 <1>   0.0800 
 15 H       -1.9850    -3.9120     0.6110 H     1 <1>   0.0800 
 16 H       -0.4490    -0.0800     0.8370 H     1 <1>   0.0800 
 17 H       -0.3690    -3.4800    -1.8120 H     1 <1>   0.4500 
 18 H       -1.1540    -4.8780    -1.3150 H     1 <1>   0.4500 
 19 H        0.2230    -4.3380    -0.5220 H     1 <1>   0.4500 
 20 H       -2.8880    -2.5800    -1.5940 H     1 <1>   0.0800 
 21 H       -2.6950    -0.3420     2.0320 H     1 <1>   0.1500 
 22 H       -0.5820    -1.2350    -1.5450 H     1 <1>   0.0800 
 23 H       -1.9590    -0.1770    -1.2560 H     1 <1>   0.0800 
 24 H       -4.2760    -1.9380     0.4560 H     1 <1>   0.1500 
@<TRIPOS>BOND
  1   1   2  1   
  2   1  11  1   
  3   2   3  1   
  4   2  12  1   
  5   2  13  1   
  6   3   4  1   
  7   3   5  1   
  8   3  14  1   
  9   4   6  1   
 10   4   7  1   
 11   4  15  1   
 12   5   8  1   
 13   5   9  1   
 14   5  16  1   
 15   6  17  1   
 16   6  18  1   
 17   6  19  1   
 18   7   9  1   
 19   7  10  1   
 20   7  20  1   
 21   8  10  2   
 22   8  21  1   
 23   9  22  1   
 24   9  23  1   
 25  10  24  1   
@<TRIPOS>SUBSTRUCTURE
  1 ****   3 GROUP 4 **** **** 0

# MOE 2024.06 (io_trps.svl 2023.06)
