@<TRIPOS>MOLECULE
NONAME
44 45 1 0 0 
SMALL
USER_CHARGES


@<TRIPOS>ATOM
  1 O        0.4120    -0.2130    -0.2230 O.2   1 <1>  -0.5200 
  2 N        0.7040    -1.3420    -0.6670 N.pl3 1 <1>   0.8360 
  3 O        1.4610    -1.4430    -1.6520 O.2   1 <1>  -0.5200 
  4 C        0.1950    -2.4960    -0.0500 C.2   1 <1>   0.2190 
  5 C        0.9500    -3.3230     0.7540 C.2   1 <1>  -0.0380 
  6 C       -1.1690    -2.7540    -0.3660 C.2   1 <1>   0.4950 
  7 N        2.2600    -3.1790     1.1560 N.pl3 1 <1>  -0.6000 
  8 C        0.3370    -4.6120     1.3030 C.3   1 <1>  -0.0220 
  9 O       -1.8530    -2.0860    -1.1040 O.2   1 <1>  -0.5700 
 10 C       -1.8470    -3.9630     0.2550 C.3   1 <1>  -0.0990 
 11 C        3.1710    -2.1200     1.0650 C.ar  1 <1>   0.1000 
 12 C       -0.8640    -5.1230     0.4840 C.3   1 <1>   0.0000 
 13 C        4.4590    -2.3230     0.5330 C.ar  1 <1>   0.0860 
 14 C        2.8080    -0.8610     1.5310 C.ar  1 <1>  -0.1500 
 15 C       -0.3840    -5.6930    -0.8650 C.3   1 <1>  -0.2400 
 16 C       -1.5730    -6.2480     1.2550 C.3   1 <1>  -0.2400 
 17 C        4.9170    -3.6330     0.1170 C.2   1 <1>   0.6340 
 18 C        5.3030    -1.2120     0.4300 C.ar  1 <1>  -0.1500 
 19 C        3.6650     0.2150     1.4270 C.ar  1 <1>  -0.1500 
 20 O        4.4860    -4.6790     0.5710 O.2   1 <1>  -0.5700 
 21 O        5.8840    -3.6900    -0.8040 O.3   1 <1>  -0.4300 
 22 C        4.9170     0.0390     0.8660 C.ar  1 <1>  -0.1500 
 23 C        6.3930    -4.9190    -1.2720 C.3   1 <1>   0.1200 
 24 C        7.4780    -4.6190    -2.3010 C.3   1 <1>  -0.2400 
 25 H        2.7500    -4.0590     1.4060 H     1 <1>   0.4000 
 26 H        0.0330    -4.4260     2.3190 H     1 <1>   0.0800 
 27 H        1.0850    -5.3870     1.3330 H     1 <1>   0.0800 
 28 H       -2.6480    -4.2850    -0.3880 H     1 <1>   0.0800 
 29 H       -2.2830    -3.6550     1.1880 H     1 <1>   0.0800 
 30 H        1.8390    -0.7190     1.9750 H     1 <1>   0.1500 
 31 H        0.1480    -4.9610    -1.4460 H     1 <1>   0.0800 
 32 H       -1.2200    -6.0370    -1.4490 H     1 <1>   0.0800 
 33 H        0.2760    -6.5280    -0.7070 H     1 <1>   0.0800 
 34 H       -1.9330    -5.8960     2.2060 H     1 <1>   0.0800 
 35 H       -0.9000    -7.0690     1.4330 H     1 <1>   0.0800 
 36 H       -2.4140    -6.6200     0.6950 H     1 <1>   0.0800 
 37 H        6.2840    -1.3330     0.0040 H     1 <1>   0.1500 
 38 H        3.3590     1.1860     1.7750 H     1 <1>   0.1500 
 39 H        5.5850     0.8790     0.7730 H     1 <1>   0.1500 
 40 H        5.5840    -5.4750    -1.7140 H     1 <1>   0.0800 
 41 H        6.7940    -5.4650    -0.4350 H     1 <1>   0.0800 
 42 H        7.0650    -4.0640    -3.1240 H     1 <1>   0.0800 
 43 H        7.8840    -5.5400    -2.6790 H     1 <1>   0.0800 
 44 H        8.2730    -4.0540    -1.8480 H     1 <1>   0.0800 
@<TRIPOS>BOND
  1   1   2  2   
  2   2   3  2   
  3   2   4  1   
  4   4   5  2   
  5   4   6  1   
  6   5   7  1   
  7   5   8  1   
  8   6   9  2   
  9   6  10  1   
 10   7  11  1   
 11   7  25  1   
 12   8  12  1   
 13   8  26  1   
 14   8  27  1   
 15  10  12  1   
 16  10  28  1   
 17  10  29  1   
 18  11  13  ar  
 19  11  14  ar  
 20  12  15  1   
 21  12  16  1   
 22  13  17  1   
 23  13  18  ar  
 24  14  19  ar  
 25  14  30  1   
 26  15  31  1   
 27  15  32  1   
 28  15  33  1   
 29  16  34  1   
 30  16  35  1   
 31  16  36  1   
 32  17  20  2   
 33  17  21  1   
 34  18  22  ar  
 35  18  37  1   
 36  19  22  ar  
 37  19  38  1   
 38  21  23  1   
 39  22  39  1   
 40  23  24  1   
 41  23  40  1   
 42  23  41  1   
 43  24  42  1   
 44  24  43  1   
 45  24  44  1   
@<TRIPOS>SUBSTRUCTURE
  1 ****   7 GROUP 4 **** **** 0

# MOE 2024.06 (io_trps.svl 2023.06)
