@<TRIPOS>MOLECULE
NONAME
39 40 1 0 0 
SMALL
USER_CHARGES


@<TRIPOS>ATOM
  1 O        0.5570     4.1920     0.8990 O.2   1 <1>  -0.5700 
  2 C        0.3290     3.3370     0.0790 C.2   1 <1>   0.5690 
  3 N        1.2060     2.3510    -0.2680 N.am  1 <1>  -0.5470 
  4 C       -1.0170     3.3530    -0.6220 C.3   1 <1>  -0.0990 
  5 C        2.4980     2.0070     0.1710 C.ar  1 <1>   0.1170 
  6 C       -2.1200     2.6110     0.1580 C.3   1 <1>  -0.0800 
  7 C        3.0360     0.7910    -0.2650 C.ar  1 <1>   0.0830 
  8 C        3.2600     2.8160     1.0060 C.ar  1 <1>  -0.1500 
  9 C       -1.8060     1.1110     0.3240 C.3   1 <1>  -0.1600 
 10 C       -3.4760     2.8020    -0.5450 C.3   1 <1>  -0.1600 
 11 O        2.2570     0.0240    -1.0890 O.3   1 <1>  -0.3630 
 12 C        4.3110     0.4070     0.1400 C.ar  1 <1>  -0.1500 
 13 C        4.5270     2.4300     1.4060 C.ar  1 <1>  -0.1500 
 14 C       -2.9380     0.3730     1.0510 C.3   1 <1>  -0.1600 
 15 C       -4.6040     2.0650     0.1890 C.3   1 <1>  -0.1600 
 16 C        2.6940    -1.2400    -1.5390 C.3   1 <1>   0.0400 
 17 C        5.0530     1.2260     0.9740 C.ar  1 <1>  -0.1500 
 18 C       -4.2820     0.5740     0.3410 C.3   1 <1>  -0.1600 
 19 H        0.8480     1.6610    -0.9280 H     1 <1>   0.3700 
 20 H       -0.9130     2.9320    -1.6050 H     1 <1>   0.0800 
 21 H       -1.3040     4.3830    -0.7420 H     1 <1>   0.0800 
 22 H       -2.1850     3.0520     1.1400 H     1 <1>   0.0800 
 23 H        2.8720     3.7560     1.3510 H     1 <1>   0.1500 
 24 H       -0.9010     0.9820     0.8920 H     1 <1>   0.0800 
 25 H       -1.6600     0.6620    -0.6440 H     1 <1>   0.0800 
 26 H       -3.4150     2.4320    -1.5540 H     1 <1>   0.0800 
 27 H       -3.7160     3.8500    -0.5920 H     1 <1>   0.0800 
 28 H        4.7480    -0.5190    -0.1790 H     1 <1>   0.1500 
 29 H        5.1010     3.0690     2.0540 H     1 <1>   0.1500 
 30 H       -3.0110     0.7420     2.0600 H     1 <1>   0.0800 
 31 H       -2.7110    -0.6780     1.1010 H     1 <1>   0.0800 
 32 H       -5.5250     2.1820    -0.3560 H     1 <1>   0.0800 
 33 H       -4.7390     2.5020     1.1640 H     1 <1>   0.0800 
 34 H        1.9180    -1.6650    -2.1500 H     1 <1>   0.0800 
 35 H        2.8740    -1.8720    -0.6870 H     1 <1>   0.0800 
 36 H        3.5890    -1.1140    -2.1230 H     1 <1>   0.0800 
 37 H        6.0390     0.9280     1.2870 H     1 <1>   0.1500 
 38 H       -5.0630     0.0930     0.9040 H     1 <1>   0.0800 
 39 H       -4.2450     0.1150    -0.6320 H     1 <1>   0.0800 
@<TRIPOS>BOND
  1   1   2  2   
  2   2   3  am  
  3   2   4  1   
  4   3   5  1   
  5   3  19  1   
  6   4   6  1   
  7   4  20  1   
  8   4  21  1   
  9   5   7  ar  
 10   5   8  ar  
 11   6   9  1   
 12   6  10  1   
 13   6  22  1   
 14   7  11  1   
 15   7  12  ar  
 16   8  13  ar  
 17   8  23  1   
 18   9  14  1   
 19   9  24  1   
 20   9  25  1   
 21  10  15  1   
 22  10  26  1   
 23  10  27  1   
 24  11  16  1   
 25  12  17  ar  
 26  12  28  1   
 27  13  17  ar  
 28  13  29  1   
 29  14  18  1   
 30  14  30  1   
 31  14  31  1   
 32  15  18  1   
 33  15  32  1   
 34  15  33  1   
 35  16  34  1   
 36  16  35  1   
 37  16  36  1   
 38  17  37  1   
 39  18  38  1   
 40  18  39  1   
@<TRIPOS>SUBSTRUCTURE
  1 ****   3 GROUP 4 **** **** 0

# MOE 2024.06 (io_trps.svl 2023.06)
