@<TRIPOS>MOLECULE
NONAME
47 48 1 0 0 
SMALL
USER_CHARGES


@<TRIPOS>ATOM
  1 O       -0.1030    -0.2680    -0.5950 O.2   1 <1>  -0.5700 
  2 C        0.0560    -1.4430    -0.3300 C.2   1 <1>   0.6340 
  3 O       -1.0230    -2.2080    -0.1380 O.3   1 <1>  -0.4300 
  4 C        1.3610    -2.0620    -0.2080 C.ar  1 <1>   0.0860 
  5 C       -2.3280    -1.6840    -0.2380 C.3   1 <1>   0.1200 
  6 C        2.5320    -1.3270    -0.4040 C.ar  1 <1>  -0.1500 
  7 C        1.5200    -3.4140     0.1110 C.ar  1 <1>  -0.1500 
  8 C       -3.3150    -2.8140     0.0360 C.3   1 <1>  -0.2400 
  9 C        3.7830    -1.9010    -0.2910 C.ar  1 <1>  -0.1500 
 10 C        2.7690    -3.9920     0.2250 C.ar  1 <1>  -0.1500 
 11 C        3.9280    -3.2500     0.0240 C.ar  1 <1>   0.1170 
 12 N        5.1660    -3.8900     0.1640 N.am  1 <1>  -0.5470 
 13 C        6.4110    -3.5330    -0.2950 C.2   1 <1>   0.5690 
 14 O        6.6220    -2.5510    -0.9670 O.2   1 <1>  -0.5700 
 15 C        7.6300    -4.4100     0.0460 C.3   1 <1>   0.4040 
 16 N        8.9510    -3.6890    -0.1080 N.4   1 <1>  -0.9590 
 17 C       10.1240    -4.6160    -0.1950 C.3   1 <1>   0.3430 
 18 C        9.1420    -2.6140     0.9050 C.3   1 <1>   0.3430 
 19 C       11.4700    -3.8740    -0.0570 C.3   1 <1>  -0.0800 
 20 C       10.2810    -1.6910     0.4550 C.3   1 <1>  -0.1600 
 21 C       11.3500    -2.3830    -0.4120 C.3   1 <1>  -0.1600 
 22 C       12.5450    -4.5440    -0.9220 C.3   1 <1>  -0.2400 
 23 H       -2.4610    -1.2860    -1.2300 H     1 <1>   0.0800 
 24 H       -2.4340    -0.8920     0.4860 H     1 <1>   0.0800 
 25 H        2.4520    -0.2810    -0.6510 H     1 <1>   0.1500 
 26 H        0.6450    -4.0210     0.2720 H     1 <1>   0.1500 
 27 H       -3.1900    -3.5990    -0.6880 H     1 <1>   0.0800 
 28 H       -4.3210    -2.4410    -0.0340 H     1 <1>   0.0800 
 29 H       -3.1630    -3.2060     1.0260 H     1 <1>   0.0800 
 30 H        4.6460    -1.2810    -0.4490 H     1 <1>   0.1500 
 31 H        2.8360    -5.0360     0.4700 H     1 <1>   0.1500 
 32 H        5.0900    -4.7860     0.6460 H     1 <1>   0.3700 
 33 H        7.6130    -5.2580    -0.6170 H     1 <1>   0.0800 
 34 H        7.5320    -4.7710     1.0550 H     1 <1>   0.0800 
 35 H        8.8800    -3.1780    -1.0050 H     1 <1>   0.4500 
 36 H       10.0990    -5.1200    -1.1480 H     1 <1>   0.0800 
 37 H       10.0630    -5.3660     0.5770 H     1 <1>   0.0800 
 38 H        9.3900    -3.0570     1.8560 H     1 <1>   0.0800 
 39 H        8.2390    -2.0340     1.0200 H     1 <1>   0.0800 
 40 H       11.7860    -3.9510     0.9710 H     1 <1>   0.0800 
 41 H       10.7440    -1.2850     1.3380 H     1 <1>   0.0800 
 42 H        9.8690    -0.8590    -0.0890 H     1 <1>   0.0800 
 43 H       11.0820    -2.2860    -1.4520 H     1 <1>   0.0800 
 44 H       12.2980    -1.8870    -0.2790 H     1 <1>   0.0800 
 45 H       12.2890    -4.4910    -1.9670 H     1 <1>   0.0800 
 46 H       12.6640    -5.5780    -0.6490 H     1 <1>   0.0800 
 47 H       13.4940    -4.0540    -0.7830 H     1 <1>   0.0800 
@<TRIPOS>BOND
  1   1   2  2   
  2   2   3  1   
  3   2   4  1   
  4   3   5  1   
  5   4   6  ar  
  6   4   7  ar  
  7   5   8  1   
  8   5  23  1   
  9   5  24  1   
 10   6   9  ar  
 11   6  25  1   
 12   7  10  ar  
 13   7  26  1   
 14   8  27  1   
 15   8  28  1   
 16   8  29  1   
 17   9  11  ar  
 18   9  30  1   
 19  10  11  ar  
 20  10  31  1   
 21  11  12  1   
 22  12  13  am  
 23  12  32  1   
 24  13  14  2   
 25  13  15  1   
 26  15  16  1   
 27  15  33  1   
 28  15  34  1   
 29  16  17  1   
 30  16  18  1   
 31  16  35  1   
 32  17  19  1   
 33  17  36  1   
 34  17  37  1   
 35  18  20  1   
 36  18  38  1   
 37  18  39  1   
 38  19  21  1   
 39  19  22  1   
 40  19  40  1   
 41  20  21  1   
 42  20  41  1   
 43  20  42  1   
 44  21  43  1   
 45  21  44  1   
 46  22  45  1   
 47  22  46  1   
 48  22  47  1   
@<TRIPOS>SUBSTRUCTURE
  1 ****  11 GROUP 4 **** **** 0

# MOE 2024.06 (io_trps.svl 2023.06)
