@<TRIPOS>MOLECULE
NONAME
44 47 1 0 0 
SMALL
USER_CHARGES


@<TRIPOS>ATOM
  1 O       -0.7670    -0.7160     2.1610 O.2   1 <1>  -0.5700 
  2 C       -1.4400    -0.9450     1.1900 C.2   1 <1>   0.5690 
  3 N       -1.2590    -1.9210     0.2210 N.am  1 <1>  -0.2370 
  4 C       -2.6450    -0.1490     0.7900 C.3   1 <1>  -0.0190 
  5 C       -0.0930    -2.7040     0.0390 C.ar  1 <1>   0.1170 
  6 C       -2.4140    -1.9970    -0.5460 C.2   1 <1>   0.5690 
  7 C       -3.6940     0.8200     1.3550 C.3   1 <1>   0.1960 
  8 C       -3.4960    -1.2770     0.2030 C.3   1 <1>  -0.0190 
  9 C        1.1730    -2.1650     0.2500 C.ar  1 <1>  -0.1500 
 10 C       -0.1820    -4.0350    -0.3600 C.ar  1 <1>  -0.1500 
 11 O       -2.5770    -2.5550    -1.6000 O.2   1 <1>  -0.5700 
 12 C       -4.4560     0.9080     0.0360 C.2   1 <1>  -0.2760 
 13 C       -4.8060     0.1360     2.1390 C.2   1 <1>  -0.2880 
 14 C       -4.8390    -0.5610    -0.0680 C.3   1 <1>   0.1960 
 15 C        2.3140    -2.9260     0.0690 C.ar  1 <1>  -0.1500 
 16 C        0.9550    -4.8010    -0.5410 C.ar  1 <1>  -0.1500 
 17 C       -4.7050     1.9430    -0.7810 C.2   1 <1>  -0.2760 
 18 C       -5.5110    -0.6230     1.2960 C.2   1 <1>  -0.2880 
 19 C        2.2100    -4.2550    -0.3240 C.ar  1 <1>   0.0830 
 20 C       -5.4920     1.8340    -2.0800 C.3   1 <1>  -0.1020 
 21 C       -4.2400     3.3700    -0.5270 C.3   1 <1>  -0.1020 
 22 O        3.2840    -5.0630    -0.5320 O.3   1 <1>  -0.2330 
 23 C        4.4850    -5.0120     0.0390 C.2   1 <1>   0.6590 
 24 O        4.7910    -4.2410     0.9100 O.2   1 <1>  -0.5700 
 25 C        5.4820    -6.0180    -0.4810 C.3   1 <1>  -0.1790 
 26 H       -2.2170     0.4270    -0.0190 H     1 <1>   0.0800 
 27 H       -3.3330     1.7530     1.7480 H     1 <1>   0.0800 
 28 H       -3.7130    -2.0010     0.9740 H     1 <1>   0.0800 
 29 H        1.2750    -1.1400     0.5610 H     1 <1>   0.1500 
 30 H       -1.1460    -4.4800    -0.5350 H     1 <1>   0.1500 
 31 H       -4.9220     0.3230     3.1930 H     1 <1>   0.1500 
 32 H       -5.4300    -0.8930    -0.9030 H     1 <1>   0.0800 
 33 H        3.2750    -2.4730     0.2350 H     1 <1>   0.1500 
 34 H        0.8700    -5.8270    -0.8520 H     1 <1>   0.1500 
 35 H       -6.3790    -1.2400     1.4530 H     1 <1>   0.1500 
 36 H       -4.8810     2.1440    -2.9090 H     1 <1>   0.0800 
 37 H       -6.3600     2.4670    -2.0360 H     1 <1>   0.0800 
 38 H       -5.8220     0.8300    -2.2670 H     1 <1>   0.0800 
 39 H       -5.0900     4.0250    -0.4600 H     1 <1>   0.0800 
 40 H       -3.6130     3.7030    -1.3350 H     1 <1>   0.0800 
 41 H       -3.6830     3.4570     0.3850 H     1 <1>   0.0800 
 42 H        5.1100    -7.0110    -0.3150 H     1 <1>   0.0800 
 43 H        6.4180    -5.9010     0.0330 H     1 <1>   0.0800 
 44 H        5.6340    -5.8630    -1.5320 H     1 <1>   0.0800 
@<TRIPOS>BOND
  1   1   2  2   
  2   2   3  am  
  3   2   4  1   
  4   3   5  1   
  5   3   6  am  
  6   4   7  1   
  7   4   8  1   
  8   4  26  1   
  9   5   9  ar  
 10   5  10  ar  
 11   6   8  1   
 12   6  11  2   
 13   7  12  1   
 14   7  13  1   
 15   7  27  1   
 16   8  14  1   
 17   8  28  1   
 18   9  15  ar  
 19   9  29  1   
 20  10  16  ar  
 21  10  30  1   
 22  12  14  1   
 23  12  17  2   
 24  13  18  2   
 25  13  31  1   
 26  14  18  1   
 27  14  32  1   
 28  15  19  ar  
 29  15  33  1   
 30  16  19  ar  
 31  16  34  1   
 32  17  20  1   
 33  17  21  1   
 34  18  35  1   
 35  19  22  1   
 36  20  36  1   
 37  20  37  1   
 38  20  38  1   
 39  21  39  1   
 40  21  40  1   
 41  21  41  1   
 42  22  23  1   
 43  23  24  2   
 44  23  25  1   
 45  25  42  1   
 46  25  43  1   
 47  25  44  1   
@<TRIPOS>SUBSTRUCTURE
  1 ****   3 GROUP 4 **** **** 0

# MOE 2024.06 (io_trps.svl 2023.06)
