@<TRIPOS>MOLECULE
NONAME
47 49 1 0 0 
SMALL
USER_CHARGES


@<TRIPOS>ATOM
  1 O       -4.4140     4.2730     0.8840 O.3   1 <1>  -0.5600 
  2 C       -3.4270     4.4900    -0.0860 C.3   1 <1>   0.6240 
  3 C       -5.0220     3.0160     0.8500 C.3   1 <1>   0.1200 
  4 O       -3.7510     3.8000    -1.2650 O.3   1 <1>  -0.5600 
  5 C       -2.0790     4.0080     0.4440 C.ar  1 <1>  -0.1440 
  6 C       -5.8220     2.8720    -0.4740 C.3   1 <1>   0.0000 
  7 C       -5.1200     3.7500    -1.5410 C.3   1 <1>   0.1200 
  8 C       -1.2940     3.1310    -0.2870 C.ar  1 <1>   0.2110 
  9 C       -1.6230     4.4460     1.6810 C.ar  1 <1>  -0.1500 
 10 C       -7.2680     3.4050    -0.2280 C.3   1 <1>   0.0580 
 11 C       -5.8890     1.3720    -0.9070 C.3   1 <1>  -0.0800 
 12 N       -0.1000     2.7000     0.1800 N.ar  1 <1>  -0.2100 
 13 C       -0.3990     3.9970     2.1480 C.ar  1 <1>  -0.1500 
 14 C       -8.0580     2.4380     0.6400 C.2   1 <1>  -0.2880 
 15 C       -8.1030     3.6630    -1.4960 C.3   1 <1>  -0.2400 
 16 C       -6.5360     0.4890     0.1810 C.3   1 <1>  -0.0220 
 17 C       -4.5470     0.7470    -1.3420 C.3   1 <1>  -0.2400 
 18 C        0.3480     3.1230     1.3830 C.ar  1 <1>   0.2110 
 19 C        0.7090     1.7550    -0.6340 C.3   1 <1>   0.2480 
 20 C       -7.7400     1.1540     0.8320 C.2   1 <1>  -0.2760 
 21 C       -8.5490     0.2290     1.7240 C.3   1 <1>  -0.1020 
 22 H       -3.3990     5.5450    -0.3020 H     1 <1>   0.0800 
 23 H       -5.6650     2.9310     1.7090 H     1 <1>   0.0800 
 24 H       -4.2500     2.2750     0.9370 H     1 <1>   0.0800 
 25 H       -5.2590     3.3510    -2.5300 H     1 <1>   0.0800 
 26 H       -5.4910     4.7610    -1.5190 H     1 <1>   0.0800 
 27 H       -1.6270     2.7740    -1.2490 H     1 <1>   0.1500 
 28 H       -2.2190     5.1240     2.2740 H     1 <1>   0.1500 
 29 H       -7.1900     4.3390     0.3040 H     1 <1>   0.0800 
 30 H       -6.5340     1.3170    -1.7660 H     1 <1>   0.0800 
 31 H       -0.0370     4.3290     3.1070 H     1 <1>   0.1500 
 32 H       -8.9210     2.8980     1.0920 H     1 <1>   0.1500 
 33 H       -8.2370     2.7590    -2.0600 H     1 <1>   0.0800 
 34 H       -7.6540     4.4070    -2.1270 H     1 <1>   0.0800 
 35 H       -9.0780     4.0220    -1.2150 H     1 <1>   0.0800 
 36 H       -5.8180     0.2590     0.9490 H     1 <1>   0.0800 
 37 H       -6.8420    -0.4400    -0.2680 H     1 <1>   0.0800 
 38 H       -3.8340     0.7410    -0.5390 H     1 <1>   0.0800 
 39 H       -4.1270     1.2810    -2.1750 H     1 <1>   0.0800 
 40 H       -4.7050    -0.2700    -1.6560 H     1 <1>   0.0800 
 41 H        1.3000     2.7710     1.7480 H     1 <1>   0.1500 
 42 H        0.3770     0.7470    -0.4550 H     1 <1>   0.0800 
 43 H        1.7510     1.8340    -0.3750 H     1 <1>   0.0800 
 44 H        0.6000     1.9810    -1.6810 H     1 <1>   0.0800 
 45 H       -7.9330    -0.1550     2.5160 H     1 <1>   0.0800 
 46 H       -8.9360    -0.5950     1.1510 H     1 <1>   0.0800 
 47 H       -9.3780     0.7550     2.1620 H     1 <1>   0.0800 
@<TRIPOS>BOND
  1   1   2  1   
  2   1   3  1   
  3   2   4  1   
  4   2   5  1   
  5   2  22  1   
  6   3   6  1   
  7   3  23  1   
  8   3  24  1   
  9   4   7  1   
 10   5   8  ar  
 11   5   9  ar  
 12   6   7  1   
 13   6  10  1   
 14   6  11  1   
 15   7  25  1   
 16   7  26  1   
 17   8  12  ar  
 18   8  27  1   
 19   9  13  ar  
 20   9  28  1   
 21  10  14  1   
 22  10  15  1   
 23  10  29  1   
 24  11  16  1   
 25  11  17  1   
 26  11  30  1   
 27  12  18  ar  
 28  12  19  1   
 29  13  18  ar  
 30  13  31  1   
 31  14  20  2   
 32  14  32  1   
 33  15  33  1   
 34  15  34  1   
 35  15  35  1   
 36  16  20  1   
 37  16  36  1   
 38  16  37  1   
 39  17  38  1   
 40  17  39  1   
 41  17  40  1   
 42  18  41  1   
 43  19  42  1   
 44  19  43  1   
 45  19  44  1   
 46  20  21  1   
 47  21  45  1   
 48  21  46  1   
 49  21  47  1   
@<TRIPOS>SUBSTRUCTURE
  1 ****   3 GROUP 4 **** **** 0

# MOE 2024.06 (io_trps.svl 2023.06)
