@<TRIPOS>MOLECULE
NONAME
44 46 1 0 0 
SMALL
USER_CHARGES


@<TRIPOS>ATOM
  1 S       -1.3650    -0.0830     1.3500 S.o2  1 <1>   1.3330 
  2 O       -0.4930     0.9740     0.8950 O.2   1 <1>  -0.6500 
  3 O       -0.9940    -1.4660     1.1570 O.2   1 <1>  -0.6500 
  4 N       -2.8890     0.1470     0.6460 N.am  1 <1>  -0.8490 
  5 C       -1.6950     0.1940     3.0760 C.3   1 <1>  -0.1350 
  6 C       -2.7780     0.6520    -0.7360 C.3   1 <1>   0.1960 
  7 C       -3.7120    -1.0770     0.6660 C.3   1 <1>   0.1960 
  8 C       -4.1550     0.9430    -1.3570 C.3   1 <1>   0.1400 
  9 C       -5.1220    -0.8410     0.0940 C.3   1 <1>   0.1400 
 10 N       -5.0540    -0.2490    -1.2780 N.am  1 <1>  -0.6600 
 11 C       -5.7610    -0.6890    -2.3740 C.2   1 <1>   0.5690 
 12 O       -5.6190    -0.1730    -3.4590 O.2   1 <1>  -0.5700 
 13 C       -6.7270    -1.8690    -2.2920 C.3   1 <1>   0.1810 
 14 O       -7.7200    -1.6630    -1.2970 O.3   1 <1>  -0.3630 
 15 C       -8.5920    -2.6370    -0.9370 C.ar  1 <1>   0.0820 
 16 C       -9.3920    -2.3870     0.2070 C.ar  1 <1>   0.0000 
 17 C       -8.7080    -3.8230    -1.6270 C.ar  1 <1>  -0.1500 
 18 C      -10.2950    -3.3860     0.6350 C.ar  1 <1>   0.0000 
 19 C       -9.3370    -1.1840     0.9470 C.ar  1 <1>  -0.1500 
 20 C       -9.6090    -4.8030    -1.2010 C.ar  1 <1>  -0.1500 
 21 C      -10.3810    -4.5880    -0.0940 C.ar  1 <1>  -0.1500 
 22 C      -11.0870    -3.1510     1.7780 C.ar  1 <1>  -0.1500 
 23 C      -10.1180    -0.9810     2.0510 C.ar  1 <1>  -0.1500 
 24 C      -11.0030    -1.9770     2.4730 C.ar  1 <1>  -0.1500 
 25 H       -2.0860     1.1820     3.2200 H     1 <1>   0.0800 
 26 H       -0.7890     0.0970     3.6410 H     1 <1>   0.0800 
 27 H       -2.4070    -0.5190     3.4410 H     1 <1>   0.0800 
 28 H       -2.2550    -0.0650    -1.3480 H     1 <1>   0.0800 
 29 H       -2.2100     1.5670    -0.7440 H     1 <1>   0.0800 
 30 H       -3.8050    -1.4330     1.6770 H     1 <1>   0.0800 
 31 H       -3.2330    -1.8510     0.0890 H     1 <1>   0.0800 
 32 H       -4.0180     1.2470    -2.3800 H     1 <1>   0.0800 
 33 H       -4.6120     1.7620    -0.8300 H     1 <1>   0.0800 
 34 H       -5.6580    -0.1680     0.7410 H     1 <1>   0.0800 
 35 H       -5.6480    -1.7780     0.0850 H     1 <1>   0.0800 
 36 H       -6.1790    -2.7600    -2.0520 H     1 <1>   0.0800 
 37 H       -7.2240    -1.9890    -3.2380 H     1 <1>   0.0800 
 38 H       -8.1280    -4.0370    -2.5050 H     1 <1>   0.1500 
 39 H       -8.6620    -0.4120     0.6210 H     1 <1>   0.1500 
 40 H       -9.6850    -5.7240    -1.7540 H     1 <1>   0.1500 
 41 H      -11.0740    -5.3400     0.2380 H     1 <1>   0.1500 
 42 H      -11.7680    -3.9200     2.0960 H     1 <1>   0.1500 
 43 H      -10.0670    -0.0590     2.6030 H     1 <1>   0.1500 
 44 H      -11.6110    -1.8040     3.3440 H     1 <1>   0.1500 
@<TRIPOS>BOND
  1   1   2  2   
  2   1   3  2   
  3   1   4  am  
  4   1   5  1   
  5   4   6  1   
  6   4   7  1   
  7   5  25  1   
  8   5  26  1   
  9   5  27  1   
 10   6   8  1   
 11   6  28  1   
 12   6  29  1   
 13   7   9  1   
 14   7  30  1   
 15   7  31  1   
 16   8  10  1   
 17   8  32  1   
 18   8  33  1   
 19   9  10  1   
 20   9  34  1   
 21   9  35  1   
 22  10  11  am  
 23  11  12  2   
 24  11  13  1   
 25  13  14  1   
 26  13  36  1   
 27  13  37  1   
 28  14  15  1   
 29  15  16  ar  
 30  15  17  ar  
 31  16  18  ar  
 32  16  19  ar  
 33  17  20  ar  
 34  17  38  1   
 35  18  21  ar  
 36  18  22  ar  
 37  19  23  ar  
 38  19  39  1   
 39  20  21  ar  
 40  20  40  1   
 41  21  41  1   
 42  22  24  ar  
 43  22  42  1   
 44  23  24  ar  
 45  23  43  1   
 46  24  44  1   
@<TRIPOS>SUBSTRUCTURE
  1 ****   9 GROUP 4 **** **** 0

# MOE 2024.06 (io_trps.svl 2023.06)
