@<TRIPOS>MOLECULE
NONAME
42 44 1 0 0 
SMALL
USER_CHARGES


@<TRIPOS>ATOM
  1 F       -0.6010    -0.6800    -1.1420 F     1 <1>  -0.1900 
  2 C       -1.0950    -1.5560    -0.2990 C.ar  1 <1>   0.1900 
  3 C       -0.2370    -2.3810     0.4390 C.ar  1 <1>   0.1000 
  4 C       -2.4660    -1.6230    -0.2010 C.ar  1 <1>  -0.1500 
  5 N        1.1590    -2.3540     0.3700 N.pl3 1 <1>  -0.8380 
  6 C       -0.8540    -3.2800     1.3030 C.ar  1 <1>  -0.1500 
  7 C       -3.0720    -2.5450     0.6520 C.ar  1 <1>   0.0860 
  8 C        1.9440    -3.5850     0.0900 C.3   1 <1>   0.2090 
  9 C        1.9300    -1.0820     0.4090 C.3   1 <1>   0.2090 
 10 C       -2.2320    -3.3680     1.4220 C.ar  1 <1>  -0.1430 
 11 C       -4.5130    -2.6120     0.7010 C.2   1 <1>   0.3980 
 12 C        2.7330    -3.4100    -1.2110 C.3   1 <1>  -0.1600 
 13 C        2.7290    -0.9130    -0.8870 C.3   1 <1>  -0.1600 
 14 C       -2.8090    -4.3620     2.4240 C.3   1 <1>  -0.0960 
 15 O       -5.1410    -1.6290     1.0420 O.2   1 <1>  -0.5700 
 16 C       -5.2110    -3.8300     0.3310 C.ar  1 <1>   0.0860 
 17 C        3.5990    -2.1420    -1.1890 C.3   1 <1>  -0.1600 
 18 C       -6.4930    -4.0940     0.8150 C.ar  1 <1>  -0.1500 
 19 C       -4.6420    -4.7840    -0.5170 C.ar  1 <1>  -0.1500 
 20 C       -7.1710    -5.2530     0.4830 C.ar  1 <1>  -0.1500 
 21 C       -5.3130    -5.9460    -0.8530 C.ar  1 <1>  -0.1500 
 22 C       -6.5800    -6.1840    -0.3520 C.ar  1 <1>  -0.1500 
 23 H       -3.0760    -0.9610    -0.7870 H     1 <1>   0.1500 
 24 H       -0.2210    -3.9110     1.9000 H     1 <1>   0.1500 
 25 H        1.2840    -4.4300     0.0010 H     1 <1>   0.0800 
 26 H        2.6200    -3.7630     0.9090 H     1 <1>   0.0800 
 27 H        2.6030    -1.1120     1.2490 H     1 <1>   0.0800 
 28 H        1.2640    -0.2480     0.5460 H     1 <1>   0.0800 
 29 H        2.0350    -3.3550    -2.0280 H     1 <1>   0.0800 
 30 H        3.3560    -4.2720    -1.3680 H     1 <1>   0.0800 
 31 H        3.3490    -0.0390    -0.8090 H     1 <1>   0.0800 
 32 H        2.0390    -0.7530    -1.6970 H     1 <1>   0.0800 
 33 H       -2.0590    -4.6750     3.1280 H     1 <1>   0.0800 
 34 H       -3.1800    -5.2330     1.9160 H     1 <1>   0.0800 
 35 H       -3.6130    -3.9120     2.9800 H     1 <1>   0.0800 
 36 H        4.0880    -2.0180    -2.1390 H     1 <1>   0.0800 
 37 H        4.3580    -2.2390    -0.4310 H     1 <1>   0.0800 
 38 H       -6.9630    -3.3730     1.4630 H     1 <1>   0.1500 
 39 H       -3.6600    -4.6180    -0.9250 H     1 <1>   0.1500 
 40 H       -8.1590    -5.4300     0.8730 H     1 <1>   0.1500 
 41 H       -4.8530    -6.6660    -1.5070 H     1 <1>   0.1500 
 42 H       -7.1060    -7.0870    -0.6120 H     1 <1>   0.1500 
@<TRIPOS>BOND
  1   1   2  1   
  2   2   3  ar  
  3   2   4  ar  
  4   3   5  1   
  5   3   6  ar  
  6   4   7  ar  
  7   4  23  1   
  8   5   8  1   
  9   5   9  1   
 10   6  10  ar  
 11   6  24  1   
 12   7  10  ar  
 13   7  11  1   
 14   8  12  1   
 15   8  25  1   
 16   8  26  1   
 17   9  13  1   
 18   9  27  1   
 19   9  28  1   
 20  10  14  1   
 21  11  15  2   
 22  11  16  1   
 23  12  17  1   
 24  12  29  1   
 25  12  30  1   
 26  13  17  1   
 27  13  31  1   
 28  13  32  1   
 29  14  33  1   
 30  14  34  1   
 31  14  35  1   
 32  16  18  ar  
 33  16  19  ar  
 34  17  36  1   
 35  17  37  1   
 36  18  20  ar  
 37  18  38  1   
 38  19  21  ar  
 39  19  39  1   
 40  20  22  ar  
 41  20  40  1   
 42  21  22  ar  
 43  21  41  1   
 44  22  42  1   
@<TRIPOS>SUBSTRUCTURE
  1 ****   7 GROUP 4 **** **** 0

# MOE 2024.06 (io_trps.svl 2023.06)
