@<TRIPOS>MOLECULE
NONAME
29 31 1 0 0 
SMALL
USER_CHARGES


@<TRIPOS>ATOM
  1 O        0.2080    -0.3320     0.2580 O.3   1 <1>  -0.6920 
  2 N        0.8000    -1.4300     0.1130 N.pl3 1 <1>  -0.5080 
  3 C        0.0850    -2.6030     0.0260 C.2   1 <1>  -0.0380 
  4 C        2.1590    -1.4280     0.0630 C.2   1 <1>  -0.0380 
  5 C        0.7560    -3.7820    -0.0800 C.2   1 <1>  -0.1510 
  6 C       -1.4360    -2.5060     0.0640 C.3   1 <1>  -0.0220 
  7 C        2.8320    -2.5710    -0.0590 C.2   1 <1>  -0.1510 
  8 C        3.0460    -0.2170     0.1360 C.3   1 <1>  -0.0220 
  9 N        2.1380    -3.7490    -0.1320 N.2   1 <1>   1.5890 
 10 C        0.0280    -5.1320    -0.1530 C.3   1 <1>  -0.0220 
 11 C       -2.1200    -3.8160    -0.3520 C.3   1 <1>  -0.1600 
 12 C        4.3300    -2.3510    -0.0950 C.3   1 <1>  -0.0220 
 13 C        4.4670    -0.8150     0.0200 C.3   1 <1>  -0.1600 
 14 O        2.8000    -4.8400    -0.2580 O.2   1 <1>  -0.5640 
 15 C       -1.4360    -5.0230     0.2970 C.3   1 <1>  -0.1600 
 16 H       -1.7570    -1.7150    -0.5910 H     1 <1>   0.0800 
 17 H       -1.7270    -2.2320     1.0630 H     1 <1>   0.0800 
 18 H        2.8910     0.2900     1.0720 H     1 <1>   0.0800 
 19 H        2.8160     0.4510    -0.6750 H     1 <1>   0.0800 
 20 H        0.5150    -5.8630     0.4710 H     1 <1>   0.0800 
 21 H        0.0560    -5.4910    -1.1680 H     1 <1>   0.0800 
 22 H       -2.0750    -3.9100    -1.4240 H     1 <1>   0.0800 
 23 H       -3.1570    -3.7790    -0.0670 H     1 <1>   0.0800 
 24 H        4.7520    -2.7030    -1.0210 H     1 <1>   0.0800 
 25 H        4.8120    -2.8400     0.7350 H     1 <1>   0.0800 
 26 H        5.0450    -0.5520     0.8890 H     1 <1>   0.0800 
 27 H        4.9570    -0.4160    -0.8510 H     1 <1>   0.0800 
 28 H       -1.4760    -4.9120     1.3680 H     1 <1>   0.0800 
 29 H       -1.9640    -5.9250     0.0380 H     1 <1>   0.0800 
@<TRIPOS>BOND
  1   1   2  1   
  2   2   3  1   
  3   2   4  1   
  4   3   5  2   
  5   3   6  1   
  6   4   7  2   
  7   4   8  1   
  8   5   9  1   
  9   5  10  1   
 10   6  11  1   
 11   6  16  1   
 12   6  17  1   
 13   7   9  1   
 14   7  12  1   
 15   8  13  1   
 16   8  18  1   
 17   8  19  1   
 18   9  14  2   
 19  10  15  1   
 20  10  20  1   
 21  10  21  1   
 22  11  15  1   
 23  11  22  1   
 24  11  23  1   
 25  12  13  1   
 26  12  24  1   
 27  12  25  1   
 28  13  26  1   
 29  13  27  1   
 30  15  28  1   
 31  15  29  1   
@<TRIPOS>SUBSTRUCTURE
  1 ****   3 GROUP 4 **** **** 0

# MOE 2024.06 (io_trps.svl 2023.06)
