@<TRIPOS>MOLECULE
NONAME
40 41 1 0 0 
SMALL
USER_CHARGES


@<TRIPOS>ATOM
  1 F        1.6300    -0.4550    -2.5880 F     1 <1>  -0.1900 
  2 C        2.2230    -0.9380    -1.5320 C.ar  1 <1>   0.1900 
  3 C        3.2440    -0.2060    -0.9570 C.ar  1 <1>  -0.1500 
  4 C        1.8130    -2.1580    -1.0320 C.ar  1 <1>  -0.1500 
  5 C        3.8880    -0.7190     0.1620 C.ar  1 <1>  -0.1440 
  6 C        2.4520    -2.6600     0.0880 C.ar  1 <1>  -0.1500 
  7 C        3.4820    -1.9440     0.6820 C.ar  1 <1>  -0.1500 
  8 C        5.0240     0.0450     0.8000 C.3   1 <1>   0.4870 
  9 N        6.2540    -0.3850     0.0900 N.4   1 <1>  -0.9060 
 10 C        7.5170     0.2460     0.5380 C.3   1 <1>   0.4230 
 11 C        7.5600     1.7210     0.1240 C.3   1 <1>  -0.1600 
 12 C        8.6900    -0.5130    -0.0860 C.3   1 <1>  -0.1600 
 13 C        8.9100     2.3550     0.4710 C.3   1 <1>   0.3430 
 14 C       10.0280     0.1410     0.2660 C.3   1 <1>   0.3430 
 15 N       10.0200     1.5760    -0.1500 N.4   1 <1>  -0.9590 
 16 C       11.3260     2.2360     0.1520 C.3   1 <1>   0.3430 
 17 C       12.3930     1.7340    -0.8130 C.3   1 <1>  -0.2400 
 18 H        3.5050     0.7420    -1.3940 H     1 <1>   0.1500 
 19 H        1.0120    -2.6960    -1.5090 H     1 <1>   0.1500 
 20 H        2.1420    -3.6080     0.4980 H     1 <1>   0.1500 
 21 H        3.9510    -2.3620     1.5580 H     1 <1>   0.1500 
 22 H        5.0840    -0.1910     1.8510 H     1 <1>   0.0800 
 23 H        4.8610     1.1040     0.6840 H     1 <1>   0.0800 
 24 H        6.0910    -0.2380    -0.9140 H     1 <1>   0.4500 
 25 H        6.2990    -1.4070     0.1990 H     1 <1>   0.4500 
 26 H        7.5920     0.1750     1.6130 H     1 <1>   0.0800 
 27 H        6.7960     2.2730     0.6420 H     1 <1>   0.0800 
 28 H        7.3920     1.8250    -0.9340 H     1 <1>   0.0800 
 29 H        8.5960    -0.5490    -1.1580 H     1 <1>   0.0800 
 30 H        8.7060    -1.5240     0.2830 H     1 <1>   0.0800 
 31 H        9.0390     2.3780     1.5420 H     1 <1>   0.0800 
 32 H        8.9320     3.3730     0.1120 H     1 <1>   0.0800 
 33 H       10.8250    -0.3850    -0.2350 H     1 <1>   0.0800 
 34 H       10.2020     0.0720     1.3290 H     1 <1>   0.0800 
 35 H        9.9230     1.6220    -1.1760 H     1 <1>   0.4500 
 36 H       11.6240     2.0390     1.1710 H     1 <1>   0.0800 
 37 H       11.2320     3.3050     0.0320 H     1 <1>   0.0800 
 38 H       12.6050     0.6900    -0.6670 H     1 <1>   0.0800 
 39 H       13.3070     2.2740    -0.6330 H     1 <1>   0.0800 
 40 H       12.1060     1.9100    -1.8340 H     1 <1>   0.0800 
@<TRIPOS>BOND
  1   1   2  1   
  2   2   3  ar  
  3   2   4  ar  
  4   3   5  ar  
  5   3  18  1   
  6   4   6  ar  
  7   4  19  1   
  8   5   7  ar  
  9   5   8  1   
 10   6   7  ar  
 11   6  20  1   
 12   7  21  1   
 13   8   9  1   
 14   8  22  1   
 15   8  23  1   
 16   9  10  1   
 17   9  24  1   
 18   9  25  1   
 19  10  11  1   
 20  10  12  1   
 21  10  26  1   
 22  11  13  1   
 23  11  27  1   
 24  11  28  1   
 25  12  14  1   
 26  12  29  1   
 27  12  30  1   
 28  13  15  1   
 29  13  31  1   
 30  13  32  1   
 31  14  15  1   
 32  14  33  1   
 33  14  34  1   
 34  15  16  1   
 35  15  35  1   
 36  16  17  1   
 37  16  36  1   
 38  16  37  1   
 39  17  38  1   
 40  17  39  1   
 41  17  40  1   
@<TRIPOS>SUBSTRUCTURE
  1 ****   9 GROUP 4 **** **** 0

# MOE 2024.06 (io_trps.svl 2023.06)
