@<TRIPOS>MOLECULE
NONAME
35 37 1 0 0 
SMALL
USER_CHARGES


@<TRIPOS>ATOM
  1 BR       0.0880    -0.3360    -0.3110 Br    1 <1>  -0.1110 
  2 C       -1.0580     1.2040    -0.2390 C.ar  1 <1>   0.1110 
  3 C       -0.6370     2.3200     0.4580 C.ar  1 <1>  -0.1500 
  4 C       -2.2780     1.1640    -0.8840 C.ar  1 <1>  -0.1500 
  5 C       -1.4690     3.4250     0.5030 C.ar  1 <1>  -0.1500 
  6 C       -3.0950     2.2790    -0.8290 C.ar  1 <1>  -0.1500 
  7 C       -2.7160     3.4350    -0.1340 C.ar  1 <1>   0.0860 
  8 C       -3.5430     4.6260    -0.0940 C.2   1 <1>   0.5330 
  9 O       -2.9700     5.7130    -0.2490 O.2   1 <1>  -0.5700 
 10 C       -4.9660     4.6130     0.0850 C.cat 1 <1>   0.7510 
 11 N       -5.7560     5.7200    -0.0980 N.pl3 1 <1>  -0.7000 
 12 N       -5.8060     3.6120     0.4540 N.pl3 1 <1>  -0.8080 
 13 C       -7.0550     5.3960     0.1450 C.2   1 <1>   0.1820 
 14 O       -5.4770     2.4360     0.8330 O.3   1 <1>  -0.4420 
 15 C       -7.0950     4.0900     0.4810 C.2   1 <1>   0.1820 
 16 C       -8.1630     6.4290     0.0580 C.3   1 <1>   0.0080 
 17 C       -8.2640     3.2040     0.8760 C.3   1 <1>   0.0080 
 18 C       -9.4440     5.9140    -0.6110 C.3   1 <1>  -0.1600 
 19 C       -9.5280     3.4210     0.0330 C.3   1 <1>  -0.1600 
 20 C      -10.1700     4.8100     0.1730 C.3   1 <1>  -0.1600 
 21 H        0.3190     2.3200     0.9510 H     1 <1>   0.1500 
 22 H       -2.5840     0.2790    -1.4120 H     1 <1>   0.1500 
 23 H       -1.1490     4.3030     1.0380 H     1 <1>   0.1500 
 24 H       -4.0530     2.2460    -1.3190 H     1 <1>   0.1500 
 25 H       -5.3370     6.6170    -0.3410 H     1 <1>   0.4500 
 26 H       -7.8040     7.2680    -0.5110 H     1 <1>   0.0800 
 27 H       -8.3850     6.7820     1.0500 H     1 <1>   0.0800 
 28 H       -8.4730     3.3570     1.9190 H     1 <1>   0.0800 
 29 H       -7.9640     2.1780     0.7600 H     1 <1>   0.0800 
 30 H       -9.2190     5.5680    -1.6060 H     1 <1>   0.0800 
 31 H      -10.1180     6.7470    -0.7110 H     1 <1>   0.0800 
 32 H      -10.2510     2.6860     0.3440 H     1 <1>   0.0800 
 33 H       -9.3030     3.2210    -1.0010 H     1 <1>   0.0800 
 34 H      -11.1710     4.7410    -0.2190 H     1 <1>   0.0800 
 35 H      -10.2580     5.0780     1.2130 H     1 <1>   0.0800 
@<TRIPOS>BOND
  1   1   2  1   
  2   2   3  ar  
  3   2   4  ar  
  4   3   5  ar  
  5   3  21  1   
  6   4   6  ar  
  7   4  22  1   
  8   5   7  ar  
  9   5  23  1   
 10   6   7  ar  
 11   6  24  1   
 12   7   8  1   
 13   8   9  2   
 14   8  10  1   
 15  10  11  ar  
 16  10  12  ar  
 17  11  13  1   
 18  11  25  1   
 19  12  14  1   
 20  12  15  1   
 21  13  15  2   
 22  13  16  1   
 23  15  17  1   
 24  16  18  1   
 25  16  26  1   
 26  16  27  1   
 27  17  19  1   
 28  17  28  1   
 29  17  29  1   
 30  18  20  1   
 31  18  30  1   
 32  18  31  1   
 33  19  20  1   
 34  19  32  1   
 35  19  33  1   
 36  20  34  1   
 37  20  35  1   
@<TRIPOS>SUBSTRUCTURE
  1 ****  12 GROUP 4 **** **** 0

# MOE 2024.06 (io_trps.svl 2023.06)
