@<TRIPOS>MOLECULE
NONAME
37 38 1 0 0 
SMALL
USER_CHARGES


@<TRIPOS>ATOM
  1 S       -0.9770     0.0900    -0.9970 S.3   1 <1>  -0.3710 
  2 C       -2.4820     1.0410    -0.9690 C.2   1 <1>   0.6510 
  3 C        0.1810     1.1390    -0.0130 C.3   1 <1>   0.0700 
  4 N       -2.5110     2.1610    -0.3570 N.2   1 <1>  -0.6210 
  5 N       -3.5120     0.4700    -1.6350 N.am  1 <1>  -0.4900 
  6 C        1.5340     0.4270     0.0500 C.3   1 <1>  -0.1600 
  7 C       -3.7020     2.8440    -0.3680 C.2   1 <1>   0.0210 
  8 C       -4.7110     1.1120    -1.6840 C.2   1 <1>   0.6160 
  9 C        2.5500     1.2450     0.8570 C.3   1 <1>  -0.1600 
 10 O       -3.7140     3.9260     0.2280 O.3   1 <1>  -0.8500 
 11 C       -4.8200     2.3290    -1.0220 C.2   1 <1>  -0.1240 
 12 O       -5.6020     0.5510    -2.3420 O.2   1 <1>  -0.5700 
 13 C        3.9040     0.5340     0.9220 C.3   1 <1>  -0.2400 
 14 C       -6.1380     3.0830    -1.0160 C.3   1 <1>   0.1220 
 15 C       -7.0900     2.5130     0.0290 C.ar  1 <1>  -0.1440 
 16 C       -8.2140     1.7870    -0.3350 C.ar  1 <1>  -0.1500 
 17 C       -6.8190     2.7220     1.3700 C.ar  1 <1>  -0.1500 
 18 C       -9.0670     1.2900     0.6360 C.ar  1 <1>  -0.1500 
 19 C       -7.6700     2.2260     2.3430 C.ar  1 <1>  -0.1500 
 20 C       -8.7970     1.5110     1.9760 C.ar  1 <1>  -0.1500 
 21 H       -0.2570     1.2660     0.9630 H     1 <1>   0.0800 
 22 H        0.2460     2.0920    -0.5080 H     1 <1>   0.0800 
 23 H       -3.4190    -0.4220    -2.0960 H     1 <1>   0.3700 
 24 H        1.9000     0.2820    -0.9510 H     1 <1>   0.0800 
 25 H        1.4010    -0.5380     0.5080 H     1 <1>   0.0800 
 26 H        2.1780     1.3950     1.8570 H     1 <1>   0.0800 
 27 H        2.6760     2.2130     0.4010 H     1 <1>   0.0800 
 28 H        3.8020    -0.4270     1.3940 H     1 <1>   0.0800 
 29 H        4.6010     1.1230     1.4910 H     1 <1>   0.0800 
 30 H        4.3020     0.3940    -0.0680 H     1 <1>   0.0800 
 31 H       -6.5830     3.0330    -1.9930 H     1 <1>   0.0800 
 32 H       -5.9590     4.1210    -0.8000 H     1 <1>   0.0800 
 33 H       -8.4190     1.6040    -1.3750 H     1 <1>   0.1500 
 34 H       -5.9290     3.2720     1.6440 H     1 <1>   0.1500 
 35 H       -9.9370     0.7280     0.3470 H     1 <1>   0.1500 
 36 H       -7.4450     2.3980     3.3800 H     1 <1>   0.1500 
 37 H       -9.4580     1.1250     2.7310 H     1 <1>   0.1500 
@<TRIPOS>BOND
  1   1   2  1   
  2   1   3  1   
  3   2   4  2   
  4   2   5  1   
  5   3   6  1   
  6   3  21  1   
  7   3  22  1   
  8   4   7  1   
  9   5   8  am  
 10   5  23  1   
 11   6   9  1   
 12   6  24  1   
 13   6  25  1   
 14   7  10  1   
 15   7  11  2   
 16   8  11  1   
 17   8  12  2   
 18   9  13  1   
 19   9  26  1   
 20   9  27  1   
 21  11  14  1   
 22  13  28  1   
 23  13  29  1   
 24  13  30  1   
 25  14  15  1   
 26  14  31  1   
 27  14  32  1   
 28  15  16  ar  
 29  15  17  ar  
 30  16  18  ar  
 31  16  33  1   
 32  17  19  ar  
 33  17  34  1   
 34  18  20  ar  
 35  18  35  1   
 36  19  20  ar  
 37  19  36  1   
 38  20  37  1   
@<TRIPOS>SUBSTRUCTURE
  1 ****   7 GROUP 4 **** **** 0

# MOE 2024.06 (io_trps.svl 2023.06)
