@<TRIPOS>MOLECULE
NONAME
50 53 1 0 0 
SMALL
USER_CHARGES


@<TRIPOS>ATOM
  1 O        1.9090     4.2450    -0.9290 O.2   1 <1>  -0.5700 
  2 C        1.1150     3.3330    -0.8890 C.2   1 <1>   0.5690 
  3 N        1.5170     2.0400    -0.7770 N.am  1 <1>  -0.7300 
  4 C       -0.3870     3.6410    -0.9670 C.3   1 <1>   0.2610 
  5 C        2.9080     1.5620    -0.6610 C.3   1 <1>   0.2200 
  6 O       -1.1060     2.6810    -0.1970 O.3   1 <1>  -0.3630 
  7 C       -0.9250     3.5960    -2.4120 C.3   1 <1>  -0.1600 
  8 C        3.1950     0.4910    -1.7360 C.3   1 <1>  -0.0800 
  9 C        3.1490     0.9610     0.7400 C.3   1 <1>  -0.0800 
 10 C       -2.3300     2.9230     0.3390 C.ar  1 <1>   0.0820 
 11 C       -0.3510     4.7120    -3.2980 C.3   1 <1>  -0.2400 
 12 C        4.6770     0.0750    -1.6270 C.3   1 <1>  -0.1600 
 13 C        2.3160    -0.7610    -1.5130 C.3   1 <1>  -0.1600 
 14 C        4.6310     0.5450     0.8450 C.3   1 <1>  -0.1600 
 15 C        2.2690    -0.2900     0.9610 C.3   1 <1>  -0.1600 
 16 C       -2.8900     1.8960     1.0830 C.ar  1 <1>  -0.1500 
 17 C       -3.0320     4.1160     0.1880 C.ar  1 <1>  -0.1500 
 18 C        4.9600    -0.5110    -0.2290 C.3   1 <1>  -0.0800 
 19 C        2.5810    -1.3500    -0.1140 C.3   1 <1>  -0.0800 
 20 C       -4.1330     2.0480     1.6700 C.ar  1 <1>  -0.1500 
 21 C       -4.2760     4.2680     0.7760 C.ar  1 <1>  -0.1500 
 22 C        4.0660    -1.7460    -0.0110 C.3   1 <1>  -0.1600 
 23 C       -4.8270     3.2360     1.5170 C.ar  1 <1>  -0.1500 
 24 H        0.8040     1.3210    -0.6500 H     1 <1>   0.3700 
 25 H       -0.5370     4.6100    -0.5270 H     1 <1>   0.0800 
 26 H        3.5750     2.3960    -0.8070 H     1 <1>   0.0800 
 27 H       -1.9960     3.6900    -2.4010 H     1 <1>   0.0800 
 28 H       -0.6780     2.6430    -2.8470 H     1 <1>   0.0800 
 29 H        3.0130     0.9070    -2.7110 H     1 <1>   0.0800 
 30 H        2.9350     1.7050     1.4880 H     1 <1>   0.0800 
 31 H       -0.5730     5.6780    -2.8800 H     1 <1>   0.0800 
 32 H       -0.7820     4.6580    -4.2820 H     1 <1>   0.0800 
 33 H        0.7170     4.6140    -3.3910 H     1 <1>   0.0800 
 34 H        5.3090     0.9300    -1.7980 H     1 <1>   0.0800 
 35 H        4.9080    -0.6560    -2.3820 H     1 <1>   0.0800 
 36 H        2.5410    -1.4980    -2.2640 H     1 <1>   0.0800 
 37 H        1.2750    -0.5110    -1.6150 H     1 <1>   0.0800 
 38 H        4.8290     0.1440     1.8240 H     1 <1>   0.0800 
 39 H        5.2620     1.4070     0.7140 H     1 <1>   0.0800 
 40 H        1.2270    -0.0260     0.9260 H     1 <1>   0.0800 
 41 H        2.4610    -0.6980     1.9380 H     1 <1>   0.0800 
 42 H       -2.3460     0.9760     1.2000 H     1 <1>   0.1500 
 43 H       -2.6370     4.9360    -0.3810 H     1 <1>   0.1500 
 44 H        5.9960    -0.7940    -0.1560 H     1 <1>   0.0800 
 45 H        1.9620    -2.2180     0.0400 H     1 <1>   0.0800 
 46 H       -4.5600     1.2450     2.2460 H     1 <1>   0.1500 
 47 H       -4.8190     5.1900     0.6590 H     1 <1>   0.1500 
 48 H        4.2630    -2.1720     0.9580 H     1 <1>   0.0800 
 49 H        4.2950    -2.4960    -0.7480 H     1 <1>   0.0800 
 50 H       -5.7940     3.3570     1.9730 H     1 <1>   0.1500 
@<TRIPOS>BOND
  1   1   2  2   
  2   2   3  am  
  3   2   4  1   
  4   3   5  1   
  5   3  24  1   
  6   4   6  1   
  7   4   7  1   
  8   4  25  1   
  9   5   8  1   
 10   5   9  1   
 11   5  26  1   
 12   6  10  1   
 13   7  11  1   
 14   7  27  1   
 15   7  28  1   
 16   8  12  1   
 17   8  13  1   
 18   8  29  1   
 19   9  14  1   
 20   9  15  1   
 21   9  30  1   
 22  10  16  ar  
 23  10  17  ar  
 24  11  31  1   
 25  11  32  1   
 26  11  33  1   
 27  12  18  1   
 28  12  34  1   
 29  12  35  1   
 30  13  19  1   
 31  13  36  1   
 32  13  37  1   
 33  14  18  1   
 34  14  38  1   
 35  14  39  1   
 36  15  19  1   
 37  15  40  1   
 38  15  41  1   
 39  16  20  ar  
 40  16  42  1   
 41  17  21  ar  
 42  17  43  1   
 43  18  22  1   
 44  18  44  1   
 45  19  22  1   
 46  19  45  1   
 47  20  23  ar  
 48  20  46  1   
 49  21  23  ar  
 50  21  47  1   
 51  22  48  1   
 52  22  49  1   
 53  23  50  1   
@<TRIPOS>SUBSTRUCTURE
  1 ****   3 GROUP 4 **** **** 0

# MOE 2024.06 (io_trps.svl 2023.06)
