@<TRIPOS>MOLECULE
NONAME
32 33 1 0 0 
SMALL
USER_CHARGES


@<TRIPOS>ATOM
  1 O       -0.6420     0.2960     0.4190 O.2   1 <1>  -0.5700 
  2 C       -1.8520     0.1730     0.3970 C.2   1 <1>   0.6900 
  3 N       -2.7350     1.1750     0.1770 N.am  1 <1>  -0.5470 
  4 N       -2.5270    -0.9810     0.5930 N.am  1 <1>  -0.5470 
  5 C       -4.0160     0.6440     0.2380 C.ar  1 <1>   0.1170 
  6 C       -3.8860    -0.7090     0.5000 C.ar  1 <1>   0.1170 
  7 C       -5.2650     1.2250     0.0910 C.ar  1 <1>  -0.1500 
  8 C       -5.0060    -1.5150     0.6190 C.ar  1 <1>  -0.1500 
  9 C       -6.4010     0.4340     0.2090 C.ar  1 <1>   0.1170 
 10 C       -6.2540    -0.9350     0.4700 C.ar  1 <1>  -0.1500 
 11 N       -7.6600     1.0370     0.0440 N.am  1 <1>  -0.5470 
 12 C       -8.8930     0.6970     0.5350 C.2   1 <1>   0.5690 
 13 O       -9.0580    -0.2550     1.2620 O.2   1 <1>  -0.5700 
 14 C      -10.1210     1.5670     0.1570 C.3   1 <1>   0.0610 
 15 C      -11.1710     0.7000    -0.5650 C.3   1 <1>  -0.2400 
 16 C       -9.7670     2.7500    -0.7730 C.3   1 <1>  -0.2400 
 17 C      -10.7600     2.1480     1.4330 C.3   1 <1>  -0.2400 
 18 H       -2.4430     2.1370     0.0230 H     1 <1>   0.3700 
 19 H       -2.0650    -1.8650     0.7910 H     1 <1>   0.3700 
 20 H       -5.3410     2.2770    -0.1080 H     1 <1>   0.1500 
 21 H       -4.9010    -2.5650     0.8220 H     1 <1>   0.1500 
 22 H       -7.1290    -1.5550     0.5550 H     1 <1>   0.1500 
 23 H       -7.6550     1.8970    -0.5000 H     1 <1>   0.3700 
 24 H      -10.7560     0.2810    -1.4640 H     1 <1>   0.0800 
 25 H      -12.0390     1.2800    -0.8220 H     1 <1>   0.0800 
 26 H      -11.4810    -0.1120     0.0690 H     1 <1>   0.0800 
 27 H      -10.6520     3.3160    -1.0080 H     1 <1>   0.0800 
 28 H       -9.0680     3.4140    -0.2970 H     1 <1>   0.0800 
 29 H       -9.3470     2.3960    -1.6980 H     1 <1>   0.0800 
 30 H      -11.0670     1.3520     2.0900 H     1 <1>   0.0800 
 31 H      -11.6240     2.7430     1.1960 H     1 <1>   0.0800 
 32 H      -10.0520     2.7620     1.9600 H     1 <1>   0.0800 
@<TRIPOS>BOND
  1   1   2  2   
  2   2   3  am  
  3   2   4  am  
  4   3   5  1   
  5   3  18  1   
  6   4   6  1   
  7   4  19  1   
  8   5   6  ar  
  9   5   7  ar  
 10   6   8  ar  
 11   7   9  ar  
 12   7  20  1   
 13   8  10  ar  
 14   8  21  1   
 15   9  10  ar  
 16   9  11  1   
 17  10  22  1   
 18  11  12  am  
 19  11  23  1   
 20  12  13  2   
 21  12  14  1   
 22  14  15  1   
 23  14  16  1   
 24  14  17  1   
 25  15  24  1   
 26  15  25  1   
 27  15  26  1   
 28  16  27  1   
 29  16  28  1   
 30  16  29  1   
 31  17  30  1   
 32  17  31  1   
 33  17  32  1   
@<TRIPOS>SUBSTRUCTURE
  1 ****   9 GROUP 4 **** **** 0

# MOE 2024.06 (io_trps.svl 2023.06)
