@<TRIPOS>MOLECULE
NONAME
29 29 1 0 0 
SMALL
USER_CHARGES


@<TRIPOS>ATOM
  1 S        0.0550     0.6290     1.5900 S.o2  1 <1>   1.4970 
  2 O       -0.0200     1.9900     2.0810 O.2   1 <1>  -0.6500 
  3 O        0.4370    -0.4240     2.5100 O.2   1 <1>  -0.6500 
  4 N        1.1440     0.6090     0.3220 N.2   1 <1>  -0.6380 
  5 C       -1.5120     0.1890     0.7830 C.ar  1 <1>  -0.0090 
  6 C        2.3260     0.8900     0.6460 C.2   1 <1>   0.4400 
  7 C       -1.9090    -1.1380     0.6560 C.ar  1 <1>  -0.1500 
  8 C       -2.3440     1.1650     0.2470 C.ar  1 <1>  -0.1500 
  9 N        3.3770     0.9310    -0.2420 N.pl3 1 <1>  -0.7880 
 10 C       -3.0940    -1.4780     0.0270 C.ar  1 <1>  -0.1500 
 11 C       -3.5310     0.8320    -0.3840 C.ar  1 <1>  -0.1500 
 12 C        3.2220     0.6440    -1.6960 C.3   1 <1>   0.1290 
 13 C        4.7490     1.2710     0.2120 C.3   1 <1>   0.1290 
 14 C       -3.9130    -0.4930    -0.4980 C.ar  1 <1>  -0.1430 
 15 C       -5.2140    -0.8610    -1.1870 C.3   1 <1>  -0.0970 
 16 H        2.5750     1.1190     1.6710 H     1 <1>   0.0600 
 17 H       -1.2820    -1.9160     1.0580 H     1 <1>   0.1500 
 18 H       -2.0600     2.2010     0.3250 H     1 <1>   0.1500 
 19 H       -3.3750    -2.5140    -0.0510 H     1 <1>   0.1500 
 20 H       -4.1550     1.6120    -0.7850 H     1 <1>   0.1500 
 21 H        3.5180     1.5050    -2.2700 H     1 <1>   0.0800 
 22 H        2.2000     0.4080    -1.9380 H     1 <1>   0.0800 
 23 H        3.8400    -0.1940    -1.9690 H     1 <1>   0.0800 
 24 H        5.4160     0.4530     0.0010 H     1 <1>   0.0800 
 25 H        4.7590     1.4610     1.2720 H     1 <1>   0.0800 
 26 H        5.0950     2.1520    -0.3010 H     1 <1>   0.0800 
 27 H       -5.1350    -1.8290    -1.6480 H     1 <1>   0.0800 
 28 H       -5.4540    -0.1420    -1.9490 H     1 <1>   0.0800 
 29 H       -6.0130    -0.8840    -0.4670 H     1 <1>   0.0800 
@<TRIPOS>BOND
  1   1   2  2   
  2   1   3  2   
  3   1   4  1   
  4   1   5  1   
  5   4   6  2   
  6   5   7  ar  
  7   5   8  ar  
  8   6   9  1   
  9   6  16  1   
 10   7  10  ar  
 11   7  17  1   
 12   8  11  ar  
 13   8  18  1   
 14   9  12  1   
 15   9  13  1   
 16  10  14  ar  
 17  10  19  1   
 18  11  14  ar  
 19  11  20  1   
 20  12  21  1   
 21  12  22  1   
 22  12  23  1   
 23  13  24  1   
 24  13  25  1   
 25  13  26  1   
 26  14  15  1   
 27  15  27  1   
 28  15  28  1   
 29  15  29  1   
@<TRIPOS>SUBSTRUCTURE
  1 ****   5 GROUP 4 **** **** 0

# MOE 2024.06 (io_trps.svl 2023.06)
