@<TRIPOS>MOLECULE
NONAME
48 50 1 0 0 
SMALL
USER_CHARGES


@<TRIPOS>ATOM
  1 CL       0.3700    -0.2570    -0.0770 Cl    1 <1>  -0.1770 
  2 C        1.8340    -1.1710     0.2010 C.ar  1 <1>   0.1770 
  3 C        1.8050    -2.2550     1.0580 C.ar  1 <1>  -0.1500 
  4 C        3.0000    -0.7960    -0.4390 C.ar  1 <1>  -0.1500 
  5 C        2.9670    -2.9740     1.2740 C.ar  1 <1>  -0.1500 
  6 C        4.1570    -1.5230    -0.2180 C.ar  1 <1>  -0.1500 
  7 C        4.1540    -2.6210     0.6400 C.ar  1 <1>   0.1000 
  8 N        5.3050    -3.3720     0.8720 N.pl3 1 <1>  -0.8380 
  9 C        5.3470    -4.7910     0.4110 C.3   1 <1>   0.2090 
 10 C        6.6190    -2.7080     1.1370 C.3   1 <1>   0.2090 
 11 C        6.3680    -4.9800    -0.7320 C.3   1 <1>   0.3430 
 12 C        7.6180    -2.9500    -0.0150 C.3   1 <1>   0.3430 
 13 N        7.7220    -4.4080    -0.4000 N.4   1 <1>  -0.9590 
 14 C        8.7040    -4.6220    -1.4980 C.3   1 <1>   0.4860 
 15 C       10.0650    -4.1540    -1.0220 C.ar  1 <1>  -0.1430 
 16 C       10.7100    -4.8240     0.0050 C.ar  1 <1>  -0.1500 
 17 C       10.6750    -3.0510    -1.5950 C.ar  1 <1>  -0.1500 
 18 C       11.9380    -4.4010     0.4840 C.ar  1 <1>   0.0830 
 19 C       11.9040    -2.6150    -1.1320 C.ar  1 <1>  -0.1500 
 20 O       12.4200    -5.1690     1.5030 O.3   1 <1>  -0.3630 
 21 C       12.5520    -3.2720    -0.0870 C.ar  1 <1>   0.0830 
 22 C       13.7770    -5.1640     1.8900 C.3   1 <1>   0.0400 
 23 O       13.7510    -2.8270     0.3880 O.3   1 <1>  -0.3630 
 24 C       14.4660    -1.7710    -0.2170 C.3   1 <1>   0.0400 
 25 H        0.8860    -2.5240     1.5480 H     1 <1>   0.1500 
 26 H        2.9930     0.0520    -1.1000 H     1 <1>   0.1500 
 27 H        2.9600    -3.8130     1.9460 H     1 <1>   0.1500 
 28 H        5.0600    -1.2340    -0.7190 H     1 <1>   0.1500 
 29 H        4.3710    -5.0890     0.0650 H     1 <1>   0.0800 
 30 H        5.6060    -5.4240     1.2420 H     1 <1>   0.0800 
 31 H        7.0270    -3.0950     2.0540 H     1 <1>   0.0800 
 32 H        6.4730    -1.6500     1.2740 H     1 <1>   0.0800 
 33 H        5.9760    -4.4920    -1.6090 H     1 <1>   0.0800 
 34 H        6.4550    -6.0320    -0.9500 H     1 <1>   0.0800 
 35 H        8.5850    -2.5780     0.2830 H     1 <1>   0.0800 
 36 H        7.2930    -2.3760    -0.8660 H     1 <1>   0.0800 
 37 H        8.0880    -4.8980     0.4250 H     1 <1>   0.4500 
 38 H        8.4100    -4.0700    -2.3760 H     1 <1>   0.0800 
 39 H        8.7570    -5.6690    -1.7520 H     1 <1>   0.0800 
 40 H       10.2760    -5.6970     0.4590 H     1 <1>   0.1500 
 41 H       10.2080    -2.5150    -2.4050 H     1 <1>   0.1500 
 42 H       12.3420    -1.7540    -1.6010 H     1 <1>   0.1500 
 43 H       13.9420    -5.9940     2.5520 H     1 <1>   0.0800 
 44 H       13.9900    -4.2430     2.4030 H     1 <1>   0.0800 
 45 H       14.3930    -5.2650     1.0140 H     1 <1>   0.0800 
 46 H       15.3950    -1.6510     0.3130 H     1 <1>   0.0800 
 47 H       13.8890    -0.8670    -0.1420 H     1 <1>   0.0800 
 48 H       14.6640    -2.0230    -1.2430 H     1 <1>   0.0800 
@<TRIPOS>BOND
  1   1   2  1   
  2   2   3  ar  
  3   2   4  ar  
  4   3   5  ar  
  5   3  25  1   
  6   4   6  ar  
  7   4  26  1   
  8   5   7  ar  
  9   5  27  1   
 10   6   7  ar  
 11   6  28  1   
 12   7   8  1   
 13   8   9  1   
 14   8  10  1   
 15   9  11  1   
 16   9  29  1   
 17   9  30  1   
 18  10  12  1   
 19  10  31  1   
 20  10  32  1   
 21  11  13  1   
 22  11  33  1   
 23  11  34  1   
 24  12  13  1   
 25  12  35  1   
 26  12  36  1   
 27  13  14  1   
 28  13  37  1   
 29  14  15  1   
 30  14  38  1   
 31  14  39  1   
 32  15  16  ar  
 33  15  17  ar  
 34  16  18  ar  
 35  16  40  1   
 36  17  19  ar  
 37  17  41  1   
 38  18  20  1   
 39  18  21  ar  
 40  19  21  ar  
 41  19  42  1   
 42  20  22  1   
 43  21  23  1   
 44  22  43  1   
 45  22  44  1   
 46  22  45  1   
 47  23  24  1   
 48  24  46  1   
 49  24  47  1   
 50  24  48  1   
@<TRIPOS>SUBSTRUCTURE
  1 ****  12 GROUP 4 **** **** 0

# MOE 2024.06 (io_trps.svl 2023.06)
