@<TRIPOS>MOLECULE
NONAME
50 51 1 0 0 
SMALL
USER_CHARGES


@<TRIPOS>ATOM
  1 S       -0.0880     0.0500    -1.1880 S.o2  1 <1>   1.4470 
  2 O        0.6890    -0.6630    -2.1810 O.2   1 <1>  -0.6500 
  3 O       -0.7720     1.2520    -1.6180 O.2   1 <1>  -0.6500 
  4 N        0.9740     0.5020     0.0590 N.am  1 <1>  -0.8490 
  5 C       -1.1870    -1.1600    -0.3970 C.ar  1 <1>  -0.0090 
  6 C        2.2620     0.9780    -0.4520 C.3   1 <1>   0.1960 
  7 C        0.3640     1.4450     0.9960 C.3   1 <1>   0.1960 
  8 C       -2.4130    -0.8160     0.1670 C.ar  1 <1>   0.0820 
  9 C       -0.8000    -2.4920    -0.3180 C.ar  1 <1>  -0.1500 
 10 C        3.2860    -0.1420    -0.3040 C.3   1 <1>  -0.2400 
 11 C        1.0730     1.3710     2.3470 C.3   1 <1>  -0.2400 
 12 O       -2.8430     0.4560     0.1740 O.3   1 <1>  -0.3620 
 13 C       -3.2110    -1.7730     0.7750 C.ar  1 <1>  -0.1500 
 14 C       -1.5820    -3.4840     0.2740 C.ar  1 <1>   0.0860 
 15 C       -3.8100     0.8210    -0.7850 C.3   1 <1>   0.0400 
 16 C       -2.8010    -3.0900     0.8280 C.ar  1 <1>  -0.1500 
 17 C       -1.1340    -4.8620     0.3110 C.2   1 <1>   0.5440 
 18 O        0.0420    -5.1110     0.4800 O.2   1 <1>  -0.5700 
 19 N       -2.0520    -5.8750     0.1490 N.am  1 <1>  -0.5470 
 20 C       -1.9210    -7.2730     0.1540 C.ar  1 <1>   0.1170 
 21 C       -0.7220    -7.9350    -0.0910 C.ar  1 <1>  -0.1500 
 22 C       -3.0540    -8.0430     0.3970 C.ar  1 <1>  -0.1500 
 23 C       -0.6570    -9.3170    -0.0860 C.ar  1 <1>  -0.1500 
 24 C       -2.9920    -9.4250     0.4020 C.ar  1 <1>  -0.1500 
 25 C       -1.7910   -10.0720     0.1630 C.ar  1 <1>  -0.1440 
 26 C       -1.7180   -11.5880     0.1670 C.3   1 <1>  -0.0970 
 27 H        2.6060     1.8340     0.1030 H     1 <1>   0.0800 
 28 H        2.1810     1.2770    -1.4850 H     1 <1>   0.0800 
 29 H       -0.6680     1.1860     1.1560 H     1 <1>   0.0800 
 30 H        0.3920     2.4450     0.5940 H     1 <1>   0.0800 
 31 H        0.1530    -2.7810    -0.7330 H     1 <1>   0.1500 
 32 H        3.3750    -0.4290     0.7280 H     1 <1>   0.0800 
 33 H        4.2450     0.1940    -0.6530 H     1 <1>   0.0800 
 34 H        2.9940    -0.9970    -0.8860 H     1 <1>   0.0800 
 35 H        1.0490     0.3620     2.7170 H     1 <1>   0.0800 
 36 H        0.5670     2.0040     3.0510 H     1 <1>   0.0800 
 37 H        2.0940     1.6980     2.2730 H     1 <1>   0.0800 
 38 H       -4.1460    -1.4760     1.2160 H     1 <1>   0.1500 
 39 H       -4.0180     1.8690    -0.6700 H     1 <1>   0.0800 
 40 H       -4.7040     0.2460    -0.6230 H     1 <1>   0.0800 
 41 H       -3.4140     0.6350    -1.7680 H     1 <1>   0.0800 
 42 H       -3.4260    -3.8150     1.3190 H     1 <1>   0.1500 
 43 H       -3.0040    -5.5540    -0.0050 H     1 <1>   0.3700 
 44 H        0.1720    -7.3750    -0.2940 H     1 <1>   0.1500 
 45 H       -3.9950    -7.5620     0.5890 H     1 <1>   0.1500 
 46 H        0.2840    -9.8010    -0.2770 H     1 <1>   0.1500 
 47 H       -3.8830    -9.9970     0.5940 H     1 <1>   0.1500 
 48 H       -0.7510   -11.9150     0.5040 H     1 <1>   0.0800 
 49 H       -1.8850   -11.9630    -0.8260 H     1 <1>   0.0800 
 50 H       -2.4620   -11.9990     0.8250 H     1 <1>   0.0800 
@<TRIPOS>BOND
  1   1   2  2   
  2   1   3  2   
  3   1   4  am  
  4   1   5  1   
  5   4   6  1   
  6   4   7  1   
  7   5   8  ar  
  8   5   9  ar  
  9   6  10  1   
 10   6  27  1   
 11   6  28  1   
 12   7  11  1   
 13   7  29  1   
 14   7  30  1   
 15   8  12  1   
 16   8  13  ar  
 17   9  14  ar  
 18   9  31  1   
 19  10  32  1   
 20  10  33  1   
 21  10  34  1   
 22  11  35  1   
 23  11  36  1   
 24  11  37  1   
 25  12  15  1   
 26  13  16  ar  
 27  13  38  1   
 28  14  16  ar  
 29  14  17  1   
 30  15  39  1   
 31  15  40  1   
 32  15  41  1   
 33  16  42  1   
 34  17  18  2   
 35  17  19  am  
 36  19  20  1   
 37  19  43  1   
 38  20  21  ar  
 39  20  22  ar  
 40  21  23  ar  
 41  21  44  1   
 42  22  24  ar  
 43  22  45  1   
 44  23  25  ar  
 45  23  46  1   
 46  24  25  ar  
 47  24  47  1   
 48  25  26  1   
 49  26  48  1   
 50  26  49  1   
 51  26  50  1   
@<TRIPOS>SUBSTRUCTURE
  1 ****  14 GROUP 4 **** **** 0

# MOE 2024.06 (io_trps.svl 2023.06)
