@<TRIPOS>MOLECULE
NONAME
34 35 1 0 0 
SMALL
USER_CHARGES


@<TRIPOS>ATOM
  1 O       -0.4030     0.9130     0.6780 O.3   1 <1>  -0.6860 
  2 C       -1.6180     0.3470     0.3610 C.3   1 <1>   0.1090 
  3 C       -2.6050     1.4930     0.1470 C.3   1 <1>  -0.1710 
  4 C       -3.9910     0.9700    -0.2140 C.3   1 <1>   0.1570 
  5 N       -4.8870     2.1280    -0.4010 N.pl3 1 <1>  -0.7200 
  6 C       -6.2110     2.2170    -0.3150 C.cat 1 <1>   1.0680 
  7 N       -6.8270     3.3900    -0.3540 N.pl3 1 <1>  -0.7050 
  8 N       -7.1070     1.2270    -0.1780 N.pl3 1 <1>  -0.7690 
  9 C       -8.1840     3.1820    -0.2180 C.ar  1 <1>   0.3000 
 10 C       -8.3670     1.8180    -0.1010 C.ar  1 <1>   0.3000 
 11 C       -6.9060    -0.2450    -0.1750 C.3   1 <1>   0.2640 
 12 C       -9.2570     4.0630    -0.1840 C.ar  1 <1>  -0.1200 
 13 C       -9.6470     1.2970     0.0590 C.ar  1 <1>  -0.1200 
 14 C      -10.5300     3.5480    -0.0270 C.ar  1 <1>  -0.1540 
 15 C      -10.7180     2.1690     0.0940 C.ar  1 <1>  -0.1610 
 16 C      -11.7410     4.4640     0.0170 C.3   1 <1>  -0.1080 
 17 H        0.2770     0.2270     0.8270 H     1 <1>   0.3920 
 18 H       -1.9200    -0.2860     1.1780 H     1 <1>   0.0690 
 19 H       -1.4950    -0.2390    -0.5350 H     1 <1>   0.0690 
 20 H       -2.2340     2.1150    -0.6490 H     1 <1>   0.0690 
 21 H       -2.6620     2.0670     1.0560 H     1 <1>   0.0690 
 22 H       -4.3560     0.3420     0.5820 H     1 <1>   0.0690 
 23 H       -3.9400     0.3990    -1.1270 H     1 <1>   0.0690 
 24 H       -4.3680     2.9910    -0.5540 H     1 <1>   0.4420 
 25 H       -6.3900     4.3030    -0.4420 H     1 <1>   0.4420 
 26 H       -6.1440    -0.5210    -0.8820 H     1 <1>   0.0690 
 27 H       -7.8150    -0.7470    -0.4580 H     1 <1>   0.0690 
 28 H       -6.6210    -0.5730     0.8090 H     1 <1>   0.0690 
 29 H       -9.0910     5.1210    -0.2770 H     1 <1>   0.1390 
 30 H       -9.8030     0.2390     0.1550 H     1 <1>   0.1390 
 31 H      -11.7170     1.7830     0.2160 H     1 <1>   0.1390 
 32 H      -11.4530     5.4950    -0.0880 H     1 <1>   0.0690 
 33 H      -12.2560     4.3490     0.9540 H     1 <1>   0.0690 
 34 H      -12.4180     4.2170    -0.7820 H     1 <1>   0.0690 
@<TRIPOS>BOND
  1   1   2  1   
  2   1  17  1   
  3   2   3  1   
  4   2  18  1   
  5   2  19  1   
  6   3   4  1   
  7   3  20  1   
  8   3  21  1   
  9   4   5  1   
 10   4  22  1   
 11   4  23  1   
 12   5   6  ar  
 13   5  24  1   
 14   6   7  ar  
 15   6   8  ar  
 16   7   9  1   
 17   7  25  1   
 18   8  10  1   
 19   8  11  1   
 20   9  10  ar  
 21   9  12  ar  
 22  10  13  ar  
 23  11  26  1   
 24  11  27  1   
 25  11  28  1   
 26  12  14  ar  
 27  12  29  1   
 28  13  15  ar  
 29  13  30  1   
 30  14  15  ar  
 31  14  16  1   
 32  15  31  1   
 33  16  32  1   
 34  16  33  1   
 35  16  34  1   
@<TRIPOS>SUBSTRUCTURE
  1 ****   6 GROUP 4 **** **** 0

# MOE 2024.06 (io_trps.svl 2023.06)
