@<TRIPOS>MOLECULE
NONAME
36 38 1 0 0 
SMALL
USER_CHARGES


@<TRIPOS>ATOM
  1 F       -0.7880     0.3570    -1.0590 F     1 <1>  -0.1900 
  2 C       -0.9040     1.5610    -0.5680 C.ar  1 <1>   0.1900 
  3 C       -2.1780     2.1220    -0.4380 C.ar  1 <1>   0.0280 
  4 C        0.2580     2.2120    -0.1990 C.ar  1 <1>  -0.1500 
  5 C       -2.2210     3.4170     0.0840 C.ar  1 <1>  -0.1500 
  6 C       -3.3590     1.4080    -0.8440 C.2   1 <1>  -0.1780 
  7 C        0.1730     3.4890     0.3250 C.ar  1 <1>  -0.1500 
  8 C       -1.0700     4.0860     0.4630 C.ar  1 <1>  -0.1500 
  9 C       -4.6080     1.3800    -0.3070 C.2   1 <1>   0.1850 
 10 N       -5.6170     0.6380    -0.8840 N.2   1 <1>  -0.6210 
 11 C       -5.1950     1.9900     0.8540 C.2   1 <1>   0.7060 
 12 C       -6.6340     0.8150    -0.1450 C.2   1 <1>   0.5390 
 13 O       -4.7350     2.7230     1.7040 O.2   1 <1>  -0.5700 
 14 O       -6.4550     1.6100     0.9050 O.3   1 <1>  -0.3000 
 15 C       -8.0170     0.2070    -0.3510 C.3   1 <1>  -0.0190 
 16 C       -9.0830     1.2960    -0.5760 C.3   1 <1>  -0.1600 
 17 C       -8.4090    -0.7070     0.8270 C.3   1 <1>  -0.1600 
 18 C      -10.4760     0.6840    -0.7780 C.3   1 <1>  -0.1600 
 19 C       -9.8030    -1.3160     0.6240 C.3   1 <1>  -0.1600 
 20 C      -10.8580    -0.2260     0.3980 C.3   1 <1>  -0.1600 
 21 H        1.2090     1.7250    -0.3200 H     1 <1>   0.1500 
 22 H       -3.1660     3.9180     0.1920 H     1 <1>   0.1500 
 23 H       -3.2020     0.7900    -1.7110 H     1 <1>   0.1500 
 24 H        1.0630     4.0150     0.6230 H     1 <1>   0.1500 
 25 H       -1.1410     5.0810     0.8690 H     1 <1>   0.1500 
 26 H       -7.9680    -0.3990    -1.2390 H     1 <1>   0.0800 
 27 H       -9.1110     1.9560     0.2750 H     1 <1>   0.0800 
 28 H       -8.8230     1.8820    -1.4400 H     1 <1>   0.0800 
 29 H       -7.6860    -1.4970     0.9270 H     1 <1>   0.0800 
 30 H       -8.4060    -0.1380     1.7420 H     1 <1>   0.0800 
 31 H      -11.2050     1.4700    -0.8750 H     1 <1>   0.0800 
 32 H      -10.4870     0.1100    -1.6890 H     1 <1>   0.0800 
 33 H       -9.7850    -1.9760    -0.2280 H     1 <1>   0.0800 
 34 H      -10.0710    -1.9020     1.4870 H     1 <1>   0.0800 
 35 H      -11.8130    -0.6830     0.2030 H     1 <1>   0.0800 
 36 H      -10.9540     0.3680     1.2910 H     1 <1>   0.0800 
@<TRIPOS>BOND
  1   1   2  1   
  2   2   3  ar  
  3   2   4  ar  
  4   3   5  ar  
  5   3   6  1   
  6   4   7  ar  
  7   4  21  1   
  8   5   8  ar  
  9   5  22  1   
 10   6   9  2   
 11   6  23  1   
 12   7   8  ar  
 13   7  24  1   
 14   8  25  1   
 15   9  10  1   
 16   9  11  1   
 17  10  12  2   
 18  11  13  2   
 19  11  14  1   
 20  12  14  1   
 21  12  15  1   
 22  15  16  1   
 23  15  17  1   
 24  15  26  1   
 25  16  18  1   
 26  16  27  1   
 27  16  28  1   
 28  17  19  1   
 29  17  29  1   
 30  17  30  1   
 31  18  20  1   
 32  18  31  1   
 33  18  32  1   
 34  19  20  1   
 35  19  33  1   
 36  19  34  1   
 37  20  35  1   
 38  20  36  1   
@<TRIPOS>SUBSTRUCTURE
  1 ****   9 GROUP 4 **** **** 0

# MOE 2024.06 (io_trps.svl 2023.06)
