@<TRIPOS>MOLECULE
NONAME
55 58 1 0 0 
SMALL
USER_CHARGES


@<TRIPOS>ATOM
  1 O        1.1760    -1.6790    -0.2430 O.3   1 <1>  -0.3630 
  2 C        2.3860    -1.2540    -0.6200 C.ar  1 <1>   0.0820 
  3 C        0.6930    -2.5160    -1.2930 C.3   1 <1>   0.4000 
  4 C        2.7080    -1.7740    -1.8390 C.ar  1 <1>   0.0820 
  5 C        3.2480    -0.4190     0.0610 C.ar  1 <1>  -0.1500 
  6 O        1.7160    -2.5500    -2.2860 O.3   1 <1>  -0.3630 
  7 C        3.9130    -1.4880    -2.4480 C.ar  1 <1>  -0.1500 
  8 C        4.4740    -0.1210    -0.5260 C.ar  1 <1>  -0.1440 
  9 C        4.7970    -0.6530    -1.7750 C.ar  1 <1>  -0.1500 
 10 C        5.4710     0.7720     0.1960 C.3   1 <1>   0.2540 
 11 N        6.6450    -0.0180     0.6130 N.3   1 <1>  -0.8100 
 12 C        7.7190     0.8370     1.1710 C.3   1 <1>   0.1100 
 13 C        6.2870    -1.1010     1.5660 C.3   1 <1>   0.1100 
 14 C        8.9710     0.0160     1.5700 C.3   1 <1>   0.3430 
 15 C        7.5160    -1.9380     1.9970 C.3   1 <1>   0.3430 
 16 N        8.7580    -1.4490     1.3210 N.4   1 <1>  -0.9590 
 17 C        9.9580    -2.2910     1.5540 C.3   1 <1>   0.4860 
 18 C       11.0910    -1.7670     0.6960 C.ar  1 <1>  -0.1430 
 19 C       11.0660    -1.9310    -0.6810 C.ar  1 <1>  -0.1500 
 20 C       12.1610    -1.1050     1.2800 C.ar  1 <1>  -0.1500 
 21 C       12.0920    -1.4290    -1.4620 C.ar  1 <1>  -0.1500 
 22 C       13.1840    -0.6060     0.4950 C.ar  1 <1>  -0.1500 
 23 C       13.1590    -0.7600    -0.8830 C.ar  1 <1>  -0.1430 
 24 C       14.2830    -0.2140    -1.7620 C.3   1 <1>   0.0630 
 25 C       15.6220    -0.8710    -1.4110 C.3   1 <1>  -0.2400 
 26 C       14.3780     1.3100    -1.6450 C.3   1 <1>  -0.2400 
 27 H       -0.2020    -2.0910    -1.7110 H     1 <1>   0.0800 
 28 H        0.5250    -3.5090    -0.9150 H     1 <1>   0.0800 
 29 H        2.9580    -0.0250     1.0180 H     1 <1>   0.1500 
 30 H        4.1470    -1.9040    -3.4110 H     1 <1>   0.1500 
 31 H        5.7460    -0.4170    -2.2240 H     1 <1>   0.1500 
 32 H        5.0080     1.2330     1.0520 H     1 <1>   0.0800 
 33 H        5.7820     1.5530    -0.4780 H     1 <1>   0.0800 
 34 H        7.3550     1.3680     2.0340 H     1 <1>   0.0800 
 35 H        8.0090     1.5710     0.4380 H     1 <1>   0.0800 
 36 H        5.5760    -1.7680     1.1080 H     1 <1>   0.0800 
 37 H        5.8170    -0.6830     2.4400 H     1 <1>   0.0800 
 38 H        9.1950     0.1880     2.6090 H     1 <1>   0.0800 
 39 H        9.8110     0.3670     0.9920 H     1 <1>   0.0800 
 40 H        7.3380    -2.9700     1.7420 H     1 <1>   0.0800 
 41 H        7.6280    -1.8780     3.0670 H     1 <1>   0.0800 
 42 H        8.5280    -1.4770     0.3160 H     1 <1>   0.4500 
 43 H        9.7520    -3.3140     1.2850 H     1 <1>   0.0800 
 44 H       10.2400    -2.2580     2.5930 H     1 <1>   0.0800 
 45 H       10.2550    -2.4500    -1.1640 H     1 <1>   0.1500 
 46 H       12.2150    -0.9710     2.3470 H     1 <1>   0.1500 
 47 H       12.0570    -1.5650    -2.5290 H     1 <1>   0.1500 
 48 H       14.0080    -0.0950     0.9630 H     1 <1>   0.1500 
 49 H       14.0650    -0.4490    -2.7910 H     1 <1>   0.0800 
 50 H       15.9210    -0.6260    -0.4080 H     1 <1>   0.0800 
 51 H       16.3880    -0.5380    -2.0880 H     1 <1>   0.0800 
 52 H       15.5370    -1.9400    -1.4920 H     1 <1>   0.0800 
 53 H       14.6450     1.6030    -0.6460 H     1 <1>   0.0800 
 54 H       13.4320     1.7570    -1.8940 H     1 <1>   0.0800 
 55 H       15.1230     1.6890    -2.3230 H     1 <1>   0.0800 
@<TRIPOS>BOND
  1   1   2  1   
  2   1   3  1   
  3   2   4  ar  
  4   2   5  ar  
  5   3   6  1   
  6   3  27  1   
  7   3  28  1   
  8   4   6  1   
  9   4   7  ar  
 10   5   8  ar  
 11   5  29  1   
 12   7   9  ar  
 13   7  30  1   
 14   8   9  ar  
 15   8  10  1   
 16   9  31  1   
 17  10  11  1   
 18  10  32  1   
 19  10  33  1   
 20  11  12  1   
 21  11  13  1   
 22  12  14  1   
 23  12  34  1   
 24  12  35  1   
 25  13  15  1   
 26  13  36  1   
 27  13  37  1   
 28  14  16  1   
 29  14  38  1   
 30  14  39  1   
 31  15  16  1   
 32  15  40  1   
 33  15  41  1   
 34  16  17  1   
 35  16  42  1   
 36  17  18  1   
 37  17  43  1   
 38  17  44  1   
 39  18  19  ar  
 40  18  20  ar  
 41  19  21  ar  
 42  19  45  1   
 43  20  22  ar  
 44  20  46  1   
 45  21  23  ar  
 46  21  47  1   
 47  22  23  ar  
 48  22  48  1   
 49  23  24  1   
 50  24  25  1   
 51  24  26  1   
 52  24  49  1   
 53  25  50  1   
 54  25  51  1   
 55  25  52  1   
 56  26  53  1   
 57  26  54  1   
 58  26  55  1   
@<TRIPOS>SUBSTRUCTURE
  1 ****  11 GROUP 4 **** **** 0

# MOE 2024.06 (io_trps.svl 2023.06)
