@<TRIPOS>MOLECULE
NONAME
50 52 1 0 0 
SMALL
USER_CHARGES


@<TRIPOS>ATOM
  1 O       -4.9800     1.5610    -0.9580 O.2   1 <1>  -0.5700 
  2 C       -5.8860     1.2080    -0.2430 C.2   1 <1>   0.6590 
  3 O       -5.7930     0.0690     0.4400 O.3   1 <1>  -0.4300 
  4 C       -7.1770     2.0250    -0.0480 C.3   1 <1>   0.0610 
  5 C       -4.7530    -0.8860     0.2860 C.3   1 <1>   0.1200 
  6 C       -8.4070     1.1910    -0.4850 C.3   1 <1>  -0.1600 
  7 C       -7.1550     3.3290    -0.8870 C.3   1 <1>  -0.1600 
  8 C       -7.3480     2.4120     1.4420 C.3   1 <1>  -0.1600 
  9 C       -3.4760    -0.4660     1.0410 C.3   1 <1>   0.3430 
 10 C       -9.7160     1.9810    -0.2840 C.3   1 <1>   0.0000 
 11 C       -8.4490     4.1430    -0.6920 C.3   1 <1>   0.0000 
 12 C       -8.6460     3.2120     1.6510 C.3   1 <1>  -0.0800 
 13 N       -2.7490     0.6600     0.3710 N.4   1 <1>  -0.9590 
 14 C       -9.6500     3.2750    -1.1200 C.3   1 <1>  -0.1600 
 15 C       -9.8460     2.3570     1.2060 C.3   1 <1>  -0.1600 
 16 C      -10.9170     1.1330    -0.7200 C.3   1 <1>  -0.2400 
 17 C       -8.5940     4.4940     0.8020 C.3   1 <1>  -0.1600 
 18 C       -8.3980     5.4250    -1.5330 C.3   1 <1>  -0.2400 
 19 C       -1.9160     0.1980    -0.7790 C.3   1 <1>   0.2630 
 20 C       -1.9450     1.4640     1.3380 C.3   1 <1>   0.2630 
 21 H       -4.5660    -1.0360    -0.7630 H     1 <1>   0.0800 
 22 H       -5.1200    -1.8090     0.6990 H     1 <1>   0.0800 
 23 H       -8.4520     0.2810     0.0870 H     1 <1>   0.0800 
 24 H       -8.3070     0.9190    -1.5220 H     1 <1>   0.0800 
 25 H       -7.0400     3.0840    -1.9300 H     1 <1>   0.0800 
 26 H       -6.3080     3.9280    -0.6020 H     1 <1>   0.0800 
 27 H       -7.3810     1.5260     2.0520 H     1 <1>   0.0800 
 28 H       -6.5090     3.0020     1.7650 H     1 <1>   0.0800 
 29 H       -2.8160    -1.3150     1.1190 H     1 <1>   0.0800 
 30 H       -3.7590    -0.1810     2.0410 H     1 <1>   0.0800 
 31 H       -8.7520     3.4710     2.6910 H     1 <1>   0.0800 
 32 H       -3.4840     1.2780    -0.0400 H     1 <1>   0.4500 
 33 H      -10.5610     3.8340    -0.9920 H     1 <1>   0.0800 
 34 H       -9.5650     3.0290    -2.1640 H     1 <1>   0.0800 
 35 H       -9.8980     1.4670     1.8080 H     1 <1>   0.0800 
 36 H      -10.7560     2.9090     1.3650 H     1 <1>   0.0800 
 37 H      -10.8330     0.8660    -1.7580 H     1 <1>   0.0800 
 38 H      -11.8330     1.6800    -0.5830 H     1 <1>   0.0800 
 39 H      -10.9710     0.2290    -0.1400 H     1 <1>   0.0800 
 40 H       -9.4950     5.0630     0.9570 H     1 <1>   0.0800 
 41 H       -7.7670     5.1060     1.1190 H     1 <1>   0.0800 
 42 H       -8.2980     5.1870    -2.5770 H     1 <1>   0.0800 
 43 H       -7.5620     6.0350    -1.2400 H     1 <1>   0.0800 
 44 H       -9.2990     5.9970    -1.4000 H     1 <1>   0.0800 
 45 H       -1.1440    -0.4740    -0.4420 H     1 <1>   0.0800 
 46 H       -1.4520     1.0430    -1.2640 H     1 <1>   0.0800 
 47 H       -2.5300    -0.3110    -1.5050 H     1 <1>   0.0800 
 48 H       -1.1700     0.8570     1.7780 H     1 <1>   0.0800 
 49 H       -2.5780     1.8430     2.1240 H     1 <1>   0.0800 
 50 H       -1.4870     2.3000     0.8360 H     1 <1>   0.0800 
@<TRIPOS>BOND
  1   1   2  2   
  2   2   3  1   
  3   2   4  1   
  4   3   5  1   
  5   4   6  1   
  6   4   7  1   
  7   4   8  1   
  8   5   9  1   
  9   5  21  1   
 10   5  22  1   
 11   6  10  1   
 12   6  23  1   
 13   6  24  1   
 14   7  11  1   
 15   7  25  1   
 16   7  26  1   
 17   8  12  1   
 18   8  27  1   
 19   8  28  1   
 20   9  13  1   
 21   9  29  1   
 22   9  30  1   
 23  10  14  1   
 24  10  15  1   
 25  10  16  1   
 26  11  14  1   
 27  11  17  1   
 28  11  18  1   
 29  12  15  1   
 30  12  17  1   
 31  12  31  1   
 32  13  19  1   
 33  13  20  1   
 34  13  32  1   
 35  14  33  1   
 36  14  34  1   
 37  15  35  1   
 38  15  36  1   
 39  16  37  1   
 40  16  38  1   
 41  16  39  1   
 42  17  40  1   
 43  17  41  1   
 44  18  42  1   
 45  18  43  1   
 46  18  44  1   
 47  19  45  1   
 48  19  46  1   
 49  19  47  1   
 50  20  48  1   
 51  20  49  1   
 52  20  50  1   
@<TRIPOS>SUBSTRUCTURE
  1 ****   4 GROUP 4 **** **** 0

# MOE 2024.06 (io_trps.svl 2023.06)
