@<TRIPOS>MOLECULE
NONAME
58 61 1 0 0 
SMALL
USER_CHARGES


@<TRIPOS>ATOM
  1 O       -0.5680    -0.4450    -0.9560 O.2   1 <1>  -0.5700 
  2 C       -1.1820    -1.4660    -0.7220 C.2   1 <1>   0.6900 
  3 N       -0.5430    -2.5370    -0.1060 N.am  1 <1>  -0.4200 
  4 N       -2.5240    -1.5570    -1.0610 N.am  1 <1>  -0.4360 
  5 C       -1.2400    -3.6850     0.2470 C.2   1 <1>   0.7030 
  6 C        0.9130    -2.4190     0.2190 C.3   1 <1>   0.0600 
  7 C       -3.2070    -2.7040    -0.7050 C.2   1 <1>   0.4260 
  8 C       -3.2150    -0.4330    -1.7590 C.3   1 <1>   0.0600 
  9 O       -0.6770    -4.5990     0.8250 O.2   1 <1>  -0.5700 
 10 C       -2.6370    -3.7590    -0.0760 C.2   1 <1>   0.2770 
 11 N       -4.5190    -2.9830    -0.8920 N.pl3 1 <1>  -0.7000 
 12 N       -3.6520    -4.7070     0.1160 N.pl3 1 <1>  -0.7640 
 13 C       -4.7660    -4.1880    -0.3920 C.cat 1 <1>   0.6560 
 14 C       -3.4380    -6.0260     0.7700 C.3   1 <1>   0.3540 
 15 C       -6.1730    -4.8070    -0.4340 C.3   1 <1>   0.2540 
 16 C       -2.9220    -7.0270    -0.2660 C.3   1 <1>  -0.1600 
 17 N       -7.2300    -3.7700    -0.5670 N.3   1 <1>  -0.8100 
 18 C       -2.7290    -8.4210     0.3440 C.3   1 <1>  -0.2400 
 19 C       -8.5040    -4.3700    -1.0480 C.3   1 <1>   0.1100 
 20 C       -7.4770    -3.0770     0.7300 C.3   1 <1>   0.1100 
 21 C       -9.6340    -3.3300    -1.1810 C.3   1 <1>   0.2090 
 22 C       -8.5780    -2.0050     0.6230 C.3   1 <1>   0.2090 
 23 N       -9.8330    -2.6070     0.1050 N.pl3 1 <1>  -0.8380 
 24 C      -10.9720    -1.8180     0.2040 C.ar  1 <1>   0.1000 
 25 C      -11.9440    -2.1350     1.1430 C.ar  1 <1>  -0.1500 
 26 C      -11.1690    -0.7100    -0.6140 C.ar  1 <1>  -0.1500 
 27 C      -13.0870    -1.3660     1.2670 C.ar  1 <1>  -0.1500 
 28 C      -12.3100     0.0620    -0.4950 C.ar  1 <1>  -0.1500 
 29 C      -13.2720    -0.2650     0.4470 C.ar  1 <1>  -0.1500 
 30 H        1.4260    -1.8750    -0.5560 H     1 <1>   0.0800 
 31 H        1.3700    -3.3900     0.3040 H     1 <1>   0.0800 
 32 H        1.0330    -1.8930     1.1500 H     1 <1>   0.0800 
 33 H       -2.5040     0.1790    -2.2890 H     1 <1>   0.0800 
 34 H       -3.7270     0.1820    -1.0390 H     1 <1>   0.0800 
 35 H       -3.9230    -0.8140    -2.4740 H     1 <1>   0.0800 
 36 H       -5.2590    -2.4120    -1.3110 H     1 <1>   0.4500 
 37 H       -4.3630    -6.3830     1.1910 H     1 <1>   0.0800 
 38 H       -2.7270    -5.9270     1.5740 H     1 <1>   0.0800 
 39 H       -6.3460    -5.3960     0.4490 H     1 <1>   0.0800 
 40 H       -6.2100    -5.4620    -1.2870 H     1 <1>   0.0800 
 41 H       -1.9760    -6.6870    -0.6520 H     1 <1>   0.0800 
 42 H       -3.6190    -7.0990    -1.0820 H     1 <1>   0.0800 
 43 H       -2.0110    -8.3880     1.1470 H     1 <1>   0.0800 
 44 H       -2.3600    -9.1010    -0.4050 H     1 <1>   0.0800 
 45 H       -3.6580    -8.8100     0.7240 H     1 <1>   0.0800 
 46 H       -8.8320    -5.1350    -0.3640 H     1 <1>   0.0800 
 47 H       -8.3480    -4.8260    -2.0100 H     1 <1>   0.0800 
 48 H       -6.5760    -2.6030     1.0750 H     1 <1>   0.0800 
 49 H       -7.7840    -3.7920     1.4750 H     1 <1>   0.0800 
 50 H      -10.5500    -3.8260    -1.4520 H     1 <1>   0.0800 
 51 H       -9.3890    -2.6290    -1.9590 H     1 <1>   0.0800 
 52 H       -8.2570    -1.2160    -0.0330 H     1 <1>   0.0800 
 53 H       -8.7660    -1.5810     1.5950 H     1 <1>   0.0800 
 54 H      -11.7910    -2.9900     1.7730 H     1 <1>   0.1500 
 55 H      -10.4230    -0.4560    -1.3430 H     1 <1>   0.1500 
 56 H      -13.8310    -1.6230     1.9990 H     1 <1>   0.1500 
 57 H      -12.4520     0.9160    -1.1320 H     1 <1>   0.1500 
 58 H      -14.1600     0.3340     0.5410 H     1 <1>   0.1500 
@<TRIPOS>BOND
  1   1   2  2   
  2   2   3  am  
  3   2   4  am  
  4   3   5  am  
  5   3   6  1   
  6   4   7  1   
  7   4   8  1   
  8   5   9  2   
  9   5  10  1   
 10   6  30  1   
 11   6  31  1   
 12   6  32  1   
 13   7  10  2   
 14   7  11  1   
 15   8  33  1   
 16   8  34  1   
 17   8  35  1   
 18  10  12  1   
 19  11  13  ar  
 20  11  36  1   
 21  12  13  ar  
 22  12  14  1   
 23  13  15  1   
 24  14  16  1   
 25  14  37  1   
 26  14  38  1   
 27  15  17  1   
 28  15  39  1   
 29  15  40  1   
 30  16  18  1   
 31  16  41  1   
 32  16  42  1   
 33  17  19  1   
 34  17  20  1   
 35  18  43  1   
 36  18  44  1   
 37  18  45  1   
 38  19  21  1   
 39  19  46  1   
 40  19  47  1   
 41  20  22  1   
 42  20  48  1   
 43  20  49  1   
 44  21  23  1   
 45  21  50  1   
 46  21  51  1   
 47  22  23  1   
 48  22  52  1   
 49  22  53  1   
 50  23  24  1   
 51  24  25  ar  
 52  24  26  ar  
 53  25  27  ar  
 54  25  54  1   
 55  26  28  ar  
 56  26  55  1   
 57  27  29  ar  
 58  27  56  1   
 59  28  29  ar  
 60  28  57  1   
 61  29  58  1   
@<TRIPOS>SUBSTRUCTURE
  1 ****  11 GROUP 4 **** **** 0

# MOE 2024.06 (io_trps.svl 2023.06)
