@<TRIPOS>MOLECULE
NONAME
54 56 1 0 0 
SMALL
USER_CHARGES


@<TRIPOS>ATOM
  1 CL       0.2120    -0.5120     0.4000 Cl    1 <1>  -0.1770 
  2 C        1.9190    -0.1670     0.1920 C.ar  1 <1>   0.1770 
  3 C        2.7330    -1.1180    -0.4090 C.ar  1 <1>  -0.1440 
  4 C        2.4230     1.0510     0.6330 C.ar  1 <1>  -0.1440 
  5 C        4.0800    -0.8340    -0.5670 C.ar  1 <1>  -0.1500 
  6 C        2.1710    -2.4490    -0.8880 C.3   1 <1>  -0.0960 
  7 C        3.7730     1.3160     0.4650 C.ar  1 <1>  -0.1500 
  8 C        1.5150     2.0810     1.2900 C.3   1 <1>  -0.0960 
  9 C        4.6060     0.3740    -0.1360 C.ar  1 <1>   0.0820 
 10 O        5.9350     0.5600    -0.3360 O.3   1 <1>  -0.3630 
 11 C        6.5710     1.7720     0.0120 C.3   1 <1>   0.1200 
 12 C        8.0550     1.6630    -0.3640 C.3   1 <1>   0.2000 
 13 O        8.5770     0.4870     0.1810 O.3   1 <1>  -0.6800 
 14 C        8.8900     2.8610     0.1380 C.3   1 <1>   0.3430 
 15 N       10.3270     2.4730     0.2770 N.4   1 <1>  -0.9590 
 16 C       11.0710     3.3030     1.2930 C.3   1 <1>   0.3430 
 17 C       11.0540     2.4230    -1.0460 C.3   1 <1>   0.3430 
 18 C       12.5450     2.8700     1.4460 C.3   1 <1>   0.2090 
 19 C       12.5260     1.9860    -0.8950 C.3   1 <1>   0.2090 
 20 N       13.2240     2.8270     0.1190 N.pl3 1 <1>  -0.8380 
 21 C       14.6100     2.7240     0.1500 C.ar  1 <1>   0.1000 
 22 C       15.2450     1.5520     0.5470 C.ar  1 <1>  -0.1500 
 23 C       15.3880     3.8120    -0.2230 C.ar  1 <1>  -0.1500 
 24 C       16.6250     1.4710     0.5710 C.ar  1 <1>  -0.1500 
 25 C       16.7680     3.7360    -0.2000 C.ar  1 <1>  -0.1500 
 26 C       17.3900     2.5640     0.1970 C.ar  1 <1>  -0.1500 
 27 H        4.7340    -1.5500    -1.0290 H     1 <1>   0.1500 
 28 H        1.7420    -2.9850    -0.0600 H     1 <1>   0.0800 
 29 H        2.9400    -3.0590    -1.3270 H     1 <1>   0.0800 
 30 H        1.4070    -2.2800    -1.6250 H     1 <1>   0.0800 
 31 H        4.1560     2.2570     0.8080 H     1 <1>   0.1500 
 32 H        1.0660     1.6630     2.1740 H     1 <1>   0.0800 
 33 H        0.7320     2.3670     0.6090 H     1 <1>   0.0800 
 34 H        2.0620     2.9620     1.5700 H     1 <1>   0.0800 
 35 H        6.4550     1.9240     1.0710 H     1 <1>   0.0800 
 36 H        6.0970     2.5720    -0.5300 H     1 <1>   0.0800 
 37 H        8.1360     1.5900    -1.4350 H     1 <1>   0.0800 
 38 H        7.9080    -0.2310     0.0650 H     1 <1>   0.4000 
 39 H        8.5080     3.1510     1.1030 H     1 <1>   0.0800 
 40 H        8.7810     3.7020    -0.5270 H     1 <1>   0.0800 
 41 H       10.2780     1.4930     0.6170 H     1 <1>   0.4500 
 42 H       10.5850     3.2330     2.2510 H     1 <1>   0.0800 
 43 H       11.0600     4.3360     0.9890 H     1 <1>   0.0800 
 44 H       11.0430     3.4000    -1.4990 H     1 <1>   0.0800 
 45 H       10.5550     1.7400    -1.7120 H     1 <1>   0.0800 
 46 H       12.5960     1.9010     1.9110 H     1 <1>   0.0800 
 47 H       13.0600     3.5700     2.0830 H     1 <1>   0.0800 
 48 H       13.0280     2.0860    -1.8420 H     1 <1>   0.0800 
 49 H       12.5710     0.9510    -0.6030 H     1 <1>   0.0800 
 50 H       14.6590     0.7020     0.8390 H     1 <1>   0.1500 
 51 H       14.9030     4.7190    -0.5300 H     1 <1>   0.1500 
 52 H       17.1080     0.5600     0.8800 H     1 <1>   0.1500 
 53 H       17.3610     4.5860    -0.4910 H     1 <1>   0.1500 
 54 H       18.4640     2.5020     0.2150 H     1 <1>   0.1500 
@<TRIPOS>BOND
  1   1   2  1   
  2   2   3  ar  
  3   2   4  ar  
  4   3   5  ar  
  5   3   6  1   
  6   4   7  ar  
  7   4   8  1   
  8   5   9  ar  
  9   5  27  1   
 10   6  28  1   
 11   6  29  1   
 12   6  30  1   
 13   7   9  ar  
 14   7  31  1   
 15   8  32  1   
 16   8  33  1   
 17   8  34  1   
 18   9  10  1   
 19  10  11  1   
 20  11  12  1   
 21  11  35  1   
 22  11  36  1   
 23  12  13  1   
 24  12  14  1   
 25  12  37  1   
 26  13  38  1   
 27  14  15  1   
 28  14  39  1   
 29  14  40  1   
 30  15  16  1   
 31  15  17  1   
 32  15  41  1   
 33  16  18  1   
 34  16  42  1   
 35  16  43  1   
 36  17  19  1   
 37  17  44  1   
 38  17  45  1   
 39  18  20  1   
 40  18  46  1   
 41  18  47  1   
 42  19  20  1   
 43  19  48  1   
 44  19  49  1   
 45  20  21  1   
 46  21  22  ar  
 47  21  23  ar  
 48  22  24  ar  
 49  22  50  1   
 50  23  25  ar  
 51  23  51  1   
 52  24  26  ar  
 53  24  52  1   
 54  25  26  ar  
 55  25  53  1   
 56  26  54  1   
@<TRIPOS>SUBSTRUCTURE
  1 ****  12 GROUP 4 **** **** 0

# MOE 2024.06 (io_trps.svl 2023.06)
