@<TRIPOS>MOLECULE
NONAME
35 35 1 0 0 
SMALL
USER_CHARGES


@<TRIPOS>ATOM
  1 O        2.8040    -2.0780     0.3000 O.2   1 <1>  -0.5700 
  2 C        1.6480    -1.9850    -0.0350 C.2   1 <1>   0.6590 
  3 O        0.8320    -3.0180    -0.2110 O.3   1 <1>  -0.4300 
  4 C        1.0250    -0.6380    -0.2930 C.3   1 <1>  -0.1790 
  5 C        1.1070    -4.3840     0.0230 C.3   1 <1>   0.4800 
  6 C        2.4090    -4.7610    -0.6080 C.1   1 <1>  -0.2000 
  7 C       -0.0300    -5.1730    -0.6190 C.3   1 <1>  -0.2400 
  8 C        1.1410    -4.6160     1.5340 C.3   1 <1>  -0.2400 
  9 C        3.5280    -4.8080    -1.0030 C.1   1 <1>  -0.2000 
 10 C        4.9410    -4.4920    -1.3140 C.3   1 <1>   0.5430 
 11 N        5.2820    -3.3730    -0.4080 N.4   1 <1>  -0.9590 
 12 C        6.3810    -2.4950    -0.8560 C.3   1 <1>   0.3430 
 13 C        5.5880    -3.7870     0.9760 C.3   1 <1>   0.3430 
 14 C        6.8210    -1.7650     0.4080 C.3   1 <1>  -0.1600 
 15 C        6.2360    -2.5530     1.5850 C.3   1 <1>  -0.1600 
 16 H        0.1900    -0.4960     0.3680 H     1 <1>   0.0800 
 17 H        0.6830    -0.5870    -1.3090 H     1 <1>   0.0800 
 18 H        1.7440     0.1410    -0.1220 H     1 <1>   0.0800 
 19 H       -0.0600    -4.9840    -1.6770 H     1 <1>   0.0800 
 20 H       -0.9720    -4.8940    -0.1830 H     1 <1>   0.0800 
 21 H        0.1190    -6.2260    -0.4670 H     1 <1>   0.0800 
 22 H        1.9430    -4.0610     1.9860 H     1 <1>   0.0800 
 23 H        1.2970    -5.6590     1.7410 H     1 <1>   0.0800 
 24 H        0.2090    -4.3180     1.9780 H     1 <1>   0.0800 
 25 H        5.0210    -4.1830    -2.3430 H     1 <1>   0.0800 
 26 H        5.5790    -5.3430    -1.1400 H     1 <1>   0.0800 
 27 H        4.4150    -2.8020    -0.3230 H     1 <1>   0.4500 
 28 H        6.0530    -1.8070    -1.6180 H     1 <1>   0.0800 
 29 H        7.1980    -3.0900    -1.2310 H     1 <1>   0.0800 
 30 H        6.2900    -4.6050     0.9720 H     1 <1>   0.0800 
 31 H        4.6950    -4.0740     1.5090 H     1 <1>   0.0800 
 32 H        6.4380    -0.7590     0.4030 H     1 <1>   0.0800 
 33 H        7.8950    -1.7210     0.4540 H     1 <1>   0.0800 
 34 H        6.9880    -2.8290     2.3040 H     1 <1>   0.0800 
 35 H        5.4820    -1.9690     2.0840 H     1 <1>   0.0800 
@<TRIPOS>BOND
  1   1   2  2   
  2   2   3  1   
  3   2   4  1   
  4   3   5  1   
  5   4  16  1   
  6   4  17  1   
  7   4  18  1   
  8   5   6  1   
  9   5   7  1   
 10   5   8  1   
 11   6   9  3   
 12   7  19  1   
 13   7  20  1   
 14   7  21  1   
 15   8  22  1   
 16   8  23  1   
 17   8  24  1   
 18   9  10  1   
 19  10  11  1   
 20  10  25  1   
 21  10  26  1   
 22  11  12  1   
 23  11  13  1   
 24  11  27  1   
 25  12  14  1   
 26  12  28  1   
 27  12  29  1   
 28  13  15  1   
 29  13  30  1   
 30  13  31  1   
 31  14  15  1   
 32  14  32  1   
 33  14  33  1   
 34  15  34  1   
 35  15  35  1   
@<TRIPOS>SUBSTRUCTURE
  1 ****   1 GROUP 4 **** **** 0

# MOE 2024.06 (io_trps.svl 2023.06)
