@<TRIPOS>MOLECULE
NONAME
45 47 1 0 0 
SMALL
USER_CHARGES


@<TRIPOS>ATOM
  1 O        0.6170     3.4640    -1.3360 O.2   1 <1>  -0.5700 
  2 C        0.0090     2.7510    -0.5730 C.2   1 <1>   0.5690 
  3 N        0.5750     1.6280    -0.0200 N.am  1 <1>  -0.5470 
  4 C       -1.4570     3.0770    -0.1840 C.3   1 <1>   0.2040 
  5 C        1.8530     1.0740    -0.1180 C.ar  1 <1>   0.1170 
  6 C       -2.1790     1.7340     0.1050 C.ar  1 <1>  -0.1440 
  7 C       -2.2270     3.8150    -1.3120 C.3   1 <1>  -0.1600 
  8 C       -1.4440     4.0110     1.0510 C.3   1 <1>  -0.1600 
  9 C        2.0270    -0.2640     0.2140 C.ar  1 <1>  -0.1500 
 10 C        2.9740     1.7920    -0.5200 C.ar  1 <1>  -0.1500 
 11 C       -2.6360     1.3610     1.3670 C.ar  1 <1>  -0.1500 
 12 C       -2.3520     0.8290    -0.9400 C.ar  1 <1>  -0.1500 
 13 C       -1.8070     5.2820    -1.4890 C.3   1 <1>   0.1200 
 14 C       -0.9880     5.4280     0.6940 C.3   1 <1>   0.1200 
 15 C        3.2710    -0.8590     0.1400 C.ar  1 <1>  -0.1500 
 16 C        4.2170     1.1940    -0.5940 C.ar  1 <1>  -0.1500 
 17 C       -3.2460     0.1350     1.5720 C.ar  1 <1>  -0.1500 
 18 C       -2.9610    -0.3960    -0.7380 C.ar  1 <1>  -0.1500 
 19 O       -1.8620     5.9340    -0.2610 O.3   1 <1>  -0.5600 
 20 C        4.4070    -0.1540    -0.2670 C.ar  1 <1>   0.0860 
 21 C       -3.4100    -0.7450     0.5200 C.ar  1 <1>  -0.1500 
 22 C        5.6930    -0.8160    -0.3340 C.2   1 <1>   0.4230 
 23 O        5.8570    -1.9690    -0.0270 O.2   1 <1>  -0.5700 
 24 C        6.9220    -0.0640    -0.8080 C.3   1 <1>  -0.1790 
 25 H       -0.1080     1.0430     0.4680 H     1 <1>   0.3700 
 26 H       -3.2790     3.8000    -1.0880 H     1 <1>   0.0800 
 27 H       -2.0880     3.3110    -2.2500 H     1 <1>   0.0800 
 28 H       -0.7960     3.6140     1.8120 H     1 <1>   0.0800 
 29 H       -2.4350     4.0970     1.4590 H     1 <1>   0.0800 
 30 H        1.1810    -0.8470     0.5290 H     1 <1>   0.1500 
 31 H        2.8790     2.8320    -0.7760 H     1 <1>   0.1500 
 32 H       -2.5320     2.0030     2.2230 H     1 <1>   0.1500 
 33 H       -2.0050     1.0640    -1.9320 H     1 <1>   0.1500 
 34 H       -2.4840     5.7850    -2.1570 H     1 <1>   0.0800 
 35 H       -0.8090     5.3740    -1.8840 H     1 <1>   0.0800 
 36 H        0.0150     5.4500     0.3000 H     1 <1>   0.0800 
 37 H       -1.0400     6.0710     1.5560 H     1 <1>   0.0800 
 38 H        3.3740    -1.8990     0.4020 H     1 <1>   0.1500 
 39 H        5.0480     1.7960    -0.9130 H     1 <1>   0.1500 
 40 H       -3.5960    -0.1340     2.5540 H     1 <1>   0.1500 
 41 H       -3.0860    -1.0780    -1.5620 H     1 <1>   0.1500 
 42 H       -3.8870    -1.6970     0.6800 H     1 <1>   0.1500 
 43 H        7.1300     0.7560    -0.1460 H     1 <1>   0.0800 
 44 H        6.7690     0.3020    -1.8060 H     1 <1>   0.0800 
 45 H        7.7720    -0.7220    -0.8130 H     1 <1>   0.0800 
@<TRIPOS>BOND
  1   1   2  2   
  2   2   3  am  
  3   2   4  1   
  4   3   5  1   
  5   3  25  1   
  6   4   6  1   
  7   4   7  1   
  8   4   8  1   
  9   5   9  ar  
 10   5  10  ar  
 11   6  11  ar  
 12   6  12  ar  
 13   7  13  1   
 14   7  26  1   
 15   7  27  1   
 16   8  14  1   
 17   8  28  1   
 18   8  29  1   
 19   9  15  ar  
 20   9  30  1   
 21  10  16  ar  
 22  10  31  1   
 23  11  17  ar  
 24  11  32  1   
 25  12  18  ar  
 26  12  33  1   
 27  13  19  1   
 28  13  34  1   
 29  13  35  1   
 30  14  19  1   
 31  14  36  1   
 32  14  37  1   
 33  15  20  ar  
 34  15  38  1   
 35  16  20  ar  
 36  16  39  1   
 37  17  21  ar  
 38  17  40  1   
 39  18  21  ar  
 40  18  41  1   
 41  20  22  1   
 42  21  42  1   
 43  22  23  2   
 44  22  24  1   
 45  24  43  1   
 46  24  44  1   
 47  24  45  1   
@<TRIPOS>SUBSTRUCTURE
  1 ****   3 GROUP 4 **** **** 0

# MOE 2024.06 (io_trps.svl 2023.06)
