@<TRIPOS>MOLECULE
NONAME
34 35 1 0 0 
SMALL
USER_CHARGES


@<TRIPOS>ATOM
  1 S        0.0370     0.3930     0.7650 S.3   1 <1>  -0.3320 
  2 C       -1.3020    -0.6970     0.2170 C.ar  1 <1>   0.1020 
  3 C       -0.6450     2.1040     0.9240 C.3   1 <1>  -0.0100 
  4 C       -1.0250    -2.0270    -0.1420 C.ar  1 <1>   0.0860 
  5 C       -2.5910    -0.1860     0.1520 C.ar  1 <1>  -0.1500 
  6 C        0.2850    -2.6540    -0.0870 C.2   1 <1>   0.5440 
  7 C       -2.1060    -2.7940    -0.5860 C.ar  1 <1>  -0.1500 
  8 C       -3.6350    -0.9800    -0.2840 C.ar  1 <1>  -0.1500 
  9 O        0.6260    -3.4330    -0.9570 O.2   1 <1>  -0.5700 
 10 N        1.1490    -2.4290     0.9450 N.am  1 <1>  -0.7300 
 11 C       -3.3890    -2.2870    -0.6570 C.ar  1 <1>  -0.1500 
 12 C        2.5130    -3.0160     1.0640 C.3   1 <1>   0.1400 
 13 C        3.5050    -2.3520     0.0980 C.3   1 <1>   0.2000 
 14 O        4.7960    -2.7670     0.4030 O.3   1 <1>  -0.5600 
 15 C        3.5790    -0.8320     0.1850 C.3   1 <1>  -0.1600 
 16 C        5.7150    -1.8850    -0.1540 C.3   1 <1>   0.1200 
 17 C        5.0160    -0.5280    -0.2110 C.3   1 <1>  -0.1600 
 18 H        0.1730     2.7580     1.1670 H     1 <1>   0.0800 
 19 H       -1.3760     2.1020     1.7130 H     1 <1>   0.0800 
 20 H       -1.0820     2.3780    -0.0200 H     1 <1>   0.0800 
 21 H       -2.8080     0.8240     0.4350 H     1 <1>   0.1500 
 22 H       -1.9260    -3.8150    -0.8810 H     1 <1>   0.1500 
 23 H       -4.6350    -0.5830    -0.3360 H     1 <1>   0.1500 
 24 H        0.9660    -1.6150     1.5380 H     1 <1>   0.3700 
 25 H       -4.1970    -2.9100    -1.0030 H     1 <1>   0.1500 
 26 H        2.4630    -4.0680     0.8430 H     1 <1>   0.0800 
 27 H        2.8600    -2.8900     2.0750 H     1 <1>   0.0800 
 28 H        3.2940    -2.6630    -0.9130 H     1 <1>   0.0800 
 29 H        3.3970    -0.5140     1.1970 H     1 <1>   0.0800 
 30 H        2.8610    -0.3680    -0.4680 H     1 <1>   0.0800 
 31 H        5.9600    -2.2390    -1.1420 H     1 <1>   0.0800 
 32 H        6.5960    -1.8680     0.4630 H     1 <1>   0.0800 
 33 H        5.4720     0.1670     0.4720 H     1 <1>   0.0800 
 34 H        5.0720    -0.1300    -1.2080 H     1 <1>   0.0800 
@<TRIPOS>BOND
  1   1   2  1   
  2   1   3  1   
  3   2   4  ar  
  4   2   5  ar  
  5   3  18  1   
  6   3  19  1   
  7   3  20  1   
  8   4   6  1   
  9   4   7  ar  
 10   5   8  ar  
 11   5  21  1   
 12   6   9  2   
 13   6  10  am  
 14   7  11  ar  
 15   7  22  1   
 16   8  11  ar  
 17   8  23  1   
 18  10  12  1   
 19  10  24  1   
 20  11  25  1   
 21  12  13  1   
 22  12  26  1   
 23  12  27  1   
 24  13  14  1   
 25  13  15  1   
 26  13  28  1   
 27  14  16  1   
 28  15  17  1   
 29  15  29  1   
 30  15  30  1   
 31  16  17  1   
 32  16  31  1   
 33  16  32  1   
 34  17  33  1   
 35  17  34  1   
@<TRIPOS>SUBSTRUCTURE
  1 ****   6 GROUP 4 **** **** 0

# MOE 2024.06 (io_trps.svl 2023.06)
