@<TRIPOS>MOLECULE
NONAME
42 44 1 0 0 
SMALL
USER_CHARGES


@<TRIPOS>ATOM
  1 O        0.1640    -0.9280    -1.6540 O.2   1 <1>  -0.5700 
  2 C       -0.1140    -1.5560    -0.6580 C.2   1 <1>   0.5690 
  3 N        0.8470    -2.0660     0.1640 N.am  1 <1>  -0.7300 
  4 C       -1.6050    -1.7810    -0.3170 C.3   1 <1>   0.0610 
  5 C        2.3050    -1.9840     0.0500 C.3   1 <1>   0.3000 
  6 C       -2.2990    -2.5420    -1.4740 C.3   1 <1>  -0.1600 
  7 C       -1.8130    -2.6020     0.9870 C.3   1 <1>  -0.1600 
  8 C       -2.3140    -0.4160    -0.1370 C.3   1 <1>  -0.1600 
  9 C        2.7470    -0.5220     0.1030 C.3   1 <1>  -0.2400 
 10 C        2.8750    -2.7350     1.2520 C.3   1 <1>  -0.2400 
 11 C        2.7620    -2.6610    -1.2420 C.3   1 <1>  -0.2400 
 12 C       -3.7990    -2.7400    -1.1870 C.3   1 <1>  -0.0800 
 13 C       -3.3110    -2.8010     1.2860 C.3   1 <1>  -0.0800 
 14 C       -3.8150    -0.6030     0.1560 C.3   1 <1>  -0.0800 
 15 C       -3.9650    -3.5500     0.1110 C.3   1 <1>  -0.1600 
 16 C       -4.4660    -1.3630    -1.0150 C.3   1 <1>  -0.1600 
 17 C       -3.9800    -1.4240     1.4480 C.3   1 <1>  -0.1600 
 18 H        0.5390    -2.5830     0.9830 H     1 <1>   0.3700 
 19 H       -1.8250    -3.4980    -1.6140 H     1 <1>   0.0800 
 20 H       -2.1820    -1.9890    -2.3900 H     1 <1>   0.0800 
 21 H       -1.3570    -2.0920     1.8180 H     1 <1>   0.0800 
 22 H       -1.3470    -3.5670     0.8900 H     1 <1>   0.0800 
 23 H       -2.1970     0.1710    -1.0320 H     1 <1>   0.0800 
 24 H       -1.8510     0.1300     0.6660 H     1 <1>   0.0800 
 25 H        2.3780    -0.0480     0.9950 H     1 <1>   0.0800 
 26 H        2.3810     0.0150    -0.7530 H     1 <1>   0.0800 
 27 H        3.8190    -0.4580     0.1000 H     1 <1>   0.0800 
 28 H        2.5540    -2.2790     2.1710 H     1 <1>   0.0800 
 29 H        3.9500    -2.7110     1.2240 H     1 <1>   0.0800 
 30 H        2.5640    -3.7650     1.2370 H     1 <1>   0.0800 
 31 H        2.3970    -2.1260    -2.0990 H     1 <1>   0.0800 
 32 H        2.4040    -3.6740    -1.2840 H     1 <1>   0.0800 
 33 H        3.8350    -2.6750    -1.2940 H     1 <1>   0.0800 
 34 H       -4.2590    -3.2670    -2.0060 H     1 <1>   0.0800 
 35 H       -3.4310    -3.3710     2.1910 H     1 <1>   0.0800 
 36 H       -4.2850     0.3580     0.2720 H     1 <1>   0.0800 
 37 H       -3.5120    -4.5190    -0.0030 H     1 <1>   0.0800 
 38 H       -5.0110    -3.7020     0.3130 H     1 <1>   0.0800 
 39 H       -5.5180    -1.4880    -0.8270 H     1 <1>   0.0800 
 40 H       -4.3620    -0.7920    -1.9210 H     1 <1>   0.0800 
 41 H       -3.5380    -0.8960     2.2740 H     1 <1>   0.0800 
 42 H       -5.0270    -1.5510     1.6650 H     1 <1>   0.0800 
@<TRIPOS>BOND
  1   1   2  2   
  2   2   3  am  
  3   2   4  1   
  4   3   5  1   
  5   3  18  1   
  6   4   6  1   
  7   4   7  1   
  8   4   8  1   
  9   5   9  1   
 10   5  10  1   
 11   5  11  1   
 12   6  12  1   
 13   6  19  1   
 14   6  20  1   
 15   7  13  1   
 16   7  21  1   
 17   7  22  1   
 18   8  14  1   
 19   8  23  1   
 20   8  24  1   
 21   9  25  1   
 22   9  26  1   
 23   9  27  1   
 24  10  28  1   
 25  10  29  1   
 26  10  30  1   
 27  11  31  1   
 28  11  32  1   
 29  11  33  1   
 30  12  15  1   
 31  12  16  1   
 32  12  34  1   
 33  13  15  1   
 34  13  17  1   
 35  13  35  1   
 36  14  16  1   
 37  14  17  1   
 38  14  36  1   
 39  15  37  1   
 40  15  38  1   
 41  16  39  1   
 42  16  40  1   
 43  17  41  1   
 44  17  42  1   
@<TRIPOS>SUBSTRUCTURE
  1 ****   4 GROUP 4 **** **** 0

# MOE 2024.06 (io_trps.svl 2023.06)
