@<TRIPOS>MOLECULE
NONAME
47 49 1 0 0 
SMALL
USER_CHARGES


@<TRIPOS>ATOM
  1 O       -1.5360    -8.4690    -1.8170 O.3   1 <1>  -0.3630 
  2 C       -1.8130    -7.8560    -0.6470 C.ar  1 <1>   0.0830 
  3 C       -0.2420    -8.3450    -2.3850 C.3   1 <1>   0.1200 
  4 C       -1.9050    -6.4420    -0.5740 C.ar  1 <1>   0.0000 
  5 C       -1.9670    -8.6390     0.4670 C.ar  1 <1>  -0.1500 
  6 C        0.8250    -8.9940    -1.4810 C.3   1 <1>   0.3430 
  7 C       -2.0180    -5.8530     0.7070 C.ar  1 <1>   0.0000 
  8 C       -1.8840    -5.5870    -1.6970 C.ar  1 <1>  -0.1500 
  9 C       -2.1340    -8.0500     1.7220 C.ar  1 <1>  -0.1500 
 10 N        1.7760    -8.0140    -0.8490 N.4   1 <1>  -0.9590 
 11 C       -2.1440    -6.6870     1.8360 C.ar  1 <1>  -0.1500 
 12 C       -2.0080    -4.4490     0.8160 C.ar  1 <1>  -0.1500 
 13 C       -1.8870    -4.2260    -1.5630 C.ar  1 <1>  -0.1500 
 14 C        2.8680    -8.7230    -0.1270 C.3   1 <1>   0.3430 
 15 C        1.0960    -7.0240     0.0570 C.3   1 <1>   0.3430 
 16 C       -1.9370    -3.6500    -0.2900 C.ar  1 <1>  -0.1500 
 17 C        4.0100    -7.7390     0.1880 C.3   1 <1>  -0.0800 
 18 C        2.0680    -6.2730     0.9900 C.3   1 <1>  -0.0800 
 19 C        3.5110    -6.3000     0.4550 C.3   1 <1>  -0.1600 
 20 C        5.0590    -7.7320    -0.9340 C.3   1 <1>  -0.2400 
 21 C        1.9900    -6.8130     2.4290 C.3   1 <1>  -0.2400 
 22 H       -0.0300    -7.3100    -2.5750 H     1 <1>   0.0800 
 23 H       -0.2760    -8.8670    -3.3250 H     1 <1>   0.0800 
 24 H       -1.9560    -9.7120     0.3880 H     1 <1>   0.1500 
 25 H        1.3950    -9.6770    -2.0880 H     1 <1>   0.0800 
 26 H        0.3290    -9.5710    -0.7180 H     1 <1>   0.0800 
 27 H       -1.8800    -6.0220    -2.6800 H     1 <1>   0.1500 
 28 H       -2.2560    -8.6780     2.5890 H     1 <1>   0.1500 
 29 H        2.2410    -7.4680    -1.5850 H     1 <1>   0.4500 
 30 H       -2.2640    -6.2270     2.8020 H     1 <1>   0.1500 
 31 H       -2.0680    -4.0080     1.7960 H     1 <1>   0.1500 
 32 H       -1.8640    -3.5820    -2.4260 H     1 <1>   0.1500 
 33 H        3.2510    -9.5370    -0.7200 H     1 <1>   0.0800 
 34 H        2.4790    -9.1310     0.7920 H     1 <1>   0.0800 
 35 H        0.3620    -7.5270     0.6650 H     1 <1>   0.0800 
 36 H        0.5740    -6.2990    -0.5460 H     1 <1>   0.0800 
 37 H       -1.9350    -2.5760    -0.2000 H     1 <1>   0.1500 
 38 H        4.4960    -8.1000     1.0800 H     1 <1>   0.0800 
 39 H        1.7430    -5.2460     1.0300 H     1 <1>   0.0800 
 40 H        3.5330    -5.7330    -0.4610 H     1 <1>   0.0800 
 41 H        4.1760    -5.8050     1.1430 H     1 <1>   0.0800 
 42 H        4.6360    -7.4010    -1.8660 H     1 <1>   0.0800 
 43 H        5.4680    -8.7180    -1.0740 H     1 <1>   0.0800 
 44 H        5.8710    -7.0720    -0.6780 H     1 <1>   0.0800 
 45 H        2.2800    -7.8450     2.4930 H     1 <1>   0.0800 
 46 H        0.9850    -6.7200     2.8060 H     1 <1>   0.0800 
 47 H        2.6360    -6.2410     3.0740 H     1 <1>   0.0800 
@<TRIPOS>BOND
  1   1   2  1   
  2   1   3  1   
  3   2   4  ar  
  4   2   5  ar  
  5   3   6  1   
  6   3  22  1   
  7   3  23  1   
  8   4   7  ar  
  9   4   8  ar  
 10   5   9  ar  
 11   5  24  1   
 12   6  10  1   
 13   6  25  1   
 14   6  26  1   
 15   7  11  ar  
 16   7  12  ar  
 17   8  13  ar  
 18   8  27  1   
 19   9  11  ar  
 20   9  28  1   
 21  10  14  1   
 22  10  15  1   
 23  10  29  1   
 24  11  30  1   
 25  12  16  ar  
 26  12  31  1   
 27  13  16  ar  
 28  13  32  1   
 29  14  17  1   
 30  14  33  1   
 31  14  34  1   
 32  15  18  1   
 33  15  35  1   
 34  15  36  1   
 35  16  37  1   
 36  17  19  1   
 37  17  20  1   
 38  17  38  1   
 39  18  19  1   
 40  18  21  1   
 41  18  39  1   
 42  19  40  1   
 43  19  41  1   
 44  20  42  1   
 45  20  43  1   
 46  20  44  1   
 47  21  45  1   
 48  21  46  1   
 49  21  47  1   
@<TRIPOS>SUBSTRUCTURE
  1 ****  15 GROUP 4 **** **** 0

# MOE 2024.06 (io_trps.svl 2023.06)
