@<TRIPOS>MOLECULE
NONAME
37 37 1 0 0 
SMALL
USER_CHARGES


@<TRIPOS>ATOM
  1 O       -0.2150     0.5670     1.8230 O.2   1 <1>  -0.5700 
  2 C        0.0560     0.9620     0.7160 C.2   1 <1>   0.5690 
  3 N        1.3290     1.1880     0.3220 N.am  1 <1>  -0.7300 
  4 C       -1.0610     1.2230    -0.2750 C.3   1 <1>  -0.0990 
  5 C        2.4990     1.1300     1.1980 C.3   1 <1>   0.3640 
  6 C       -1.3210     2.7260    -0.4700 C.3   1 <1>  -0.1600 
  7 C        3.5380     2.1390     0.6980 C.ar  1 <1>  -0.1440 
  8 C        3.0150    -0.3050     1.2980 C.3   1 <1>  -0.2400 
  9 C       -2.4530     2.9700    -1.4720 C.3   1 <1>  -0.2400 
 10 C        4.2100     2.0740    -0.5280 C.ar  1 <1>  -0.1440 
 11 C        3.8080     3.2070     1.5460 C.ar  1 <1>  -0.1500 
 12 C        5.1270     3.0630    -0.8560 C.ar  1 <1>  -0.1500 
 13 C        4.0180     0.9640    -1.5560 C.3   1 <1>  -0.0970 
 14 C        4.7210     4.1860     1.2040 C.ar  1 <1>  -0.1500 
 15 C        5.3890     4.1180    -0.0020 C.ar  1 <1>  -0.1440 
 16 C        6.3950     5.1870    -0.3890 C.3   1 <1>  -0.0970 
 17 H        1.5210     1.6400    -0.5700 H     1 <1>   0.3700 
 18 H       -1.9540     0.7470     0.0880 H     1 <1>   0.0800 
 19 H       -0.8020     0.7680    -1.2130 H     1 <1>   0.0800 
 20 H        2.1850     1.4200     2.1870 H     1 <1>   0.0800 
 21 H       -0.4240     3.2080    -0.8210 H     1 <1>   0.0800 
 22 H       -1.5830     3.1650     0.4790 H     1 <1>   0.0800 
 23 H        3.1780    -0.7410     0.3330 H     1 <1>   0.0800 
 24 H        2.2970    -0.9040     1.8280 H     1 <1>   0.0800 
 25 H        3.9380    -0.3170     1.8470 H     1 <1>   0.0800 
 26 H       -2.2030     2.5570    -2.4330 H     1 <1>   0.0800 
 27 H       -2.6190     4.0270    -1.5870 H     1 <1>   0.0800 
 28 H       -3.3660     2.5180    -1.1260 H     1 <1>   0.0800 
 29 H        3.3030     3.2890     2.4920 H     1 <1>   0.1500 
 30 H        5.6510     3.0150    -1.7940 H     1 <1>   0.1500 
 31 H        2.9990     0.6340    -1.6050 H     1 <1>   0.0800 
 32 H        4.6460     0.1280    -1.3050 H     1 <1>   0.0800 
 33 H        4.2920     1.3050    -2.5380 H     1 <1>   0.0800 
 34 H        4.9070     5.0000     1.8830 H     1 <1>   0.1500 
 35 H        7.2130     4.7500    -0.9330 H     1 <1>   0.0800 
 36 H        6.7900     5.6700     0.4860 H     1 <1>   0.0800 
 37 H        5.9200     5.9260    -1.0090 H     1 <1>   0.0800 
@<TRIPOS>BOND
  1   1   2  2   
  2   2   3  am  
  3   2   4  1   
  4   3   5  1   
  5   3  17  1   
  6   4   6  1   
  7   4  18  1   
  8   4  19  1   
  9   5   7  1   
 10   5   8  1   
 11   5  20  1   
 12   6   9  1   
 13   6  21  1   
 14   6  22  1   
 15   7  10  ar  
 16   7  11  ar  
 17   8  23  1   
 18   8  24  1   
 19   8  25  1   
 20   9  26  1   
 21   9  27  1   
 22   9  28  1   
 23  10  12  ar  
 24  10  13  1   
 25  11  14  ar  
 26  11  29  1   
 27  12  15  ar  
 28  12  30  1   
 29  13  31  1   
 30  13  32  1   
 31  13  33  1   
 32  14  15  ar  
 33  14  34  1   
 34  15  16  1   
 35  16  35  1   
 36  16  36  1   
 37  16  37  1   
@<TRIPOS>SUBSTRUCTURE
  1 ****   7 GROUP 4 **** **** 0

# MOE 2024.06 (io_trps.svl 2023.06)
