@<TRIPOS>MOLECULE
NONAME
41 42 1 0 0 
SMALL
USER_CHARGES


@<TRIPOS>ATOM
  1 BR       0.0390     1.0460     3.3250 Br    1 <1>  -0.1110 
  2 C       -0.6710     1.0760     1.5300 C.ar  1 <1>   0.1110 
  3 C        0.1670     1.3780     0.4640 C.ar  1 <1>   0.0820 
  4 C       -2.0130     0.7910     1.3640 C.ar  1 <1>  -0.1500 
  5 O        1.4760     1.6460     0.7200 O.3   1 <1>  -0.3630 
  6 C       -0.3870     1.3900    -0.8140 C.ar  1 <1>  -0.1500 
  7 C       -2.5510     0.8050     0.0870 C.ar  1 <1>  -0.1430 
  8 C        2.3770     1.9590    -0.3210 C.3   1 <1>   0.1200 
  9 C       -1.7330     1.1050    -0.9930 C.ar  1 <1>  -0.1500 
 10 C       -4.0220     0.4980    -0.1310 C.3   1 <1>  -0.0960 
 11 C        3.7540     2.2040     0.2830 C.3   1 <1>   0.1200 
 12 O        4.6420     2.5140    -0.7640 O.3   1 <1>  -0.3630 
 13 C        5.9220     2.7600    -0.3770 C.ar  1 <1>   0.0830 
 14 C        6.3100     4.0630    -0.0640 C.ar  1 <1>   0.0830 
 15 C        6.8380     1.7100    -0.3140 C.ar  1 <1>   0.0830 
 16 O        5.3690     5.0500    -0.1350 O.3   1 <1>  -0.3630 
 17 C        7.6280     4.3070     0.3120 C.ar  1 <1>  -0.1500 
 18 O        6.4000     0.4540    -0.6230 O.3   1 <1>  -0.3630 
 19 C        8.1510     1.9760     0.0640 C.ar  1 <1>  -0.1500 
 20 C        5.7060     6.4060     0.0570 C.3   1 <1>   0.0400 
 21 C        8.5400     3.2680     0.3740 C.ar  1 <1>  -0.1500 
 22 C        7.2860    -0.6400    -0.6920 C.3   1 <1>   0.0400 
 23 H       -2.6190     0.5650     2.2220 H     1 <1>   0.1500 
 24 H        0.2080     1.6160    -1.6780 H     1 <1>   0.1500 
 25 H        2.0280     2.8470    -0.8170 H     1 <1>   0.0800 
 26 H        2.4150     1.1260    -1.0000 H     1 <1>   0.0800 
 27 H       -2.1450     1.1200    -1.9880 H     1 <1>   0.1500 
 28 H       -4.4120    -0.0880     0.6820 H     1 <1>   0.0800 
 29 H       -4.1570    -0.0570    -1.0430 H     1 <1>   0.0800 
 30 H       -4.5800     1.4150    -0.1960 H     1 <1>   0.0800 
 31 H        4.1140     1.3200     0.7810 H     1 <1>   0.0800 
 32 H        3.7280     3.0380     0.9630 H     1 <1>   0.0800 
 33 H        7.9650     5.2950     0.5620 H     1 <1>   0.1500 
 34 H        8.8840     1.1950     0.1260 H     1 <1>   0.1500 
 35 H        4.8180     6.9930    -0.0940 H     1 <1>   0.0800 
 36 H        6.4550     6.6840    -0.6630 H     1 <1>   0.0800 
 37 H        6.0650     6.5380     1.0620 H     1 <1>   0.0800 
 38 H        9.5570     3.4650     0.6650 H     1 <1>   0.1500 
 39 H        6.7240    -1.5040    -0.9980 H     1 <1>   0.0800 
 40 H        7.7120    -0.8070     0.2810 H     1 <1>   0.0800 
 41 H        8.0490    -0.4250    -1.4190 H     1 <1>   0.0800 
@<TRIPOS>BOND
  1   1   2  1   
  2   2   3  ar  
  3   2   4  ar  
  4   3   5  1   
  5   3   6  ar  
  6   4   7  ar  
  7   4  23  1   
  8   5   8  1   
  9   6   9  ar  
 10   6  24  1   
 11   7   9  ar  
 12   7  10  1   
 13   8  11  1   
 14   8  25  1   
 15   8  26  1   
 16   9  27  1   
 17  10  28  1   
 18  10  29  1   
 19  10  30  1   
 20  11  12  1   
 21  11  31  1   
 22  11  32  1   
 23  12  13  1   
 24  13  14  ar  
 25  13  15  ar  
 26  14  16  1   
 27  14  17  ar  
 28  15  18  1   
 29  15  19  ar  
 30  16  20  1   
 31  17  21  ar  
 32  17  33  1   
 33  18  22  1   
 34  19  21  ar  
 35  19  34  1   
 36  20  35  1   
 37  20  36  1   
 38  20  37  1   
 39  21  38  1   
 40  22  39  1   
 41  22  40  1   
 42  22  41  1   
@<TRIPOS>SUBSTRUCTURE
  1 ****  11 GROUP 4 **** **** 0

# MOE 2024.06 (io_trps.svl 2023.06)
