@<TRIPOS>MOLECULE
NONAME
48 50 1 0 0 
SMALL
USER_CHARGES


@<TRIPOS>ATOM
  1 O       -0.0210    -0.4500    -0.3290 O.3   1 <1>  -0.3630 
  2 C       -1.2410    -1.0350    -0.3780 C.ar  1 <1>   0.0830 
  3 C        0.9700    -0.8750     0.5830 C.3   1 <1>   0.2640 
  4 C       -2.0920    -0.6070    -1.3830 C.ar  1 <1>  -0.1500 
  5 C       -1.6710    -2.0200     0.5050 C.ar  1 <1>  -0.1500 
  6 C        2.2230    -0.0370     0.3810 C.ar  1 <1>  -0.1440 
  7 C       -3.3590    -1.1450    -1.5110 C.ar  1 <1>  -0.1500 
  8 C       -2.9410    -2.5590     0.3790 C.ar  1 <1>  -0.1500 
  9 C        2.1850     1.3320     0.5970 C.ar  1 <1>  -0.1500 
 10 C        3.4140    -0.6290    -0.0130 C.ar  1 <1>  -0.1500 
 11 C       -3.7940    -2.1200    -0.6250 C.ar  1 <1>  -0.1430 
 12 C        3.3240     2.1010     0.4270 C.ar  1 <1>  -0.1500 
 13 C        4.5540     0.1380    -0.1830 C.ar  1 <1>  -0.1500 
 14 C       -5.1920    -2.6950    -0.7530 C.3   1 <1>   0.4860 
 15 C        4.5100     1.5040     0.0380 C.ar  1 <1>  -0.1500 
 16 N       -6.0570    -2.0950     0.2990 N.4   1 <1>  -0.9590 
 17 C       -7.3740    -2.8120     0.3980 C.3   1 <1>   0.3430 
 18 C       -6.1570    -0.6070     0.1210 C.3   1 <1>   0.3430 
 19 C       -8.5050    -2.0240    -0.2810 C.3   1 <1>  -0.0800 
 20 C       -7.3560    -0.0560     0.8930 C.3   1 <1>  -0.1600 
 21 C       -8.6860    -0.6460     0.3870 C.3   1 <1>  -0.1600 
 22 C       -9.8210    -2.8120    -0.2520 C.3   1 <1>  -0.2400 
 23 H        1.1710    -1.9160     0.4020 H     1 <1>   0.0800 
 24 H        0.5950    -0.7390     1.5820 H     1 <1>   0.0800 
 25 H       -1.7450     0.1500    -2.0660 H     1 <1>   0.1500 
 26 H       -1.0330    -2.3790     1.2920 H     1 <1>   0.1500 
 27 H       -3.9910    -0.7930    -2.3090 H     1 <1>   0.1500 
 28 H       -3.2470    -3.3250     1.0710 H     1 <1>   0.1500 
 29 H        1.2640     1.8040     0.8940 H     1 <1>   0.1500 
 30 H        3.4620    -1.6890    -0.1910 H     1 <1>   0.1500 
 31 H        3.2850     3.1620     0.5960 H     1 <1>   0.1500 
 32 H        5.4740    -0.3270    -0.4890 H     1 <1>   0.1500 
 33 H       -5.1470    -3.7650    -0.6310 H     1 <1>   0.0800 
 34 H       -5.5920    -2.4800    -1.7310 H     1 <1>   0.0800 
 35 H        5.3950     2.1000    -0.0950 H     1 <1>   0.1500 
 36 H       -5.5590    -2.2420     1.1850 H     1 <1>   0.4500 
 37 H       -7.6330    -2.9350     1.4380 H     1 <1>   0.0800 
 38 H       -7.3000    -3.7940    -0.0400 H     1 <1>   0.0800 
 39 H       -6.2860    -0.3730    -0.9230 H     1 <1>   0.0800 
 40 H       -5.2480    -0.1330     0.4600 H     1 <1>   0.0800 
 41 H       -8.2370    -1.8810    -1.3140 H     1 <1>   0.0800 
 42 H       -7.3830     1.0150     0.7950 H     1 <1>   0.0800 
 43 H       -7.2290    -0.2760     1.9390 H     1 <1>   0.0800 
 44 H       -9.3650    -0.7170     1.2210 H     1 <1>   0.0800 
 45 H       -9.1330     0.0250    -0.3280 H     1 <1>   0.0800 
 46 H      -10.1340    -3.0060     0.7600 H     1 <1>   0.0800 
 47 H       -9.7130    -3.7530    -0.7630 H     1 <1>   0.0800 
 48 H      -10.5990    -2.2530    -0.7440 H     1 <1>   0.0800 
@<TRIPOS>BOND
  1   1   2  1   
  2   1   3  1   
  3   2   4  ar  
  4   2   5  ar  
  5   3   6  1   
  6   3  23  1   
  7   3  24  1   
  8   4   7  ar  
  9   4  25  1   
 10   5   8  ar  
 11   5  26  1   
 12   6   9  ar  
 13   6  10  ar  
 14   7  11  ar  
 15   7  27  1   
 16   8  11  ar  
 17   8  28  1   
 18   9  12  ar  
 19   9  29  1   
 20  10  13  ar  
 21  10  30  1   
 22  11  14  1   
 23  12  15  ar  
 24  12  31  1   
 25  13  15  ar  
 26  13  32  1   
 27  14  16  1   
 28  14  33  1   
 29  14  34  1   
 30  15  35  1   
 31  16  17  1   
 32  16  18  1   
 33  16  36  1   
 34  17  19  1   
 35  17  37  1   
 36  17  38  1   
 37  18  20  1   
 38  18  39  1   
 39  18  40  1   
 40  19  21  1   
 41  19  22  1   
 42  19  41  1   
 43  20  21  1   
 44  20  42  1   
 45  20  43  1   
 46  21  44  1   
 47  21  45  1   
 48  22  46  1   
 49  22  47  1   
 50  22  48  1   
@<TRIPOS>SUBSTRUCTURE
  1 ****   2 GROUP 4 **** **** 0

# MOE 2024.06 (io_trps.svl 2023.06)
