@<TRIPOS>MOLECULE
NONAME
43 44 1 0 0 
SMALL
USER_CHARGES


@<TRIPOS>ATOM
  1 CL       0.0980    -0.4960     1.2180 Cl    1 <1>  -0.1770 
  2 C       -0.0060    -1.6010    -0.1380 C.ar  1 <1>   0.1770 
  3 C        1.1650    -2.0600    -0.7290 C.ar  1 <1>  -0.0090 
  4 C       -1.2690    -1.9840    -0.5780 C.ar  1 <1>  -0.1440 
  5 S        2.7860    -1.5390    -0.1280 S.o2  1 <1>   1.4470 
  6 C        1.0510    -2.9390    -1.8020 C.ar  1 <1>  -0.1500 
  7 C       -1.3350    -2.8620    -1.6520 C.ar  1 <1>   0.1770 
  8 C       -2.5190    -1.4410     0.1150 C.3   1 <1>  -0.0970 
  9 O        3.8540    -2.2430    -0.8000 O.2   1 <1>  -0.6500 
 10 O        2.9220    -0.1020    -0.0580 O.2   1 <1>  -0.6500 
 11 N        2.9140    -2.1470     1.4300 N.am  1 <1>  -0.9140 
 12 C       -0.1910    -3.3380    -2.2620 C.ar  1 <1>  -0.1500 
 13 CL      -2.8670    -3.4120    -2.2890 Cl    1 <1>  -0.1770 
 14 C        3.5660    -1.3300     2.4450 C.3   1 <1>   0.1960 
 15 C        5.0960    -1.2770     2.2930 C.3   1 <1>  -0.1600 
 16 C        5.5880    -0.1710     1.3510 C.3   1 <1>   0.3430 
 17 N        6.0610    -0.7140     0.0500 N.4   1 <1>  -0.9590 
 18 C        7.4110    -1.3740     0.1000 C.3   1 <1>   0.3430 
 19 C        6.0030     0.3180    -1.0340 C.3   1 <1>   0.3430 
 20 C        8.0240    -1.5680    -1.3060 C.3   1 <1>   0.1200 
 21 C        6.3650    -0.2950    -2.4070 C.3   1 <1>   0.1200 
 22 O        7.0310    -1.5270    -2.2890 O.3   1 <1>  -0.5600 
 23 H        1.9380    -3.3180    -2.2860 H     1 <1>   0.1500 
 24 H       -2.5140    -1.7220     1.1540 H     1 <1>   0.0800 
 25 H       -3.4270    -1.8120    -0.3210 H     1 <1>   0.0800 
 26 H       -2.5380    -0.3680     0.0510 H     1 <1>   0.0800 
 27 H        3.3650    -3.0570     1.3490 H     1 <1>   0.4200 
 28 H       -0.2770    -4.0180    -3.0920 H     1 <1>   0.1500 
 29 H        3.3400    -1.7730     3.4020 H     1 <1>   0.0800 
 30 H        3.1400    -0.3380     2.4550 H     1 <1>   0.0800 
 31 H        5.4940    -2.2430     2.0420 H     1 <1>   0.0800 
 32 H        5.4790    -1.0280     3.2670 H     1 <1>   0.0800 
 33 H        6.3940     0.3680     1.8220 H     1 <1>   0.0800 
 34 H        4.7840     0.5290     1.1850 H     1 <1>   0.0800 
 35 H        5.4020    -1.4470    -0.2870 H     1 <1>   0.4500 
 36 H        7.3190    -2.3380     0.5720 H     1 <1>   0.0800 
 37 H        8.0910    -0.7870     0.6930 H     1 <1>   0.0800 
 38 H        6.6920     1.1160    -0.8140 H     1 <1>   0.0800 
 39 H        5.0140     0.7450    -1.0890 H     1 <1>   0.0800 
 40 H        8.5190    -2.5220    -1.3690 H     1 <1>   0.0800 
 41 H        8.7470    -0.7980    -1.5190 H     1 <1>   0.0800 
 42 H        6.9880     0.3790    -2.9680 H     1 <1>   0.0800 
 43 H        5.4680    -0.4730    -2.9740 H     1 <1>   0.0800 
@<TRIPOS>BOND
  1   1   2  1   
  2   2   3  ar  
  3   2   4  ar  
  4   3   5  1   
  5   3   6  ar  
  6   4   7  ar  
  7   4   8  1   
  8   5   9  2   
  9   5  10  2   
 10   5  11  am  
 11   6  12  ar  
 12   6  23  1   
 13   7  12  ar  
 14   7  13  1   
 15   8  24  1   
 16   8  25  1   
 17   8  26  1   
 18  11  14  1   
 19  11  27  1   
 20  12  28  1   
 21  14  15  1   
 22  14  29  1   
 23  14  30  1   
 24  15  16  1   
 25  15  31  1   
 26  15  32  1   
 27  16  17  1   
 28  16  33  1   
 29  16  34  1   
 30  17  18  1   
 31  17  19  1   
 32  17  35  1   
 33  18  20  1   
 34  18  36  1   
 35  18  37  1   
 36  19  21  1   
 37  19  38  1   
 38  19  39  1   
 39  20  22  1   
 40  20  40  1   
 41  20  41  1   
 42  21  22  1   
 43  21  42  1   
 44  21  43  1   
@<TRIPOS>SUBSTRUCTURE
  1 ****   5 GROUP 4 **** **** 0

# MOE 2024.06 (io_trps.svl 2023.06)
