@<TRIPOS>MOLECULE
NONAME
49 51 1 0 0 
SMALL
USER_CHARGES


@<TRIPOS>ATOM
  1 CL       1.0480    -0.8690    -0.4090 Cl    1 <1>  -0.1770 
  2 C        2.3820     0.2550    -0.4630 C.ar  1 <1>   0.1770 
  3 C        3.1720     0.3190    -1.5930 C.ar  1 <1>  -0.1500 
  4 C        2.6310     1.0660     0.6240 C.ar  1 <1>  -0.1500 
  5 C        4.2270     1.2140    -1.6300 C.ar  1 <1>  -0.1500 
  6 C        3.6900     1.9570     0.5770 C.ar  1 <1>  -0.1500 
  7 C        4.5020     2.0470    -0.5510 C.ar  1 <1>  -0.0320 
  8 C        5.6920     3.0100    -0.6940 C.3   1 <1>  -0.0680 
  9 C        6.6670     3.2610     0.4330 C.3   1 <1>   0.0000 
 10 C        5.8300     4.4010    -0.1320 C.3   1 <1>  -0.0950 
 11 C        6.4670     2.5050     1.7290 C.2   1 <1>   0.7200 
 12 C        8.1480     3.2050     0.1490 C.2   1 <1>   0.7200 
 13 C        4.8550     5.0980     0.8290 C.2   1 <1>   0.4840 
 14 C        6.5480     5.4530    -1.0130 C.3   1 <1>  -0.0650 
 15 O        5.9720     2.9890     2.7130 O.2   1 <1>  -0.5700 
 16 O        6.8430     1.2300     1.7070 O.3   1 <1>  -0.4300 
 17 O        8.9260     3.9740     0.6510 O.2   1 <1>  -0.5700 
 18 O        8.5480     2.2700    -0.7080 O.3   1 <1>  -0.4300 
 19 O        5.3610     5.7180     1.7290 O.2   1 <1>  -0.5700 
 20 C        3.4160     5.0810     0.6320 C.ar  1 <1>   0.0860 
 21 C        5.6110     6.1900    -1.9760 C.3   1 <1>  -0.2400 
 22 C        6.6710     0.3820     2.8220 C.3   1 <1>   0.0400 
 23 C        9.9090     2.1070    -1.0490 C.3   1 <1>   0.0400 
 24 C        2.5680     5.3970     1.6960 C.ar  1 <1>  -0.1500 
 25 C        2.8030     4.7620    -0.5840 C.ar  1 <1>  -0.1500 
 26 C        1.1920     5.3880     1.5630 C.ar  1 <1>  -0.1500 
 27 C        1.4280     4.7480    -0.7260 C.ar  1 <1>  -0.1500 
 28 C        0.6170     5.0610     0.3490 C.ar  1 <1>  -0.1500 
 29 H        2.9610    -0.3240    -2.4280 H     1 <1>   0.1500 
 30 H        2.0040     1.0040     1.4950 H     1 <1>   0.1500 
 31 H        4.8370     1.2530    -2.5160 H     1 <1>   0.1500 
 32 H        3.8520     2.5760     1.4400 H     1 <1>   0.1500 
 33 H        6.1420     2.8810    -1.6640 H     1 <1>   0.1000 
 34 H        7.3240     4.9950    -1.6010 H     1 <1>   0.0800 
 35 H        7.0270     6.1750    -0.3700 H     1 <1>   0.0800 
 36 H        5.1430     5.4990    -2.6530 H     1 <1>   0.0800 
 37 H        6.1750     6.9000    -2.5550 H     1 <1>   0.0800 
 38 H        4.8530     6.7310    -1.4370 H     1 <1>   0.0800 
 39 H        7.2120     0.7910     3.6580 H     1 <1>   0.0800 
 40 H        7.0530    -0.5920     2.5730 H     1 <1>   0.0800 
 41 H        5.6210     0.3200     3.0530 H     1 <1>   0.0800 
 42 H       10.4670     1.8840    -0.1550 H     1 <1>   0.0800 
 43 H       10.2700     3.0180    -1.4930 H     1 <1>   0.0800 
 44 H        9.9910     1.2940    -1.7480 H     1 <1>   0.0800 
 45 H        3.0030     5.6540     2.6480 H     1 <1>   0.1500 
 46 H        3.4030     4.5120    -1.4380 H     1 <1>   0.1500 
 47 H        0.5680     5.6350     2.4050 H     1 <1>   0.1500 
 48 H        0.9850     4.4920    -1.6730 H     1 <1>   0.1500 
 49 H       -0.4540     5.0510     0.2420 H     1 <1>   0.1500 
@<TRIPOS>BOND
  1   1   2  1   
  2   2   3  ar  
  3   2   4  ar  
  4   3   5  ar  
  5   3  29  1   
  6   4   6  ar  
  7   4  30  1   
  8   5   7  ar  
  9   5  31  1   
 10   6   7  ar  
 11   6  32  1   
 12   7   8  1   
 13   8   9  1   
 14   8  10  1   
 15   8  33  1   
 16   9  10  1   
 17   9  11  1   
 18   9  12  1   
 19  10  13  1   
 20  10  14  1   
 21  11  15  2   
 22  11  16  1   
 23  12  17  2   
 24  12  18  1   
 25  13  19  2   
 26  13  20  1   
 27  14  21  1   
 28  14  34  1   
 29  14  35  1   
 30  16  22  1   
 31  18  23  1   
 32  20  24  ar  
 33  20  25  ar  
 34  21  36  1   
 35  21  37  1   
 36  21  38  1   
 37  22  39  1   
 38  22  40  1   
 39  22  41  1   
 40  23  42  1   
 41  23  43  1   
 42  23  44  1   
 43  24  26  ar  
 44  24  45  1   
 45  25  27  ar  
 46  25  46  1   
 47  26  28  ar  
 48  26  47  1   
 49  27  28  ar  
 50  27  48  1   
 51  28  49  1   
@<TRIPOS>SUBSTRUCTURE
  1 ****   8 GROUP 4 **** **** 0

# MOE 2024.06 (io_trps.svl 2023.06)
