@<TRIPOS>MOLECULE
NONAME
49 52 1 0 0 
SMALL
USER_CHARGES


@<TRIPOS>ATOM
  1 O       -2.5850     2.0860     2.4760 O.2   1 <1>  -0.5750 
  2 C       -3.1910     2.4540     1.4930 C.2   1 <1>   0.5890 
  3 C       -2.6650     3.3320     0.4830 C.2   1 <1>   0.0470 
  4 C       -4.5970     1.8780     1.3190 C.3   1 <1>   0.4090 
  5 O       -1.4370     3.8210     0.6080 O.3   1 <1>  -0.2870 
  6 C       -3.1920     3.8070    -0.6850 C.2   1 <1>  -0.1580 
  7 N       -4.6290     0.4480     0.8380 N.pl3 1 <1>  -0.7670 
  8 C       -1.1670     4.5840    -0.4230 C.2   1 <1>  -0.0190 
  9 C       -2.2190     4.6180    -1.2670 C.2   1 <1>  -0.1580 
 10 C       -4.0060    -0.6170     1.3500 C.cat 1 <1>   1.0690 
 11 C       -5.4490    -0.0060    -0.1880 C.ar  1 <1>   0.3020 
 12 N       -3.1680    -0.5780     2.3600 N.pl3 1 <1>  -0.8400 
 13 N       -4.3440    -1.7380     0.7010 N.pl3 1 <1>  -0.7670 
 14 C       -5.2770    -1.3770    -0.2680 C.ar  1 <1>   0.3020 
 15 C       -6.3260     0.6490    -1.0480 C.ar  1 <1>  -0.1170 
 16 C       -3.9040    -3.1430     0.9390 C.3   1 <1>   0.3480 
 17 C       -5.9870    -2.1290    -1.2010 C.ar  1 <1>  -0.1170 
 18 C       -7.0240    -0.0950    -1.9790 C.ar  1 <1>  -0.1580 
 19 C       -2.9640    -3.6450    -0.1900 C.3   1 <1>   0.3370 
 20 C       -6.8570    -1.4780    -2.0540 C.ar  1 <1>  -0.1580 
 21 N       -2.6380    -5.1140    -0.1320 N.4   1 <1>  -0.9610 
 22 C       -1.8430    -5.5530     1.0460 C.3   1 <1>   0.3370 
 23 C       -1.8410    -5.5500    -1.3110 C.3   1 <1>   0.3370 
 24 C       -1.2630    -6.8970     0.6320 C.3   1 <1>  -0.1680 
 25 C       -1.2550    -6.8920    -0.8980 C.3   1 <1>  -0.1680 
 26 H       -5.1490     2.5030     0.6430 H     1 <1>   0.0720 
 27 H       -5.0960     1.9300     2.2710 H     1 <1>   0.0720 
 28 H       -4.1560     3.6290    -1.1260 H     1 <1>   0.1420 
 29 H       -0.2060     5.0680    -0.4830 H     1 <1>   0.1420 
 30 H       -2.3090     5.1520    -2.1980 H     1 <1>   0.1420 
 31 H       -2.7370    -1.3770     2.8090 H     1 <1>   0.4440 
 32 H       -2.8490     0.3270     2.7420 H     1 <1>   0.4440 
 33 H       -6.4680     1.7130    -0.9970 H     1 <1>   0.1420 
 34 H       -4.7790    -3.7700     0.9800 H     1 <1>   0.0720 
 35 H       -3.3980    -3.2120     1.8850 H     1 <1>   0.0720 
 36 H       -5.8740    -3.1950    -1.2620 H     1 <1>   0.1420 
 37 H       -7.7100     0.3890    -2.6570 H     1 <1>   0.1420 
 38 H       -2.0470    -3.0810    -0.1540 H     1 <1>   0.0720 
 39 H       -3.4400    -3.4410    -1.1350 H     1 <1>   0.0720 
 40 H       -7.4200    -2.0340    -2.7870 H     1 <1>   0.1420 
 41 H       -3.4920    -5.6920    -0.1540 H     1 <1>   0.4440 
 42 H       -2.4490    -5.6440     1.9330 H     1 <1>   0.0720 
 43 H       -1.0370    -4.8590     1.2240 H     1 <1>   0.0720 
 44 H       -1.0400    -4.8520    -1.4920 H     1 <1>   0.0720 
 45 H       -2.4490    -5.6400    -2.1970 H     1 <1>   0.0720 
 46 H       -1.8840    -7.6950     1.0010 H     1 <1>   0.0720 
 47 H       -0.2730    -7.0210     1.0360 H     1 <1>   0.0720 
 48 H       -0.2590    -7.0040    -1.2930 H     1 <1>   0.0720 
 49 H       -1.8640    -7.6930    -1.2800 H     1 <1>   0.0720 
@<TRIPOS>BOND
  1   1   2  2   
  2   2   3  1   
  3   2   4  1   
  4   3   5  1   
  5   3   6  2   
  6   4   7  1   
  7   4  26  1   
  8   4  27  1   
  9   5   8  1   
 10   6   9  1   
 11   6  28  1   
 12   7  10  ar  
 13   7  11  1   
 14   8   9  2   
 15   8  29  1   
 16   9  30  1   
 17  10  12  ar  
 18  10  13  ar  
 19  11  14  ar  
 20  11  15  ar  
 21  12  31  1   
 22  12  32  1   
 23  13  14  1   
 24  13  16  1   
 25  14  17  ar  
 26  15  18  ar  
 27  15  33  1   
 28  16  19  1   
 29  16  34  1   
 30  16  35  1   
 31  17  20  ar  
 32  17  36  1   
 33  18  20  ar  
 34  18  37  1   
 35  19  21  1   
 36  19  38  1   
 37  19  39  1   
 38  20  40  1   
 39  21  22  1   
 40  21  23  1   
 41  21  41  1   
 42  22  24  1   
 43  22  42  1   
 44  22  43  1   
 45  23  25  1   
 46  23  44  1   
 47  23  45  1   
 48  24  25  1   
 49  24  46  1   
 50  24  47  1   
 51  25  48  1   
 52  25  49  1   
@<TRIPOS>SUBSTRUCTURE
  1 ****  10 GROUP 4 **** **** 0

# MOE 2024.06 (io_trps.svl 2023.06)
