@<TRIPOS>MOLECULE
NONAME
42 43 1 0 0 
SMALL
USER_CHARGES


@<TRIPOS>ATOM
  1 O       -0.0940    -0.6550    -1.2250 O.2   1 <1>  -0.5700 
  2 C        0.1130    -1.2960    -0.2210 C.2   1 <1>   0.5690 
  3 N        1.3630    -1.5390     0.2910 N.am  1 <1>  -0.5470 
  4 C       -1.1310    -1.8510     0.4950 C.3   1 <1>   0.4040 
  5 C        2.6240    -1.1130    -0.1590 C.ar  1 <1>   0.1170 
  6 N       -2.4000    -1.1710     0.0290 N.4   1 <1>  -0.9590 
  7 C        3.7420    -1.8380     0.2320 C.ar  1 <1>  -0.1500 
  8 C        2.8130     0.0090    -0.9620 C.ar  1 <1>  -0.1500 
  9 C       -2.9190    -0.1110     0.9420 C.3   1 <1>   0.4230 
 10 C       -3.4350    -2.1710    -0.3580 C.3   1 <1>   0.3430 
 11 C        5.0160    -1.4680    -0.1640 C.ar  1 <1>   0.0830 
 12 C        4.0820     0.3870    -1.3650 C.ar  1 <1>  -0.1500 
 13 C       -4.1020     0.6010     0.2710 C.3   1 <1>  -0.1600 
 14 C       -1.8280     0.9090     1.2690 C.3   1 <1>  -0.2400 
 15 C       -4.6100    -1.4760    -1.0440 C.3   1 <1>  -0.1600 
 16 O        6.0380    -2.2460     0.2740 O.3   1 <1>  -0.3630 
 17 C        5.1860    -0.3470    -0.9700 C.ar  1 <1>  -0.1500 
 18 C       -5.2030    -0.3750    -0.1600 C.3   1 <1>  -0.1600 
 19 C        7.3740    -1.9700    -0.0880 C.3   1 <1>   0.0400 
 20 H        1.4310    -2.1640     1.0940 H     1 <1>   0.3700 
 21 H       -1.0160    -1.7300     1.5580 H     1 <1>   0.0800 
 22 H       -1.1850    -2.9040     0.2800 H     1 <1>   0.0800 
 23 H       -2.1050    -0.6780    -0.8360 H     1 <1>   0.4500 
 24 H        3.6410    -2.7080     0.8510 H     1 <1>   0.1500 
 25 H        1.9760     0.6020    -1.2790 H     1 <1>   0.1500 
 26 H       -3.2650    -0.5650     1.8570 H     1 <1>   0.0800 
 27 H       -3.7900    -2.6880     0.5190 H     1 <1>   0.0800 
 28 H       -3.0120    -2.8980    -1.0340 H     1 <1>   0.0800 
 29 H        4.2100     1.2560    -1.9880 H     1 <1>   0.1500 
 30 H       -3.7540     1.1510    -0.5860 H     1 <1>   0.0800 
 31 H       -4.5220     1.3150     0.9590 H     1 <1>   0.0800 
 32 H       -1.4060     1.3250     0.3700 H     1 <1>   0.0800 
 33 H       -1.0480     0.4800     1.8690 H     1 <1>   0.0800 
 34 H       -2.2510     1.7180     1.8380 H     1 <1>   0.0800 
 35 H       -5.3710    -2.2040    -1.2660 H     1 <1>   0.0800 
 36 H       -4.2810    -1.0590    -1.9810 H     1 <1>   0.0800 
 37 H        6.1590    -0.0320    -1.2960 H     1 <1>   0.1500 
 38 H       -5.9700     0.1550    -0.7010 H     1 <1>   0.0800 
 39 H       -5.6600    -0.8150     0.7110 H     1 <1>   0.0800 
 40 H        8.0020    -2.7160     0.3640 H     1 <1>   0.0800 
 41 H        7.6410    -0.9950     0.2800 H     1 <1>   0.0800 
 42 H        7.4620    -2.0170    -1.1590 H     1 <1>   0.0800 
@<TRIPOS>BOND
  1   1   2  2   
  2   2   3  am  
  3   2   4  1   
  4   3   5  1   
  5   3  20  1   
  6   4   6  1   
  7   4  21  1   
  8   4  22  1   
  9   5   7  ar  
 10   5   8  ar  
 11   6   9  1   
 12   6  10  1   
 13   6  23  1   
 14   7  11  ar  
 15   7  24  1   
 16   8  12  ar  
 17   8  25  1   
 18   9  13  1   
 19   9  14  1   
 20   9  26  1   
 21  10  15  1   
 22  10  27  1   
 23  10  28  1   
 24  11  16  1   
 25  11  17  ar  
 26  12  17  ar  
 27  12  29  1   
 28  13  18  1   
 29  13  30  1   
 30  13  31  1   
 31  14  32  1   
 32  14  33  1   
 33  14  34  1   
 34  15  18  1   
 35  15  35  1   
 36  15  36  1   
 37  16  19  1   
 38  17  37  1   
 39  18  38  1   
 40  18  39  1   
 41  19  40  1   
 42  19  41  1   
 43  19  42  1   
@<TRIPOS>SUBSTRUCTURE
  1 ****   2 GROUP 4 **** **** 0

# MOE 2024.06 (io_trps.svl 2023.06)
