@<TRIPOS>MOLECULE
NONAME
47 49 1 0 0 
SMALL
USER_CHARGES


@<TRIPOS>ATOM
  1 CL       0.1210     0.3310     1.0550 Cl    1 <1>  -0.1770 
  2 C       -1.4620     0.9490     0.6570 C.ar  1 <1>   0.1770 
  3 C       -1.6490     1.6160    -0.5390 C.ar  1 <1>  -0.1500 
  4 C       -2.5090     0.7460     1.5360 C.ar  1 <1>  -0.1500 
  5 C       -2.9110     2.0830    -0.8620 C.ar  1 <1>  -0.1500 
  6 C       -3.7690     1.2090     1.2030 C.ar  1 <1>  -0.1500 
  7 C       -3.9820     1.8790     0.0020 C.ar  1 <1>   0.1000 
  8 N       -5.2460     2.3630    -0.3300 N.pl3 1 <1>  -0.6000 
  9 C       -6.4470     1.7300    -0.2730 C.ar  1 <1>   0.7200 
 10 N       -7.4760     2.5120    -0.1190 N.ar  1 <1>  -0.6200 
 11 N       -6.4700     0.4270    -0.3890 N.ar  1 <1>  -0.6200 
 12 C       -8.6110     1.8730    -0.0480 C.ar  1 <1>   0.7030 
 13 C       -7.6720    -0.0700    -0.3310 C.ar  1 <1>   0.7200 
 14 O       -9.6870     2.6520     0.1370 O.3   1 <1>  -0.3620 
 15 N       -8.7820     0.5770    -0.1420 N.ar  1 <1>  -0.6200 
 16 N       -7.8100    -1.4050    -0.4740 N.pl3 1 <1>  -0.8690 
 17 C      -10.9960     2.1280     0.2520 C.3   1 <1>   0.0400 
 18 C       -7.2530    -2.1470    -1.6500 C.3   1 <1>   0.2090 
 19 C       -5.7050    -2.1680    -1.7200 C.3   1 <1>   0.3430 
 20 N       -5.0520    -2.1620    -0.3740 N.4   1 <1>  -0.9590 
 21 C       -3.5610    -1.9730    -0.4400 C.3   1 <1>   0.3430 
 22 C       -5.4530    -3.2800     0.5400 C.3   1 <1>   0.3430 
 23 C       -2.8450    -2.4780     0.8320 C.3   1 <1>   0.1200 
 24 C       -4.8280    -3.1180     1.9460 C.3   1 <1>   0.1200 
 25 O       -3.6750    -2.3140     1.9460 O.3   1 <1>  -0.5600 
 26 H       -0.8150     1.7700    -1.2020 H     1 <1>   0.1500 
 27 H       -2.3400     0.2320     2.4670 H     1 <1>   0.1500 
 28 H       -3.0700     2.6100    -1.7860 H     1 <1>   0.1500 
 29 H       -4.5900     1.0580     1.8830 H     1 <1>   0.1500 
 30 H       -5.3540     3.3760    -0.3770 H     1 <1>   0.4000 
 31 H       -8.7870    -1.6540    -0.2840 H     1 <1>   0.4000 
 32 H      -11.6750     2.9490     0.3990 H     1 <1>   0.0800 
 33 H      -11.0340     1.4640     1.0980 H     1 <1>   0.0800 
 34 H      -11.2440     1.6030    -0.6540 H     1 <1>   0.0800 
 35 H       -7.6380    -1.7140    -2.5590 H     1 <1>   0.0800 
 36 H       -7.6070    -3.1630    -1.6100 H     1 <1>   0.0800 
 37 H       -5.3920    -1.2870    -2.2560 H     1 <1>   0.0800 
 38 H       -5.3840    -3.0250    -2.2890 H     1 <1>   0.0800 
 39 H       -5.4270    -1.3020     0.0790 H     1 <1>   0.4500 
 40 H       -3.3440    -0.9240    -0.5670 H     1 <1>   0.0800 
 41 H       -3.1550    -2.4940    -1.2900 H     1 <1>   0.0800 
 42 H       -5.1260    -4.2180     0.1230 H     1 <1>   0.0800 
 43 H       -6.5250    -3.3200     0.6370 H     1 <1>   0.0800 
 44 H       -1.9380    -1.9250     0.9990 H     1 <1>   0.0800 
 45 H       -2.5910    -3.5200     0.7430 H     1 <1>   0.0800 
 46 H       -4.5700    -4.0800     2.3530 H     1 <1>   0.0800 
 47 H       -5.5370    -2.6540     2.6090 H     1 <1>   0.0800 
@<TRIPOS>BOND
  1   1   2  1   
  2   2   3  ar  
  3   2   4  ar  
  4   3   5  ar  
  5   3  26  1   
  6   4   6  ar  
  7   4  27  1   
  8   5   7  ar  
  9   5  28  1   
 10   6   7  ar  
 11   6  29  1   
 12   7   8  1   
 13   8   9  1   
 14   8  30  1   
 15   9  10  ar  
 16   9  11  ar  
 17  10  12  ar  
 18  11  13  ar  
 19  12  14  1   
 20  12  15  ar  
 21  13  15  ar  
 22  13  16  1   
 23  14  17  1   
 24  16  18  1   
 25  16  31  1   
 26  17  32  1   
 27  17  33  1   
 28  17  34  1   
 29  18  19  1   
 30  18  35  1   
 31  18  36  1   
 32  19  20  1   
 33  19  37  1   
 34  19  38  1   
 35  20  21  1   
 36  20  22  1   
 37  20  39  1   
 38  21  23  1   
 39  21  40  1   
 40  21  41  1   
 41  22  24  1   
 42  22  42  1   
 43  22  43  1   
 44  23  25  1   
 45  23  44  1   
 46  23  45  1   
 47  24  25  1   
 48  24  46  1   
 49  24  47  1   
@<TRIPOS>SUBSTRUCTURE
  1 ****  11 GROUP 4 **** **** 0

# MOE 2024.06 (io_trps.svl 2023.06)
