@<TRIPOS>MOLECULE
NONAME
60 60 1 0 0 
SMALL
USER_CHARGES


@<TRIPOS>ATOM
  1 O       -0.4070    -0.5120     0.5280 O.2   1 <1>  -0.5700 
  2 C       -0.7360    -1.6530     0.2780 C.2   1 <1>   0.5440 
  3 N        0.1150    -2.4780    -0.4090 N.am  1 <1>  -0.7300 
  4 C       -2.0390    -2.1430     0.6890 C.ar  1 <1>   0.0860 
  5 C        1.4650    -2.2090    -0.9170 C.3   1 <1>   0.3000 
  6 C       -2.2390    -3.4750     1.0430 C.ar  1 <1>  -0.1500 
  7 C       -3.1430    -1.2940     0.7430 C.ar  1 <1>  -0.1500 
  8 C        1.4140    -1.0920    -1.9600 C.3   1 <1>  -0.2400 
  9 C        1.9420    -3.5020    -1.5760 C.3   1 <1>  -0.2400 
 10 C        2.3990    -1.8530     0.2410 C.3   1 <1>  -0.2400 
 11 C       -3.4870    -3.9470     1.4110 C.ar  1 <1>   0.1170 
 12 C       -4.4140    -1.7280     1.1130 C.ar  1 <1>   0.0860 
 13 N       -3.6550    -5.2850     1.7680 N.am  1 <1>  -0.5470 
 14 C       -4.5570    -3.0700     1.4570 C.ar  1 <1>  -0.1500 
 15 C       -5.5430    -0.8140     1.1340 C.2   1 <1>   0.5440 
 16 C       -4.0010    -6.4030     1.0660 C.2   1 <1>   0.5690 
 17 O       -5.3730     0.3570     1.4040 O.2   1 <1>  -0.5700 
 18 N       -6.7980    -1.2750     0.8320 N.am  1 <1>  -0.7300 
 19 O       -4.0620    -7.4330     1.6910 O.2   1 <1>  -0.5700 
 20 C       -4.3170    -6.4080    -0.4620 C.3   1 <1>   0.0610 
 21 C       -8.0710    -0.5470     0.7910 C.3   1 <1>   0.3000 
 22 C       -3.1400    -5.8650    -1.2970 C.3   1 <1>  -0.2400 
 23 C       -4.5880    -7.8470    -0.9590 C.3   1 <1>  -0.2400 
 24 C       -5.5770    -5.5800    -0.7780 C.3   1 <1>  -0.2400 
 25 C       -8.3840     0.0390     2.1680 C.3   1 <1>  -0.2400 
 26 C       -9.1400    -1.5740     0.4200 C.3   1 <1>  -0.2400 
 27 C       -8.0130     0.5400    -0.2820 C.3   1 <1>  -0.2400 
 28 H       -0.2320    -3.3900    -0.6950 H     1 <1>   0.3700 
 29 H       -1.4090    -4.1580     1.0410 H     1 <1>   0.1500 
 30 H       -3.0070    -0.2550     0.4880 H     1 <1>   0.1500 
 31 H        0.7210    -1.3380    -2.7430 H     1 <1>   0.0800 
 32 H        2.3860    -0.9470    -2.3950 H     1 <1>   0.0800 
 33 H        1.1150    -0.1650    -1.5070 H     1 <1>   0.0800 
 34 H        1.2940    -3.7750    -2.3900 H     1 <1>   0.0800 
 35 H        1.9740    -4.3030    -0.8600 H     1 <1>   0.0800 
 36 H        2.9340    -3.3680    -1.9710 H     1 <1>   0.0800 
 37 H        2.1050    -0.9240     0.6940 H     1 <1>   0.0800 
 38 H        3.4060    -1.7410    -0.1160 H     1 <1>   0.0800 
 39 H        2.3840    -2.6260     0.9880 H     1 <1>   0.0800 
 40 H       -3.4890    -5.5070     2.7510 H     1 <1>   0.3700 
 41 H       -5.5140    -3.4410     1.7760 H     1 <1>   0.1500 
 42 H       -6.8880    -2.2340     0.5100 H     1 <1>   0.3700 
 43 H       -2.2320    -6.3770    -1.0340 H     1 <1>   0.0800 
 44 H       -3.0040    -4.8130    -1.1380 H     1 <1>   0.0800 
 45 H       -3.3210    -6.0120    -2.3470 H     1 <1>   0.0800 
 46 H       -3.7300    -8.4720    -0.7810 H     1 <1>   0.0800 
 47 H       -4.8070    -7.8640    -2.0120 H     1 <1>   0.0800 
 48 H       -5.4240    -8.2740    -0.4330 H     1 <1>   0.0800 
 49 H       -5.4130    -4.5380    -0.5920 H     1 <1>   0.0800 
 50 H       -6.4010    -5.9140    -0.1710 H     1 <1>   0.0800 
 51 H       -5.8520    -5.6890    -1.8130 H     1 <1>   0.0800 
 52 H       -8.3720    -0.7300     2.9180 H     1 <1>   0.0800 
 53 H       -9.3560     0.4980     2.1640 H     1 <1>   0.0800 
 54 H       -7.6660     0.7940     2.4320 H     1 <1>   0.0800 
 55 H       -9.1880    -2.3540     1.1590 H     1 <1>   0.0800 
 56 H       -8.9350    -2.0050    -0.5430 H     1 <1>   0.0800 
 57 H      -10.1040    -1.0990     0.3740 H     1 <1>   0.0800 
 58 H       -7.2900     1.2920    -0.0210 H     1 <1>   0.0800 
 59 H       -8.9690     1.0210    -0.3740 H     1 <1>   0.0800 
 60 H       -7.7490     0.1180    -1.2340 H     1 <1>   0.0800 
@<TRIPOS>BOND
  1   1   2  2   
  2   2   3  am  
  3   2   4  1   
  4   3   5  1   
  5   3  28  1   
  6   4   6  ar  
  7   4   7  ar  
  8   5   8  1   
  9   5   9  1   
 10   5  10  1   
 11   6  11  ar  
 12   6  29  1   
 13   7  12  ar  
 14   7  30  1   
 15   8  31  1   
 16   8  32  1   
 17   8  33  1   
 18   9  34  1   
 19   9  35  1   
 20   9  36  1   
 21  10  37  1   
 22  10  38  1   
 23  10  39  1   
 24  11  13  1   
 25  11  14  ar  
 26  12  14  ar  
 27  12  15  1   
 28  13  16  am  
 29  13  40  1   
 30  14  41  1   
 31  15  17  2   
 32  15  18  am  
 33  16  19  2   
 34  16  20  1   
 35  18  21  1   
 36  18  42  1   
 37  20  22  1   
 38  20  23  1   
 39  20  24  1   
 40  21  25  1   
 41  21  26  1   
 42  21  27  1   
 43  22  43  1   
 44  22  44  1   
 45  22  45  1   
 46  23  46  1   
 47  23  47  1   
 48  23  48  1   
 49  24  49  1   
 50  24  50  1   
 51  24  51  1   
 52  25  52  1   
 53  25  53  1   
 54  25  54  1   
 55  26  55  1   
 56  26  56  1   
 57  26  57  1   
 58  27  58  1   
 59  27  59  1   
 60  27  60  1   
@<TRIPOS>SUBSTRUCTURE
  1 ****  11 GROUP 4 **** **** 0

# MOE 2024.06 (io_trps.svl 2023.06)
