@<TRIPOS>MOLECULE
NONAME
28 28 1 0 0 
SMALL
USER_CHARGES


@<TRIPOS>ATOM
  1 O       -0.1670     0.2140     1.7220 O.co2 1 <1>  -0.9000 
  2 C       -0.8580     1.2060     1.9910 C.2   1 <1>   0.9060 
  3 O       -1.6520     1.1930     2.9420 O.co2 1 <1>  -0.9000 
  4 C       -0.7440     2.4920     1.1660 C.3   1 <1>  -0.1860 
  5 C       -1.7680     2.6800     0.0130 C.3   1 <1>   0.0000 
  6 C        0.6260     2.7900     0.5370 C.3   1 <1>  -0.1600 
  7 C       -1.0080     3.5090    -1.0710 C.3   1 <1>  -0.0800 
  8 C       -2.1970     1.3330    -0.5970 C.3   1 <1>  -0.2400 
  9 C       -3.0300     3.3700     0.5670 C.3   1 <1>  -0.2400 
 10 C        0.3170     3.9430    -0.4230 C.3   1 <1>  -0.1860 
 11 C       -1.7530     4.6960    -1.7040 C.3   1 <1>  -0.2400 
 12 C        1.4410     4.3080    -1.3960 C.2   1 <1>   0.9060 
 13 O        1.6730     3.5990    -2.3850 O.co2 1 <1>  -0.9000 
 14 O        2.0870     5.3430    -1.1810 O.co2 1 <1>  -0.9000 
 15 H       -0.9030     3.2800     1.8760 H     1 <1>   0.0800 
 16 H        1.3600     3.0610     1.2750 H     1 <1>   0.0800 
 17 H        0.9750     1.9330    -0.0150 H     1 <1>   0.0800 
 18 H       -0.7410     2.8420    -1.8740 H     1 <1>   0.0800 
 19 H       -1.3280     0.7690    -0.8910 H     1 <1>   0.0800 
 20 H       -2.8170     1.4890    -1.4590 H     1 <1>   0.0800 
 21 H       -2.7440     0.7470     0.1210 H     1 <1>   0.0800 
 22 H       -2.7870     4.3380     0.9640 H     1 <1>   0.0800 
 23 H       -3.4440     2.7770     1.3650 H     1 <1>   0.0800 
 24 H       -3.7760     3.4800    -0.1980 H     1 <1>   0.0800 
 25 H        0.1320     4.8170     0.1720 H     1 <1>   0.0800 
 26 H       -1.9740     5.4470    -0.9690 H     1 <1>   0.0800 
 27 H       -2.6640     4.3610    -2.1630 H     1 <1>   0.0800 
 28 H       -1.1330     5.1390    -2.4630 H     1 <1>   0.0800 
@<TRIPOS>BOND
  1   1   2  ar  
  2   2   3  ar  
  3   2   4  1   
  4   4   5  1   
  5   4   6  1   
  6   4  15  1   
  7   5   7  1   
  8   5   8  1   
  9   5   9  1   
 10   6  10  1   
 11   6  16  1   
 12   6  17  1   
 13   7  10  1   
 14   7  11  1   
 15   7  18  1   
 16   8  19  1   
 17   8  20  1   
 18   8  21  1   
 19   9  22  1   
 20   9  23  1   
 21   9  24  1   
 22  10  12  1   
 23  10  25  1   
 24  11  26  1   
 25  11  27  1   
 26  11  28  1   
 27  12  13  ar  
 28  12  14  ar  
@<TRIPOS>SUBSTRUCTURE
  1 ****   4 GROUP 4 **** **** 0

# MOE 2024.06 (io_trps.svl 2023.06)
