@<TRIPOS>MOLECULE
NONAME
46 48 1 0 0 
SMALL
USER_CHARGES


@<TRIPOS>ATOM
  1 O        0.8510     3.3950     1.8160 O.2   1 <1>  -0.5700 
  2 C        0.2180     2.8460     0.9430 C.2   1 <1>   0.5690 
  3 N        0.6400     1.6570     0.4280 N.am  1 <1>  -0.7300 
  4 C       -1.0640     3.5110     0.3840 C.3   1 <1>   0.2040 
  5 C        1.8430     0.9090     0.8590 C.3   1 <1>   0.1400 
  6 C       -1.8630     2.4610    -0.4480 C.ar  1 <1>  -0.1440 
  7 C       -1.9420     4.0590     1.5380 C.3   1 <1>  -0.1600 
  8 C       -0.6450     4.7540    -0.4390 C.3   1 <1>  -0.1600 
  9 C        2.9850     1.1540    -0.1250 C.3   1 <1>  -0.0170 
 10 C       -2.4950     1.4080     0.2100 C.ar  1 <1>  -0.1500 
 11 C       -1.9480     2.4890    -1.8390 C.ar  1 <1>  -0.1500 
 12 C       -3.1030     4.8970     0.9960 C.3   1 <1>   0.1200 
 13 C       -1.8510     5.6090    -0.8590 C.3   1 <1>   0.1200 
 14 C        4.2180     0.3720     0.2960 C.ar  1 <1>  -0.1440 
 15 C       -3.2020     0.4420    -0.4830 C.ar  1 <1>  -0.1500 
 16 C       -2.6550     1.5250    -2.5360 C.ar  1 <1>  -0.1500 
 17 O       -2.5810     5.9660     0.2710 O.3   1 <1>  -0.5600 
 18 C        4.5030    -0.8590    -0.2760 C.ar  1 <1>  -0.1500 
 19 C        5.0670     0.8850     1.2640 C.ar  1 <1>  -0.1500 
 20 C       -3.2860     0.5000    -1.8590 C.ar  1 <1>  -0.1500 
 21 C        5.6250    -1.5680     0.1170 C.ar  1 <1>  -0.1500 
 22 C        6.1890     0.1770     1.6570 C.ar  1 <1>  -0.1500 
 23 C        6.4690    -1.0510     1.0830 C.ar  1 <1>  -0.1500 
 24 H        0.0540     1.2110    -0.2860 H     1 <1>   0.3700 
 25 H        1.6150    -0.1420     0.9060 H     1 <1>   0.0800 
 26 H        2.1410     1.2330     1.8420 H     1 <1>   0.0800 
 27 H       -1.3520     4.6930     2.1760 H     1 <1>   0.0800 
 28 H       -2.3220     3.2720     2.1570 H     1 <1>   0.0800 
 29 H       -0.0660     4.4690    -1.2970 H     1 <1>   0.0800 
 30 H       -0.0050     5.3750     0.1640 H     1 <1>   0.0800 
 31 H        3.2190     2.2040    -0.1450 H     1 <1>   0.0800 
 32 H        2.6850     0.8550    -1.1130 H     1 <1>   0.0800 
 33 H       -2.4370     1.3120     1.2800 H     1 <1>   0.1500 
 34 H       -1.4700     3.2530    -2.4210 H     1 <1>   0.1500 
 35 H       -3.6840     5.3050     1.8050 H     1 <1>   0.0800 
 36 H       -3.7490     4.3210     0.3540 H     1 <1>   0.0800 
 37 H       -2.5080     5.0880    -1.5330 H     1 <1>   0.0800 
 38 H       -1.5200     6.5180    -1.3320 H     1 <1>   0.0800 
 39 H       -3.6870    -0.3580     0.0510 H     1 <1>   0.1500 
 40 H       -2.7130     1.5720    -3.6100 H     1 <1>   0.1500 
 41 H        3.8550    -1.2720    -1.0280 H     1 <1>   0.1500 
 42 H        4.8560     1.8390     1.7170 H     1 <1>   0.1500 
 43 H       -3.8390    -0.2490    -2.4010 H     1 <1>   0.1500 
 44 H        5.8420    -2.5220    -0.3310 H     1 <1>   0.1500 
 45 H        6.8440     0.5810     2.4100 H     1 <1>   0.1500 
 46 H        7.3420    -1.6020     1.3880 H     1 <1>   0.1500 
@<TRIPOS>BOND
  1   1   2  2   
  2   2   3  am  
  3   2   4  1   
  4   3   5  1   
  5   3  24  1   
  6   4   6  1   
  7   4   7  1   
  8   4   8  1   
  9   5   9  1   
 10   5  25  1   
 11   5  26  1   
 12   6  10  ar  
 13   6  11  ar  
 14   7  12  1   
 15   7  27  1   
 16   7  28  1   
 17   8  13  1   
 18   8  29  1   
 19   8  30  1   
 20   9  14  1   
 21   9  31  1   
 22   9  32  1   
 23  10  15  ar  
 24  10  33  1   
 25  11  16  ar  
 26  11  34  1   
 27  12  17  1   
 28  12  35  1   
 29  12  36  1   
 30  13  17  1   
 31  13  37  1   
 32  13  38  1   
 33  14  18  ar  
 34  14  19  ar  
 35  15  20  ar  
 36  15  39  1   
 37  16  20  ar  
 38  16  40  1   
 39  18  21  ar  
 40  18  41  1   
 41  19  22  ar  
 42  19  42  1   
 43  20  43  1   
 44  21  23  ar  
 45  21  44  1   
 46  22  23  ar  
 47  22  45  1   
 48  23  46  1   
@<TRIPOS>SUBSTRUCTURE
  1 ****   3 GROUP 4 **** **** 0

# MOE 2024.06 (io_trps.svl 2023.06)
