@<TRIPOS>MOLECULE
NONAME
44 47 1 0 0 
SMALL
USER_CHARGES


@<TRIPOS>ATOM
  1 S       -2.6940     0.5510     2.0340 S.3   1 <1>  -0.2420 
  2 C       -1.8240     1.7150     1.0270 C.2   1 <1>   0.6510 
  3 C       -3.5560    -0.1070     0.6310 C.2   1 <1>  -0.0490 
  4 N       -0.9680     2.5580     1.5000 N.2   1 <1>  -0.6210 
  5 N       -2.2130     1.5560    -0.2770 N.am  1 <1>  -0.2290 
  6 C       -3.1750     0.5410    -0.4770 C.2   1 <1>  -0.0410 
  7 C       -0.3830     3.3870     0.5830 C.2   1 <1>   0.0330 
  8 C       -1.6390     2.3790    -1.2140 C.2   1 <1>   0.6160 
  9 C       -0.6960     3.3220    -0.7390 C.2   1 <1>  -0.1360 
 10 C        0.6260     4.3870     1.1490 C.3   1 <1>   0.2480 
 11 O       -1.9390     2.2830    -2.3950 O.2   1 <1>  -0.5700 
 12 N        1.6080     4.8290     0.1380 N.3   1 <1>  -0.8100 
 13 C        2.2980     6.0610     0.5820 C.3   1 <1>   0.1100 
 14 C        2.6000     3.7620    -0.1360 C.3   1 <1>   0.1100 
 15 C        3.3270     6.5460    -0.4560 C.3   1 <1>   0.1400 
 16 C        3.6210     4.2030    -1.1980 C.3   1 <1>   0.1400 
 17 N        4.3020     5.4590    -0.7630 N.am  1 <1>  -0.6600 
 18 C        5.6400     5.5770    -0.4570 C.2   1 <1>   0.5690 
 19 O        6.0930     6.6430    -0.0940 O.2   1 <1>  -0.5700 
 20 C        6.6060     4.3750    -0.5940 C.3   1 <1>   0.2610 
 21 O        6.2070     3.2550     0.1690 O.3   1 <1>  -0.5600 
 22 C        8.0590     4.6320    -0.1860 C.3   1 <1>  -0.1600 
 23 C        7.2920     2.6030     0.7540 C.3   1 <1>   0.1200 
 24 C        8.5470     3.2480     0.1850 C.3   1 <1>  -0.1600 
 25 H       -4.2520    -0.9080     0.8120 H     1 <1>   0.1500 
 26 H       -3.5240     0.3650    -1.4820 H     1 <1>   0.1500 
 27 H       -0.2530     3.9720    -1.4700 H     1 <1>   0.1500 
 28 H        1.1420     3.9440     1.9840 H     1 <1>   0.0800 
 29 H        0.0740     5.2350     1.5160 H     1 <1>   0.0800 
 30 H        2.8060     5.8830     1.5150 H     1 <1>   0.0800 
 31 H        1.5730     6.8410     0.7370 H     1 <1>   0.0800 
 32 H        2.0970     2.8790    -0.4880 H     1 <1>   0.0800 
 33 H        3.1300     3.5060     0.7670 H     1 <1>   0.0800 
 34 H        3.8320     7.4160    -0.0740 H     1 <1>   0.0800 
 35 H        2.8160     6.8300    -1.3590 H     1 <1>   0.0800 
 36 H        3.1040     4.3850    -2.1240 H     1 <1>   0.0800 
 37 H        4.3240     3.4100    -1.3680 H     1 <1>   0.0800 
 38 H        6.5950     4.0600    -1.6210 H     1 <1>   0.0800 
 39 H        8.0890     5.2750     0.6770 H     1 <1>   0.0800 
 40 H        8.6260     5.0810    -0.9820 H     1 <1>   0.0800 
 41 H        7.2340     1.5510     0.5330 H     1 <1>   0.0800 
 42 H        7.2280     2.7590     1.8180 H     1 <1>   0.0800 
 43 H        9.3510     3.2680     0.9000 H     1 <1>   0.0800 
 44 H        8.8620     2.7090    -0.6910 H     1 <1>   0.0800 
@<TRIPOS>BOND
  1   1   2  1   
  2   1   3  1   
  3   2   4  2   
  4   2   5  1   
  5   3   6  2   
  6   3  25  1   
  7   4   7  1   
  8   5   6  1   
  9   5   8  am  
 10   6  26  1   
 11   7   9  2   
 12   7  10  1   
 13   8   9  1   
 14   8  11  2   
 15   9  27  1   
 16  10  12  1   
 17  10  28  1   
 18  10  29  1   
 19  12  13  1   
 20  12  14  1   
 21  13  15  1   
 22  13  30  1   
 23  13  31  1   
 24  14  16  1   
 25  14  32  1   
 26  14  33  1   
 27  15  17  1   
 28  15  34  1   
 29  15  35  1   
 30  16  17  1   
 31  16  36  1   
 32  16  37  1   
 33  17  18  am  
 34  18  19  2   
 35  18  20  1   
 36  20  21  1   
 37  20  22  1   
 38  20  38  1   
 39  21  23  1   
 40  22  24  1   
 41  22  39  1   
 42  22  40  1   
 43  23  24  1   
 44  23  41  1   
 45  23  42  1   
 46  24  43  1   
 47  24  44  1   
@<TRIPOS>SUBSTRUCTURE
  1 ****  14 GROUP 4 **** **** 0

# MOE 2024.06 (io_trps.svl 2023.06)
