@<TRIPOS>MOLECULE
11519
43 44 1 0 0 
SMALL
USER_CHARGES


@<TRIPOS>ATOM
  1 O        0.9540    -0.6790    -2.1350 O.2   1 <1>  -0.5700 
  2 C        1.6040    -0.9440    -1.1440 C.2   1 <1>   0.6160 
  3 N        1.1510    -1.8960    -0.2810 N.am  1 <1>  -0.7300 
  4 C        2.8350    -0.2570    -0.8860 C.2   1 <1>  -0.1360 
  5 C       -0.0930    -2.6710    -0.4230 C.3   1 <1>   0.2200 
  6 C        3.7460    -0.4760     0.0940 C.2   1 <1>  -0.1780 
  7 C       -1.0600    -2.2000     0.6690 C.3   1 <1>  -0.1600 
  8 C        0.2720    -4.1610    -0.3650 C.3   1 <1>  -0.1600 
  9 C        4.9770     0.2350     0.3400 C.ar  1 <1>   0.0280 
 10 C       -2.3920    -2.9650     0.7360 C.3   1 <1>  -0.1600 
 11 C       -0.8830    -5.0660    -0.8220 C.3   1 <1>  -0.1600 
 12 C        5.1440     1.6170     0.1490 C.ar  1 <1>   0.0830 
 13 C        6.0710    -0.4940     0.8050 C.ar  1 <1>  -0.1500 
 14 C       -2.2290    -4.3770     1.3150 C.3   1 <1>  -0.1600 
 15 C       -1.8720    -5.4610     0.2850 C.3   1 <1>  -0.1600 
 16 O        4.0730     2.3410    -0.2630 O.3   1 <1>  -0.3620 
 17 C        6.3780     2.2150     0.4010 C.ar  1 <1>  -0.1500 
 18 C        7.2900     0.1050     1.0580 C.ar  1 <1>  -0.1500 
 19 C        4.1260     3.7330    -0.4820 C.3   1 <1>   0.0400 
 20 C        7.4450     1.4630     0.8520 C.ar  1 <1>  -0.1500 
 21 H        1.6650    -2.0570     0.5810 H     1 <1>   0.3700 
 22 H        3.0120     0.5240    -1.6000 H     1 <1>   0.1500 
 23 H       -0.5300    -2.4600    -1.3860 H     1 <1>   0.0800 
 24 H        3.5780    -1.2770     0.7900 H     1 <1>   0.1500 
 25 H       -0.5750    -2.2530     1.6280 H     1 <1>   0.0800 
 26 H       -1.2830    -1.1650     0.4750 H     1 <1>   0.0800 
 27 H        1.0900    -4.3200    -1.0470 H     1 <1>   0.0800 
 28 H        0.6020    -4.4380     0.6200 H     1 <1>   0.0800 
 29 H       -3.0470    -2.4140     1.3890 H     1 <1>   0.0800 
 30 H       -2.8630    -2.9990    -0.2310 H     1 <1>   0.0800 
 31 H       -1.4160    -4.5840    -1.6230 H     1 <1>   0.0800 
 32 H       -0.4690    -5.9720    -1.2300 H     1 <1>   0.0800 
 33 H        5.9670    -1.5520     0.9640 H     1 <1>   0.1500 
 34 H       -1.4830    -4.3630     2.0910 H     1 <1>   0.0800 
 35 H       -3.1540    -4.6650     1.7840 H     1 <1>   0.0800 
 36 H       -2.7790    -5.7960    -0.1890 H     1 <1>   0.0800 
 37 H       -1.4720    -6.3050     0.8210 H     1 <1>   0.0800 
 38 H        6.5280     3.2670     0.2550 H     1 <1>   0.1500 
 39 H        8.1190    -0.4830     1.4130 H     1 <1>   0.1500 
 40 H        3.1520     4.0570    -0.8040 H     1 <1>   0.0800 
 41 H        4.8510     3.9380    -1.2500 H     1 <1>   0.0800 
 42 H        4.3870     4.2220     0.4390 H     1 <1>   0.0800 
 43 H        8.3950     1.9310     1.0460 H     1 <1>   0.1500 
@<TRIPOS>BOND
  1   1   2  2   
  2   2   3  am  
  3   2   4  1   
  4   3   5  1   
  5   3  21  1   
  6   4   6  2   
  7   4  22  1   
  8   5   7  1   
  9   5   8  1   
 10   5  23  1   
 11   6   9  1   
 12   6  24  1   
 13   7  10  1   
 14   7  25  1   
 15   7  26  1   
 16   8  11  1   
 17   8  27  1   
 18   8  28  1   
 19   9  12  ar  
 20   9  13  ar  
 21  10  14  1   
 22  10  29  1   
 23  10  30  1   
 24  11  15  1   
 25  11  31  1   
 26  11  32  1   
 27  12  16  1   
 28  12  17  ar  
 29  13  18  ar  
 30  13  33  1   
 31  14  15  1   
 32  14  34  1   
 33  14  35  1   
 34  15  36  1   
 35  15  37  1   
 36  16  19  1   
 37  17  20  ar  
 38  17  38  1   
 39  18  20  ar  
 40  18  39  1   
 41  19  40  1   
 42  19  41  1   
 43  19  42  1   
 44  20  43  1   
@<TRIPOS>SUBSTRUCTURE
  1 ****   4 GROUP 4 **** **** 0

# MOE 2024.06 (io_trps.svl 2023.06)
