@<TRIPOS>MOLECULE
NONAME
44 45 1 0 0 
SMALL
USER_CHARGES


@<TRIPOS>ATOM
  1 S       -0.4810     0.0790     0.4430 S.o2  1 <1>   1.3330 
  2 O       -1.5350     0.8020    -0.2350 O.2   1 <1>  -0.6500 
  3 O       -0.5290    -0.0510     1.8830 O.2   1 <1>  -0.6500 
  4 N        1.0090     0.7780     0.0180 N.am  1 <1>  -0.8490 
  5 C       -0.3830    -1.5590    -0.2960 C.3   1 <1>  -0.0550 
  6 C        1.9440     0.8440     1.1470 C.3   1 <1>   0.1960 
  7 C        0.8630     2.0690    -0.6630 C.3   1 <1>   0.1960 
  8 C        0.7750    -2.4440     0.2050 C.3   1 <1>  -0.2400 
  9 C        3.3270     1.2920     0.6730 C.3   1 <1>  -0.1600 
 10 C        2.2180     2.5630    -1.1780 C.3   1 <1>  -0.1600 
 11 C        3.2540     2.6480    -0.0460 C.3   1 <1>  -0.0190 
 12 C        4.6190     3.0930    -0.5700 C.2   1 <1>   0.5690 
 13 O        5.2360     2.3520    -1.2950 O.2   1 <1>  -0.5700 
 14 N        5.0650     4.3260    -0.1840 N.am  1 <1>  -0.5470 
 15 C        6.2320     5.0650    -0.4530 C.ar  1 <1>   0.1170 
 16 C        6.3380     6.3410     0.1140 C.ar  1 <1>   0.0820 
 17 C        7.2740     4.5950    -1.2450 C.ar  1 <1>  -0.1500 
 18 O        5.2930     6.7690     0.8870 O.3   1 <1>  -0.3630 
 19 C        7.4710     7.1150    -0.1190 C.ar  1 <1>  -0.1500 
 20 C        8.3970     5.3690    -1.4730 C.ar  1 <1>  -0.1500 
 21 C        5.3110     8.0410     1.4990 C.3   1 <1>   0.0400 
 22 C        8.4970     6.6280    -0.9110 C.ar  1 <1>  -0.1500 
 23 H       -0.2920    -1.4500    -1.3590 H     1 <1>   0.0800 
 24 H       -1.3070    -2.0710    -0.1060 H     1 <1>   0.0800 
 25 H        2.0310    -0.1270     1.6040 H     1 <1>   0.0800 
 26 H        1.5670     1.5290     1.8900 H     1 <1>   0.0800 
 27 H        0.4330     2.7890     0.0130 H     1 <1>   0.0800 
 28 H        0.2000     1.9620    -1.5060 H     1 <1>   0.0800 
 29 H        1.7200    -1.9940    -0.0410 H     1 <1>   0.0800 
 30 H        0.7250    -3.4140    -0.2580 H     1 <1>   0.0800 
 31 H        0.7140    -2.5650     1.2720 H     1 <1>   0.0800 
 32 H        3.7250     0.5440     0.0080 H     1 <1>   0.0800 
 33 H        3.9890     1.3640     1.5180 H     1 <1>   0.0800 
 34 H        2.0950     3.5290    -1.6330 H     1 <1>   0.0800 
 35 H        2.5660     1.8860    -1.9390 H     1 <1>   0.0800 
 36 H        2.9090     3.3780     0.6640 H     1 <1>   0.0800 
 37 H        4.4380     4.8550     0.4230 H     1 <1>   0.3700 
 38 H        7.2200     3.6200    -1.6920 H     1 <1>   0.1500 
 39 H        7.5790     8.0960     0.3020 H     1 <1>   0.1500 
 40 H        9.1930     4.9880    -2.0890 H     1 <1>   0.1500 
 41 H        4.3960     8.1600     2.0520 H     1 <1>   0.0800 
 42 H        5.3770     8.7960     0.7360 H     1 <1>   0.0800 
 43 H        6.1510     8.0950     2.1690 H     1 <1>   0.0800 
 44 H        9.3720     7.2280    -1.0900 H     1 <1>   0.1500 
@<TRIPOS>BOND
  1   1   2  2   
  2   1   3  2   
  3   1   4  am  
  4   1   5  1   
  5   4   6  1   
  6   4   7  1   
  7   5   8  1   
  8   5  23  1   
  9   5  24  1   
 10   6   9  1   
 11   6  25  1   
 12   6  26  1   
 13   7  10  1   
 14   7  27  1   
 15   7  28  1   
 16   8  29  1   
 17   8  30  1   
 18   8  31  1   
 19   9  11  1   
 20   9  32  1   
 21   9  33  1   
 22  10  11  1   
 23  10  34  1   
 24  10  35  1   
 25  11  12  1   
 26  11  36  1   
 27  12  13  2   
 28  12  14  am  
 29  14  15  1   
 30  14  37  1   
 31  15  16  ar  
 32  15  17  ar  
 33  16  18  1   
 34  16  19  ar  
 35  17  20  ar  
 36  17  38  1   
 37  18  21  1   
 38  19  22  ar  
 39  19  39  1   
 40  20  22  ar  
 41  20  40  1   
 42  21  41  1   
 43  21  42  1   
 44  21  43  1   
 45  22  44  1   
@<TRIPOS>SUBSTRUCTURE
  1 ****  11 GROUP 4 **** **** 0

# MOE 2024.06 (io_trps.svl 2023.06)
