@<TRIPOS>MOLECULE
NONAME
51 53 1 0 0 
SMALL
USER_CHARGES


@<TRIPOS>ATOM
  1 O       -4.8890    -0.6230    -2.2470 O.3   1 <1>  -0.3630 
  2 C       -4.5160     0.1050    -1.1660 C.ar  1 <1>   0.0820 
  3 C       -6.0870    -1.3670    -2.2520 C.3   1 <1>   0.0400 
  4 C       -5.3310     0.3190    -0.0580 C.ar  1 <1>  -0.1500 
  5 C       -3.2450     0.6550    -1.1910 C.ar  1 <1>  -0.1500 
  6 C       -4.8790     1.0770     1.0120 C.ar  1 <1>  -0.1430 
  7 C       -2.7860     1.4070    -0.1250 C.ar  1 <1>  -0.1500 
  8 C       -3.6010     1.6170     0.9750 C.ar  1 <1>  -0.1500 
  9 C       -5.7860     1.3180     2.2090 C.3   1 <1>   0.2530 
 10 N       -6.9840     2.0780     1.7970 N.3   1 <1>  -0.8100 
 11 C       -7.9670     2.2070     2.8950 C.3   1 <1>   0.1100 
 12 C       -6.6370     3.4120     1.2410 C.3   1 <1>   0.1100 
 13 C       -9.2610     2.9240     2.4340 C.3   1 <1>   0.3430 
 14 C       -7.8880     4.2380     0.8540 C.3   1 <1>   0.3430 
 15 N       -9.1360     3.4290     1.0250 N.4   1 <1>  -0.9590 
 16 C      -10.3470     4.0700     0.4790 C.3   1 <1>   0.4810 
 17 C      -11.3750     2.9830     0.2830 C.2   1 <1>  -0.2880 
 18 C      -11.7010     2.4490    -0.9070 C.2   1 <1>  -0.1780 
 19 C      -12.6650     1.4040    -1.1800 C.ar  1 <1>   0.0280 
 20 C      -12.6830     0.7850    -2.4280 C.ar  1 <1>  -0.1500 
 21 C      -13.5960     0.9760    -0.2350 C.ar  1 <1>  -0.1500 
 22 C      -13.5850    -0.2220    -2.7210 C.ar  1 <1>  -0.1500 
 23 C      -14.5000    -0.0310    -0.5210 C.ar  1 <1>  -0.1500 
 24 C      -14.4960    -0.6330    -1.7660 C.ar  1 <1>  -0.1500 
 25 H       -6.1370    -1.9130    -3.1760 H     1 <1>   0.0800 
 26 H       -6.9190    -0.6900    -2.1820 H     1 <1>   0.0800 
 27 H       -6.0760    -2.0520    -1.4230 H     1 <1>   0.0800 
 28 H       -6.3220    -0.0900    -0.0150 H     1 <1>   0.1500 
 29 H       -2.6200     0.4860    -2.0490 H     1 <1>   0.1500 
 30 H       -1.7960     1.8260    -0.1520 H     1 <1>   0.1500 
 31 H       -3.2300     2.2020     1.7980 H     1 <1>   0.1500 
 32 H       -5.2540     1.8520     2.9790 H     1 <1>   0.0800 
 33 H       -6.0850     0.3640     2.6090 H     1 <1>   0.0800 
 34 H       -8.2270     1.2280     3.2620 H     1 <1>   0.0800 
 35 H       -7.5300     2.7540     3.7150 H     1 <1>   0.0800 
 36 H       -6.0510     3.9690     1.9530 H     1 <1>   0.0800 
 37 H       -6.0330     3.2870     0.3580 H     1 <1>   0.0800 
 38 H       -9.4720     3.7410     3.1050 H     1 <1>   0.0800 
 39 H      -10.0800     2.2270     2.4980 H     1 <1>   0.0800 
 40 H       -7.7880     4.5560    -0.1710 H     1 <1>   0.0800 
 41 H       -7.9330     5.1210     1.4700 H     1 <1>   0.0800 
 42 H       -8.9560     2.5730     0.4760 H     1 <1>   0.4500 
 43 H      -10.7160     4.8350     1.1430 H     1 <1>   0.0800 
 44 H      -10.1220     4.5180    -0.4750 H     1 <1>   0.0800 
 45 H      -11.8320     2.6690     1.2030 H     1 <1>   0.1500 
 46 H      -11.2110     2.8020    -1.7990 H     1 <1>   0.1500 
 47 H      -11.9830     1.0900    -3.1850 H     1 <1>   0.1500 
 48 H      -13.6300     1.4320     0.7360 H     1 <1>   0.1500 
 49 H      -13.5800    -0.6860    -3.6920 H     1 <1>   0.1500 
 50 H      -15.2110    -0.3470     0.2230 H     1 <1>   0.1500 
 51 H      -15.1990    -1.4170    -1.9900 H     1 <1>   0.1500 
@<TRIPOS>BOND
  1   1   2  1   
  2   1   3  1   
  3   2   4  ar  
  4   2   5  ar  
  5   3  25  1   
  6   3  26  1   
  7   3  27  1   
  8   4   6  ar  
  9   4  28  1   
 10   5   7  ar  
 11   5  29  1   
 12   6   8  ar  
 13   6   9  1   
 14   7   8  ar  
 15   7  30  1   
 16   8  31  1   
 17   9  10  1   
 18   9  32  1   
 19   9  33  1   
 20  10  11  1   
 21  10  12  1   
 22  11  13  1   
 23  11  34  1   
 24  11  35  1   
 25  12  14  1   
 26  12  36  1   
 27  12  37  1   
 28  13  15  1   
 29  13  38  1   
 30  13  39  1   
 31  14  15  1   
 32  14  40  1   
 33  14  41  1   
 34  15  16  1   
 35  15  42  1   
 36  16  17  1   
 37  16  43  1   
 38  16  44  1   
 39  17  18  2   
 40  17  45  1   
 41  18  19  1   
 42  18  46  1   
 43  19  20  ar  
 44  19  21  ar  
 45  20  22  ar  
 46  20  47  1   
 47  21  23  ar  
 48  21  48  1   
 49  22  24  ar  
 50  22  49  1   
 51  23  24  ar  
 52  23  50  1   
 53  24  51  1   
@<TRIPOS>SUBSTRUCTURE
  1 ****  15 GROUP 4 **** **** 0

# MOE 2024.06 (io_trps.svl 2023.06)
