@<TRIPOS>MOLECULE
NONAME
41 42 1 0 0 
SMALL
USER_CHARGES


@<TRIPOS>ATOM
  1 F        0.8700    -0.2100    -1.0430 F     1 <1>  -0.1900 
  2 C        0.6590    -1.3990    -0.5360 C.ar  1 <1>   0.1900 
  3 C        1.7410    -2.1920    -0.1640 C.ar  1 <1>   0.0820 
  4 C       -0.6510    -1.8160    -0.3930 C.ar  1 <1>  -0.1500 
  5 O        3.0010    -1.7050    -0.3380 O.3   1 <1>  -0.3630 
  6 C        1.4720    -3.4510     0.3710 C.ar  1 <1>  -0.1500 
  7 C       -0.8980    -3.0690     0.1400 C.ar  1 <1>  -0.1500 
  8 C        4.1380    -2.4550     0.0160 C.3   1 <1>   0.1200 
  9 C        0.1610    -3.8800     0.5200 C.ar  1 <1>  -0.1500 
 10 C        5.3710    -1.6130    -0.3130 C.3   1 <1>  -0.1600 
 11 C        6.6710    -2.3480     0.0420 C.3   1 <1>  -0.1600 
 12 C        7.8950    -1.4860    -0.2980 C.3   1 <1>  -0.1600 
 13 C        9.1940    -2.2130     0.0530 C.3   1 <1>   0.3430 
 14 N       10.3680    -1.3990    -0.3590 N.4   1 <1>  -0.9590 
 15 C       11.6450    -2.1450    -0.2590 C.3   1 <1>   0.3430 
 16 C       10.5620    -0.1600     0.4350 C.3   1 <1>   0.3430 
 17 C       12.7160    -1.0630    -0.2640 C.3   1 <1>  -0.1600 
 18 C       12.0180     0.2190     0.1990 C.3   1 <1>  -0.1600 
 19 H       -1.4560    -1.1700    -0.6940 H     1 <1>   0.1500 
 20 H        2.2620    -4.1090     0.6770 H     1 <1>   0.1500 
 21 H       -1.9120    -3.4130     0.2600 H     1 <1>   0.1500 
 22 H        4.1330    -3.3680    -0.5540 H     1 <1>   0.0800 
 23 H        4.0880    -2.6680     1.0700 H     1 <1>   0.0800 
 24 H       -0.0380    -4.8540     0.9340 H     1 <1>   0.1500 
 25 H        5.3130    -0.6900     0.2380 H     1 <1>   0.0800 
 26 H        5.3590    -1.3850    -1.3660 H     1 <1>   0.0800 
 27 H        6.7140    -3.2750    -0.5070 H     1 <1>   0.0800 
 28 H        6.6690    -2.5800     1.0940 H     1 <1>   0.0800 
 29 H        7.8280    -0.5640     0.2520 H     1 <1>   0.0800 
 30 H        7.8800    -1.2630    -1.3510 H     1 <1>   0.0800 
 31 H        9.2130    -3.1600    -0.4620 H     1 <1>   0.0800 
 32 H        9.2300    -2.4060     1.1140 H     1 <1>   0.0800 
 33 H       10.2530    -1.1210    -1.3430 H     1 <1>   0.4500 
 34 H       11.7720    -2.8380    -1.0760 H     1 <1>   0.0800 
 35 H       11.6820    -2.6820     0.6760 H     1 <1>   0.0800 
 36 H       10.4100    -0.3690     1.4820 H     1 <1>   0.0800 
 37 H        9.8900     0.6250     0.1250 H     1 <1>   0.0800 
 38 H       13.1040    -0.9400    -1.2610 H     1 <1>   0.0800 
 39 H       13.5290    -1.3350     0.3870 H     1 <1>   0.0800 
 40 H       12.4550     0.6070     1.1040 H     1 <1>   0.0800 
 41 H       12.0800     0.9780    -0.5620 H     1 <1>   0.0800 
@<TRIPOS>BOND
  1   1   2  1   
  2   2   3  ar  
  3   2   4  ar  
  4   3   5  1   
  5   3   6  ar  
  6   4   7  ar  
  7   4  19  1   
  8   5   8  1   
  9   6   9  ar  
 10   6  20  1   
 11   7   9  ar  
 12   7  21  1   
 13   8  10  1   
 14   8  22  1   
 15   8  23  1   
 16   9  24  1   
 17  10  11  1   
 18  10  25  1   
 19  10  26  1   
 20  11  12  1   
 21  11  27  1   
 22  11  28  1   
 23  12  13  1   
 24  12  29  1   
 25  12  30  1   
 26  13  14  1   
 27  13  31  1   
 28  13  32  1   
 29  14  15  1   
 30  14  16  1   
 31  14  33  1   
 32  15  17  1   
 33  15  34  1   
 34  15  35  1   
 35  16  18  1   
 36  16  36  1   
 37  16  37  1   
 38  17  18  1   
 39  17  38  1   
 40  17  39  1   
 41  18  40  1   
 42  18  41  1   
@<TRIPOS>SUBSTRUCTURE
  1 ****  10 GROUP 4 **** **** 0

# MOE 2024.06 (io_trps.svl 2023.06)
