@<TRIPOS>MOLECULE
NONAME
47 49 1 0 0 
SMALL
USER_CHARGES


@<TRIPOS>ATOM
  1 CL      -1.2310     0.3180     0.1430 Cl    1 <1>  -0.1770 
  2 C       -0.8010     2.0050     0.2240 C.ar  1 <1>   0.1770 
  3 C       -1.1360     2.8440    -0.8200 C.ar  1 <1>  -0.1500 
  4 C       -0.1290     2.4830     1.3320 C.ar  1 <1>  -0.1500 
  5 C       -0.7880     4.1830    -0.7510 C.ar  1 <1>  -0.1500 
  6 C        0.2130     3.8250     1.3890 C.ar  1 <1>  -0.1500 
  7 C       -0.1050     4.6950     0.3490 C.ar  1 <1>  -0.0090 
  8 S        0.3500     6.4500     0.4250 S.o2  1 <1>   1.4470 
  9 O        1.3730     6.6840     1.4230 O.2   1 <1>  -0.6500 
 10 O       -0.8270     7.2840     0.4430 O.2   1 <1>  -0.6500 
 11 N        1.1090     6.7410    -1.0730 N.am  1 <1>  -0.8490 
 12 C        1.0270     8.1510    -1.4920 C.3   1 <1>   0.1960 
 13 C        2.5040     6.2570    -1.1570 C.3   1 <1>   0.1960 
 14 C        1.9310     9.0560    -0.6270 C.3   1 <1>   0.3430 
 15 C        3.5290     7.1490    -0.4010 C.3   1 <1>   0.3430 
 16 N        3.3790     8.6270    -0.6800 N.4   1 <1>  -0.9590 
 17 C        4.2310     9.3990     0.2770 C.3   1 <1>   0.3430 
 18 C        4.3050    10.8930    -0.0750 C.3   1 <1>  -0.0800 
 19 C        5.7450    11.4020     0.1340 C.3   1 <1>  -0.0220 
 20 C        3.3230    11.7430     0.7630 C.3   1 <1>  -0.1600 
 21 C        5.8110    12.9120     0.0060 C.2   1 <1>  -0.2880 
 22 C        3.3270    13.2120     0.3100 C.3   1 <1>  -0.0220 
 23 C        4.7420    13.7080     0.0730 C.2   1 <1>  -0.2880 
 24 H       -1.6640     2.4510    -1.6710 H     1 <1>   0.1500 
 25 H        0.1180     1.8120     2.1360 H     1 <1>   0.1500 
 26 H       -1.0550     4.8400    -1.5630 H     1 <1>   0.1500 
 27 H        0.7320     4.1970     2.2580 H     1 <1>   0.1500 
 28 H        0.0080     8.4990    -1.4370 H     1 <1>   0.0800 
 29 H        1.3250     8.2340    -2.5230 H     1 <1>   0.0800 
 30 H        2.7900     6.2130    -2.1940 H     1 <1>   0.0800 
 31 H        2.5610     5.2510    -0.7750 H     1 <1>   0.0800 
 32 H        1.5770     9.0240     0.3910 H     1 <1>   0.0800 
 33 H        1.8400    10.0720    -0.9760 H     1 <1>   0.0800 
 34 H        4.5250     6.8310    -0.6630 H     1 <1>   0.0800 
 35 H        3.4150     6.9760     0.6560 H     1 <1>   0.0800 
 36 H        3.7250     8.8080    -1.6320 H     1 <1>   0.4500 
 37 H        5.2300     8.9950     0.2500 H     1 <1>   0.0800 
 38 H        3.8610     9.2820     1.2840 H     1 <1>   0.0800 
 39 H        4.0770    11.0300    -1.1190 H     1 <1>   0.0800 
 40 H        6.3940    10.9610    -0.6040 H     1 <1>   0.0800 
 41 H        6.1110    11.1300     1.1100 H     1 <1>   0.0800 
 42 H        3.6240    11.7090     1.7970 H     1 <1>   0.0800 
 43 H        2.3180    11.3710     0.7070 H     1 <1>   0.0800 
 44 H        6.8110    13.2880    -0.1410 H     1 <1>   0.1500 
 45 H        2.8560    13.8180     1.0660 H     1 <1>   0.0800 
 46 H        2.7650    13.3220    -0.6020 H     1 <1>   0.0800 
 47 H        4.8040    14.7790    -0.0360 H     1 <1>   0.1500 
@<TRIPOS>BOND
  1   1   2  1   
  2   2   3  ar  
  3   2   4  ar  
  4   3   5  ar  
  5   3  24  1   
  6   4   6  ar  
  7   4  25  1   
  8   5   7  ar  
  9   5  26  1   
 10   6   7  ar  
 11   6  27  1   
 12   7   8  1   
 13   8   9  2   
 14   8  10  2   
 15   8  11  am  
 16  11  12  1   
 17  11  13  1   
 18  12  14  1   
 19  12  28  1   
 20  12  29  1   
 21  13  15  1   
 22  13  30  1   
 23  13  31  1   
 24  14  16  1   
 25  14  32  1   
 26  14  33  1   
 27  15  16  1   
 28  15  34  1   
 29  15  35  1   
 30  16  17  1   
 31  16  36  1   
 32  17  18  1   
 33  17  37  1   
 34  17  38  1   
 35  18  19  1   
 36  18  20  1   
 37  18  39  1   
 38  19  21  1   
 39  19  40  1   
 40  19  41  1   
 41  20  22  1   
 42  20  42  1   
 43  20  43  1   
 44  21  23  2   
 45  21  44  1   
 46  22  23  1   
 47  22  45  1   
 48  22  46  1   
 49  23  47  1   
@<TRIPOS>SUBSTRUCTURE
  1 ****  11 GROUP 4 **** **** 0

# MOE 2024.06 (io_trps.svl 2023.06)
