@<TRIPOS>MOLECULE
NONAME
33 33 1 0 0 
SMALL
USER_CHARGES


@<TRIPOS>ATOM
  1 S       -0.2530    -0.3630    -0.3340 S.o2  1 <1>   1.3330 
  2 O       -0.0130    -0.4430    -1.7580 O.2   1 <1>  -0.6500 
  3 O       -1.2940    -1.2210     0.1960 O.2   1 <1>  -0.6500 
  4 N        1.1720    -0.8310     0.4610 N.am  1 <1>  -0.8490 
  5 C       -0.6710     1.2820     0.2090 C.3   1 <1>  -0.1350 
  6 C        2.4130    -0.1710    -0.0540 C.3   1 <1>   0.1960 
  7 C        1.3400    -2.2840     0.4650 C.3   1 <1>   0.1160 
  8 P        2.6430     1.6400     0.0400 P.3   1 <1>   0.9000 
  9 O        2.2110     2.1170     1.3950 O.co2 1 <1>  -0.9500 
 10 O        2.0250     2.2670    -1.1680 O.co2 1 <1>  -0.9500 
 11 C        4.4700     1.7560    -0.0560 C.3   1 <1>   0.3440 
 12 O        5.0760     1.1350     1.0410 O.3   1 <1>  -0.6800 
 13 C        5.1210     3.1450    -0.1190 C.ar  1 <1>  -0.1440 
 14 C        4.4130     4.3120     0.1400 C.ar  1 <1>  -0.1500 
 15 C        6.4690     3.2450    -0.4420 C.ar  1 <1>  -0.1500 
 16 C        5.0360     5.5470     0.0730 C.ar  1 <1>  -0.1500 
 17 C        7.0950     4.4780    -0.5090 C.ar  1 <1>  -0.1500 
 18 C        6.3770     5.6320    -0.2520 C.ar  1 <1>  -0.1500 
 19 H       -1.7160     1.4590     0.0650 H     1 <1>   0.0800 
 20 H       -0.1370     2.0230    -0.3450 H     1 <1>   0.0800 
 21 H       -0.4350     1.3990     1.2490 H     1 <1>   0.0800 
 22 H        2.5490    -0.4860    -1.0730 H     1 <1>   0.0800 
 23 H        3.2190    -0.6150     0.5000 H     1 <1>   0.0800 
 24 H        0.5010    -2.7490     0.9540 H     1 <1>   0.0800 
 25 H        2.2310    -2.5540     1.0030 H     1 <1>   0.0800 
 26 H        1.4030    -2.6530    -0.5450 H     1 <1>   0.0800 
 27 H        4.8150     1.2220    -0.9210 H     1 <1>   0.0800 
 28 H        4.6470     1.5370     1.8290 H     1 <1>   0.4000 
 29 H        3.3650     4.2710     0.3950 H     1 <1>   0.1500 
 30 H        7.0350     2.3510    -0.6350 H     1 <1>   0.1500 
 31 H        4.4670     6.4370     0.2750 H     1 <1>   0.1500 
 32 H        8.1390     4.5370    -0.7600 H     1 <1>   0.1500 
 33 H        6.8590     6.5920    -0.3040 H     1 <1>   0.1500 
@<TRIPOS>BOND
  1   1   2  2   
  2   1   3  2   
  3   1   4  am  
  4   1   5  1   
  5   4   6  1   
  6   4   7  1   
  7   5  19  1   
  8   5  20  1   
  9   5  21  1   
 10   6   8  1   
 11   6  22  1   
 12   6  23  1   
 13   7  24  1   
 14   7  25  1   
 15   7  26  1   
 16   8   9  ar  
 17   8  10  ar  
 18   8  11  1   
 19  11  12  1   
 20  11  13  1   
 21  11  27  1   
 22  12  28  1   
 23  13  14  ar  
 24  13  15  ar  
 25  14  16  ar  
 26  14  29  1   
 27  15  17  ar  
 28  15  30  1   
 29  16  18  ar  
 30  16  31  1   
 31  17  18  ar  
 32  17  32  1   
 33  18  33  1   
@<TRIPOS>SUBSTRUCTURE
  1 ****   8 GROUP 4 **** **** 0

# MOE 2024.06 (io_trps.svl 2023.06)
