@<TRIPOS>MOLECULE
NONAME
40 43 1 0 0 
SMALL
USER_CHARGES


@<TRIPOS>ATOM
  1 S        0.3180     0.1050    -0.7480 S.3   1 <1>  -0.3710 
  2 C        1.8300     1.0460    -0.7610 C.2   1 <1>   0.6410 
  3 C        0.5560    -1.3140     0.4150 C.3   1 <1>  -0.0100 
  4 N        2.8430     0.5670     0.0020 N.pl3 1 <1>  -0.5500 
  5 N        1.8840     2.0980    -1.4820 N.2   1 <1>  -0.6610 
  6 C        4.0140     1.2430     0.0640 C.2   1 <1>   0.2000 
  7 C        3.0610     2.7970    -1.4610 C.2   1 <1>   0.7670 
  8 N        5.1010     0.6700     0.6740 N.pl3 1 <1>  -0.6000 
  9 C        4.1230     2.4600    -0.5680 C.2   1 <1>   0.0140 
 10 O        3.1600     3.7170    -2.2650 O.2   1 <1>  -0.5700 
 11 C        6.3540     1.1670     0.3800 C.2   1 <1>  -0.0380 
 12 C        5.3110     3.2400    -0.2850 C.2   1 <1>   0.0000 
 13 C        6.4960     2.3950    -0.2180 C.2   1 <1>   0.0140 
 14 C        7.5310     0.2530     0.6920 C.3   1 <1>  -0.0220 
 15 C        5.2800     4.5770     0.1000 C.2   1 <1>   0.0000 
 16 C        7.7590     2.7890    -0.7840 C.2   1 <1>   0.4950 
 17 C        8.7010     0.5020    -0.2670 C.3   1 <1>  -0.1600 
 18 C        4.0770     5.3790     0.1520 C.2   1 <1>  -0.1500 
 19 C        6.4340     5.3080     0.5770 C.2   1 <1>  -0.1500 
 20 O        7.9170     3.6990    -1.5610 O.2   1 <1>  -0.5700 
 21 C        9.0000     2.0010    -0.3970 C.3   1 <1>  -0.0990 
 22 C        4.0510     6.6760     0.5370 C.2   1 <1>  -0.0500 
 23 C        6.4020     6.6050     0.9600 C.2   1 <1>  -0.0500 
 24 N        5.2140     7.3210     0.9340 N.pl3 1 <1>  -0.6000 
 25 H       -0.3680    -1.8640     0.4410 H     1 <1>   0.0800 
 26 H        0.7840    -0.9170     1.3880 H     1 <1>   0.0800 
 27 H        1.3510    -1.9310     0.0350 H     1 <1>   0.0800 
 28 H        2.7060    -0.3130     0.4860 H     1 <1>   0.4000 
 29 H        5.0060    -0.2160     1.1790 H     1 <1>   0.4000 
 30 H        7.2330    -0.7770     0.6100 H     1 <1>   0.0800 
 31 H        7.8450     0.4290     1.7070 H     1 <1>   0.0800 
 32 H        8.4430     0.1150    -1.2390 H     1 <1>   0.0800 
 33 H        9.5770    -0.0210     0.0770 H     1 <1>   0.0800 
 34 H        3.1470     4.9310    -0.1240 H     1 <1>   0.1500 
 35 H        7.3720     4.7990     0.6390 H     1 <1>   0.1500 
 36 H        9.3700     2.3870     0.5350 H     1 <1>   0.0800 
 37 H        9.7600     2.1510    -1.1440 H     1 <1>   0.0800 
 38 H        3.1420     7.2530     0.5530 H     1 <1>   0.1500 
 39 H        7.2800     7.1290     1.3000 H     1 <1>   0.1500 
 40 H        5.1960     8.3130     1.1970 H     1 <1>   0.4000 
@<TRIPOS>BOND
  1   1   2  1   
  2   1   3  1   
  3   2   4  1   
  4   2   5  2   
  5   3  25  1   
  6   3  26  1   
  7   3  27  1   
  8   4   6  1   
  9   4  28  1   
 10   5   7  1   
 11   6   8  1   
 12   6   9  2   
 13   7   9  1   
 14   7  10  2   
 15   8  11  1   
 16   8  29  1   
 17   9  12  1   
 18  11  13  2   
 19  11  14  1   
 20  12  13  1   
 21  12  15  2   
 22  13  16  1   
 23  14  17  1   
 24  14  30  1   
 25  14  31  1   
 26  15  18  1   
 27  15  19  1   
 28  16  20  2   
 29  16  21  1   
 30  17  21  1   
 31  17  32  1   
 32  17  33  1   
 33  18  22  2   
 34  18  34  1   
 35  19  23  2   
 36  19  35  1   
 37  21  36  1   
 38  21  37  1   
 39  22  24  1   
 40  22  38  1   
 41  23  24  1   
 42  23  39  1   
 43  24  40  1   
@<TRIPOS>SUBSTRUCTURE
  1 ****  12 GROUP 4 **** **** 0

# MOE 2024.06 (io_trps.svl 2023.06)
