@<TRIPOS>MOLECULE
NONAME
40 41 1 0 0 
SMALL
USER_CHARGES


@<TRIPOS>ATOM
  1 S       -0.3490     0.3080     1.2350 S.3   1 <1>  -0.0800 
  2 C        0.1070    -1.2670     0.6090 C.2   1 <1>  -0.1400 
  3 C       -2.0000    -0.1910     1.4380 C.2   1 <1>  -0.1100 
  4 C       -0.9660    -2.0950     0.5740 C.2   1 <1>  -0.1810 
  5 C        1.5860    -1.3420     0.2640 C.3   1 <1>  -0.0600 
  6 C       -2.1890    -1.4680     1.0380 C.2   1 <1>  -0.0860 
  7 C       -1.0840    -3.5630     0.1450 C.3   1 <1>   0.0210 
  8 C       -3.4730    -2.1380     1.0600 C.2   1 <1>   0.7160 
  9 C        0.1930    -4.2580    -0.3250 C.3   1 <1>  -0.2400 
 10 O       -3.8230    -2.7260     2.0650 O.2   1 <1>  -0.5700 
 11 N       -4.3020    -2.1260    -0.0420 N.am  1 <1>  -0.6600 
 12 C       -5.5820    -2.8910    -0.0420 C.3   1 <1>   0.2840 
 13 C       -3.9570    -1.4110    -1.3010 C.3   1 <1>   0.1400 
 14 C       -6.7600    -1.9590     0.1930 C.ar  1 <1>  -0.1430 
 15 C       -4.4510     0.0330    -1.2480 C.3   1 <1>  -0.2400 
 16 C       -7.7250    -1.7290    -0.7680 C.ar  1 <1>  -0.1500 
 17 C       -6.9220    -1.2930     1.3910 C.ar  1 <1>  -0.1500 
 18 C       -8.7720    -0.8650    -0.4920 C.ar  1 <1>   0.1600 
 19 C       -8.0060    -0.4500     1.5650 C.ar  1 <1>   0.1600 
 20 N       -8.9350    -0.2190     0.6510 N.ar  1 <1>  -0.6200 
 21 H       -2.6910     0.5280     1.8400 H     1 <1>   0.1500 
 22 H        1.8310    -0.5590    -0.4300 H     1 <1>   0.0800 
 23 H        1.8690    -2.2740    -0.1750 H     1 <1>   0.0800 
 24 H        2.1670    -1.1990     1.1570 H     1 <1>   0.0800 
 25 H       -1.8070    -3.6320    -0.6490 H     1 <1>   0.0800 
 26 H       -1.4730    -4.1220     0.9800 H     1 <1>   0.0800 
 27 H        0.5760    -3.7790    -1.2070 H     1 <1>   0.0800 
 28 H       -0.0220    -5.2840    -0.5660 H     1 <1>   0.0800 
 29 H        0.9320    -4.2450     0.4560 H     1 <1>   0.0800 
 30 H       -5.5720    -3.6430     0.7280 H     1 <1>   0.0800 
 31 H       -5.6930    -3.4010    -0.9820 H     1 <1>   0.0800 
 32 H       -4.4010    -1.9160    -2.1410 H     1 <1>   0.0800 
 33 H       -2.8900    -1.4170    -1.4470 H     1 <1>   0.0800 
 34 H       -5.5210     0.0710    -1.1710 H     1 <1>   0.0800 
 35 H       -4.1610     0.5450    -2.1480 H     1 <1>   0.0800 
 36 H       -4.0190     0.5510    -0.4120 H     1 <1>   0.0800 
 37 H       -7.6740    -2.2090    -1.7280 H     1 <1>   0.1500 
 38 H       -6.2110    -1.4250     2.1870 H     1 <1>   0.1500 
 39 H       -9.5160    -0.6960    -1.2520 H     1 <1>   0.1500 
 40 H       -8.1130     0.0610     2.5060 H     1 <1>   0.1500 
@<TRIPOS>BOND
  1   1   2  1   
  2   1   3  1   
  3   2   4  2   
  4   2   5  1   
  5   3   6  2   
  6   3  21  1   
  7   4   6  1   
  8   4   7  1   
  9   5  22  1   
 10   5  23  1   
 11   5  24  1   
 12   6   8  1   
 13   7   9  1   
 14   7  25  1   
 15   7  26  1   
 16   8  10  2   
 17   8  11  am  
 18   9  27  1   
 19   9  28  1   
 20   9  29  1   
 21  11  12  1   
 22  11  13  1   
 23  12  14  1   
 24  12  30  1   
 25  12  31  1   
 26  13  15  1   
 27  13  32  1   
 28  13  33  1   
 29  14  16  ar  
 30  14  17  ar  
 31  15  34  1   
 32  15  35  1   
 33  15  36  1   
 34  16  18  ar  
 35  16  37  1   
 36  17  19  ar  
 37  17  38  1   
 38  18  20  ar  
 39  18  39  1   
 40  19  20  ar  
 41  19  40  1   
@<TRIPOS>SUBSTRUCTURE
  1 ****  11 GROUP 4 **** **** 0

# MOE 2024.06 (io_trps.svl 2023.06)
