@<TRIPOS>MOLECULE
NONAME
42 43 1 0 0 
SMALL
USER_CHARGES


@<TRIPOS>ATOM
  1 S        0.8800    -0.5010    -1.7120 S.3   1 <1>  -0.3310 
  2 C        2.2340    -1.1820    -0.7350 C.ar  1 <1>   0.1020 
  3 C        0.9170     1.3270    -1.4590 C.3   1 <1>  -0.0100 
  4 C        3.1420    -0.3750    -0.0720 C.ar  1 <1>  -0.1500 
  5 C        2.3300    -2.5610    -0.6720 C.ar  1 <1>  -0.1500 
  6 C        4.1690    -0.9500     0.6650 C.ar  1 <1>   0.1000 
  7 C        3.3450    -3.1390     0.0710 C.ar  1 <1>  -0.1500 
  8 N        5.1000    -0.1630     1.3290 N.pl3 1 <1>  -0.8690 
  9 C        4.2550    -2.3360     0.7370 C.ar  1 <1>  -0.1500 
 10 C        5.9750     0.7090     0.5270 C.3   1 <1>   0.2890 
 11 C        7.1920    -0.0910     0.0630 C.3   1 <1>  -0.1600 
 12 C        6.3940     1.9010     1.3840 C.3   1 <1>  -0.1600 
 13 C        8.1730     0.8060    -0.6940 C.3   1 <1>   0.1400 
 14 C        7.3820     2.7930     0.6300 C.3   1 <1>   0.1400 
 15 N        8.5300     1.9760     0.1530 N.am  1 <1>  -0.6600 
 16 C        9.8230     2.3020     0.4760 C.2   1 <1>   0.7800 
 17 O       10.1050     3.2660     1.1620 O.2   1 <1>  -0.5700 
 18 O       10.7990     1.5210     0.0090 O.3   1 <1>  -0.4300 
 19 C       12.1490     1.7990     0.2980 C.3   1 <1>   0.1200 
 20 C       13.0070     0.7300    -0.3730 C.3   1 <1>  -0.2400 
 21 H        0.0810     1.7450    -1.9910 H     1 <1>   0.0800 
 22 H        1.8450     1.6990    -1.8530 H     1 <1>   0.0800 
 23 H        0.8320     1.5170    -0.4040 H     1 <1>   0.0800 
 24 H        3.0730     0.6920    -0.1060 H     1 <1>   0.1500 
 25 H        1.6160    -3.1690    -1.1970 H     1 <1>   0.1500 
 26 H        3.4240    -4.2110     0.1300 H     1 <1>   0.1500 
 27 H        5.6490    -0.6730     2.0280 H     1 <1>   0.4000 
 28 H        5.0400    -2.7860     1.3140 H     1 <1>   0.1500 
 29 H        5.4370     1.0670    -0.3360 H     1 <1>   0.0800 
 30 H        6.8720    -0.8870    -0.5850 H     1 <1>   0.0800 
 31 H        7.6990    -0.5200     0.9080 H     1 <1>   0.0800 
 32 H        6.8610     1.5580     2.2900 H     1 <1>   0.0800 
 33 H        5.5250     2.4760     1.6460 H     1 <1>   0.0800 
 34 H        7.7190     1.1600    -1.6040 H     1 <1>   0.0800 
 35 H        9.0470     0.2370    -0.9590 H     1 <1>   0.0800 
 36 H        7.7190     3.5840     1.2790 H     1 <1>   0.0800 
 37 H        6.8980     3.2440    -0.2200 H     1 <1>   0.0800 
 38 H       12.2790     1.7840     1.3680 H     1 <1>   0.0800 
 39 H       12.3840     2.7790    -0.0810 H     1 <1>   0.0800 
 40 H       12.7530    -0.2420     0.0100 H     1 <1>   0.0800 
 41 H       14.0450     0.9190    -0.1690 H     1 <1>   0.0800 
 42 H       12.8560     0.7500    -1.4370 H     1 <1>   0.0800 
@<TRIPOS>BOND
  1   1   2  1   
  2   1   3  1   
  3   2   4  ar  
  4   2   5  ar  
  5   3  21  1   
  6   3  22  1   
  7   3  23  1   
  8   4   6  ar  
  9   4  24  1   
 10   5   7  ar  
 11   5  25  1   
 12   6   8  1   
 13   6   9  ar  
 14   7   9  ar  
 15   7  26  1   
 16   8  10  1   
 17   8  27  1   
 18   9  28  1   
 19  10  11  1   
 20  10  12  1   
 21  10  29  1   
 22  11  13  1   
 23  11  30  1   
 24  11  31  1   
 25  12  14  1   
 26  12  32  1   
 27  12  33  1   
 28  13  15  1   
 29  13  34  1   
 30  13  35  1   
 31  14  15  1   
 32  14  36  1   
 33  14  37  1   
 34  15  16  am  
 35  16  17  2   
 36  16  18  1   
 37  18  19  1   
 38  19  20  1   
 39  19  38  1   
 40  19  39  1   
 41  20  40  1   
 42  20  41  1   
 43  20  42  1   
@<TRIPOS>SUBSTRUCTURE
  1 ****  10 GROUP 4 **** **** 0

# MOE 2024.06 (io_trps.svl 2023.06)
