@<TRIPOS>MOLECULE
NONAME
35 36 1 0 0 
SMALL
USER_CHARGES


@<TRIPOS>ATOM
  1 O       -5.2370     4.8140     0.3470 O.2   1 <1>  -0.5700 
  2 C       -4.4380     3.9300     0.1640 C.2   1 <1>   0.4230 
  3 C       -4.8110     2.5290     0.1410 C.ar  1 <1>   0.0860 
  4 C       -2.9790     4.3450    -0.0480 C.3   1 <1>  -0.0990 
  5 C       -3.8910     1.5020    -0.1250 C.ar  1 <1>  -0.1500 
  6 C       -6.1440     2.1540     0.3910 C.ar  1 <1>  -0.1500 
  7 C       -2.7510     5.8660     0.0850 C.3   1 <1>  -0.1600 
  8 C       -4.3220     0.1930    -0.1280 C.ar  1 <1>   0.0830 
  9 C       -6.5620     0.8320     0.3840 C.ar  1 <1>  -0.1500 
 10 C       -1.2890     6.2550    -0.1360 C.3   1 <1>   0.3430 
 11 O       -3.6020    -0.9110    -0.3570 O.3   1 <1>  -0.3630 
 12 C       -5.6200    -0.1400     0.1190 C.ar  1 <1>   0.0830 
 13 N       -1.0980     7.7110     0.1310 N.4   1 <1>  -0.9590 
 14 C       -4.5000    -2.0150    -0.2490 C.3   1 <1>   0.4000 
 15 O       -5.7770    -1.4610     0.0580 O.3   1 <1>  -0.3620 
 16 C       -1.7490     8.5730    -0.9080 C.3   1 <1>   0.2630 
 17 C        0.3560     8.0420     0.2420 C.3   1 <1>   0.2630 
 18 H       -2.6810     4.0250    -1.0310 H     1 <1>   0.0800 
 19 H       -2.3750     3.8310     0.6780 H     1 <1>   0.0800 
 20 H       -2.8560     1.6940    -0.3290 H     1 <1>   0.1500 
 21 H       -6.8700     2.9240     0.5960 H     1 <1>   0.1500 
 22 H       -3.0590     6.1710     1.0710 H     1 <1>   0.0800 
 23 H       -3.3760     6.3620    -0.6370 H     1 <1>   0.0800 
 24 H       -7.5840     0.5580     0.5770 H     1 <1>   0.1500 
 25 H       -0.9930     6.0200    -1.1470 H     1 <1>   0.0800 
 26 H       -0.6720     5.6830     0.5380 H     1 <1>   0.0800 
 27 H       -1.5450     7.9170     1.0390 H     1 <1>   0.4500 
 28 H       -4.1840    -2.6610     0.5510 H     1 <1>   0.0800 
 29 H       -4.5480    -2.5360    -1.1880 H     1 <1>   0.0800 
 30 H       -1.3390     8.3630    -1.8830 H     1 <1>   0.0800 
 31 H       -1.5880     9.6160    -0.6840 H     1 <1>   0.0800 
 32 H       -2.8120     8.3940    -0.9350 H     1 <1>   0.0800 
 33 H        0.8600     7.8370    -0.6880 H     1 <1>   0.0800 
 34 H        0.8160     7.4550     1.0210 H     1 <1>   0.0800 
 35 H        0.4850     9.0860     0.4800 H     1 <1>   0.0800 
@<TRIPOS>BOND
  1   1   2  2   
  2   2   3  1   
  3   2   4  1   
  4   3   5  ar  
  5   3   6  ar  
  6   4   7  1   
  7   4  18  1   
  8   4  19  1   
  9   5   8  ar  
 10   5  20  1   
 11   6   9  ar  
 12   6  21  1   
 13   7  10  1   
 14   7  22  1   
 15   7  23  1   
 16   8  11  1   
 17   8  12  ar  
 18   9  12  ar  
 19   9  24  1   
 20  10  13  1   
 21  10  25  1   
 22  10  26  1   
 23  11  14  1   
 24  12  15  1   
 25  13  16  1   
 26  13  17  1   
 27  13  27  1   
 28  14  15  1   
 29  14  28  1   
 30  14  29  1   
 31  16  30  1   
 32  16  31  1   
 33  16  32  1   
 34  17  33  1   
 35  17  34  1   
 36  17  35  1   
@<TRIPOS>SUBSTRUCTURE
  1 ****   2 GROUP 4 **** **** 0

# MOE 2024.06 (io_trps.svl 2023.06)
