@<TRIPOS>MOLECULE
NONAME
39 40 1 0 0 
SMALL
USER_CHARGES


@<TRIPOS>ATOM
  1 I        1.1110    -0.0620    -2.0490 I     1 <1>  -0.0810 
  2 C        0.4270    -1.8760    -1.1500 C.ar  1 <1>   0.0810 
  3 C        1.1260    -2.4580    -0.1020 C.ar  1 <1>   0.0830 
  4 C       -0.7330    -2.4320    -1.6560 C.ar  1 <1>  -0.1500 
  5 O        2.2550    -1.9140     0.3990 O.3   1 <1>  -0.5330 
  6 C        0.6490    -3.6420     0.4510 C.ar  1 <1>   0.0830 
  7 C       -1.2200    -3.6050    -1.0920 C.ar  1 <1>  -0.1430 
  8 O        1.3710    -4.1870     1.4720 O.3   1 <1>  -0.3630 
  9 C       -0.5240    -4.2090    -0.0490 C.ar  1 <1>  -0.1500 
 10 C       -2.5100    -4.2130    -1.6130 C.3   1 <1>   0.4860 
 11 C        1.1100    -5.4870     1.9560 C.3   1 <1>   0.0400 
 12 N       -3.5930    -3.9590    -0.6250 N.4   1 <1>  -0.9590 
 13 C       -4.7730    -4.8190    -0.9140 C.3   1 <1>   0.3430 
 14 C       -3.9150    -2.5030    -0.5300 C.3   1 <1>   0.3430 
 15 C       -5.7870    -4.8100     0.2320 C.3   1 <1>  -0.1600 
 16 C       -4.3710    -2.1710     0.8890 C.3   1 <1>  -0.1600 
 17 C       -6.5650    -3.4920     0.3450 C.3   1 <1>  -0.1600 
 18 C       -5.8630    -2.4110     1.1790 C.3   1 <1>  -0.1600 
 19 H       -1.2350    -1.9450    -2.4740 H     1 <1>   0.1500 
 20 H        2.6030    -2.4740     1.1230 H     1 <1>   0.4500 
 21 H       -0.8960    -5.1230     0.3750 H     1 <1>   0.1500 
 22 H       -2.3680    -5.2740    -1.7450 H     1 <1>   0.0800 
 23 H       -2.7660    -3.7830    -2.5680 H     1 <1>   0.0800 
 24 H        1.8610    -5.7260     2.6890 H     1 <1>   0.0800 
 25 H        1.1660    -6.1850     1.1390 H     1 <1>   0.0800 
 26 H        0.1390    -5.5030     2.4170 H     1 <1>   0.0800 
 27 H       -3.2200    -4.2280     0.2930 H     1 <1>   0.4500 
 28 H       -4.4430    -5.8350    -1.0620 H     1 <1>   0.0800 
 29 H       -5.2550    -4.4920    -1.8210 H     1 <1>   0.0800 
 30 H       -4.6690    -2.2250    -1.2490 H     1 <1>   0.0800 
 31 H       -3.0290    -1.9240    -0.7330 H     1 <1>   0.0800 
 32 H       -5.3190    -5.0670     1.1670 H     1 <1>   0.0800 
 33 H       -6.5020    -5.5870     0.0200 H     1 <1>   0.0800 
 34 H       -4.1750    -1.1260     1.0620 H     1 <1>   0.0800 
 35 H       -3.7680    -2.7100     1.5980 H     1 <1>   0.0800 
 36 H       -7.5140    -3.6950     0.8150 H     1 <1>   0.0800 
 37 H       -6.7870    -3.1110    -0.6380 H     1 <1>   0.0800 
 38 H       -6.3970    -1.4870     1.0270 H     1 <1>   0.0800 
 39 H       -5.9690    -2.6520     2.2240 H     1 <1>   0.0800 
@<TRIPOS>BOND
  1   1   2  1   
  2   2   3  ar  
  3   2   4  ar  
  4   3   5  1   
  5   3   6  ar  
  6   4   7  ar  
  7   4  19  1   
  8   5  20  1   
  9   6   8  1   
 10   6   9  ar  
 11   7   9  ar  
 12   7  10  1   
 13   8  11  1   
 14   9  21  1   
 15  10  12  1   
 16  10  22  1   
 17  10  23  1   
 18  11  24  1   
 19  11  25  1   
 20  11  26  1   
 21  12  13  1   
 22  12  14  1   
 23  12  27  1   
 24  13  15  1   
 25  13  28  1   
 26  13  29  1   
 27  14  16  1   
 28  14  30  1   
 29  14  31  1   
 30  15  17  1   
 31  15  32  1   
 32  15  33  1   
 33  16  18  1   
 34  16  34  1   
 35  16  35  1   
 36  17  18  1   
 37  17  36  1   
 38  17  37  1   
 39  18  38  1   
 40  18  39  1   
@<TRIPOS>SUBSTRUCTURE
  1 ****   7 GROUP 4 **** **** 0

# MOE 2024.06 (io_trps.svl 2023.06)
