@<TRIPOS>MOLECULE
NONAME
43 44 1 0 0 
SMALL
USER_CHARGES


@<TRIPOS>ATOM
  1 O        0.4870    -0.0440     0.4080 O.2   1 <1>  -0.5700 
  2 C        0.5620     1.1700     0.4750 C.2   1 <1>   0.7150 
  3 N       -0.5520     1.8880     0.7980 N.am  1 <1>  -0.7300 
  4 C        1.8050     1.8590     0.2160 C.2   1 <1>   0.0550 
  5 C       -1.9220     1.3570     0.9750 C.3   1 <1>   0.1400 
  6 O        1.8820     3.1850     0.3000 O.3   1 <1>  -0.2800 
  7 C        3.0300     1.3800    -0.1350 C.2   1 <1>  -0.1500 
  8 C       -2.9220     2.1480     0.1140 C.3   1 <1>  -0.0800 
  9 C        3.1080     3.5630     0.0080 C.2   1 <1>  -0.0400 
 10 C        3.8730     2.4840    -0.2690 C.2   1 <1>  -0.1500 
 11 C       -4.3480     1.6460     0.3730 C.3   1 <1>  -0.2400 
 12 C       -2.6040     2.0370    -1.3850 C.3   1 <1>  -0.2400 
 13 C        3.4650     5.0390     0.0300 C.3   1 <1>   0.3000 
 14 O        2.8030     5.6920    -1.0340 O.3   1 <1>  -0.3630 
 15 C        2.5860     7.0360    -1.0040 C.ar  1 <1>   0.0830 
 16 C        3.4250     7.9880    -0.3990 C.ar  1 <1>   0.0830 
 17 C        1.4290     7.4530    -1.6430 C.ar  1 <1>  -0.1500 
 18 O        4.5890     7.5900     0.1950 O.3   1 <1>  -0.3630 
 19 C        3.0550     9.3310    -0.4360 C.ar  1 <1>  -0.1500 
 20 C        1.0780     8.7900    -1.6790 C.ar  1 <1>  -0.1500 
 21 C        5.5740     8.5160     0.5990 C.3   1 <1>   0.0400 
 22 C        1.8910     9.7280    -1.0710 C.ar  1 <1>  -0.1500 
 23 H       -0.4480     2.9040     0.8120 H     1 <1>   0.3700 
 24 H       -2.1920     1.4370     2.0140 H     1 <1>   0.0800 
 25 H       -1.9500     0.3150     0.7010 H     1 <1>   0.0800 
 26 H        3.3050     0.3510    -0.2860 H     1 <1>   0.1500 
 27 H       -2.8770     3.1840     0.4040 H     1 <1>   0.0800 
 28 H        4.9120     2.4490    -0.5430 H     1 <1>   0.1500 
 29 H       -4.4420     0.6110     0.0950 H     1 <1>   0.0800 
 30 H       -5.0560     2.2200    -0.1990 H     1 <1>   0.0800 
 31 H       -4.5980     1.7470     1.4150 H     1 <1>   0.0800 
 32 H       -2.6060     1.0060    -1.6960 H     1 <1>   0.0800 
 33 H       -1.6360     2.4530    -1.6010 H     1 <1>   0.0800 
 34 H       -3.3340     2.5730    -1.9650 H     1 <1>   0.0800 
 35 H        4.5230     5.1650    -0.1070 H     1 <1>   0.0800 
 36 H        3.1540     5.4840     0.9580 H     1 <1>   0.0800 
 37 H        0.8010     6.7170    -2.1130 H     1 <1>   0.1500 
 38 H        3.6570    10.0910     0.0220 H     1 <1>   0.1500 
 39 H        0.1750     9.0970    -2.1780 H     1 <1>   0.1500 
 40 H        5.8450     9.1280    -0.2440 H     1 <1>   0.0800 
 41 H        6.4320     7.9650     0.9400 H     1 <1>   0.0800 
 42 H        5.1840     9.1150     1.4030 H     1 <1>   0.0800 
 43 H        1.6170    10.7690    -1.0940 H     1 <1>   0.1500 
@<TRIPOS>BOND
  1   1   2  2   
  2   2   3  am  
  3   2   4  1   
  4   3   5  1   
  5   3  23  1   
  6   4   6  1   
  7   4   7  2   
  8   5   8  1   
  9   5  24  1   
 10   5  25  1   
 11   6   9  1   
 12   7  10  1   
 13   7  26  1   
 14   8  11  1   
 15   8  12  1   
 16   8  27  1   
 17   9  10  2   
 18   9  13  1   
 19  10  28  1   
 20  11  29  1   
 21  11  30  1   
 22  11  31  1   
 23  12  32  1   
 24  12  33  1   
 25  12  34  1   
 26  13  14  1   
 27  13  35  1   
 28  13  36  1   
 29  14  15  1   
 30  15  16  ar  
 31  15  17  ar  
 32  16  18  1   
 33  16  19  ar  
 34  17  20  ar  
 35  17  37  1   
 36  18  21  1   
 37  19  22  ar  
 38  19  38  1   
 39  20  22  ar  
 40  20  39  1   
 41  21  40  1   
 42  21  41  1   
 43  21  42  1   
 44  22  43  1   
@<TRIPOS>SUBSTRUCTURE
  1 ****   6 GROUP 4 **** **** 0

# MOE 2024.06 (io_trps.svl 2023.06)
