@<TRIPOS>MOLECULE
NONAME
39 41 1 0 0 
SMALL
USER_CHARGES


@<TRIPOS>ATOM
  1 S        0.5970     0.4750     1.1700 S.3   1 <1>  -0.3310 
  2 C        1.8980    -0.6060     0.5560 C.2   1 <1>   0.1150 
  3 C       -0.6830     0.4410    -0.1670 C.3   1 <1>   0.0700 
  4 C        3.2250    -0.6730     1.0780 C.2   1 <1>   0.6160 
  5 C        1.8060    -1.4630    -0.4670 C.2   1 <1>   0.1150 
  6 C       -1.0420    -1.0080    -0.5060 C.3   1 <1>   0.0700 
  7 O        3.6840    -0.0630     2.0260 O.2   1 <1>  -0.5700 
  8 N        3.9440    -1.5750     0.3100 N.am  1 <1>  -0.2370 
  9 S        0.3390    -1.7960    -1.4550 S.3   1 <1>  -0.3310 
 10 C        3.0800    -2.0850    -0.6450 C.2   1 <1>   0.6160 
 11 C        5.3410    -1.5120     0.1380 C.ar  1 <1>   0.1170 
 12 O        3.3890    -2.9310    -1.4600 O.2   1 <1>  -0.5700 
 13 C        5.9330    -0.3920    -0.4480 C.ar  1 <1>   0.0830 
 14 C        6.1520    -2.5600     0.5520 C.ar  1 <1>  -0.1500 
 15 O        5.1470     0.6300    -0.8690 O.3   1 <1>  -0.3630 
 16 C        7.3080    -0.3260    -0.6130 C.ar  1 <1>  -0.1500 
 17 C        7.5260    -2.4920     0.3920 C.ar  1 <1>  -0.1500 
 18 C        5.3010     1.8590    -0.1980 C.3   1 <1>   0.1200 
 19 C        8.1040    -1.3760    -0.1890 C.ar  1 <1>  -0.1500 
 20 C        4.0740     2.7200    -0.5010 C.3   1 <1>  -0.1600 
 21 C        4.1460     4.0650     0.2310 C.3   1 <1>  -0.1600 
 22 C        2.9050     4.9140    -0.0600 C.3   1 <1>  -0.2400 
 23 H       -0.2840     0.9610    -1.0200 H     1 <1>   0.0800 
 24 H       -1.5380     0.9690     0.2160 H     1 <1>   0.0800 
 25 H       -1.9100    -1.0510    -1.1390 H     1 <1>   0.0800 
 26 H       -1.2090    -1.5930     0.3810 H     1 <1>   0.0800 
 27 H        5.7060    -3.4310     0.9990 H     1 <1>   0.1500 
 28 H        7.7520     0.5360    -1.0760 H     1 <1>   0.1500 
 29 H        8.1450    -3.3100     0.7180 H     1 <1>   0.1500 
 30 H        6.2020     2.3300    -0.5480 H     1 <1>   0.0800 
 31 H        5.3750     1.6660     0.8600 H     1 <1>   0.0800 
 32 H        9.1720    -1.3270    -0.3160 H     1 <1>   0.1500 
 33 H        3.1910     2.1940    -0.1820 H     1 <1>   0.0800 
 34 H        4.0150     2.8880    -1.5620 H     1 <1>   0.0800 
 35 H        5.0250     4.6030    -0.0820 H     1 <1>   0.0800 
 36 H        4.2160     3.8950     1.2920 H     1 <1>   0.0800 
 37 H        2.8220     5.1120    -1.1140 H     1 <1>   0.0800 
 38 H        2.9720     5.8530     0.4600 H     1 <1>   0.0800 
 39 H        2.0170     4.4050     0.2700 H     1 <1>   0.0800 
@<TRIPOS>BOND
  1   1   2  1   
  2   1   3  1   
  3   2   4  1   
  4   2   5  2   
  5   3   6  1   
  6   3  23  1   
  7   3  24  1   
  8   4   7  2   
  9   4   8  am  
 10   5   9  1   
 11   5  10  1   
 12   6   9  1   
 13   6  25  1   
 14   6  26  1   
 15   8  10  am  
 16   8  11  1   
 17  10  12  2   
 18  11  13  ar  
 19  11  14  ar  
 20  13  15  1   
 21  13  16  ar  
 22  14  17  ar  
 23  14  27  1   
 24  15  18  1   
 25  16  19  ar  
 26  16  28  1   
 27  17  19  ar  
 28  17  29  1   
 29  18  20  1   
 30  18  30  1   
 31  18  31  1   
 32  19  32  1   
 33  20  21  1   
 34  20  33  1   
 35  20  34  1   
 36  21  22  1   
 37  21  35  1   
 38  21  36  1   
 39  22  37  1   
 40  22  38  1   
 41  22  39  1   
@<TRIPOS>SUBSTRUCTURE
  1 ****   4 GROUP 4 **** **** 0

# MOE 2024.06 (io_trps.svl 2023.06)
