@<TRIPOS>MOLECULE
NONAME
46 50 1 0 0 
SMALL
USER_CHARGES


@<TRIPOS>ATOM
  1 O       -1.4470     0.2470    -1.6190 O.2   1 <1>  -0.5700 
  2 C       -1.9870    -0.8280    -1.6420 C.2   1 <1>   0.5690 
  3 N       -1.4390    -2.0370    -2.0010 N.am  1 <1>  -0.4200 
  4 C       -3.4400    -1.0770    -1.3580 C.3   1 <1>  -0.0190 
  5 C       -2.3010    -3.0670    -1.7030 C.2   1 <1>   0.5690 
  6 C       -0.1050    -2.2060    -2.6180 C.3   1 <1>   0.1400 
  7 C       -4.5550    -0.3040    -0.6080 C.3   1 <1>   0.2070 
  8 C       -3.3490    -2.5010    -0.7900 C.3   1 <1>  -0.0190 
  9 O       -2.2190    -4.2180    -2.0430 O.2   1 <1>  -0.5700 
 10 C        1.0210    -2.1120    -1.5720 C.3   1 <1>  -0.0800 
 11 C       -5.7950    -0.9190    -1.2790 C.ar  1 <1>  -0.1440 
 12 C       -4.6940    -0.7870     0.8470 C.ar  1 <1>  -0.1440 
 13 C       -4.7570    -2.9530    -0.3260 C.3   1 <1>   0.2070 
 14 C        2.3850    -2.2260    -2.2640 C.3   1 <1>  -0.2400 
 15 C        0.9060    -3.1970    -0.4890 C.3   1 <1>  -0.2400 
 16 C       -5.8640    -2.3100    -1.1820 C.ar  1 <1>  -0.1440 
 17 C       -6.7630    -0.2190    -1.9780 C.ar  1 <1>  -0.1500 
 18 C       -4.8620    -2.1660     0.9920 C.ar  1 <1>  -0.1440 
 19 C       -4.6990     0.0340     1.9610 C.ar  1 <1>  -0.1500 
 20 C       -6.8940    -2.9990    -1.7970 C.ar  1 <1>  -0.1500 
 21 C       -7.7950    -0.9130    -2.5880 C.ar  1 <1>  -0.1500 
 22 C       -5.0500    -2.7180     2.2470 C.ar  1 <1>  -0.1500 
 23 C       -4.8800    -0.5230     3.2160 C.ar  1 <1>  -0.1500 
 24 C       -7.8580    -2.2950    -2.5010 C.ar  1 <1>  -0.1500 
 25 C       -5.0590    -1.8910     3.3580 C.ar  1 <1>  -0.1500 
 26 H       -3.8040    -1.1470    -2.3720 H     1 <1>   0.0800 
 27 H        0.0290    -1.4370    -3.3600 H     1 <1>   0.0800 
 28 H       -0.0640    -3.1610    -3.1140 H     1 <1>   0.0800 
 29 H       -4.4980     0.7640    -0.7260 H     1 <1>   0.0800 
 30 H       -2.7730    -2.4580     0.1230 H     1 <1>   0.0800 
 31 H        0.9700    -1.1430    -1.1020 H     1 <1>   0.0800 
 32 H       -4.8500    -4.0160    -0.1910 H     1 <1>   0.0800 
 33 H        2.4890    -3.1820    -2.7470 H     1 <1>   0.0800 
 34 H        3.1790    -2.1180    -1.5460 H     1 <1>   0.0800 
 35 H        2.4960    -1.4520    -3.0030 H     1 <1>   0.0800 
 36 H        0.8890    -4.1770    -0.9340 H     1 <1>   0.0800 
 37 H        0.0080    -3.0670     0.0880 H     1 <1>   0.0800 
 38 H        1.7420    -3.1410     0.1870 H     1 <1>   0.0800 
 39 H       -6.7160     0.8530    -2.0530 H     1 <1>   0.1500 
 40 H       -4.5700     1.0970     1.8560 H     1 <1>   0.1500 
 41 H       -6.9540    -4.0700    -1.7250 H     1 <1>   0.1500 
 42 H       -8.5520    -0.3770    -3.1320 H     1 <1>   0.1500 
 43 H       -5.1830    -3.7790     2.3630 H     1 <1>   0.1500 
 44 H       -4.8870     0.1100     4.0860 H     1 <1>   0.1500 
 45 H       -8.6630    -2.8250    -2.9810 H     1 <1>   0.1500 
 46 H       -5.2050    -2.3120     4.3370 H     1 <1>   0.1500 
@<TRIPOS>BOND
  1   1   2  2   
  2   2   3  am  
  3   2   4  1   
  4   3   5  am  
  5   3   6  1   
  6   4   7  1   
  7   4   8  1   
  8   4  26  1   
  9   5   8  1   
 10   5   9  2   
 11   6  10  1   
 12   6  27  1   
 13   6  28  1   
 14   7  11  1   
 15   7  12  1   
 16   7  29  1   
 17   8  13  1   
 18   8  30  1   
 19  10  14  1   
 20  10  15  1   
 21  10  31  1   
 22  11  16  ar  
 23  11  17  ar  
 24  12  18  ar  
 25  12  19  ar  
 26  13  16  1   
 27  13  18  1   
 28  13  32  1   
 29  14  33  1   
 30  14  34  1   
 31  14  35  1   
 32  15  36  1   
 33  15  37  1   
 34  15  38  1   
 35  16  20  ar  
 36  17  21  ar  
 37  17  39  1   
 38  18  22  ar  
 39  19  23  ar  
 40  19  40  1   
 41  20  24  ar  
 42  20  41  1   
 43  21  24  ar  
 44  21  42  1   
 45  22  25  ar  
 46  22  43  1   
 47  23  25  ar  
 48  23  44  1   
 49  24  45  1   
 50  25  46  1   
@<TRIPOS>SUBSTRUCTURE
  1 ****   8 GROUP 4 **** **** 0

# MOE 2024.06 (io_trps.svl 2023.06)
