@<TRIPOS>MOLECULE
NONAME
48 50 1 0 0 
SMALL
USER_CHARGES


@<TRIPOS>ATOM
  1 O       -0.0520    -0.1440     0.0260 O.3   1 <1>  -0.3630 
  2 C       -1.1700    -0.8870    -0.2520 C.ar  1 <1>   0.0820 
  3 C       -0.0200     1.2460    -0.2230 C.3   1 <1>   0.0400 
  4 C       -1.1280    -2.2740    -0.0110 C.ar  1 <1>   0.1000 
  5 C       -2.3320    -0.3140    -0.7610 C.ar  1 <1>  -0.1500 
  6 N       -0.0090    -2.9470     0.4990 N.pl3 1 <1>  -0.8380 
  7 C       -2.2540    -3.0350    -0.2910 C.ar  1 <1>  -0.1500 
  8 C       -3.4430    -1.0950    -1.0320 C.ar  1 <1>  -0.1500 
  9 C        0.3380    -2.5880     1.9050 C.3   1 <1>   0.2090 
 10 C        1.1640    -2.9790    -0.4250 C.3   1 <1>   0.2090 
 11 C       -3.4040    -2.4570    -0.7960 C.ar  1 <1>  -0.1500 
 12 C        1.4610    -3.4950     2.4460 C.3   1 <1>   0.3430 
 13 C        2.2840    -3.8780     0.1330 C.3   1 <1>   0.3430 
 14 N        2.6710    -3.5090     1.5480 N.4   1 <1>  -0.9590 
 15 C        3.7470    -4.3890     2.0730 C.3   1 <1>   0.4860 
 16 C        4.9870    -4.1850     1.2270 C.ar  1 <1>  -0.1440 
 17 C        5.3180    -5.1130     0.2510 C.ar  1 <1>  -0.1500 
 18 C        5.7950    -3.0720     1.4100 C.ar  1 <1>  -0.1500 
 19 C        6.4320    -4.9310    -0.5500 C.ar  1 <1>   0.0820 
 20 C        6.9130    -2.8870     0.6150 C.ar  1 <1>  -0.1500 
 21 O        6.6660    -5.8850    -1.4830 O.3   1 <1>  -0.3620 
 22 C        7.2340    -3.8090    -0.3650 C.ar  1 <1>  -0.1500 
 23 C        7.8200    -5.8500    -2.2940 C.3   1 <1>   0.0400 
 24 H        0.9510     1.6160     0.0560 H     1 <1>   0.0800 
 25 H       -0.7760     1.7260     0.3730 H     1 <1>   0.0800 
 26 H       -0.1880     1.4190    -1.2710 H     1 <1>   0.0800 
 27 H       -2.4040     0.7380    -0.9570 H     1 <1>   0.1500 
 28 H       -2.2240    -4.0930    -0.1080 H     1 <1>   0.1500 
 29 H       -4.3370    -0.6440    -1.4250 H     1 <1>   0.1500 
 30 H       -0.5390    -2.6970     2.5210 H     1 <1>   0.0800 
 31 H        0.6480    -1.5590     1.9570 H     1 <1>   0.0800 
 32 H        1.5420    -1.9830    -0.5750 H     1 <1>   0.0800 
 33 H        0.8470    -3.3570    -1.3820 H     1 <1>   0.0800 
 34 H       -4.2660    -3.0650    -1.0060 H     1 <1>   0.1500 
 35 H        1.0660    -4.4930     2.5360 H     1 <1>   0.0800 
 36 H        1.7370    -3.1570     3.4310 H     1 <1>   0.0800 
 37 H        3.1420    -3.8040    -0.5150 H     1 <1>   0.0800 
 38 H        1.9380    -4.8980     0.1070 H     1 <1>   0.0800 
 39 H        3.0520    -2.5560     1.5010 H     1 <1>   0.4500 
 40 H        3.4390    -5.4210     2.0340 H     1 <1>   0.0800 
 41 H        3.9700    -4.1350     3.0970 H     1 <1>   0.0800 
 42 H        4.7240    -5.9960     0.0900 H     1 <1>   0.1500 
 43 H        5.5730    -2.3400     2.1680 H     1 <1>   0.1500 
 44 H        7.5410    -2.0230     0.7580 H     1 <1>   0.1500 
 45 H        8.1050    -3.6410    -0.9690 H     1 <1>   0.1500 
 46 H        7.8100    -6.7190    -2.9280 H     1 <1>   0.0800 
 47 H        8.6920    -5.8690    -1.6640 H     1 <1>   0.0800 
 48 H        7.7990    -4.9590    -2.8960 H     1 <1>   0.0800 
@<TRIPOS>BOND
  1   1   2  1   
  2   1   3  1   
  3   2   4  ar  
  4   2   5  ar  
  5   3  24  1   
  6   3  25  1   
  7   3  26  1   
  8   4   6  1   
  9   4   7  ar  
 10   5   8  ar  
 11   5  27  1   
 12   6   9  1   
 13   6  10  1   
 14   7  11  ar  
 15   7  28  1   
 16   8  11  ar  
 17   8  29  1   
 18   9  12  1   
 19   9  30  1   
 20   9  31  1   
 21  10  13  1   
 22  10  32  1   
 23  10  33  1   
 24  11  34  1   
 25  12  14  1   
 26  12  35  1   
 27  12  36  1   
 28  13  14  1   
 29  13  37  1   
 30  13  38  1   
 31  14  15  1   
 32  14  39  1   
 33  15  16  1   
 34  15  40  1   
 35  15  41  1   
 36  16  17  ar  
 37  16  18  ar  
 38  17  19  ar  
 39  17  42  1   
 40  18  20  ar  
 41  18  43  1   
 42  19  21  1   
 43  19  22  ar  
 44  20  22  ar  
 45  20  44  1   
 46  21  23  1   
 47  22  45  1   
 48  23  46  1   
 49  23  47  1   
 50  23  48  1   
@<TRIPOS>SUBSTRUCTURE
  1 ****  13 GROUP 4 **** **** 0

# MOE 2024.06 (io_trps.svl 2023.06)
