@<TRIPOS>MOLECULE
NONAME
44 46 1 0 0 
SMALL
USER_CHARGES


@<TRIPOS>ATOM
  1 N       -0.0690    -0.4110    -1.1180 N.pl3 1 <1>   0.0330 
  2 C       -0.7790    -1.4370    -0.5540 C.ar  1 <1>  -0.1520 
  3 C        1.2620    -0.6570    -0.9270 C.2   1 <1>  -0.3020 
  4 C        0.1210    -2.3410    -0.0010 C.ar  1 <1>   0.0000 
  5 C       -2.1570    -1.6530    -0.4790 C.ar  1 <1>  -0.1500 
  6 C        1.4120    -1.8240    -0.2510 C.2   1 <1>  -0.1810 
  7 C       -0.3640    -3.4870     0.6400 C.ar  1 <1>  -0.1500 
  8 C       -2.6180    -2.7840     0.1540 C.ar  1 <1>  -0.1500 
  9 C        2.6740    -2.5310     0.2010 C.3   1 <1>   0.0210 
 10 C       -1.7210    -3.7010     0.7140 C.ar  1 <1>  -0.1500 
 11 C        3.9140    -1.7370    -0.2060 C.3   1 <1>   0.3430 
 12 N        5.1590    -2.4260     0.2390 N.4   1 <1>  -0.9060 
 13 C        6.3980    -1.7290    -0.1650 C.3   1 <1>   0.4230 
 14 C        7.5990    -2.6840     0.0070 C.3   1 <1>  -0.0800 
 15 C        6.5730    -0.4530     0.6710 C.3   1 <1>  -0.1600 
 16 C        8.9080    -1.9580    -0.3530 C.3   1 <1>  -0.1600 
 17 C        7.4750    -3.9580    -0.8500 C.3   1 <1>  -0.2400 
 18 C        7.8850     0.2620     0.3190 C.3   1 <1>  -0.1600 
 19 C        9.0860    -0.6770     0.4720 C.3   1 <1>  -0.1600 
 20 H       -0.4870     0.3950    -1.5960 H     1 <1>   0.2700 
 21 H        2.0010     0.0320    -1.2970 H     1 <1>   0.1500 
 22 H       -2.8400    -0.9440    -0.9120 H     1 <1>   0.1500 
 23 H        0.3250    -4.1900     1.0690 H     1 <1>   0.1500 
 24 H       -3.6750    -2.9740     0.2250 H     1 <1>   0.1500 
 25 H        2.6950    -3.5070    -0.2510 H     1 <1>   0.0800 
 26 H        2.6380    -2.6360     1.2700 H     1 <1>   0.0800 
 27 H       -2.1090    -4.5770     1.2030 H     1 <1>   0.1500 
 28 H        3.8550    -0.7560     0.2360 H     1 <1>   0.0800 
 29 H        3.9180    -1.6240    -1.2780 H     1 <1>   0.0800 
 30 H        5.1930    -3.3680    -0.1650 H     1 <1>   0.4500 
 31 H        5.1660    -2.5340     1.2590 H     1 <1>   0.4500 
 32 H        6.3350    -1.4560    -1.2070 H     1 <1>   0.0800 
 33 H        7.6690    -2.9730     1.0430 H     1 <1>   0.0800 
 34 H        6.5890    -0.6990     1.7190 H     1 <1>   0.0800 
 35 H        5.7630     0.2310     0.4910 H     1 <1>   0.0800 
 36 H        8.9140    -1.7060    -1.4010 H     1 <1>   0.0800 
 37 H        9.7480    -2.6070    -0.1710 H     1 <1>   0.0800 
 38 H        7.3520    -3.7110    -1.8910 H     1 <1>   0.0800 
 39 H        6.6520    -4.5740    -0.5360 H     1 <1>   0.0800 
 40 H        8.3690    -4.5510    -0.7560 H     1 <1>   0.0800 
 41 H        8.0160     1.1170     0.9620 H     1 <1>   0.0800 
 42 H        7.8430     0.6240    -0.6950 H     1 <1>   0.0800 
 43 H        9.9810    -0.1680     0.1540 H     1 <1>   0.0800 
 44 H        9.2140    -0.9320     1.5110 H     1 <1>   0.0800 
@<TRIPOS>BOND
  1   1   2  1   
  2   1   3  1   
  3   1  20  1   
  4   2   4  ar  
  5   2   5  ar  
  6   3   6  2   
  7   3  21  1   
  8   4   6  1   
  9   4   7  ar  
 10   5   8  ar  
 11   5  22  1   
 12   6   9  1   
 13   7  10  ar  
 14   7  23  1   
 15   8  10  ar  
 16   8  24  1   
 17   9  11  1   
 18   9  25  1   
 19   9  26  1   
 20  10  27  1   
 21  11  12  1   
 22  11  28  1   
 23  11  29  1   
 24  12  13  1   
 25  12  30  1   
 26  12  31  1   
 27  13  14  1   
 28  13  15  1   
 29  13  32  1   
 30  14  16  1   
 31  14  17  1   
 32  14  33  1   
 33  15  18  1   
 34  15  34  1   
 35  15  35  1   
 36  16  19  1   
 37  16  36  1   
 38  16  37  1   
 39  17  38  1   
 40  17  39  1   
 41  17  40  1   
 42  18  19  1   
 43  18  41  1   
 44  18  42  1   
 45  19  43  1   
 46  19  44  1   
@<TRIPOS>SUBSTRUCTURE
  1 ****  11 GROUP 4 **** **** 0

# MOE 2024.06 (io_trps.svl 2023.06)
