@<TRIPOS>MOLECULE
NONAME
42 42 1 0 0 
SMALL
USER_CHARGES


@<TRIPOS>ATOM
  1 BR       1.4600     0.5350    -2.5950 Br    1 <1>  -0.1110 
  2 C        2.2030     1.3190    -0.9960 C.ar  1 <1>   0.1110 
  3 C        1.4840     2.2810    -0.3000 C.ar  1 <1>   0.0830 
  4 C        3.4510     0.8870    -0.5910 C.ar  1 <1>  -0.1500 
  5 O        0.2630     2.6490    -0.7690 O.3   1 <1>  -0.3630 
  6 C        2.0630     2.8150     0.8460 C.ar  1 <1>  -0.1500 
  7 C        4.0340     1.4220     0.5520 C.ar  1 <1>  -0.0090 
  8 C       -0.5270     3.6070    -0.1020 C.3   1 <1>   0.0400 
  9 C        3.3160     2.3850     1.2570 C.ar  1 <1>  -0.1500 
 10 S        5.6650     0.8670     1.1180 S.o2  1 <1>   1.4470 
 11 O        6.2910     1.9090     1.8990 O.2   1 <1>  -0.6500 
 12 O        5.5740    -0.4750     1.6430 O.2   1 <1>  -0.6500 
 13 N        6.5730     0.8290    -0.2890 N.am  1 <1>  -0.9140 
 14 C        7.8100     0.0700    -0.1610 C.3   1 <1>   0.2760 
 15 C        8.9760     0.9020    -0.7640 C.3   1 <1>  -0.0800 
 16 C        7.6960    -1.3510    -0.8080 C.3   1 <1>  -0.0800 
 17 C       10.3440     0.2870    -0.4120 C.3   1 <1>  -0.2400 
 18 C        8.9900     2.3700    -0.2880 C.3   1 <1>  -0.2400 
 19 C        6.3620    -1.6740    -1.5080 C.3   1 <1>  -0.2400 
 20 C        7.9840    -2.4450     0.2320 C.3   1 <1>  -0.2400 
 21 H        3.9660     0.1370    -1.1640 H     1 <1>   0.1500 
 22 H        1.5570     3.5620     1.4300 H     1 <1>   0.1500 
 23 H       -1.4430     3.7250    -0.6540 H     1 <1>   0.0800 
 24 H        0.0040     4.5420    -0.0740 H     1 <1>   0.0800 
 25 H       -0.7430     3.2540     0.8910 H     1 <1>   0.0800 
 26 H        3.7490     2.8090     2.1490 H     1 <1>   0.1500 
 27 H        6.8780     1.7940    -0.3730 H     1 <1>   0.4200 
 28 H        8.0350    -0.0480     0.8880 H     1 <1>   0.0800 
 29 H        8.8760     0.8980    -1.8370 H     1 <1>   0.0800 
 30 H        8.4530    -1.4400    -1.5660 H     1 <1>   0.0800 
 31 H       10.4850     0.2670     0.6550 H     1 <1>   0.0800 
 32 H       11.1390     0.8660    -0.8470 H     1 <1>   0.0800 
 33 H       10.4350    -0.7170    -0.7850 H     1 <1>   0.0800 
 34 H        8.9580     2.4200     0.7880 H     1 <1>   0.0800 
 35 H        8.1610     2.9250    -0.6870 H     1 <1>   0.0800 
 36 H        9.8870     2.8630    -0.6200 H     1 <1>   0.0800 
 37 H        5.5560    -1.6980    -0.7970 H     1 <1>   0.0800 
 38 H        6.4160    -2.6360    -1.9860 H     1 <1>   0.0800 
 39 H        6.1450    -0.9380    -2.2620 H     1 <1>   0.0800 
 40 H        7.2340    -2.4390     1.0040 H     1 <1>   0.0800 
 41 H        8.9450    -2.2900     0.6900 H     1 <1>   0.0800 
 42 H        7.9850    -3.4150    -0.2330 H     1 <1>   0.0800 
@<TRIPOS>BOND
  1   1   2  1   
  2   2   3  ar  
  3   2   4  ar  
  4   3   5  1   
  5   3   6  ar  
  6   4   7  ar  
  7   4  21  1   
  8   5   8  1   
  9   6   9  ar  
 10   6  22  1   
 11   7   9  ar  
 12   7  10  1   
 13   8  23  1   
 14   8  24  1   
 15   8  25  1   
 16   9  26  1   
 17  10  11  2   
 18  10  12  2   
 19  10  13  am  
 20  13  14  1   
 21  13  27  1   
 22  14  15  1   
 23  14  16  1   
 24  14  28  1   
 25  15  17  1   
 26  15  18  1   
 27  15  29  1   
 28  16  19  1   
 29  16  20  1   
 30  16  30  1   
 31  17  31  1   
 32  17  32  1   
 33  17  33  1   
 34  18  34  1   
 35  18  35  1   
 36  18  36  1   
 37  19  37  1   
 38  19  38  1   
 39  19  39  1   
 40  20  40  1   
 41  20  41  1   
 42  20  42  1   
@<TRIPOS>SUBSTRUCTURE
  1 ****   7 GROUP 4 **** **** 0

# MOE 2024.06 (io_trps.svl 2023.06)
