@<TRIPOS>MOLECULE
NONAME
44 44 1 0 0 
SMALL
USER_CHARGES


@<TRIPOS>ATOM
  1 O        0.3020    -0.7770     1.0840 O.2   1 <1>  -0.5700 
  2 C        0.6980    -1.3680     0.1080 C.2   1 <1>   0.5690 
  3 N       -0.1360    -1.9210    -0.8250 N.am  1 <1>  -0.5470 
  4 C        2.2070    -1.5290    -0.1020 C.3   1 <1>  -0.0190 
  5 C       -1.5380    -1.9180    -0.9160 C.ar  1 <1>   0.1170 
  6 C        2.8220    -2.3700     1.0440 C.3   1 <1>  -0.1600 
  7 C        2.8540    -0.1310    -0.2550 C.3   1 <1>  -0.1600 
  8 C       -2.1660    -2.9310    -1.6300 C.ar  1 <1>  -0.1500 
  9 C       -2.3310    -0.9310    -0.3380 C.ar  1 <1>  -0.1500 
 10 C        3.9180    -3.3400     0.5740 C.3   1 <1>  -0.1600 
 11 C        4.3500    -0.1490    -0.5990 C.3   1 <1>  -0.1600 
 12 C       -3.5440    -2.9660    -1.7540 C.ar  1 <1>  -0.1500 
 13 C       -3.7080    -0.9640    -0.4620 C.ar  1 <1>  -0.1500 
 14 C        4.4920    -4.1270     1.7550 C.3   1 <1>  -0.2400 
 15 C        4.8590     1.2630    -0.9010 C.3   1 <1>  -0.2400 
 16 C       -4.3310    -1.9870    -1.1640 C.ar  1 <1>   0.1170 
 17 N       -5.7240    -2.0390    -1.2990 N.am  1 <1>  -0.5470 
 18 C       -6.7000    -2.0110    -0.3570 C.2   1 <1>   0.5690 
 19 O       -7.8560    -2.0430    -0.6910 O.2   1 <1>  -0.5700 
 20 C       -6.3650    -1.9600     1.1150 C.3   1 <1>  -0.1790 
 21 H        0.3310    -2.4590    -1.5510 H     1 <1>   0.3700 
 22 H        2.3490    -2.0590    -1.0260 H     1 <1>   0.0800 
 23 H        2.0430    -2.9570     1.5020 H     1 <1>   0.0800 
 24 H        3.2030    -1.7150     1.8090 H     1 <1>   0.0800 
 25 H        2.7100     0.4250     0.6570 H     1 <1>   0.0800 
 26 H        2.3290     0.3960    -1.0330 H     1 <1>   0.0800 
 27 H       -1.5770    -3.7040    -2.0890 H     1 <1>   0.1500 
 28 H       -1.8730    -0.1270     0.2090 H     1 <1>   0.1500 
 29 H        4.7180    -2.8080     0.0920 H     1 <1>   0.0800 
 30 H        3.5060    -4.0330    -0.1390 H     1 <1>   0.0800 
 31 H        4.5220    -0.7770    -1.4570 H     1 <1>   0.0800 
 32 H        4.9100    -0.5430     0.2310 H     1 <1>   0.0800 
 33 H       -4.0130    -3.7600    -2.3050 H     1 <1>   0.1500 
 34 H       -4.2990    -0.1860    -0.0140 H     1 <1>   0.1500 
 35 H        4.9320    -3.4580     2.4740 H     1 <1>   0.0800 
 36 H        5.2520    -4.8060     1.4110 H     1 <1>   0.0800 
 37 H        3.7190    -4.6970     2.2410 H     1 <1>   0.0800 
 38 H        4.3390     1.6800    -1.7460 H     1 <1>   0.0800 
 39 H        5.9100     1.2350    -1.1270 H     1 <1>   0.0800 
 40 H        4.7090     1.9050    -0.0510 H     1 <1>   0.0800 
 41 H       -6.0910    -2.1650    -2.2420 H     1 <1>   0.3700 
 42 H       -5.5110    -2.5760     1.3260 H     1 <1>   0.0800 
 43 H       -7.2000    -2.3210     1.6860 H     1 <1>   0.0800 
 44 H       -6.1600    -0.9480     1.4040 H     1 <1>   0.0800 
@<TRIPOS>BOND
  1   1   2  2   
  2   2   3  am  
  3   2   4  1   
  4   3   5  1   
  5   3  21  1   
  6   4   6  1   
  7   4   7  1   
  8   4  22  1   
  9   5   8  ar  
 10   5   9  ar  
 11   6  10  1   
 12   6  23  1   
 13   6  24  1   
 14   7  11  1   
 15   7  25  1   
 16   7  26  1   
 17   8  12  ar  
 18   8  27  1   
 19   9  13  ar  
 20   9  28  1   
 21  10  14  1   
 22  10  29  1   
 23  10  30  1   
 24  11  15  1   
 25  11  31  1   
 26  11  32  1   
 27  12  16  ar  
 28  12  33  1   
 29  13  16  ar  
 30  13  34  1   
 31  14  35  1   
 32  14  36  1   
 33  14  37  1   
 34  15  38  1   
 35  15  39  1   
 36  15  40  1   
 37  16  17  1   
 38  17  18  am  
 39  17  41  1   
 40  18  19  2   
 41  18  20  1   
 42  20  42  1   
 43  20  43  1   
 44  20  44  1   
@<TRIPOS>SUBSTRUCTURE
  1 ****   5 GROUP 4 **** **** 0

# MOE 2024.06 (io_trps.svl 2023.06)
