@<TRIPOS>MOLECULE
NONAME
50 51 1 0 0 
SMALL
USER_CHARGES


@<TRIPOS>ATOM
  1 S        0.3220    -0.3650     1.0060 S.o2  1 <1>   1.3330 
  2 O        1.3990    -0.6320     1.9370 O.2   1 <1>  -0.6500 
  3 O       -0.9210     0.1600     1.5200 O.2   1 <1>  -0.6500 
  4 N        0.0310    -1.7940     0.1350 N.am  1 <1>  -0.8490 
  5 C        0.8810     0.7640    -0.2550 C.3   1 <1>  -0.1350 
  6 C       -1.3000    -2.3810     0.4080 C.3   1 <1>   0.2760 
  7 C        1.2010    -2.7260     0.0820 C.3   1 <1>   0.2570 
  8 C       -1.3820    -3.9170     0.2780 C.3   1 <1>  -0.1600 
  9 C       -2.3090    -1.7420    -0.5620 C.3   1 <1>  -0.1600 
 10 C        2.5050    -2.1630    -0.5090 C.2   1 <1>   0.5690 
 11 C       -2.8050    -4.4290     0.5480 C.3   1 <1>  -0.1600 
 12 C       -3.7390    -2.2440    -0.3140 C.3   1 <1>  -0.1600 
 13 O        2.6850    -2.2630    -1.6990 O.2   1 <1>  -0.5700 
 14 N        3.4030    -1.5660     0.3350 N.am  1 <1>  -0.5470 
 15 C       -3.8150    -3.7720    -0.3990 C.3   1 <1>  -0.1600 
 16 C        4.6500    -0.9680     0.1000 C.ar  1 <1>   0.1170 
 17 C        5.4410    -1.2640    -1.0050 C.ar  1 <1>  -0.1500 
 18 C        5.1210    -0.0430     1.0230 C.ar  1 <1>  -0.1500 
 19 C        6.6650    -0.6450    -1.1820 C.ar  1 <1>  -0.1500 
 20 C        6.3450     0.5790     0.8520 C.ar  1 <1>  -0.1500 
 21 C        7.1280     0.2780    -0.2590 C.ar  1 <1>   0.0820 
 22 O        8.3410     0.8380    -0.5090 O.3   1 <1>  -0.3630 
 23 C        8.9190     1.7540     0.3910 C.3   1 <1>   0.1200 
 24 C       10.2780     2.1680    -0.1670 C.3   1 <1>  -0.2400 
 25 H        1.7730     0.4050    -0.7290 H     1 <1>   0.0800 
 26 H        1.0860     1.7230     0.1760 H     1 <1>   0.0800 
 27 H        0.1220     0.8800    -1.0030 H     1 <1>   0.0800 
 28 H       -1.5920    -2.1450     1.4200 H     1 <1>   0.0800 
 29 H        0.9620    -3.5650    -0.5430 H     1 <1>   0.0800 
 30 H        1.4020    -3.1010     1.0700 H     1 <1>   0.0800 
 31 H       -0.7220    -4.3830     0.9880 H     1 <1>   0.0800 
 32 H       -1.1040    -4.2140    -0.7180 H     1 <1>   0.0800 
 33 H       -2.0220    -1.9770    -1.5720 H     1 <1>   0.0800 
 34 H       -2.3040    -0.6730    -0.4550 H     1 <1>   0.0800 
 35 H       -3.0780    -4.2120     1.5670 H     1 <1>   0.0800 
 36 H       -2.8350    -5.4980     0.4200 H     1 <1>   0.0800 
 37 H       -4.4040    -1.8090    -1.0400 H     1 <1>   0.0800 
 38 H       -4.0630    -1.9230     0.6620 H     1 <1>   0.0800 
 39 H        3.0180    -1.3740     1.2710 H     1 <1>   0.3700 
 40 H       -4.8100    -4.0990    -0.1500 H     1 <1>   0.0800 
 41 H       -3.6110    -4.0830    -1.4100 H     1 <1>   0.0800 
 42 H        5.1080    -1.9810    -1.7330 H     1 <1>   0.1500 
 43 H        4.5230     0.1970     1.8850 H     1 <1>   0.1500 
 44 H        7.2720    -0.8760    -2.0390 H     1 <1>   0.1500 
 45 H        6.6710     1.2890     1.5880 H     1 <1>   0.1500 
 46 H        9.0320     1.2710     1.3460 H     1 <1>   0.0800 
 47 H        8.2680     2.6070     0.4750 H     1 <1>   0.0800 
 48 H       10.9140     1.3070    -0.2640 H     1 <1>   0.0800 
 49 H       10.7460     2.8700     0.4980 H     1 <1>   0.0800 
 50 H       10.1550     2.6340    -1.1280 H     1 <1>   0.0800 
@<TRIPOS>BOND
  1   1   2  2   
  2   1   3  2   
  3   1   4  am  
  4   1   5  1   
  5   4   6  1   
  6   4   7  1   
  7   5  25  1   
  8   5  26  1   
  9   5  27  1   
 10   6   8  1   
 11   6   9  1   
 12   6  28  1   
 13   7  10  1   
 14   7  29  1   
 15   7  30  1   
 16   8  11  1   
 17   8  31  1   
 18   8  32  1   
 19   9  12  1   
 20   9  33  1   
 21   9  34  1   
 22  10  13  2   
 23  10  14  am  
 24  11  15  1   
 25  11  35  1   
 26  11  36  1   
 27  12  15  1   
 28  12  37  1   
 29  12  38  1   
 30  14  16  1   
 31  14  39  1   
 32  15  40  1   
 33  15  41  1   
 34  16  17  ar  
 35  16  18  ar  
 36  17  19  ar  
 37  17  42  1   
 38  18  20  ar  
 39  18  43  1   
 40  19  21  ar  
 41  19  44  1   
 42  20  21  ar  
 43  20  45  1   
 44  21  22  1   
 45  22  23  1   
 46  23  24  1   
 47  23  46  1   
 48  23  47  1   
 49  24  48  1   
 50  24  49  1   
 51  24  50  1   
@<TRIPOS>SUBSTRUCTURE
  1 ****  14 GROUP 4 **** **** 0

# MOE 2024.06 (io_trps.svl 2023.06)
