@<TRIPOS>MOLECULE
NONAME
39 40 1 0 0 
SMALL
USER_CHARGES


@<TRIPOS>ATOM
  1 O       -9.0700     0.7400     0.4590 O.3   1 <1>  -0.3630 
  2 C      -10.3120     0.2710     0.1410 C.ar  1 <1>   0.0830 
  3 C       -7.8980     0.0660     0.0780 C.3   1 <1>   0.1200 
  4 C      -10.6390    -1.0510    -0.2180 C.ar  1 <1>   0.0830 
  5 C      -11.3120     1.2300     0.1930 C.ar  1 <1>  -0.1500 
  6 C       -6.7270     1.0300     0.2720 C.3   1 <1>   0.3430 
  7 O       -9.6740    -2.0200    -0.2400 O.3   1 <1>  -0.3630 
  8 C      -11.9630    -1.3510    -0.5370 C.ar  1 <1>  -0.1500 
  9 C      -12.6210     0.9140    -0.1190 C.ar  1 <1>  -0.1500 
 10 N       -5.4190     0.4430    -0.1710 N.4   1 <1>  -0.9590 
 11 C       -9.9970    -3.3880    -0.3880 C.3   1 <1>   0.0400 
 12 C      -12.9450    -0.3770    -0.4870 C.ar  1 <1>  -0.1500 
 13 C       -5.0030    -0.7160     0.6780 C.3   1 <1>   0.3430 
 14 C       -4.3660     1.5000    -0.2020 C.3   1 <1>   0.3430 
 15 C       -3.7240    -1.3370     0.1130 C.3   1 <1>  -0.1600 
 16 C       -3.0750     0.9260    -0.7880 C.3   1 <1>  -0.1600 
 17 C       -2.5960    -0.3050    -0.0080 C.3   1 <1>  -0.1600 
 18 H       -7.9970    -0.2170    -0.9550 H     1 <1>   0.0800 
 19 H       -7.7980    -0.7970     0.7100 H     1 <1>   0.0800 
 20 H      -11.0620     2.2360     0.4790 H     1 <1>   0.1500 
 21 H       -6.6680     1.3030     1.3130 H     1 <1>   0.0800 
 22 H       -6.9300     1.9190    -0.3020 H     1 <1>   0.0800 
 23 H      -12.2620    -2.3390    -0.8280 H     1 <1>   0.1500 
 24 H      -13.3850     1.6720    -0.0760 H     1 <1>   0.1500 
 25 H       -5.5250     0.0970    -1.1340 H     1 <1>   0.4500 
 26 H       -9.0940    -3.9610    -0.2810 H     1 <1>   0.0800 
 27 H      -10.4140    -3.5460    -1.3670 H     1 <1>   0.0800 
 28 H      -10.6980    -3.6670     0.3790 H     1 <1>   0.0800 
 29 H      -13.9630    -0.6240    -0.7350 H     1 <1>   0.1500 
 30 H       -5.7800    -1.4630     0.7000 H     1 <1>   0.0800 
 31 H       -4.8250    -0.3820     1.6880 H     1 <1>   0.0800 
 32 H       -4.1790     1.8590     0.7970 H     1 <1>   0.0800 
 33 H       -4.6940     2.3320    -0.8060 H     1 <1>   0.0800 
 34 H       -3.9320    -1.7690    -0.8510 H     1 <1>   0.0800 
 35 H       -3.4060    -2.1360     0.7600 H     1 <1>   0.0800 
 36 H       -2.3100     1.6830    -0.7610 H     1 <1>   0.0800 
 37 H       -3.2330     0.6690    -1.8210 H     1 <1>   0.0800 
 38 H       -1.7470    -0.7460    -0.5050 H     1 <1>   0.0800 
 39 H       -2.2770    -0.0040     0.9760 H     1 <1>   0.0800 
@<TRIPOS>BOND
  1   1   2  1   
  2   1   3  1   
  3   2   4  ar  
  4   2   5  ar  
  5   3   6  1   
  6   3  18  1   
  7   3  19  1   
  8   4   7  1   
  9   4   8  ar  
 10   5   9  ar  
 11   5  20  1   
 12   6  10  1   
 13   6  21  1   
 14   6  22  1   
 15   7  11  1   
 16   8  12  ar  
 17   8  23  1   
 18   9  12  ar  
 19   9  24  1   
 20  10  13  1   
 21  10  14  1   
 22  10  25  1   
 23  11  26  1   
 24  11  27  1   
 25  11  28  1   
 26  12  29  1   
 27  13  15  1   
 28  13  30  1   
 29  13  31  1   
 30  14  16  1   
 31  14  32  1   
 32  14  33  1   
 33  15  17  1   
 34  15  34  1   
 35  15  35  1   
 36  16  17  1   
 37  16  36  1   
 38  16  37  1   
 39  17  38  1   
 40  17  39  1   
@<TRIPOS>SUBSTRUCTURE
  1 ****   3 GROUP 4 **** **** 0

# MOE 2024.06 (io_trps.svl 2023.06)
