@<TRIPOS>MOLECULE
NONAME
45 47 1 0 0 
SMALL
USER_CHARGES


@<TRIPOS>ATOM
  1 S        0.7840     0.6440    -0.5800 S.o2  1 <1>   1.4470 
  2 O        0.6380     1.4250    -1.7860 O.2   1 <1>  -0.6500 
  3 O        1.6430     1.1060     0.4880 O.2   1 <1>  -0.6500 
  4 N        1.3550    -0.8390    -1.1190 N.am  1 <1>  -0.7890 
  5 C       -0.8470     0.2240     0.0930 C.ar  1 <1>  -0.0090 
  6 C        2.7910    -0.8950    -1.2340 C.3   1 <1>   0.1310 
  7 C       -1.9980     0.3590    -0.6690 C.ar  1 <1>  -0.1500 
  8 C       -0.9820    -0.2670     1.3860 C.ar  1 <1>  -0.1500 
  9 C        3.4160    -2.2370    -1.3980 C.3   1 <1>  -0.2000 
 10 C        3.5630    -1.4870    -0.1060 C.3   1 <1>  -0.2000 
 11 C       -3.2670     0.0320    -0.1910 C.ar  1 <1>   0.0860 
 12 C       -2.2220    -0.6130     1.8870 C.ar  1 <1>  -0.1500 
 13 C       -3.3620    -0.4850     1.1110 C.ar  1 <1>   0.0830 
 14 C       -4.4010     0.2740    -1.0530 C.2   1 <1>   0.5440 
 15 O       -4.5140    -0.8790     1.6990 O.3   1 <1>  -0.3630 
 16 O       -4.5950    -0.4830    -1.9870 O.2   1 <1>  -0.5700 
 17 N       -5.2500     1.3440    -0.8580 N.am  1 <1>  -0.6600 
 18 C       -5.5040    -1.5910     0.9830 C.3   1 <1>   0.0400 
 19 C       -5.0890     2.3410     0.2370 C.3   1 <1>   0.1400 
 20 C       -6.4380     1.5810    -1.7250 C.3   1 <1>   0.1400 
 21 C       -6.3420     2.3420     1.1180 C.3   1 <1>  -0.1600 
 22 C       -7.7080     1.5860    -0.8680 C.3   1 <1>  -0.1600 
 23 C       -7.6120     2.5880     0.2910 C.3   1 <1>  -0.1600 
 24 H        0.9860    -0.9050    -2.0640 H     1 <1>   0.4200 
 25 H        3.2170    -0.0580    -1.7680 H     1 <1>   0.1000 
 26 H       -1.9220     0.7400    -1.6740 H     1 <1>   0.1500 
 27 H       -0.1050    -0.3800     2.0030 H     1 <1>   0.1500 
 28 H        4.2850    -2.3380    -2.0240 H     1 <1>   0.1000 
 29 H        2.7860    -3.1090    -1.4150 H     1 <1>   0.1000 
 30 H        3.0200    -1.8160     0.7630 H     1 <1>   0.1000 
 31 H        4.5200    -1.0610     0.1390 H     1 <1>   0.1000 
 32 H       -2.3130    -0.9950     2.8890 H     1 <1>   0.1500 
 33 H       -6.0660    -2.1800     1.6850 H     1 <1>   0.0800 
 34 H       -5.0300    -2.2340     0.2610 H     1 <1>   0.0800 
 35 H       -6.1580    -0.8910     0.4960 H     1 <1>   0.0800 
 36 H       -4.9510     3.3160    -0.1980 H     1 <1>   0.0800 
 37 H       -4.2260     2.1240     0.8420 H     1 <1>   0.0800 
 38 H       -6.5180     0.8210    -2.4840 H     1 <1>   0.0800 
 39 H       -6.3240     2.5310    -2.2190 H     1 <1>   0.0800 
 40 H       -6.2460     3.1040     1.8700 H     1 <1>   0.0800 
 41 H       -6.4120     1.3940     1.6230 H     1 <1>   0.0800 
 42 H       -7.8670     0.5950    -0.4800 H     1 <1>   0.0800 
 43 H       -8.5520     1.8310    -1.4880 H     1 <1>   0.0800 
 44 H       -7.5890     3.5890    -0.1060 H     1 <1>   0.0800 
 45 H       -8.4800     2.5000     0.9220 H     1 <1>   0.0800 
@<TRIPOS>BOND
  1   1   2  2   
  2   1   3  2   
  3   1   4  am  
  4   1   5  1   
  5   4   6  1   
  6   4  24  1   
  7   5   7  ar  
  8   5   8  ar  
  9   6   9  1   
 10   6  10  1   
 11   6  25  1   
 12   7  11  ar  
 13   7  26  1   
 14   8  12  ar  
 15   8  27  1   
 16   9  10  1   
 17   9  28  1   
 18   9  29  1   
 19  10  30  1   
 20  10  31  1   
 21  11  13  ar  
 22  11  14  1   
 23  12  13  ar  
 24  12  32  1   
 25  13  15  1   
 26  14  16  2   
 27  14  17  am  
 28  15  18  1   
 29  17  19  1   
 30  17  20  1   
 31  18  33  1   
 32  18  34  1   
 33  18  35  1   
 34  19  21  1   
 35  19  36  1   
 36  19  37  1   
 37  20  22  1   
 38  20  38  1   
 39  20  39  1   
 40  21  23  1   
 41  21  40  1   
 42  21  41  1   
 43  22  23  1   
 44  22  42  1   
 45  22  43  1   
 46  23  44  1   
 47  23  45  1   
@<TRIPOS>SUBSTRUCTURE
  1 ****   7 GROUP 4 **** **** 0

# MOE 2024.06 (io_trps.svl 2023.06)
