@<TRIPOS>MOLECULE
NONAME
47 49 1 0 0 
SMALL
USER_CHARGES


@<TRIPOS>ATOM
  1 F       -1.5010     1.2000     0.0150 F     1 <1>  -0.1900 
  2 C       -0.9410     2.3740     0.1440 C.ar  1 <1>   0.1900 
  3 C       -1.5850     3.4760    -0.3890 C.ar  1 <1>  -0.1440 
  4 C        0.2650     2.4640     0.8180 C.ar  1 <1>  -0.1500 
  5 C       -0.9640     4.6990    -0.2120 C.ar  1 <1>   0.1900 
  6 C       -2.8960     3.3520    -1.1310 C.3   1 <1>   0.4860 
  7 C        0.8590     3.7080     0.9730 C.ar  1 <1>  -0.1500 
  8 F       -1.5430     5.7700    -0.6840 F     1 <1>  -0.1900 
  9 C        0.2420     4.8370     0.4550 C.ar  1 <1>  -0.1500 
 10 N       -3.9740     2.9850    -0.1780 N.4   1 <1>  -0.9590 
 11 C       -5.2540     2.6650    -0.9030 C.3   1 <1>   0.3430 
 12 C       -4.2100     4.0770     0.8380 C.3   1 <1>   0.3430 
 13 C       -6.4020     2.2760     0.0520 C.3   1 <1>   0.2090 
 14 C       -5.3370     3.7390     1.8370 C.3   1 <1>   0.2090 
 15 N       -6.5800     3.2590     1.1600 N.pl3 1 <1>  -0.8380 
 16 C       -7.6210     4.1880     1.0170 C.ar  1 <1>   0.1000 
 17 C       -7.5900     5.2790     0.1280 C.ar  1 <1>   0.0830 
 18 C       -8.7450     4.0020     1.8080 C.ar  1 <1>  -0.1500 
 19 O       -6.4760     5.4580    -0.6500 O.3   1 <1>  -0.3620 
 20 C       -8.6830     6.1410     0.0630 C.ar  1 <1>  -0.1500 
 21 C       -9.8240     4.8620     1.7370 C.ar  1 <1>  -0.1500 
 22 C       -6.3470     6.5870    -1.4860 C.3   1 <1>   0.1200 
 23 C       -9.7930     5.9330     0.8640 C.ar  1 <1>  -0.1500 
 24 C       -4.9810     6.5250    -2.1620 C.3   1 <1>  -0.2400 
 25 H        0.7310     1.5780     1.2140 H     1 <1>   0.1500 
 26 H       -2.7990     2.5880    -1.8860 H     1 <1>   0.0800 
 27 H       -3.1360     4.2830    -1.6200 H     1 <1>   0.0800 
 28 H        1.7990     3.7970     1.4930 H     1 <1>   0.1500 
 29 H        0.6900     5.8100     0.5670 H     1 <1>   0.1500 
 30 H       -3.6700     2.1430     0.3290 H     1 <1>   0.4500 
 31 H       -5.0920     1.8560    -1.5950 H     1 <1>   0.0800 
 32 H       -5.5710     3.5230    -1.4710 H     1 <1>   0.0800 
 33 H       -4.4760     4.9890     0.3320 H     1 <1>   0.0800 
 34 H       -3.3060     4.2680     1.3920 H     1 <1>   0.0800 
 35 H       -6.2090     1.3050     0.4740 H     1 <1>   0.0800 
 36 H       -7.3180     2.2060    -0.5110 H     1 <1>   0.0800 
 37 H       -5.5650     4.6160     2.4190 H     1 <1>   0.0800 
 38 H       -4.9980     2.9790     2.5190 H     1 <1>   0.0800 
 39 H       -8.7680     3.1690     2.4870 H     1 <1>   0.1500 
 40 H       -8.7030     6.9830    -0.6010 H     1 <1>   0.1500 
 41 H      -10.6860     4.6980     2.3610 H     1 <1>   0.1500 
 42 H       -6.4310     7.4740    -0.8810 H     1 <1>   0.0800 
 43 H       -7.1350     6.5610    -2.2200 H     1 <1>   0.0800 
 44 H      -10.6340     6.6030     0.8070 H     1 <1>   0.1500 
 45 H       -4.1980     6.5580    -1.4260 H     1 <1>   0.0800 
 46 H       -4.8670     7.3750    -2.8110 H     1 <1>   0.0800 
 47 H       -4.8980     5.6340    -2.7560 H     1 <1>   0.0800 
@<TRIPOS>BOND
  1   1   2  1   
  2   2   3  ar  
  3   2   4  ar  
  4   3   5  ar  
  5   3   6  1   
  6   4   7  ar  
  7   4  25  1   
  8   5   8  1   
  9   5   9  ar  
 10   6  10  1   
 11   6  26  1   
 12   6  27  1   
 13   7   9  ar  
 14   7  28  1   
 15   9  29  1   
 16  10  11  1   
 17  10  12  1   
 18  10  30  1   
 19  11  13  1   
 20  11  31  1   
 21  11  32  1   
 22  12  14  1   
 23  12  33  1   
 24  12  34  1   
 25  13  15  1   
 26  13  35  1   
 27  13  36  1   
 28  14  15  1   
 29  14  37  1   
 30  14  38  1   
 31  15  16  1   
 32  16  17  ar  
 33  16  18  ar  
 34  17  19  1   
 35  17  20  ar  
 36  18  21  ar  
 37  18  39  1   
 38  19  22  1   
 39  20  23  ar  
 40  20  40  1   
 41  21  23  ar  
 42  21  41  1   
 43  22  24  1   
 44  22  42  1   
 45  22  43  1   
 46  23  44  1   
 47  24  45  1   
 48  24  46  1   
 49  24  47  1   
@<TRIPOS>SUBSTRUCTURE
  1 ****  12 GROUP 4 **** **** 0

# MOE 2024.06 (io_trps.svl 2023.06)
