@<TRIPOS>MOLECULE
NONAME
47 48 1 0 0 
SMALL
USER_CHARGES


@<TRIPOS>ATOM
  1 O       -0.3190    -1.8740     0.4060 O.3   1 <1>  -0.3630 
  2 C       -1.6010    -1.7560    -0.0180 C.ar  1 <1>   0.0830 
  3 C        0.1590    -3.0690     0.9800 C.3   1 <1>   0.0400 
  4 C       -1.9570    -0.5510    -0.6000 C.ar  1 <1>  -0.1500 
  5 C       -2.5530    -2.7640     0.0980 C.ar  1 <1>  -0.1500 
  6 C       -3.2450    -0.3450    -1.0580 C.ar  1 <1>  -0.1500 
  7 C       -3.8420    -2.5570    -0.3600 C.ar  1 <1>  -0.1500 
  8 C       -4.1990    -1.3450    -0.9350 C.ar  1 <1>  -0.1430 
  9 C       -5.6210    -1.1170    -1.4170 C.3   1 <1>  -0.0170 
 10 C       -6.5600    -0.8510    -0.2310 C.3   1 <1>   0.4230 
 11 N       -7.9610    -0.8210    -0.7110 N.4   1 <1>  -0.9060 
 12 C       -6.2530     0.4790     0.4610 C.3   1 <1>  -0.2400 
 13 C       -8.9940    -0.9530     0.3400 C.3   1 <1>   0.4230 
 14 C       -8.8880    -2.3550     0.9700 C.3   1 <1>  -0.1600 
 15 C      -10.3440    -0.6030    -0.3000 C.3   1 <1>  -0.1600 
 16 C      -10.1890    -2.9460     1.5380 C.3   1 <1>  -0.1600 
 17 C      -10.9430    -1.6760    -1.2280 C.3   1 <1>  -0.1600 
 18 C      -11.0460    -3.6340     0.4640 C.3   1 <1>  -0.1600 
 19 C      -11.8130    -2.6830    -0.4630 C.3   1 <1>  -0.1600 
 20 H        1.1970    -2.9310     1.2230 H     1 <1>   0.0800 
 21 H        0.0550    -3.8660     0.2660 H     1 <1>   0.0800 
 22 H       -0.4010    -3.2760     1.8750 H     1 <1>   0.0800 
 23 H       -1.2140     0.2210    -0.6920 H     1 <1>   0.1500 
 24 H       -2.3050    -3.7110     0.5380 H     1 <1>   0.1500 
 25 H       -3.4900     0.6020    -1.5080 H     1 <1>   0.1500 
 26 H       -4.5590    -3.3540    -0.2640 H     1 <1>   0.1500 
 27 H       -5.9370    -2.0000    -1.9430 H     1 <1>   0.0800 
 28 H       -5.6410    -0.2900    -2.1050 H     1 <1>   0.0800 
 29 H       -6.4360    -1.6550     0.4780 H     1 <1>   0.0800 
 30 H       -8.1170    -1.5810    -1.3800 H     1 <1>   0.4500 
 31 H       -8.1190     0.0570    -1.2150 H     1 <1>   0.4500 
 32 H       -6.3430     1.3050    -0.2220 H     1 <1>   0.0800 
 33 H       -6.8960     0.6400     1.3070 H     1 <1>   0.0800 
 34 H       -5.2440     0.4680     0.8350 H     1 <1>   0.0800 
 35 H       -8.8130    -0.2220     1.1120 H     1 <1>   0.0800 
 36 H       -8.1860    -2.2870     1.7830 H     1 <1>   0.0800 
 37 H       -8.4880    -3.0590     0.2610 H     1 <1>   0.0800 
 38 H      -10.2410     0.3170    -0.8470 H     1 <1>   0.0800 
 39 H      -11.0490    -0.3920     0.4860 H     1 <1>   0.0800 
 40 H      -10.7620    -2.2050     2.0700 H     1 <1>   0.0800 
 41 H       -9.9180    -3.7020     2.2570 H     1 <1>   0.0800 
 42 H      -10.1860    -2.1900    -1.7920 H     1 <1>   0.0800 
 43 H      -11.5850    -1.1800    -1.9380 H     1 <1>   0.0800 
 44 H      -11.7730    -4.2520     0.9650 H     1 <1>   0.0800 
 45 H      -10.4360    -4.2970    -0.1250 H     1 <1>   0.0800 
 46 H      -12.3470    -3.2820    -1.1820 H     1 <1>   0.0800 
 47 H      -12.5580    -2.1550     0.1090 H     1 <1>   0.0800 
@<TRIPOS>BOND
  1   1   2  1   
  2   1   3  1   
  3   2   4  ar  
  4   2   5  ar  
  5   3  20  1   
  6   3  21  1   
  7   3  22  1   
  8   4   6  ar  
  9   4  23  1   
 10   5   7  ar  
 11   5  24  1   
 12   6   8  ar  
 13   6  25  1   
 14   7   8  ar  
 15   7  26  1   
 16   8   9  1   
 17   9  10  1   
 18   9  27  1   
 19   9  28  1   
 20  10  11  1   
 21  10  12  1   
 22  10  29  1   
 23  11  13  1   
 24  11  30  1   
 25  11  31  1   
 26  12  32  1   
 27  12  33  1   
 28  12  34  1   
 29  13  14  1   
 30  13  15  1   
 31  13  35  1   
 32  14  16  1   
 33  14  36  1   
 34  14  37  1   
 35  15  17  1   
 36  15  38  1   
 37  15  39  1   
 38  16  18  1   
 39  16  40  1   
 40  16  41  1   
 41  17  19  1   
 42  17  42  1   
 43  17  43  1   
 44  18  19  1   
 45  18  44  1   
 46  18  45  1   
 47  19  46  1   
 48  19  47  1   
@<TRIPOS>SUBSTRUCTURE
  1 ****  10 GROUP 4 **** **** 0

# MOE 2024.06 (io_trps.svl 2023.06)
