@<TRIPOS>MOLECULE
NONAME
32 32 1 0 0 
SMALL
USER_CHARGES


@<TRIPOS>ATOM
  1 O        0.5760     1.2670    -1.0980 O.2   1 <1>  -0.5700 
  2 C        0.2310     2.0040    -0.1950 C.2   1 <1>   0.5440 
  3 N        1.1350     2.3090     0.7830 N.am  1 <1>  -0.7300 
  4 C       -1.1040     2.5710    -0.1400 C.ar  1 <1>   0.0860 
  5 C        2.5020     1.7340     0.8950 C.3   1 <1>   0.1400 
  6 C       -2.2670     1.7910    -0.1730 C.ar  1 <1>  -0.1430 
  7 C       -1.2520     3.9550    -0.0370 C.ar  1 <1>  -0.1500 
  8 C        3.4310     2.3370    -0.1590 C.3   1 <1>   0.1200 
  9 C       -3.5130     2.3920    -0.1020 C.ar  1 <1>  -0.1500 
 10 C       -2.1900     0.2730    -0.2850 C.3   1 <1>  -0.0970 
 11 C       -2.4960     4.5570     0.0370 C.ar  1 <1>  -0.1430 
 12 O        4.7390     1.9480     0.1280 O.3   1 <1>  -0.5600 
 13 C       -3.6290     3.7660     0.0040 C.ar  1 <1>  -0.1500 
 14 C       -2.6280     6.0650     0.1460 C.3   1 <1>  -0.0970 
 15 C        5.6650     2.3610    -0.8240 C.3   1 <1>   0.0400 
 16 H        0.8230     2.8720     1.5760 H     1 <1>   0.3700 
 17 H        2.4520     0.6680     0.7520 H     1 <1>   0.0800 
 18 H        2.8920     1.9390     1.8760 H     1 <1>   0.0800 
 19 H       -0.3670     4.5660    -0.0240 H     1 <1>   0.1500 
 20 H        3.3820     3.4110    -0.1320 H     1 <1>   0.0800 
 21 H        3.1630     1.9730    -1.1370 H     1 <1>   0.0800 
 22 H       -4.4070     1.7940    -0.1290 H     1 <1>   0.1500 
 23 H       -1.5220    -0.1230     0.4600 H     1 <1>   0.0800 
 24 H       -1.8210    -0.0020    -1.2570 H     1 <1>   0.0800 
 25 H       -3.1550    -0.1790    -0.1470 H     1 <1>   0.0800 
 26 H       -4.6060     4.2150     0.0570 H     1 <1>   0.1500 
 27 H       -1.6910     6.5140     0.4230 H     1 <1>   0.0800 
 28 H       -3.3600     6.3200     0.8910 H     1 <1>   0.0800 
 29 H       -2.9390     6.4710    -0.8000 H     1 <1>   0.0800 
 30 H        6.6380     2.0220    -0.5130 H     1 <1>   0.0800 
 31 H        5.6570     3.4350    -0.8860 H     1 <1>   0.0800 
 32 H        5.4160     1.9240    -1.7750 H     1 <1>   0.0800 
@<TRIPOS>BOND
  1   1   2  2   
  2   2   3  am  
  3   2   4  1   
  4   3   5  1   
  5   3  16  1   
  6   4   6  ar  
  7   4   7  ar  
  8   5   8  1   
  9   5  17  1   
 10   5  18  1   
 11   6   9  ar  
 12   6  10  1   
 13   7  11  ar  
 14   7  19  1   
 15   8  12  1   
 16   8  20  1   
 17   8  21  1   
 18   9  13  ar  
 19   9  22  1   
 20  10  23  1   
 21  10  24  1   
 22  10  25  1   
 23  11  13  ar  
 24  11  14  1   
 25  12  15  1   
 26  13  26  1   
 27  14  27  1   
 28  14  28  1   
 29  14  29  1   
 30  15  30  1   
 31  15  31  1   
 32  15  32  1   
@<TRIPOS>SUBSTRUCTURE
  1 ****   2 GROUP 4 **** **** 0

# MOE 2024.06 (io_trps.svl 2023.06)
