@<TRIPOS>MOLECULE
NONAME
42 42 1 0 0 
SMALL
USER_CHARGES


@<TRIPOS>ATOM
  1 N       -0.0050     0.0270    -0.1300 N.4   1 <1>  -0.9590 
  2 C        1.2500     0.7480     0.3000 C.3   1 <1>   0.4230 
  3 C       -1.2690     0.7190     0.3420 C.3   1 <1>   0.3430 
  4 C        0.0310    -1.4120     0.3200 C.3   1 <1>   0.2630 
  5 C        1.2010     2.2320    -0.1200 C.3   1 <1>  -0.1600 
  6 C        2.4870     0.0700    -0.3240 C.3   1 <1>  -0.1600 
  7 C       -2.5980     0.0990    -0.1860 C.3   1 <1>   0.3430 
  8 C        2.5070     2.9720     0.2030 C.3   1 <1>  -0.1600 
  9 C        3.7880     0.8180     0.0020 C.3   1 <1>  -0.1600 
 10 N       -3.8490     0.8200     0.2620 N.4   1 <1>  -0.9590 
 11 C        3.7190     2.2850    -0.4370 C.3   1 <1>  -0.0800 
 12 C       -5.0700     0.0450    -0.1470 C.3   1 <1>   0.2630 
 13 C       -3.9640     2.2190    -0.2780 C.3   1 <1>   0.2630 
 14 C        5.0100     3.0170    -0.0580 C.3   1 <1>  -0.2400 
 15 H        0.0370     0.0400    -1.1620 H     1 <1>   0.4500 
 16 H        1.3450     0.7040     1.3740 H     1 <1>   0.0800 
 17 H       -1.2460     1.7440     0.0170 H     1 <1>   0.0800 
 18 H       -1.2860     0.7110     1.4200 H     1 <1>   0.0800 
 19 H        0.1270    -1.4690     1.3930 H     1 <1>   0.0800 
 20 H        0.8670    -1.9280    -0.1230 H     1 <1>   0.0800 
 21 H       -0.8650    -1.9320     0.0240 H     1 <1>   0.0800 
 22 H        0.4220     2.7540     0.4030 H     1 <1>   0.0800 
 23 H        1.0240     2.3070    -1.1790 H     1 <1>   0.0800 
 24 H        2.3820     0.0280    -1.3940 H     1 <1>   0.0800 
 25 H        2.6080    -0.9300     0.0490 H     1 <1>   0.0800 
 26 H       -2.6540    -0.9220     0.1530 H     1 <1>   0.0800 
 27 H       -2.5710     0.0910    -1.2630 H     1 <1>   0.0800 
 28 H        2.6440     3.0160     1.2710 H     1 <1>   0.0800 
 29 H        2.4430     3.9860    -0.1570 H     1 <1>   0.0800 
 30 H        4.6120     0.3350    -0.4970 H     1 <1>   0.0800 
 31 H        3.9780     0.7680     1.0620 H     1 <1>   0.0800 
 32 H       -3.8780     0.8750     1.2960 H     1 <1>   0.4500 
 33 H        3.6160     2.3230    -1.5100 H     1 <1>   0.0800 
 34 H       -5.1250    -0.0370    -1.2220 H     1 <1>   0.0800 
 35 H       -5.9630     0.5400     0.2020 H     1 <1>   0.0800 
 36 H       -5.0490    -0.9480     0.2730 H     1 <1>   0.0800 
 37 H       -3.9680     2.2090    -1.3570 H     1 <1>   0.0800 
 38 H       -3.1440     2.8310     0.0610 H     1 <1>   0.0800 
 39 H       -4.8830     2.6730     0.0590 H     1 <1>   0.0800 
 40 H        5.1610     3.0070     1.0070 H     1 <1>   0.0800 
 41 H        4.9710     4.0410    -0.3880 H     1 <1>   0.0800 
 42 H        5.8570     2.5480    -0.5270 H     1 <1>   0.0800 
@<TRIPOS>BOND
  1   1   2  1   
  2   1   3  1   
  3   1   4  1   
  4   1  15  1   
  5   2   5  1   
  6   2   6  1   
  7   2  16  1   
  8   3   7  1   
  9   3  17  1   
 10   3  18  1   
 11   4  19  1   
 12   4  20  1   
 13   4  21  1   
 14   5   8  1   
 15   5  22  1   
 16   5  23  1   
 17   6   9  1   
 18   6  24  1   
 19   6  25  1   
 20   7  10  1   
 21   7  26  1   
 22   7  27  1   
 23   8  11  1   
 24   8  28  1   
 25   8  29  1   
 26   9  11  1   
 27   9  30  1   
 28   9  31  1   
 29  10  12  1   
 30  10  13  1   
 31  10  32  1   
 32  11  14  1   
 33  11  33  1   
 34  12  34  1   
 35  12  35  1   
 36  12  36  1   
 37  13  37  1   
 38  13  38  1   
 39  13  39  1   
 40  14  40  1   
 41  14  41  1   
 42  14  42  1   
@<TRIPOS>SUBSTRUCTURE
  1 ****   1 GROUP 4 **** **** 0

# MOE 2024.06 (io_trps.svl 2023.06)
