@<TRIPOS>MOLECULE
NONAME
25 25 1 0 0 
SMALL
USER_CHARGES


@<TRIPOS>ATOM
  1 CL       1.6980    -0.4010    -3.1600 Cl    1 <1>  -0.1770 
  2 C        2.5010    -0.9660    -1.7180 C.ar  1 <1>   0.1770 
  3 C        3.7510    -0.4730    -1.4000 C.ar  1 <1>  -0.1500 
  4 C        1.8710    -1.9010    -0.9170 C.ar  1 <1>  -0.1500 
  5 C        4.3910    -0.9200    -0.2560 C.ar  1 <1>   0.0830 
  6 C        2.5090    -2.3500     0.2280 C.ar  1 <1>  -0.1500 
  7 O        5.6150    -0.3970    -0.0030 O.3   1 <1>  -0.3630 
  8 C        3.7640    -1.8630     0.5590 C.ar  1 <1>  -0.1500 
  9 C        6.3790    -0.8130     1.1180 C.3   1 <1>   0.1810 
 10 C        7.7160    -0.0900     1.1680 C.2   1 <1>   0.6590 
 11 O        7.9920     0.6650     2.0670 O.2   1 <1>  -0.5700 
 12 O        8.5710    -0.3600     0.1880 O.3   1 <1>  -0.4300 
 13 C        9.8370     0.2540     0.1260 C.3   1 <1>   0.1200 
 14 C       10.5570    -0.2710    -1.1120 C.3   1 <1>  -0.2400 
 15 H        4.2240     0.2530    -2.0350 H     1 <1>   0.1500 
 16 H        0.8980    -2.2680    -1.1890 H     1 <1>   0.1500 
 17 H        2.0280    -3.0770     0.8590 H     1 <1>   0.1500 
 18 H        4.2310    -2.2290     1.4530 H     1 <1>   0.1500 
 19 H        6.5500    -1.8700     1.0400 H     1 <1>   0.0800 
 20 H        5.8220    -0.5880     2.0090 H     1 <1>   0.0800 
 21 H       10.3800     0.0090     1.0240 H     1 <1>   0.0800 
 22 H        9.6950     1.3200     0.0690 H     1 <1>   0.0800 
 23 H       10.6820    -1.3360    -1.0440 H     1 <1>   0.0800 
 24 H       11.5270     0.1850    -1.1870 H     1 <1>   0.0800 
 25 H        9.9950    -0.0290    -1.9960 H     1 <1>   0.0800 
@<TRIPOS>BOND
  1   1   2  1   
  2   2   3  ar  
  3   2   4  ar  
  4   3   5  ar  
  5   3  15  1   
  6   4   6  ar  
  7   4  16  1   
  8   5   7  1   
  9   5   8  ar  
 10   6   8  ar  
 11   6  17  1   
 12   7   9  1   
 13   8  18  1   
 14   9  10  1   
 15   9  19  1   
 16   9  20  1   
 17  10  11  2   
 18  10  12  1   
 19  12  13  1   
 20  13  14  1   
 21  13  21  1   
 22  13  22  1   
 23  14  23  1   
 24  14  24  1   
 25  14  25  1   
@<TRIPOS>SUBSTRUCTURE
  1 ****   7 GROUP 4 **** **** 0

# MOE 2024.06 (io_trps.svl 2023.06)
