@<TRIPOS>MOLECULE
NONAME
47 49 1 0 0 
SMALL
USER_CHARGES


@<TRIPOS>ATOM
  1 CL       0.2140     0.1810    -0.3940 Cl    1 <1>  -0.1770 
  2 C        1.7650    -0.6080    -0.2460 C.ar  1 <1>   0.1770 
  3 C        2.8570    -0.0930    -0.9190 C.ar  1 <1>  -0.1500 
  4 C        1.8790    -1.7380     0.5410 C.ar  1 <1>  -0.1500 
  5 C        4.0830    -0.7240    -0.7990 C.ar  1 <1>  -0.1500 
  6 C        3.1100    -2.3610     0.6560 C.ar  1 <1>  -0.1500 
  7 C        4.2280    -1.8630    -0.0090 C.ar  1 <1>   0.1170 
  8 N        5.4490    -2.5400     0.1270 N.am  1 <1>  -0.5470 
  9 C        6.7440    -2.0880     0.0140 C.2   1 <1>   0.5440 
 10 O        6.9720    -0.9010    -0.1040 O.2   1 <1>  -0.5700 
 11 C        7.8410    -3.0360     0.0710 C.ar  1 <1>   0.0860 
 12 C        9.0540    -2.6850     0.6640 C.ar  1 <1>  -0.1500 
 13 C        7.7360    -4.3200    -0.4630 C.ar  1 <1>  -0.1500 
 14 C       10.1300    -3.5590     0.7470 C.ar  1 <1>  -0.0090 
 15 C        8.7910    -5.2090    -0.3950 C.ar  1 <1>  -0.1500 
 16 S       11.6980    -3.0470     1.5030 S.o2  1 <1>   1.4470 
 17 C        9.9770    -4.8280     0.2050 C.ar  1 <1>  -0.1500 
 18 O       12.4350    -4.2110     1.9420 O.2   1 <1>  -0.6500 
 19 O       11.4840    -1.9400     2.4040 O.2   1 <1>  -0.6500 
 20 N       12.5230    -2.3510     0.2230 N.am  1 <1>  -0.9140 
 21 C       13.9520    -2.2860     0.4230 C.3   1 <1>   0.2760 
 22 C       14.4500    -0.9580    -0.1600 C.3   1 <1>  -0.1600 
 23 C       14.6190    -3.4710    -0.2880 C.3   1 <1>  -0.1600 
 24 C       15.9810    -0.8530    -0.0820 C.3   1 <1>  -0.1600 
 25 C       16.1510    -3.3770    -0.2160 C.3   1 <1>  -0.1600 
 26 C       16.6530    -2.0420    -0.7820 C.3   1 <1>  -0.1600 
 27 H        2.7470     0.7870    -1.5260 H     1 <1>   0.1500 
 28 H        1.0140    -2.1180     1.0540 H     1 <1>   0.1500 
 29 H        4.9310    -0.3250    -1.3260 H     1 <1>   0.1500 
 30 H        3.2000    -3.2380     1.2710 H     1 <1>   0.1500 
 31 H        5.3660    -3.5040     0.4410 H     1 <1>   0.3700 
 32 H        9.1530    -1.6930     1.0740 H     1 <1>   0.1500 
 33 H        6.8260    -4.6260    -0.9490 H     1 <1>   0.1500 
 34 H        8.6960    -6.1980    -0.8130 H     1 <1>   0.1500 
 35 H       10.8000    -5.5250     0.2510 H     1 <1>   0.1500 
 36 H       12.1990    -1.3880     0.2530 H     1 <1>   0.4200 
 37 H       14.1930    -2.3090     1.4750 H     1 <1>   0.0800 
 38 H       14.0170    -0.1390     0.3860 H     1 <1>   0.0800 
 39 H       14.1490    -0.8840    -1.1910 H     1 <1>   0.0800 
 40 H       14.3150    -3.4820    -1.3200 H     1 <1>   0.0800 
 41 H       14.3060    -4.3930     0.1660 H     1 <1>   0.0800 
 42 H       16.2870    -0.8280     0.9500 H     1 <1>   0.0800 
 43 H       16.3040     0.0650    -0.5440 H     1 <1>   0.0800 
 44 H       16.5870    -4.1900    -0.7700 H     1 <1>   0.0800 
 45 H       16.4650    -3.4720     0.8090 H     1 <1>   0.0800 
 46 H       17.7200    -1.9770    -0.6590 H     1 <1>   0.0800 
 47 H       16.4400    -2.0010    -1.8370 H     1 <1>   0.0800 
@<TRIPOS>BOND
  1   1   2  1   
  2   2   3  ar  
  3   2   4  ar  
  4   3   5  ar  
  5   3  27  1   
  6   4   6  ar  
  7   4  28  1   
  8   5   7  ar  
  9   5  29  1   
 10   6   7  ar  
 11   6  30  1   
 12   7   8  1   
 13   8   9  am  
 14   8  31  1   
 15   9  10  2   
 16   9  11  1   
 17  11  12  ar  
 18  11  13  ar  
 19  12  14  ar  
 20  12  32  1   
 21  13  15  ar  
 22  13  33  1   
 23  14  16  1   
 24  14  17  ar  
 25  15  17  ar  
 26  15  34  1   
 27  16  18  2   
 28  16  19  2   
 29  16  20  am  
 30  17  35  1   
 31  20  21  1   
 32  20  36  1   
 33  21  22  1   
 34  21  23  1   
 35  21  37  1   
 36  22  24  1   
 37  22  38  1   
 38  22  39  1   
 39  23  25  1   
 40  23  40  1   
 41  23  41  1   
 42  24  26  1   
 43  24  42  1   
 44  24  43  1   
 45  25  26  1   
 46  25  44  1   
 47  25  45  1   
 48  26  46  1   
 49  26  47  1   
@<TRIPOS>SUBSTRUCTURE
  1 ****  12 GROUP 4 **** **** 0

# MOE 2024.06 (io_trps.svl 2023.06)
