@<TRIPOS>MOLECULE
NONAME
50 51 1 0 0 
SMALL
USER_CHARGES


@<TRIPOS>ATOM
  1 O        1.0890     2.2690     2.9760 O.2   1 <1>  -0.5700 
  2 C        0.2860     1.8140     2.1990 C.2   1 <1>   0.5690 
  3 N        0.6840     1.1500     1.0830 N.am  1 <1>  -0.7300 
  4 C       -1.1990     1.9970     2.4690 C.3   1 <1>   0.0440 
  5 C        2.0800     0.8950     0.7190 C.3   1 <1>   0.2200 
  6 C       -2.0640     1.4320     1.3440 C.ar  1 <1>  -0.1440 
  7 C        2.5450     1.9850    -0.2380 C.3   1 <1>  -0.1600 
  8 C        2.1830    -0.4660     0.0420 C.3   1 <1>  -0.1600 
  9 C       -2.4050     2.2240     0.2590 C.ar  1 <1>  -0.1500 
 10 C       -2.4930     0.1150     1.3840 C.ar  1 <1>  -0.1500 
 11 C        3.9880     1.7600    -0.7040 C.3   1 <1>   0.5030 
 12 C        3.6150    -0.7680    -0.4200 C.3   1 <1>   0.5030 
 13 C       -3.1610     1.7020    -0.7760 C.ar  1 <1>  -0.1500 
 14 C       -3.2490    -0.4060     0.3480 C.ar  1 <1>  -0.1500 
 15 N        4.1940     0.3720    -1.1530 N.4   1 <1>  -0.9060 
 16 C        5.0070     2.1210     0.3810 C.3   1 <1>  -0.2400 
 17 C        4.2700     2.6320    -1.9260 C.3   1 <1>  -0.2400 
 18 C        4.5260    -1.1600     0.7460 C.3   1 <1>  -0.2400 
 19 C        3.5950    -1.9260    -1.4160 C.3   1 <1>  -0.2400 
 20 C       -3.5870     0.3850    -0.7370 C.ar  1 <1>  -0.1430 
 21 C       -4.4190    -0.1840    -1.8720 C.3   1 <1>  -0.0970 
 22 H       -0.0530     0.8210     0.4480 H     1 <1>   0.3700 
 23 H       -1.3970     3.0450     2.5910 H     1 <1>   0.0800 
 24 H       -1.4390     1.5110     3.3960 H     1 <1>   0.0800 
 25 H        2.6750     0.9090     1.6180 H     1 <1>   0.0800 
 26 H        2.4750     2.9390     0.2550 H     1 <1>   0.0800 
 27 H        1.8870     2.0110    -1.0890 H     1 <1>   0.0800 
 28 H        1.5180    -0.4900    -0.8040 H     1 <1>   0.0800 
 29 H        1.8610    -1.2300     0.7290 H     1 <1>   0.0800 
 30 H       -2.0850     3.2500     0.2120 H     1 <1>   0.1500 
 31 H       -2.2420    -0.5150     2.2210 H     1 <1>   0.1500 
 32 H       -3.4200     2.3280    -1.6130 H     1 <1>   0.1500 
 33 H       -3.5770    -1.4300     0.3930 H     1 <1>   0.1500 
 34 H        5.2000     0.2150    -1.2360 H     1 <1>   0.4500 
 35 H        3.8180     0.3220    -2.1010 H     1 <1>   0.4500 
 36 H        4.7880     1.6570     1.3220 H     1 <1>   0.0800 
 37 H        4.9830     3.1820     0.5580 H     1 <1>   0.0800 
 38 H        6.0070     1.8640     0.0810 H     1 <1>   0.0800 
 39 H        3.5980     2.4040    -2.7350 H     1 <1>   0.0800 
 40 H        5.2840     2.5130    -2.2650 H     1 <1>   0.0800 
 41 H        4.1320     3.6700    -1.6750 H     1 <1>   0.0800 
 42 H        4.4850    -0.4580     1.5540 H     1 <1>   0.0800 
 43 H        5.5460    -1.2730     0.4250 H     1 <1>   0.0800 
 44 H        4.2070    -2.1050     1.1510 H     1 <1>   0.0800 
 45 H        2.9880    -1.6970    -2.2740 H     1 <1>   0.0800 
 46 H        3.1770    -2.8020    -0.9500 H     1 <1>   0.0800 
 47 H        4.5890    -2.1760    -1.7440 H     1 <1>   0.0800 
 48 H       -5.0460     0.5800    -2.2970 H     1 <1>   0.0800 
 49 H       -5.0500    -0.9780    -1.5160 H     1 <1>   0.0800 
 50 H       -3.7740    -0.5710    -2.6410 H     1 <1>   0.0800 
@<TRIPOS>BOND
  1   1   2  2   
  2   2   3  am  
  3   2   4  1   
  4   3   5  1   
  5   3  22  1   
  6   4   6  1   
  7   4  23  1   
  8   4  24  1   
  9   5   7  1   
 10   5   8  1   
 11   5  25  1   
 12   6   9  ar  
 13   6  10  ar  
 14   7  11  1   
 15   7  26  1   
 16   7  27  1   
 17   8  12  1   
 18   8  28  1   
 19   8  29  1   
 20   9  13  ar  
 21   9  30  1   
 22  10  14  ar  
 23  10  31  1   
 24  11  15  1   
 25  11  16  1   
 26  11  17  1   
 27  12  15  1   
 28  12  18  1   
 29  12  19  1   
 30  13  20  ar  
 31  13  32  1   
 32  14  20  ar  
 33  14  33  1   
 34  15  34  1   
 35  15  35  1   
 36  16  36  1   
 37  16  37  1   
 38  16  38  1   
 39  17  39  1   
 40  17  40  1   
 41  17  41  1   
 42  18  42  1   
 43  18  43  1   
 44  18  44  1   
 45  19  45  1   
 46  19  46  1   
 47  19  47  1   
 48  20  21  1   
 49  21  48  1   
 50  21  49  1   
 51  21  50  1   
@<TRIPOS>SUBSTRUCTURE
  1 ****   3 GROUP 4 **** **** 0

# MOE 2024.06 (io_trps.svl 2023.06)
