@<TRIPOS>MOLECULE
NONAME
48 50 1 0 0 
SMALL
USER_CHARGES


@<TRIPOS>ATOM
  1 CL       1.4130     0.1190     2.2100 Cl    1 <1>  -0.1770 
  2 C        2.1020     1.2430     1.0660 C.ar  1 <1>   0.1770 
  3 C        3.3910     1.7010     1.2580 C.ar  1 <1>  -0.1500 
  4 C        1.3480     1.6570    -0.0150 C.ar  1 <1>  -0.1500 
  5 C        3.9340     2.5930     0.3490 C.ar  1 <1>  -0.1500 
  6 C        1.8970     2.5500    -0.9220 C.ar  1 <1>  -0.1500 
  7 C        3.1900     3.0240    -0.7430 C.ar  1 <1>  -0.1430 
  8 C        3.8030     4.0080    -1.7320 C.3   1 <1>   0.2840 
  9 N        3.8680     5.3580    -1.1300 N.am  1 <1>  -0.4770 
 10 C        2.8010     6.2400    -0.9820 C.ar  1 <1>   0.1170 
 11 C        4.9680     5.8340    -0.4760 C.2   1 <1>   0.5690 
 12 C        3.1830     7.3450    -0.2440 C.ar  1 <1>  -0.1440 
 13 C        1.4990     6.1300    -1.4480 C.ar  1 <1>  -0.1500 
 14 O        6.0010     5.2180    -0.3290 O.2   1 <1>  -0.5700 
 15 C        4.6550     7.2290     0.1230 C.3   1 <1>   0.4840 
 16 C        2.2790     8.3500     0.0530 C.ar  1 <1>  -0.1500 
 17 C        0.5900     7.1350    -1.1590 C.ar  1 <1>  -0.1500 
 18 O        4.7280     7.2540     1.5130 O.3   1 <1>  -0.6800 
 19 C        5.4520     8.4010    -0.4570 C.3   1 <1>  -0.0990 
 20 C        0.9770     8.2390    -0.4100 C.ar  1 <1>  -0.1500 
 21 C        6.9430     8.1430    -0.5830 C.2   1 <1>   0.4480 
 22 O        7.3520     7.8260    -1.6620 O.2   1 <1>  -0.5700 
 23 C        7.9140     8.3370     0.6150 C.3   1 <1>   0.0610 
 24 C        9.2870     8.8190     0.1020 C.3   1 <1>  -0.2400 
 25 C        7.4270     9.3850     1.6350 C.3   1 <1>  -0.2400 
 26 C        8.1390     7.0020     1.3460 C.3   1 <1>  -0.2400 
 27 H        3.9600     1.3640     2.1060 H     1 <1>   0.1500 
 28 H        0.3480     1.2840    -0.1410 H     1 <1>   0.1500 
 29 H        4.9400     2.9520     0.4940 H     1 <1>   0.1500 
 30 H        1.3090     2.8690    -1.7640 H     1 <1>   0.1500 
 31 H        3.2210     4.0500    -2.6350 H     1 <1>   0.0800 
 32 H        4.7960     3.6840    -1.9920 H     1 <1>   0.0800 
 33 H        1.1970     5.2780    -2.0260 H     1 <1>   0.1500 
 34 H        2.5800     9.2040     0.6360 H     1 <1>   0.1500 
 35 H       -0.4230     7.0610    -1.5140 H     1 <1>   0.1500 
 36 H        4.1640     6.5360     1.8620 H     1 <1>   0.4000 
 37 H        5.2510     9.2990     0.0940 H     1 <1>   0.0800 
 38 H        5.0880     8.5700    -1.4540 H     1 <1>   0.0800 
 39 H        0.2610     9.0120    -0.1880 H     1 <1>   0.1500 
 40 H        9.1800     9.7450    -0.4350 H     1 <1>   0.0800 
 41 H        9.7130     8.0930    -0.5680 H     1 <1>   0.0800 
 42 H        9.9750     8.9700     0.9150 H     1 <1>   0.0800 
 43 H        6.5170     9.0700     2.1130 H     1 <1>   0.0800 
 44 H        7.2550    10.3310     1.1510 H     1 <1>   0.0800 
 45 H        8.1630     9.5310     2.4060 H     1 <1>   0.0800 
 46 H        7.2300     6.6470     1.7930 H     1 <1>   0.0800 
 47 H        8.8760     7.1080     2.1220 H     1 <1>   0.0800 
 48 H        8.4810     6.2540     0.6500 H     1 <1>   0.0800 
@<TRIPOS>BOND
  1   1   2  1   
  2   2   3  ar  
  3   2   4  ar  
  4   3   5  ar  
  5   3  27  1   
  6   4   6  ar  
  7   4  28  1   
  8   5   7  ar  
  9   5  29  1   
 10   6   7  ar  
 11   6  30  1   
 12   7   8  1   
 13   8   9  1   
 14   8  31  1   
 15   8  32  1   
 16   9  10  1   
 17   9  11  am  
 18  10  12  ar  
 19  10  13  ar  
 20  11  14  2   
 21  11  15  1   
 22  12  15  1   
 23  12  16  ar  
 24  13  17  ar  
 25  13  33  1   
 26  15  18  1   
 27  15  19  1   
 28  16  20  ar  
 29  16  34  1   
 30  17  20  ar  
 31  17  35  1   
 32  18  36  1   
 33  19  21  1   
 34  19  37  1   
 35  19  38  1   
 36  20  39  1   
 37  21  22  2   
 38  21  23  1   
 39  23  24  1   
 40  23  25  1   
 41  23  26  1   
 42  24  40  1   
 43  24  41  1   
 44  24  42  1   
 45  25  43  1   
 46  25  44  1   
 47  25  45  1   
 48  26  46  1   
 49  26  47  1   
 50  26  48  1   
@<TRIPOS>SUBSTRUCTURE
  1 ****  11 GROUP 4 **** **** 0

# MOE 2024.06 (io_trps.svl 2023.06)
