@<TRIPOS>MOLECULE
NONAME
43 43 1 0 0 
SMALL
USER_CHARGES


@<TRIPOS>ATOM
  1 O        0.2230     1.4650     1.9310 O.2   1 <1>  -0.5700 
  2 C        0.0300     1.9570     0.8470 C.2   1 <1>   0.5690 
  3 N        0.9610     1.9550    -0.1370 N.am  1 <1>  -0.7300 
  4 C       -1.3130     2.5860     0.5600 C.3   1 <1>  -0.0990 
  5 C        2.3020     1.3290    -0.0450 C.3   1 <1>   0.2200 
  6 C       -2.3200     1.5300     0.0940 C.3   1 <1>  -0.0160 
  7 C        3.3790     2.4310    -0.2580 C.3   1 <1>  -0.0800 
  8 C        2.4230     0.1260    -1.0350 C.3   1 <1>  -0.0800 
  9 C       -3.6530     2.1790    -0.2390 C.ar  1 <1>  -0.1440 
 10 C        4.8180     1.9020    -0.1330 C.3   1 <1>  -0.2400 
 11 C        3.2160     3.5930     0.7400 C.3   1 <1>  -0.2400 
 12 C        1.0860    -0.4040    -1.5950 C.3   1 <1>  -0.2400 
 13 C        3.1380    -1.0580    -0.3600 C.3   1 <1>  -0.2400 
 14 C       -4.5780     2.4210     0.7640 C.ar  1 <1>  -0.1500 
 15 C       -3.9540     2.5380    -1.5440 C.ar  1 <1>  -0.1500 
 16 C       -5.7920     3.0160     0.4670 C.ar  1 <1>  -0.1500 
 17 C       -5.1680     3.1330    -1.8430 C.ar  1 <1>  -0.1500 
 18 C       -6.0880     3.3730    -0.8370 C.ar  1 <1>  -0.1500 
 19 H        0.7500     2.3750    -1.0390 H     1 <1>   0.3700 
 20 H       -1.2040     3.3470    -0.1910 H     1 <1>   0.0800 
 21 H       -1.6720     3.0550     1.4580 H     1 <1>   0.0800 
 22 H        2.4170     0.9490     0.9570 H     1 <1>   0.0800 
 23 H       -2.4570     0.7970     0.8700 H     1 <1>   0.0800 
 24 H       -1.9370     1.0180    -0.7720 H     1 <1>   0.0800 
 25 H        3.2630     2.8250    -1.2530 H     1 <1>   0.0800 
 26 H        3.0170     0.4350    -1.8770 H     1 <1>   0.0800 
 27 H        4.9690     1.4440     0.8290 H     1 <1>   0.0800 
 28 H        5.5230     2.7070    -0.2390 H     1 <1>   0.0800 
 29 H        5.0350     1.1820    -0.9000 H     1 <1>   0.0800 
 30 H        3.2640     3.2270     1.7510 H     1 <1>   0.0800 
 31 H        2.2720     4.0900     0.6060 H     1 <1>   0.0800 
 32 H        3.9920     4.3250     0.6010 H     1 <1>   0.0800 
 33 H        0.4320    -0.6980    -0.7930 H     1 <1>   0.0800 
 34 H        1.2570    -1.2580    -2.2260 H     1 <1>   0.0800 
 35 H        0.5950     0.3460    -2.1890 H     1 <1>   0.0800 
 36 H        2.5480    -1.4320     0.4580 H     1 <1>   0.0800 
 37 H        4.0990    -0.7700     0.0240 H     1 <1>   0.0800 
 38 H        3.2890    -1.8570    -1.0650 H     1 <1>   0.0800 
 39 H       -4.3570     2.1480     1.7810 H     1 <1>   0.1500 
 40 H       -3.2480     2.3560    -2.3340 H     1 <1>   0.1500 
 41 H       -6.5060     3.2020     1.2500 H     1 <1>   0.1500 
 42 H       -5.3980     3.4090    -2.8570 H     1 <1>   0.1500 
 43 H       -7.0310     3.8350    -1.0690 H     1 <1>   0.1500 
@<TRIPOS>BOND
  1   1   2  2   
  2   2   3  am  
  3   2   4  1   
  4   3   5  1   
  5   3  19  1   
  6   4   6  1   
  7   4  20  1   
  8   4  21  1   
  9   5   7  1   
 10   5   8  1   
 11   5  22  1   
 12   6   9  1   
 13   6  23  1   
 14   6  24  1   
 15   7  10  1   
 16   7  11  1   
 17   7  25  1   
 18   8  12  1   
 19   8  13  1   
 20   8  26  1   
 21   9  14  ar  
 22   9  15  ar  
 23  10  27  1   
 24  10  28  1   
 25  10  29  1   
 26  11  30  1   
 27  11  31  1   
 28  11  32  1   
 29  12  33  1   
 30  12  34  1   
 31  12  35  1   
 32  13  36  1   
 33  13  37  1   
 34  13  38  1   
 35  14  16  ar  
 36  14  39  1   
 37  15  17  ar  
 38  15  40  1   
 39  16  18  ar  
 40  16  41  1   
 41  17  18  ar  
 42  17  42  1   
 43  18  43  1   
@<TRIPOS>SUBSTRUCTURE
  1 ****   2 GROUP 4 **** **** 0

# MOE 2024.06 (io_trps.svl 2023.06)
