@<TRIPOS>MOLECULE
NONAME
44 46 1 0 0 
SMALL
USER_CHARGES


@<TRIPOS>ATOM
  1 O       -0.5460    -0.0880    -0.4560 O.2   1 <1>  -0.5700 
  2 C       -0.9940    -1.2190    -0.4190 C.2   1 <1>   0.6900 
  3 N       -2.3420    -1.4310    -0.5200 N.am  1 <1>  -0.6600 
  4 N       -0.1800    -2.3070    -0.3020 N.am  1 <1>  -0.5470 
  5 C       -3.0530    -2.5010     0.2550 C.3   1 <1>   0.1400 
  6 C       -3.2530    -0.3370    -0.9920 C.3   1 <1>   0.1400 
  7 C        1.1900    -2.4280    -0.0250 C.ar  1 <1>   0.1170 
  8 C       -3.8750    -1.8950     1.4060 C.3   1 <1>   0.2090 
  9 C       -4.0780     0.2460     0.1670 C.3   1 <1>   0.2090 
 10 C        1.8880    -3.5600    -0.4500 C.ar  1 <1>  -0.1440 
 11 C        1.8750    -1.4530     0.6930 C.ar  1 <1>  -0.1500 
 12 N       -4.8060    -0.8480     0.8840 N.pl3 1 <1>  -0.8380 
 13 C        3.2350    -3.6930    -0.1540 C.ar  1 <1>  -0.1500 
 14 C        1.1970    -4.6610    -1.2460 C.3   1 <1>  -0.0970 
 15 C        3.2190    -1.5920     0.9820 C.ar  1 <1>  -0.1500 
 16 C       -6.1470    -1.0920     0.6680 C.ar  1 <1>   0.7200 
 17 C        3.9080    -2.7160     0.5610 C.ar  1 <1>  -0.1440 
 18 N       -6.5810    -2.3370     0.8690 N.ar  1 <1>  -0.6200 
 19 N       -6.8920    -0.0630     0.2680 N.ar  1 <1>  -0.6200 
 20 C        5.3840    -2.8740     0.8740 C.3   1 <1>  -0.0970 
 21 C       -7.8590    -2.5490     0.6650 C.ar  1 <1>   0.1600 
 22 C       -8.1650    -0.3040     0.0730 C.ar  1 <1>   0.1600 
 23 C       -8.7090    -1.5500     0.2610 C.ar  1 <1>  -0.1500 
 24 H       -0.6310    -3.1590    -0.6090 H     1 <1>   0.3700 
 25 H       -2.3530    -3.2040     0.6670 H     1 <1>   0.0800 
 26 H       -3.7170    -3.0340    -0.4030 H     1 <1>   0.0800 
 27 H       -3.9250    -0.7330    -1.7320 H     1 <1>   0.0800 
 28 H       -2.6850     0.4510    -1.4560 H     1 <1>   0.0800 
 29 H       -3.2060    -1.4430     2.1180 H     1 <1>   0.0800 
 30 H       -4.4110    -2.6720     1.9210 H     1 <1>   0.0800 
 31 H       -4.7570     0.9860    -0.2180 H     1 <1>   0.0800 
 32 H       -3.4170     0.7430     0.8560 H     1 <1>   0.0800 
 33 H        1.3550    -0.5760     1.0310 H     1 <1>   0.1500 
 34 H        3.7750    -4.5630    -0.4840 H     1 <1>   0.1500 
 35 H        0.4440    -5.1350    -0.6430 H     1 <1>   0.0800 
 36 H        1.9030    -5.4110    -1.5570 H     1 <1>   0.0800 
 37 H        0.7410    -4.2470    -2.1270 H     1 <1>   0.0800 
 38 H        3.7240    -0.8200     1.5350 H     1 <1>   0.1500 
 39 H        5.6250    -3.9100     1.0310 H     1 <1>   0.0800 
 40 H        5.6420    -2.3270     1.7630 H     1 <1>   0.0800 
 41 H        5.9700    -2.5000     0.0540 H     1 <1>   0.0800 
 42 H       -8.2370    -3.5440     0.8260 H     1 <1>   0.1500 
 43 H       -8.7900     0.5140    -0.2450 H     1 <1>   0.1500 
 44 H       -9.7540    -1.7350     0.0990 H     1 <1>   0.1500 
@<TRIPOS>BOND
  1   1   2  2   
  2   2   3  am  
  3   2   4  am  
  4   3   5  1   
  5   3   6  1   
  6   4   7  1   
  7   4  24  1   
  8   5   8  1   
  9   5  25  1   
 10   5  26  1   
 11   6   9  1   
 12   6  27  1   
 13   6  28  1   
 14   7  10  ar  
 15   7  11  ar  
 16   8  12  1   
 17   8  29  1   
 18   8  30  1   
 19   9  12  1   
 20   9  31  1   
 21   9  32  1   
 22  10  13  ar  
 23  10  14  1   
 24  11  15  ar  
 25  11  33  1   
 26  12  16  1   
 27  13  17  ar  
 28  13  34  1   
 29  14  35  1   
 30  14  36  1   
 31  14  37  1   
 32  15  17  ar  
 33  15  38  1   
 34  16  18  ar  
 35  16  19  ar  
 36  17  20  1   
 37  18  21  ar  
 38  19  22  ar  
 39  20  39  1   
 40  20  40  1   
 41  20  41  1   
 42  21  23  ar  
 43  21  42  1   
 44  22  23  ar  
 45  22  43  1   
 46  23  44  1   
@<TRIPOS>SUBSTRUCTURE
  1 ****   3 GROUP 4 **** **** 0

# MOE 2024.06 (io_trps.svl 2023.06)
