@<TRIPOS>MOLECULE
NONAME
39 43 1 0 0 
SMALL
USER_CHARGES


@<TRIPOS>ATOM
  1 CL      -0.2420    -0.1460     1.0590 Cl    1 <1>  -0.1770 
  2 C        0.2670     1.4370     0.5190 C.ar  1 <1>   0.1770 
  3 C       -0.6560     2.3930     0.0730 C.ar  1 <1>   0.0860 
  4 C        1.6270     1.6810     0.5540 C.ar  1 <1>  -0.1500 
  5 C       -2.0930     2.1880     0.0210 C.2   1 <1>   0.5440 
  6 C       -0.1280     3.6200    -0.3490 C.ar  1 <1>  -0.1500 
  7 C        2.0980     2.9070     0.1320 C.ar  1 <1>   0.1770 
  8 O       -2.7560     2.7650    -0.8260 O.2   1 <1>  -0.5700 
  9 N       -2.7550     1.3940     0.9130 N.am  1 <1>  -0.4300 
 10 C        1.2300     3.8810    -0.3210 C.ar  1 <1>  -0.1500 
 11 CL       3.8090     3.2290     0.1710 Cl    1 <1>  -0.1770 
 12 N       -4.2050     1.2380     0.9310 N.am  1 <1>  -0.1200 
 13 C       -4.8950     0.4520     0.0280 C.2   1 <1>   0.5690 
 14 C       -5.0690     2.1160     1.5590 C.2   1 <1>   0.5690 
 15 O       -4.5150    -0.5480    -0.5320 O.2   1 <1>  -0.5700 
 16 C       -6.2330     1.1030    -0.1750 C.3   1 <1>  -0.0190 
 17 O       -4.7990     3.0470     2.2790 O.2   1 <1>  -0.5700 
 18 C       -6.4630     1.6500     1.2450 C.3   1 <1>  -0.0190 
 19 C       -7.5910     0.6470    -0.7830 C.3   1 <1>   0.1530 
 20 C       -7.8770     2.2860     1.3150 C.3   1 <1>   0.1530 
 21 C       -8.5400     0.1620     0.3230 C.2   1 <1>  -0.2880 
 22 C       -8.1940     2.0200    -1.2260 C.3   1 <1>  -0.1950 
 23 C       -8.7220     1.0030     1.3540 C.2   1 <1>  -0.2880 
 24 C       -8.2340     2.9730    -0.0400 C.3   1 <1>  -0.1950 
 25 C       -9.4800     2.6990    -0.8300 C.3   1 <1>  -0.2000 
 26 H        2.3120     0.9290     0.9020 H     1 <1>   0.1500 
 27 H       -0.8020     4.3830    -0.7070 H     1 <1>   0.1500 
 28 H       -2.2280     0.8050     1.5630 H     1 <1>   0.3700 
 29 H        1.6180     4.8300    -0.6490 H     1 <1>   0.1500 
 30 H       -5.9220     1.9260    -0.8010 H     1 <1>   0.0800 
 31 H       -6.5220     0.8100     1.9210 H     1 <1>   0.0800 
 32 H       -7.4890    -0.0410    -1.6050 H     1 <1>   0.0800 
 33 H       -8.0300     2.9070     2.1810 H     1 <1>   0.0800 
 34 H       -9.0110    -0.7940     0.1720 H     1 <1>   0.1500 
 35 H       -7.7570     2.3730    -2.1460 H     1 <1>   0.1000 
 36 H       -9.3730     0.8680     2.2010 H     1 <1>   0.1500 
 37 H       -7.7530     3.9290    -0.1620 H     1 <1>   0.1000 
 38 H      -10.2810     2.1120    -0.4150 H     1 <1>   0.1000 
 39 H       -9.8580     3.4810    -1.4650 H     1 <1>   0.1000 
@<TRIPOS>BOND
  1   1   2  1   
  2   2   3  ar  
  3   2   4  ar  
  4   3   5  1   
  5   3   6  ar  
  6   4   7  ar  
  7   4  26  1   
  8   5   8  2   
  9   5   9  am  
 10   6  10  ar  
 11   6  27  1   
 12   7  10  ar  
 13   7  11  1   
 14   9  12  1   
 15   9  28  1   
 16  10  29  1   
 17  12  13  am  
 18  12  14  am  
 19  13  15  2   
 20  13  16  1   
 21  14  17  2   
 22  14  18  1   
 23  16  18  1   
 24  16  19  1   
 25  16  30  1   
 26  18  20  1   
 27  18  31  1   
 28  19  21  1   
 29  19  22  1   
 30  19  32  1   
 31  20  23  1   
 32  20  24  1   
 33  20  33  1   
 34  21  23  2   
 35  21  34  1   
 36  22  24  1   
 37  22  25  1   
 38  22  35  1   
 39  23  36  1   
 40  24  25  1   
 41  24  37  1   
 42  25  38  1   
 43  25  39  1   
@<TRIPOS>SUBSTRUCTURE
  1 ****  12 GROUP 4 **** **** 0

# MOE 2024.06 (io_trps.svl 2023.06)
