@<TRIPOS>MOLECULE
NONAME
38 38 1 0 0 
SMALL
USER_CHARGES


@<TRIPOS>ATOM
  1 CL       1.1050    -3.0490     2.2770 Cl    1 <1>  -0.1770 
  2 C        2.4310    -2.3350     1.3930 C.ar  1 <1>   0.1770 
  3 C        3.0630    -3.0710     0.4080 C.ar  1 <1>  -0.1500 
  4 C        2.8290    -1.0460     1.6930 C.ar  1 <1>  -0.1500 
  5 C        4.1150    -2.5080    -0.2940 C.ar  1 <1>  -0.1500 
  6 C        3.8810    -0.4860     0.9890 C.ar  1 <1>  -0.1500 
  7 C        4.5300    -1.2080    -0.0030 C.ar  1 <1>   0.0830 
  8 O        5.5530    -0.5760    -0.6300 O.3   1 <1>  -0.3630 
  9 C        6.2600    -1.1610    -1.7190 C.3   1 <1>   0.2610 
 10 C        7.1820    -2.3250    -1.2950 C.2   1 <1>   0.5690 
 11 C        7.0260    -0.0560    -2.4730 C.3   1 <1>  -0.1600 
 12 O        7.0850    -3.3320    -1.9640 O.2   1 <1>  -0.5700 
 13 N        8.0920    -2.2570    -0.2560 N.am  1 <1>  -0.6600 
 14 C        6.1190     1.0810    -2.9690 C.3   1 <1>  -0.2400 
 15 C        8.2270    -1.1190     0.6960 C.3   1 <1>   0.1400 
 16 C        9.0430    -3.3800    -0.0260 C.3   1 <1>   0.1400 
 17 C        7.5550    -1.4650     2.0240 C.3   1 <1>  -0.2400 
 18 C       10.3300    -3.1220    -0.8060 C.3   1 <1>  -0.2400 
 19 H        2.7340    -4.0730     0.1960 H     1 <1>   0.1500 
 20 H        2.3210    -0.4940     2.4630 H     1 <1>   0.1500 
 21 H        4.5940    -3.0990    -1.0530 H     1 <1>   0.1500 
 22 H        4.2070     0.5160     1.2060 H     1 <1>   0.1500 
 23 H        5.5200    -1.5530    -2.3930 H     1 <1>   0.0800 
 24 H        7.5090    -0.5060    -3.3220 H     1 <1>   0.0800 
 25 H        7.8000     0.3460    -1.8460 H     1 <1>   0.0800 
 26 H        5.3450     0.6940    -3.6080 H     1 <1>   0.0800 
 27 H        6.6970     1.7970    -3.5260 H     1 <1>   0.0800 
 28 H        5.6590     1.5880    -2.1380 H     1 <1>   0.0800 
 29 H        7.7790    -0.2290     0.2950 H     1 <1>   0.0800 
 30 H        9.2700    -0.9090     0.8590 H     1 <1>   0.0800 
 31 H        8.6040    -4.3080    -0.3520 H     1 <1>   0.0800 
 32 H        9.2620    -3.4750     1.0230 H     1 <1>   0.0800 
 33 H        6.5260    -1.7330     1.8650 H     1 <1>   0.0800 
 34 H        7.5850    -0.6110     2.6750 H     1 <1>   0.0800 
 35 H        8.0590    -2.2780     2.5110 H     1 <1>   0.0800 
 36 H       10.1140    -3.0540    -1.8570 H     1 <1>   0.0800 
 37 H       11.0140    -3.9370    -0.6520 H     1 <1>   0.0800 
 38 H       10.8000    -2.2140    -0.4760 H     1 <1>   0.0800 
@<TRIPOS>BOND
  1   1   2  1   
  2   2   3  ar  
  3   2   4  ar  
  4   3   5  ar  
  5   3  19  1   
  6   4   6  ar  
  7   4  20  1   
  8   5   7  ar  
  9   5  21  1   
 10   6   7  ar  
 11   6  22  1   
 12   7   8  1   
 13   8   9  1   
 14   9  10  1   
 15   9  11  1   
 16   9  23  1   
 17  10  12  2   
 18  10  13  am  
 19  11  14  1   
 20  11  24  1   
 21  11  25  1   
 22  13  15  1   
 23  13  16  1   
 24  14  26  1   
 25  14  27  1   
 26  14  28  1   
 27  15  17  1   
 28  15  29  1   
 29  15  30  1   
 30  16  18  1   
 31  16  31  1   
 32  16  32  1   
 33  17  33  1   
 34  17  34  1   
 35  17  35  1   
 36  18  36  1   
 37  18  37  1   
 38  18  38  1   
@<TRIPOS>SUBSTRUCTURE
  1 ****   8 GROUP 4 **** **** 0

# MOE 2024.06 (io_trps.svl 2023.06)
