@<TRIPOS>MOLECULE
NONAME
48 50 1 0 0 
SMALL
USER_CHARGES


@<TRIPOS>ATOM
  1 O       -0.5030     0.5900    -0.0370 O.2   1 <1>  -0.5700 
  2 C       -1.4640     1.3280     0.0770 C.2   1 <1>   0.6900 
  3 N       -2.6710     0.8510     0.5010 N.am  1 <1>  -0.6600 
  4 N       -1.3450     2.6430    -0.2300 N.am  1 <1>  -0.7300 
  5 C       -2.9590    -0.6100     0.4110 C.3   1 <1>   0.2200 
  6 C       -3.5790     1.7150     1.3190 C.3   1 <1>   0.3200 
  7 C       -0.1000     3.2660    -0.7070 C.3   1 <1>   0.1400 
  8 C       -4.3970    -0.8840    -0.0560 C.3   1 <1>  -0.1600 
  9 C       -2.6620    -1.3130     1.7430 C.3   1 <1>  -0.1600 
 10 C       -4.6760     2.3690     0.4870 C.2   1 <1>   0.2980 
 11 C       -0.1890     4.7690    -0.4730 C.3   1 <1>  -0.2400 
 12 C       -4.6520    -2.3940    -0.1740 C.3   1 <1>  -0.1600 
 13 C       -2.9250    -2.8230     1.6350 C.3   1 <1>  -0.1600 
 14 O       -4.3300     3.1680    -0.4870 O.3   1 <1>  -0.0190 
 15 N       -5.9270     2.2250     0.6520 N.2   1 <1>  -0.5650 
 16 C       -4.3540    -3.1080     1.1520 C.3   1 <1>  -0.1600 
 17 N       -5.4550     3.5610    -0.9900 N.2   1 <1>  -0.4100 
 18 C       -6.4050     3.0030    -0.3250 C.2   1 <1>   0.4620 
 19 C       -7.8280     3.1720    -0.5710 C.ar  1 <1>   0.0540 
 20 C       -8.2920     3.9980    -1.5970 C.ar  1 <1>  -0.1500 
 21 C       -8.7910     2.5190     0.2020 C.ar  1 <1>  -0.1500 
 22 C       -9.6430     4.1650    -1.8400 C.ar  1 <1>  -0.1500 
 23 C      -10.1440     2.6810    -0.0340 C.ar  1 <1>  -0.1500 
 24 C      -10.5730     3.5050    -1.0580 C.ar  1 <1>  -0.1500 
 25 H       -2.1990     3.1210    -0.5120 H     1 <1>   0.3700 
 26 H       -2.3020    -1.0350    -0.3320 H     1 <1>   0.0800 
 27 H       -3.0040     2.4870     1.7980 H     1 <1>   0.0800 
 28 H       -4.0370     1.1310     2.0950 H     1 <1>   0.0800 
 29 H        0.0250     3.0550    -1.7560 H     1 <1>   0.0800 
 30 H        0.7400     2.8530    -0.1720 H     1 <1>   0.0800 
 31 H       -4.5580    -0.4190    -1.0130 H     1 <1>   0.0800 
 32 H       -5.1030    -0.4810     0.6460 H     1 <1>   0.0800 
 33 H       -3.2800    -0.9120     2.5250 H     1 <1>   0.0800 
 34 H       -1.6300    -1.1520     2.0040 H     1 <1>   0.0800 
 35 H       -1.0130     5.1880    -1.0230 H     1 <1>   0.0800 
 36 H        0.7180     5.2390    -0.8080 H     1 <1>   0.0800 
 37 H       -0.3120     4.9750     0.5750 H     1 <1>   0.0800 
 38 H       -4.0260    -2.8030    -0.9490 H     1 <1>   0.0800 
 39 H       -5.6770    -2.5650    -0.4540 H     1 <1>   0.0800 
 40 H       -2.7670    -3.2860     2.5940 H     1 <1>   0.0800 
 41 H       -2.2220    -3.2550     0.9420 H     1 <1>   0.0800 
 42 H       -4.4850    -4.1690     1.0260 H     1 <1>   0.0800 
 43 H       -5.0550    -2.7780     1.9000 H     1 <1>   0.0800 
 44 H       -7.5820     4.5190    -2.2170 H     1 <1>   0.1500 
 45 H       -8.4760     1.8730     1.0030 H     1 <1>   0.1500 
 46 H       -9.9720     4.8080    -2.6380 H     1 <1>   0.1500 
 47 H      -10.8630     2.1650     0.5780 H     1 <1>   0.1500 
 48 H      -11.6260     3.6330    -1.2440 H     1 <1>   0.1500 
@<TRIPOS>BOND
  1   1   2  2   
  2   2   3  am  
  3   2   4  am  
  4   3   5  1   
  5   3   6  1   
  6   4   7  1   
  7   4  25  1   
  8   5   8  1   
  9   5   9  1   
 10   5  26  1   
 11   6  10  1   
 12   6  27  1   
 13   6  28  1   
 14   7  11  1   
 15   7  29  1   
 16   7  30  1   
 17   8  12  1   
 18   8  31  1   
 19   8  32  1   
 20   9  13  1   
 21   9  33  1   
 22   9  34  1   
 23  10  14  1   
 24  10  15  2   
 25  11  35  1   
 26  11  36  1   
 27  11  37  1   
 28  12  16  1   
 29  12  38  1   
 30  12  39  1   
 31  13  16  1   
 32  13  40  1   
 33  13  41  1   
 34  14  17  1   
 35  15  18  1   
 36  16  42  1   
 37  16  43  1   
 38  17  18  2   
 39  18  19  1   
 40  19  20  ar  
 41  19  21  ar  
 42  20  22  ar  
 43  20  44  1   
 44  21  23  ar  
 45  21  45  1   
 46  22  24  ar  
 47  22  46  1   
 48  23  24  ar  
 49  23  47  1   
 50  24  48  1   
@<TRIPOS>SUBSTRUCTURE
  1 ****  10 GROUP 4 **** **** 0

# MOE 2024.06 (io_trps.svl 2023.06)
