@<TRIPOS>MOLECULE
NONAME
35 35 1 0 0 
SMALL
USER_CHARGES


@<TRIPOS>ATOM
  1 O       -0.0700    -0.4690     0.8200 O.2   1 <1>  -0.5700 
  2 C       -0.6480     0.5730     0.6450 C.2   1 <1>   0.5690 
  3 N       -0.0220     1.7400     0.3210 N.am  1 <1>  -0.5470 
  4 C       -2.1570     0.6040     0.7870 C.3   1 <1>  -0.0990 
  5 C        1.3010     2.0610     0.1180 C.ar  1 <1>   0.4270 
  6 C       -2.8610     0.6400    -0.5820 C.3   1 <1>  -0.1600 
  7 N        1.4900     3.3190    -0.2030 N.ar  1 <1>  -0.6200 
  8 C        2.3540     1.1810     0.2320 C.ar  1 <1>  -0.1500 
  9 C       -4.3910     0.6180    -0.4750 C.3   1 <1>  -0.0220 
 10 C        2.7520     3.6740    -0.4080 C.ar  1 <1>   0.7030 
 11 C        3.6180     1.6680    -0.0050 C.ar  1 <1>   0.3920 
 12 C       -4.9280     1.8660     0.2070 C.2   1 <1>  -0.2880 
 13 O        2.9980     4.9550    -0.7400 O.3   1 <1>  -0.3630 
 14 N        3.8310     2.9210    -0.3270 N.ar  1 <1>  -0.6200 
 15 O        4.7260     0.9060     0.0750 O.3   1 <1>  -0.3630 
 16 C       -5.6170     2.8310    -0.4090 C.2   1 <1>  -0.3000 
 17 C        1.9670     5.9120    -0.8750 C.3   1 <1>   0.0400 
 18 C        4.6890    -0.4660     0.4050 C.3   1 <1>   0.0400 
 19 H       -0.6260     2.5470     0.1830 H     1 <1>   0.3700 
 20 H       -2.4270     1.4620     1.3740 H     1 <1>   0.0800 
 21 H       -2.4660    -0.2740     1.3260 H     1 <1>   0.0800 
 22 H       -2.5450    -0.2150    -1.1550 H     1 <1>   0.0800 
 23 H       -2.5630     1.5220    -1.1220 H     1 <1>   0.0800 
 24 H        2.1890     0.1600     0.4950 H     1 <1>   0.1500 
 25 H       -4.7150    -0.2550     0.0660 H     1 <1>   0.0800 
 26 H       -4.8040     0.5540    -1.4670 H     1 <1>   0.0800 
 27 H       -4.7070     1.9040     1.2610 H     1 <1>   0.1500 
 28 H       -5.9960     3.7080     0.0870 H     1 <1>   0.1500 
 29 H       -5.8620     2.8280    -1.4570 H     1 <1>   0.1500 
 30 H        2.4140     6.8520    -1.1440 H     1 <1>   0.0800 
 31 H        1.4520     6.0050     0.0650 H     1 <1>   0.0800 
 32 H        1.2910     5.5900    -1.6480 H     1 <1>   0.0800 
 33 H        5.6990    -0.8370     0.3990 H     1 <1>   0.0800 
 34 H        4.1040    -0.9890    -0.3310 H     1 <1>   0.0800 
 35 H        4.2660    -0.5790     1.3870 H     1 <1>   0.0800 
@<TRIPOS>BOND
  1   1   2  2   
  2   2   3  am  
  3   2   4  1   
  4   3   5  1   
  5   3  19  1   
  6   4   6  1   
  7   4  20  1   
  8   4  21  1   
  9   5   7  ar  
 10   5   8  ar  
 11   6   9  1   
 12   6  22  1   
 13   6  23  1   
 14   7  10  ar  
 15   8  11  ar  
 16   8  24  1   
 17   9  12  1   
 18   9  25  1   
 19   9  26  1   
 20  10  13  1   
 21  10  14  ar  
 22  11  14  ar  
 23  11  15  1   
 24  12  16  2   
 25  12  27  1   
 26  13  17  1   
 27  15  18  1   
 28  16  28  1   
 29  16  29  1   
 30  17  30  1   
 31  17  31  1   
 32  17  32  1   
 33  18  33  1   
 34  18  34  1   
 35  18  35  1   
@<TRIPOS>SUBSTRUCTURE
  1 ****   3 GROUP 4 **** **** 0

# MOE 2024.06 (io_trps.svl 2023.06)
