@<TRIPOS>MOLECULE
NONAME
43 43 1 0 0 
SMALL
USER_CHARGES


@<TRIPOS>ATOM
  1 O        1.1060    -0.4120    -0.3530 O.3   1 <1>  -0.3630 
  2 C       -0.1090    -1.0170    -0.2800 C.ar  1 <1>   0.0830 
  3 C        1.4350     0.6870     0.4620 C.3   1 <1>   0.1200 
  4 C       -0.3200    -2.1370    -1.0800 C.ar  1 <1>  -0.1440 
  5 C       -1.1290    -0.5650     0.5560 C.ar  1 <1>  -0.1500 
  6 C        2.9000     1.0340     0.1990 C.3   1 <1>  -0.1600 
  7 C       -1.5390    -2.7920    -1.0260 C.ar  1 <1>  -0.1500 
  8 C        0.7660    -2.6510    -2.0140 C.3   1 <1>  -0.0970 
  9 C       -2.3450    -1.2240     0.6030 C.ar  1 <1>  -0.1430 
 10 C        3.7640    -0.2200     0.3170 C.3   1 <1>   0.3430 
 11 C       -2.5440    -2.3410    -0.1900 C.ar  1 <1>  -0.1500 
 12 C       -3.4540    -0.7320     1.5170 C.3   1 <1>  -0.0970 
 13 N        5.1690     0.1160    -0.0310 N.4   1 <1>  -0.9060 
 14 C        6.1300    -0.9890    -0.0030 C.3   1 <1>   0.5030 
 15 C        5.7190    -2.0590    -1.0130 C.3   1 <1>  -0.2400 
 16 C        6.2120    -1.5680     1.4090 C.3   1 <1>  -0.2400 
 17 C        7.4770    -0.3930    -0.3980 C.3   1 <1>  -0.2400 
 18 H        1.2850     0.4030     1.4900 H     1 <1>   0.0800 
 19 H        0.7870     1.5100     0.2070 H     1 <1>   0.0800 
 20 H       -0.9970     0.2980     1.1780 H     1 <1>   0.1500 
 21 H        3.2130     1.7770     0.9100 H     1 <1>   0.0800 
 22 H        2.9730     1.4470    -0.7920 H     1 <1>   0.0800 
 23 H       -1.7180    -3.6600    -1.6360 H     1 <1>   0.1500 
 24 H        1.0720    -1.8660    -2.6830 H     1 <1>   0.0800 
 25 H        0.4100    -3.4770    -2.6020 H     1 <1>   0.0800 
 26 H        1.6140    -2.9770    -1.4420 H     1 <1>   0.0800 
 27 H        3.3870    -0.9730    -0.3570 H     1 <1>   0.0800 
 28 H        3.7060    -0.6060     1.3220 H     1 <1>   0.0800 
 29 H       -3.4840    -2.8640    -0.1610 H     1 <1>   0.1500 
 30 H       -3.3780     0.3290     1.6670 H     1 <1>   0.0800 
 31 H       -3.3860    -1.2260     2.4690 H     1 <1>   0.0800 
 32 H       -4.4160    -0.9440     1.0850 H     1 <1>   0.0800 
 33 H        5.5130     0.8430     0.6020 H     1 <1>   0.4500 
 34 H        5.1870     0.5100    -0.9760 H     1 <1>   0.4500 
 35 H        5.6070    -1.6420    -1.9980 H     1 <1>   0.0800 
 36 H        4.8030    -2.5450    -0.7270 H     1 <1>   0.0800 
 37 H        6.4780    -2.8200    -1.0640 H     1 <1>   0.0800 
 38 H        5.2950    -2.0500     1.6940 H     1 <1>   0.0800 
 39 H        6.4530    -0.8050     2.1280 H     1 <1>   0.0800 
 40 H        6.9880    -2.3130     1.4500 H     1 <1>   0.0800 
 41 H        7.4420     0.0240    -1.3890 H     1 <1>   0.0800 
 42 H        8.2310    -1.1610    -0.3960 H     1 <1>   0.0800 
 43 H        7.7860     0.3670     0.2970 H     1 <1>   0.0800 
@<TRIPOS>BOND
  1   1   2  1   
  2   1   3  1   
  3   2   4  ar  
  4   2   5  ar  
  5   3   6  1   
  6   3  18  1   
  7   3  19  1   
  8   4   7  ar  
  9   4   8  1   
 10   5   9  ar  
 11   5  20  1   
 12   6  10  1   
 13   6  21  1   
 14   6  22  1   
 15   7  11  ar  
 16   7  23  1   
 17   8  24  1   
 18   8  25  1   
 19   8  26  1   
 20   9  11  ar  
 21   9  12  1   
 22  10  13  1   
 23  10  27  1   
 24  10  28  1   
 25  11  29  1   
 26  12  30  1   
 27  12  31  1   
 28  12  32  1   
 29  13  14  1   
 30  13  33  1   
 31  13  34  1   
 32  14  15  1   
 33  14  16  1   
 34  14  17  1   
 35  15  35  1   
 36  15  36  1   
 37  15  37  1   
 38  16  38  1   
 39  16  39  1   
 40  16  40  1   
 41  17  41  1   
 42  17  42  1   
 43  17  43  1   
@<TRIPOS>SUBSTRUCTURE
  1 ****   1 GROUP 4 **** **** 0

# MOE 2024.06 (io_trps.svl 2023.06)
