@<TRIPOS>MOLECULE
NONAME
40 40 1 0 0 
SMALL
USER_CHARGES


@<TRIPOS>ATOM
  1 CL      -0.7660    -0.0630     0.0570 Cl    1 <1>  -0.1770 
  2 C       -0.4640     1.6620     0.0130 C.ar  1 <1>   0.1770 
  3 C       -1.5280     2.5570    -0.0080 C.ar  1 <1>   0.0830 
  4 C        0.8460     2.1000     0.0020 C.ar  1 <1>  -0.1500 
  5 O       -2.7910     2.0510     0.0060 O.3   1 <1>  -0.3630 
  6 C       -1.2490     3.9220    -0.0430 C.ar  1 <1>  -0.1500 
  7 C        1.1090     3.4580    -0.0330 C.ar  1 <1>  -0.1500 
  8 C       -3.9270     2.8740    -0.0110 C.3   1 <1>   0.1200 
  9 C        0.0640     4.3710    -0.0560 C.ar  1 <1>  -0.1440 
 10 C       -5.1400     1.9440     0.0160 C.3   1 <1>  -0.1600 
 11 C        0.3630     5.8600    -0.0920 C.3   1 <1>  -0.0970 
 12 C       -6.4440     2.7320     0.0010 C.3   1 <1>   0.3430 
 13 N       -7.5760     1.7750     0.0290 N.4   1 <1>  -0.9060 
 14 C       -8.8980     2.4440     0.0160 C.3   1 <1>   0.3430 
 15 C       -9.9910     1.3800     0.0470 C.3   1 <1>  -0.1600 
 16 C      -11.3820     2.0270     0.0350 C.3   1 <1>  -0.1600 
 17 C      -12.4800     0.9610     0.0660 C.3   1 <1>  -0.2400 
 18 H        1.6480     1.3840     0.0200 H     1 <1>   0.1500 
 19 H       -2.0370     4.6490    -0.0580 H     1 <1>   0.1500 
 20 H        2.1290     3.8010    -0.0400 H     1 <1>   0.1500 
 21 H       -3.9020     3.4640    -0.9110 H     1 <1>   0.0800 
 22 H       -3.8970     3.5080     0.8600 H     1 <1>   0.0800 
 23 H       -5.0860     1.3460     0.9090 H     1 <1>   0.0800 
 24 H       -5.0920     1.3020    -0.8470 H     1 <1>   0.0800 
 25 H       -0.4140     6.3900    -0.6120 H     1 <1>   0.0800 
 26 H        1.2940     6.0450    -0.5990 H     1 <1>   0.0800 
 27 H        0.4340     6.2410     0.9100 H     1 <1>   0.0800 
 28 H       -6.4930     3.3370    -0.8910 H     1 <1>   0.0800 
 29 H       -6.4870     3.3810     0.8610 H     1 <1>   0.0800 
 30 H       -7.5040     1.1830     0.8670 H     1 <1>   0.4500 
 31 H       -7.5090     1.1410    -0.7790 H     1 <1>   0.4500 
 32 H       -9.0030     3.0440    -0.8750 H     1 <1>   0.0800 
 33 H       -8.9970     3.0890     0.8750 H     1 <1>   0.0800 
 34 H       -9.8950     0.7840     0.9380 H     1 <1>   0.0800 
 35 H       -9.9000     0.7380    -0.8130 H     1 <1>   0.0800 
 36 H      -11.5050     2.6260    -0.8530 H     1 <1>   0.0800 
 37 H      -11.4990     2.6710     0.8910 H     1 <1>   0.0800 
 38 H      -12.4120     0.3160    -0.7930 H     1 <1>   0.0800 
 39 H      -13.4490     1.4310     0.0570 H     1 <1>   0.0800 
 40 H      -12.4070     0.3610     0.9570 H     1 <1>   0.0800 
@<TRIPOS>BOND
  1   1   2  1   
  2   2   3  ar  
  3   2   4  ar  
  4   3   5  1   
  5   3   6  ar  
  6   4   7  ar  
  7   4  18  1   
  8   5   8  1   
  9   6   9  ar  
 10   6  19  1   
 11   7   9  ar  
 12   7  20  1   
 13   8  10  1   
 14   8  21  1   
 15   8  22  1   
 16   9  11  1   
 17  10  12  1   
 18  10  23  1   
 19  10  24  1   
 20  11  25  1   
 21  11  26  1   
 22  11  27  1   
 23  12  13  1   
 24  12  28  1   
 25  12  29  1   
 26  13  14  1   
 27  13  30  1   
 28  13  31  1   
 29  14  15  1   
 30  14  32  1   
 31  14  33  1   
 32  15  16  1   
 33  15  34  1   
 34  15  35  1   
 35  16  17  1   
 36  16  36  1   
 37  16  37  1   
 38  17  38  1   
 39  17  39  1   
 40  17  40  1   
@<TRIPOS>SUBSTRUCTURE
  1 ****   8 GROUP 4 **** **** 0

# MOE 2024.06 (io_trps.svl 2023.06)
