@<TRIPOS>MOLECULE
NONAME
39 40 1 0 0 
SMALL
USER_CHARGES


@<TRIPOS>ATOM
  1 O        3.8740    -1.1060     0.8400 O.3   1 <1>  -0.5600 
  2 C        3.5960    -1.5040    -0.4760 C.3   1 <1>   0.5600 
  3 C        4.5610     0.1050     0.9690 C.3   1 <1>   0.1200 
  4 O        4.5940    -1.0660    -1.3470 O.3   1 <1>  -0.5600 
  5 C        3.5070    -3.0360    -0.5000 C.3   1 <1>  -0.1600 
  6 C        2.2600    -0.8920    -0.9180 C.3   1 <1>  -0.1600 
  7 C        5.9620    -0.0350     0.3360 C.3   1 <1>   0.0000 
  8 C        5.8900    -1.0510    -0.8260 C.3   1 <1>   0.1200 
  9 C        2.3440    -3.5570     0.3680 C.3   1 <1>  -0.1600 
 10 C        1.0850    -1.3820    -0.0500 C.3   1 <1>  -0.1600 
 11 C        6.4220     1.3350    -0.1860 C.3   1 <1>  -0.2400 
 12 C        6.9690    -0.5330     1.3870 C.3   1 <1>  -0.2400 
 13 C        1.0060    -2.9170    -0.0220 C.3   1 <1>   0.4230 
 14 N       -0.0030    -3.3480     0.9660 N.4   1 <1>  -0.9060 
 15 C       -1.4120    -3.0450     0.5740 C.3   1 <1>   0.2630 
 16 H        4.6270     0.3480     2.0150 H     1 <1>   0.0800 
 17 H        3.9900     0.8710     0.4730 H     1 <1>   0.0800 
 18 H        4.4310    -3.4540    -0.1450 H     1 <1>   0.0800 
 19 H        3.3680    -3.3540    -1.5180 H     1 <1>   0.0800 
 20 H        2.0860    -1.1700    -1.9430 H     1 <1>   0.0800 
 21 H        2.3250     0.1800    -0.8810 H     1 <1>   0.0800 
 22 H        6.5680    -0.7860    -1.6180 H     1 <1>   0.0800 
 23 H        6.1310    -2.0430    -0.4890 H     1 <1>   0.0800 
 24 H        2.5710    -3.3330     1.3970 H     1 <1>   0.0800 
 25 H        2.2870    -4.6260     0.2570 H     1 <1>   0.0800 
 26 H        0.1770    -0.9670    -0.4490 H     1 <1>   0.0800 
 27 H        1.2240    -1.0040     0.9490 H     1 <1>   0.0800 
 28 H        5.7530     1.6860    -0.9530 H     1 <1>   0.0800 
 29 H        7.4100     1.2690    -0.6060 H     1 <1>   0.0800 
 30 H        6.4390     2.0590     0.6100 H     1 <1>   0.0800 
 31 H        6.6470    -1.4750     1.7970 H     1 <1>   0.0800 
 32 H        7.0550     0.1730     2.1930 H     1 <1>   0.0800 
 33 H        7.9410    -0.6670     0.9460 H     1 <1>   0.0800 
 34 H        0.7320    -3.2710    -1.0050 H     1 <1>   0.0800 
 35 H        0.2240    -2.8960     1.8620 H     1 <1>   0.4500 
 36 H        0.1060    -4.3580     1.1160 H     1 <1>   0.4500 
 37 H       -1.5550    -1.9810     0.4720 H     1 <1>   0.0800 
 38 H       -2.0950    -3.4110     1.3240 H     1 <1>   0.0800 
 39 H       -1.6500    -3.5170    -0.3660 H     1 <1>   0.0800 
@<TRIPOS>BOND
  1   1   2  1   
  2   1   3  1   
  3   2   4  1   
  4   2   5  1   
  5   2   6  1   
  6   3   7  1   
  7   3  16  1   
  8   3  17  1   
  9   4   8  1   
 10   5   9  1   
 11   5  18  1   
 12   5  19  1   
 13   6  10  1   
 14   6  20  1   
 15   6  21  1   
 16   7   8  1   
 17   7  11  1   
 18   7  12  1   
 19   8  22  1   
 20   8  23  1   
 21   9  13  1   
 22   9  24  1   
 23   9  25  1   
 24  10  13  1   
 25  10  26  1   
 26  10  27  1   
 27  11  28  1   
 28  11  29  1   
 29  11  30  1   
 30  12  31  1   
 31  12  32  1   
 32  12  33  1   
 33  13  14  1   
 34  13  34  1   
 35  14  15  1   
 36  14  35  1   
 37  14  36  1   
 38  15  37  1   
 39  15  38  1   
 40  15  39  1   
@<TRIPOS>SUBSTRUCTURE
  1 ****   2 GROUP 4 **** **** 0

# MOE 2024.06 (io_trps.svl 2023.06)
