@<TRIPOS>MOLECULE
NONAME
40 41 1 0 0 
SMALL
USER_CHARGES


@<TRIPOS>ATOM
  1 O        0.1080     0.1550     0.7050 O.2   1 <1>  -0.5700 
  2 C        0.6430     1.2130     0.4290 C.2   1 <1>   0.6900 
  3 N        1.9990     1.3610     0.5830 N.am  1 <1>  -0.6600 
  4 N       -0.0790     2.2730    -0.0420 N.am  1 <1>  -0.5470 
  5 C        2.8880     0.1740     0.7120 C.3   1 <1>   0.1400 
  6 C        2.6980     2.6610     0.7720 C.3   1 <1>   0.1400 
  7 C       -1.4530     2.4760    -0.2570 C.ar  1 <1>   0.1170 
  8 C        4.0310     0.2770    -0.3040 C.3   1 <1>  -0.1600 
  9 C        3.8230     2.7900    -0.2600 C.3   1 <1>  -0.1600 
 10 C       -1.9820     3.7720    -0.2120 C.ar  1 <1>  -0.1440 
 11 C       -2.3020     1.4100    -0.5430 C.ar  1 <1>  -0.1500 
 12 C        4.7970     1.6040    -0.1730 C.3   1 <1>  -0.0800 
 13 C       -3.3390     3.9590    -0.4550 C.ar  1 <1>  -0.1500 
 14 C       -1.0530     4.9510     0.1090 C.3   1 <1>  -0.0170 
 15 C       -3.6480     1.6090    -0.7780 C.ar  1 <1>  -0.1500 
 16 C        5.8790     1.7120    -1.2530 C.3   1 <1>  -0.2400 
 17 C       -4.1680     2.8870    -0.7350 C.ar  1 <1>  -0.1500 
 18 C       -1.7290     6.3170     0.2770 C.3   1 <1>  -0.2400 
 19 H        0.5070     3.0590    -0.2820 H     1 <1>   0.3700 
 20 H        2.3360    -0.7350     0.5370 H     1 <1>   0.0800 
 21 H        3.2820     0.1380     1.7130 H     1 <1>   0.0800 
 22 H        3.1150     2.6860     1.7640 H     1 <1>   0.0800 
 23 H        2.0190     3.4890     0.6820 H     1 <1>   0.0800 
 24 H        3.6150     0.1890    -1.2930 H     1 <1>   0.0800 
 25 H        4.7040    -0.5490    -0.1570 H     1 <1>   0.0800 
 26 H        4.3550     3.7080    -0.0870 H     1 <1>   0.0800 
 27 H        3.3890     2.8380    -1.2440 H     1 <1>   0.0800 
 28 H       -1.9110     0.4110    -0.5890 H     1 <1>   0.1500 
 29 H        5.2770     1.6250     0.7920 H     1 <1>   0.0800 
 30 H       -3.7830     4.9360    -0.4310 H     1 <1>   0.1500 
 31 H       -0.3220     5.0330    -0.6760 H     1 <1>   0.0800 
 32 H       -0.5320     4.7300     1.0250 H     1 <1>   0.0800 
 33 H       -4.2860     0.7700    -0.9940 H     1 <1>   0.1500 
 34 H        5.4380     1.6920    -2.2340 H     1 <1>   0.0800 
 35 H        6.5710     0.8920    -1.1710 H     1 <1>   0.0800 
 36 H        6.4280     2.6300    -1.1410 H     1 <1>   0.0800 
 37 H       -5.2160     3.0490    -0.9180 H     1 <1>   0.1500 
 38 H       -2.2030     6.6190    -0.6400 H     1 <1>   0.0800 
 39 H       -0.9940     7.0590     0.5370 H     1 <1>   0.0800 
 40 H       -2.4630     6.2770     1.0630 H     1 <1>   0.0800 
@<TRIPOS>BOND
  1   1   2  2   
  2   2   3  am  
  3   2   4  am  
  4   3   5  1   
  5   3   6  1   
  6   4   7  1   
  7   4  19  1   
  8   5   8  1   
  9   5  20  1   
 10   5  21  1   
 11   6   9  1   
 12   6  22  1   
 13   6  23  1   
 14   7  10  ar  
 15   7  11  ar  
 16   8  12  1   
 17   8  24  1   
 18   8  25  1   
 19   9  12  1   
 20   9  26  1   
 21   9  27  1   
 22  10  13  ar  
 23  10  14  1   
 24  11  15  ar  
 25  11  28  1   
 26  12  16  1   
 27  12  29  1   
 28  13  17  ar  
 29  13  30  1   
 30  14  18  1   
 31  14  31  1   
 32  14  32  1   
 33  15  17  ar  
 34  15  33  1   
 35  16  34  1   
 36  16  35  1   
 37  16  36  1   
 38  17  37  1   
 39  18  38  1   
 40  18  39  1   
 41  18  40  1   
@<TRIPOS>SUBSTRUCTURE
  1 ****   4 GROUP 4 **** **** 0

# MOE 2024.06 (io_trps.svl 2023.06)
