@<TRIPOS>MOLECULE
NONAME
42 44 1 0 0 
SMALL
USER_CHARGES


@<TRIPOS>ATOM
  1 S       -0.0890     0.0220     0.3130 S.o2  1 <1>   1.4470 
  2 O       -0.1000    -0.4070     1.6930 O.2   1 <1>  -0.6500 
  3 O        0.3340    -0.9260    -0.6930 O.2   1 <1>  -0.6500 
  4 N       -1.6800     0.4600    -0.0830 N.am  1 <1>  -0.8490 
  5 C        0.8570     1.5450     0.0590 C.ar  1 <1>  -0.0090 
  6 C       -2.3430     1.2200     0.9950 C.3   1 <1>   0.1960 
  7 C       -2.4870    -0.7300    -0.4150 C.3   1 <1>   0.1960 
  8 C        1.0460     2.4860     1.0650 C.ar  1 <1>   0.1900 
  9 C        1.4130     1.8380    -1.1830 C.ar  1 <1>  -0.1500 
 10 C       -3.7610     1.6630     0.5990 C.3   1 <1>   0.1400 
 11 C       -3.9220    -0.3680    -0.8400 C.3   1 <1>   0.1400 
 12 F        0.5320     2.2830     2.2470 F     1 <1>  -0.1900 
 13 C        1.7570     3.6640     0.8900 C.ar  1 <1>  -0.1500 
 14 C        2.1220     3.0120    -1.3640 C.ar  1 <1>   0.1900 
 15 N       -4.5930     0.4950     0.1810 N.am  1 <1>  -0.6600 
 16 C        2.3080     3.9350    -0.3510 C.ar  1 <1>  -0.1500 
 17 F        2.6340     3.2610    -2.5380 F     1 <1>  -0.1900 
 18 C       -5.8780     0.3160     0.6480 C.2   1 <1>   0.5690 
 19 O       -6.3400     1.0870     1.4620 O.2   1 <1>  -0.5700 
 20 C       -6.7510    -0.8740     0.1670 C.3   1 <1>   0.2610 
 21 O       -6.9010    -0.8680    -1.2290 O.3   1 <1>  -0.5600 
 22 C       -8.1990    -0.8780     0.6590 C.3   1 <1>  -0.1600 
 23 C       -7.9720    -0.0530    -1.5860 C.3   1 <1>   0.1200 
 24 C       -8.9300    -0.0650    -0.3980 C.3   1 <1>  -0.1600 
 25 H       -1.7710     2.1020     1.2230 H     1 <1>   0.0800 
 26 H       -2.4030     0.6240     1.8910 H     1 <1>   0.0800 
 27 H       -2.5250    -1.3930     0.4330 H     1 <1>   0.0800 
 28 H       -2.0270    -1.2650    -1.2290 H     1 <1>   0.0800 
 29 H        1.2980     1.1550    -2.0080 H     1 <1>   0.1500 
 30 H       -3.7010     2.3600    -0.2170 H     1 <1>   0.0800 
 31 H       -4.2130     2.1700     1.4340 H     1 <1>   0.0800 
 32 H       -4.4680    -1.2790    -0.9970 H     1 <1>   0.0800 
 33 H       -3.8890     0.1600    -1.7760 H     1 <1>   0.0800 
 34 H        1.8730     4.3510     1.7090 H     1 <1>   0.1500 
 35 H        2.8680     4.8350    -0.5330 H     1 <1>   0.1500 
 36 H       -6.2620    -1.7880     0.4470 H     1 <1>   0.0800 
 37 H       -8.3090    -0.4720     1.6500 H     1 <1>   0.0800 
 38 H       -8.5610    -1.8910     0.6590 H     1 <1>   0.0800 
 39 H       -8.4230    -0.4480    -2.4800 H     1 <1>   0.0800 
 40 H       -7.5930     0.9390    -1.7700 H     1 <1>   0.0800 
 41 H       -9.0970     0.9430    -0.0600 H     1 <1>   0.0800 
 42 H       -9.8740    -0.5090    -0.6600 H     1 <1>   0.0800 
@<TRIPOS>BOND
  1   1   2  2   
  2   1   3  2   
  3   1   4  am  
  4   1   5  1   
  5   4   6  1   
  6   4   7  1   
  7   5   8  ar  
  8   5   9  ar  
  9   6  10  1   
 10   6  25  1   
 11   6  26  1   
 12   7  11  1   
 13   7  27  1   
 14   7  28  1   
 15   8  12  1   
 16   8  13  ar  
 17   9  14  ar  
 18   9  29  1   
 19  10  15  1   
 20  10  30  1   
 21  10  31  1   
 22  11  15  1   
 23  11  32  1   
 24  11  33  1   
 25  13  16  ar  
 26  13  34  1   
 27  14  16  ar  
 28  14  17  1   
 29  15  18  am  
 30  16  35  1   
 31  18  19  2   
 32  18  20  1   
 33  20  21  1   
 34  20  22  1   
 35  20  36  1   
 36  21  23  1   
 37  22  24  1   
 38  22  37  1   
 39  22  38  1   
 40  23  24  1   
 41  23  39  1   
 42  23  40  1   
 43  24  41  1   
 44  24  42  1   
@<TRIPOS>SUBSTRUCTURE
  1 ****   4 GROUP 4 **** **** 0

# MOE 2024.06 (io_trps.svl 2023.06)
