@<TRIPOS>MOLECULE
NONAME
37 37 1 0 0 
SMALL
USER_CHARGES


@<TRIPOS>ATOM
  1 P       -0.3970     0.3670    -0.0220 P.3   1 <1>   1.2420 
  2 O       -0.2860     0.9160    -1.3770 O.2   1 <1>  -0.7000 
  3 O       -1.6420     0.9800     0.7950 O.3   1 <1>  -0.5510 
  4 O       -0.7570    -1.1980    -0.0430 O.3   1 <1>  -0.5510 
  5 C        1.0720     0.5050     1.0480 C.3   1 <1>   0.3440 
  6 C       -2.2000     2.2090     0.4810 C.3   1 <1>   0.1200 
  7 C       -1.8480    -1.6370    -0.7670 C.3   1 <1>   0.1200 
  8 O        1.5880     1.7950     1.2400 O.3   1 <1>  -0.6800 
  9 C        2.2820    -0.3180     0.6040 C.ar  1 <1>  -0.1430 
 10 C       -1.2930     3.3410     0.9590 C.3   1 <1>  -0.2400 
 11 C       -1.9240    -3.1520    -0.6180 C.3   1 <1>  -0.2400 
 12 C        2.9440    -1.1250     1.5200 C.ar  1 <1>  -0.1500 
 13 C        2.7440    -0.2680    -0.7060 C.ar  1 <1>  -0.1500 
 14 C        4.0440    -1.8730     1.1380 C.ar  1 <1>  -0.1500 
 15 C        3.8430    -1.0160    -1.0880 C.ar  1 <1>  -0.1500 
 16 C        4.5000    -1.8230    -0.1750 C.ar  1 <1>   0.0820 
 17 O        5.5680    -2.5230    -0.6330 O.3   1 <1>  -0.3620 
 18 C        6.2960    -3.3860     0.2120 C.3   1 <1>   0.0400 
 19 H        0.7930     0.1690     2.0290 H     1 <1>   0.0800 
 20 H       -3.1490     2.2660     0.9870 H     1 <1>   0.0800 
 21 H       -2.3690     2.2600    -0.5830 H     1 <1>   0.0800 
 22 H       -1.7100    -1.3590    -1.7990 H     1 <1>   0.0800 
 23 H       -2.7350    -1.1660    -0.3770 H     1 <1>   0.0800 
 24 H        2.1880     2.0020     0.4960 H     1 <1>   0.4000 
 25 H       -1.0370     3.2070     1.9950 H     1 <1>   0.0800 
 26 H       -1.8060     4.2790     0.8530 H     1 <1>   0.0800 
 27 H       -0.3980     3.3870     0.3650 H     1 <1>   0.0800 
 28 H       -1.0260    -3.6050    -0.9980 H     1 <1>   0.0800 
 29 H       -2.7620    -3.5300    -1.1740 H     1 <1>   0.0800 
 30 H       -2.0510    -3.4160     0.4170 H     1 <1>   0.0800 
 31 H        2.6090    -1.1730     2.5410 H     1 <1>   0.1500 
 32 H        2.2580     0.3480    -1.4450 H     1 <1>   0.1500 
 33 H        4.5300    -2.4860     1.8730 H     1 <1>   0.1500 
 34 H        4.1990    -0.9800    -2.1020 H     1 <1>   0.1500 
 35 H        7.0840    -3.8320    -0.3660 H     1 <1>   0.0800 
 36 H        5.6350    -4.1500     0.5820 H     1 <1>   0.0800 
 37 H        6.7140    -2.8110     1.0190 H     1 <1>   0.0800 
@<TRIPOS>BOND
  1   1   2  2   
  2   1   3  1   
  3   1   4  1   
  4   1   5  1   
  5   3   6  1   
  6   4   7  1   
  7   5   8  1   
  8   5   9  1   
  9   5  19  1   
 10   6  10  1   
 11   6  20  1   
 12   6  21  1   
 13   7  11  1   
 14   7  22  1   
 15   7  23  1   
 16   8  24  1   
 17   9  12  ar  
 18   9  13  ar  
 19  10  25  1   
 20  10  26  1   
 21  10  27  1   
 22  11  28  1   
 23  11  29  1   
 24  11  30  1   
 25  12  14  ar  
 26  12  31  1   
 27  13  15  ar  
 28  13  32  1   
 29  14  16  ar  
 30  14  33  1   
 31  15  16  ar  
 32  15  34  1   
 33  16  17  1   
 34  17  18  1   
 35  18  35  1   
 36  18  36  1   
 37  18  37  1   
@<TRIPOS>SUBSTRUCTURE
  1 ****   9 GROUP 4 **** **** 0

# MOE 2024.06 (io_trps.svl 2023.06)
