@<TRIPOS>MOLECULE
NONAME
52 54 1 0 0 
SMALL
USER_CHARGES


@<TRIPOS>ATOM
  1 S       -0.1140    -0.0850    -0.6690 S.3   1 <1>  -0.2860 
  2 C       -1.0890     1.3360    -0.1610 C.2   1 <1>   0.2420 
  3 C        1.5560     0.6560    -1.0050 C.3   1 <1>   0.1310 
  4 N       -0.6030     2.5220    -0.0480 N.2   1 <1>  -0.3380 
  5 N       -2.3920     1.2480     0.1370 N.pl3 1 <1>   0.3260 
  6 C        2.6050    -0.4180    -1.2570 C.2   1 <1>   0.5690 
  7 N       -1.6220     3.2940     0.3400 N.2   1 <1>  -0.3380 
  8 C       -3.2600     0.1230     0.1230 C.ar  1 <1>  -0.0230 
  9 C       -2.6620     2.5340     0.4400 C.2   1 <1>   0.0060 
 10 O        2.5020    -1.0600    -2.2780 O.2   1 <1>  -0.5700 
 11 N        3.7010    -0.5570    -0.4360 N.am  1 <1>  -0.6600 
 12 C       -3.8380    -0.3390     1.3010 C.ar  1 <1>  -0.1500 
 13 C       -3.5470    -0.5330    -1.0690 C.ar  1 <1>  -0.1500 
 14 C       -4.0380     3.0350     0.8420 C.3   1 <1>  -0.0600 
 15 C        5.0200    -0.8150    -1.1030 C.3   1 <1>   0.2200 
 16 C        3.6570    -0.7870     1.0520 C.3   1 <1>   0.2200 
 17 C       -4.6920    -1.4270     1.2830 C.ar  1 <1>  -0.1500 
 18 C       -4.3990    -1.6230    -1.0890 C.ar  1 <1>  -0.1500 
 19 C        6.1570    -1.0150    -0.0890 C.3   1 <1>  -0.1600 
 20 C        5.3710     0.3630    -2.0190 C.3   1 <1>  -0.2400 
 21 C        4.3790    -2.1100     1.3650 C.3   1 <1>  -0.1600 
 22 C        2.2490    -0.8610     1.6510 C.3   1 <1>  -0.2400 
 23 C       -4.9790    -2.0760     0.0930 C.ar  1 <1>   0.0830 
 24 C        5.8480    -2.1280     0.9170 C.3   1 <1>  -0.1600 
 25 O       -5.8250    -3.1340     0.1640 O.3   1 <1>  -0.3630 
 26 C       -6.1420    -3.8950    -0.9800 C.3   1 <1>   0.0400 
 27 H        1.8230     1.2790    -0.1740 H     1 <1>   0.0800 
 28 H        1.4470     1.2670    -1.8810 H     1 <1>   0.0800 
 29 H       -3.6200     0.1470     2.2370 H     1 <1>   0.1500 
 30 H       -3.1000    -0.1940    -1.9880 H     1 <1>   0.1500 
 31 H       -4.7670     2.7470     0.1060 H     1 <1>   0.0800 
 32 H       -4.0300     4.1080     0.9180 H     1 <1>   0.0800 
 33 H       -4.3180     2.6260     1.7960 H     1 <1>   0.0800 
 34 H        4.9290    -1.7100    -1.6980 H     1 <1>   0.0800 
 35 H        4.1850     0.0180     1.5360 H     1 <1>   0.0800 
 36 H       -5.1410    -1.7850     2.1920 H     1 <1>   0.1500 
 37 H       -4.5960    -2.1060    -2.0270 H     1 <1>   0.1500 
 38 H        6.3230    -0.0910     0.4370 H     1 <1>   0.0800 
 39 H        7.0670    -1.2540    -0.6100 H     1 <1>   0.0800 
 40 H        5.3960     1.2810    -1.4590 H     1 <1>   0.0800 
 41 H        4.6540     0.4510    -2.8160 H     1 <1>   0.0800 
 42 H        6.3350     0.2060    -2.4660 H     1 <1>   0.0800 
 43 H        3.8490    -2.9050     0.8680 H     1 <1>   0.0800 
 44 H        4.3380    -2.3100     2.4210 H     1 <1>   0.0800 
 45 H        1.6510    -1.5890     1.1340 H     1 <1>   0.0800 
 46 H        1.7700     0.0980     1.6370 H     1 <1>   0.0800 
 47 H        2.3080    -1.1560     2.6830 H     1 <1>   0.0800 
 48 H        6.4930    -2.0140     1.7710 H     1 <1>   0.0800 
 49 H        6.0620    -3.0850     0.4720 H     1 <1>   0.0800 
 50 H       -6.8080    -4.6850    -0.6820 H     1 <1>   0.0800 
 51 H       -5.2360    -4.3130    -1.3830 H     1 <1>   0.0800 
 52 H       -6.6280    -3.2600    -1.6990 H     1 <1>   0.0800 
@<TRIPOS>BOND
  1   1   2  1   
  2   1   3  1   
  3   2   4  2   
  4   2   5  1   
  5   3   6  1   
  6   3  27  1   
  7   3  28  1   
  8   4   7  1   
  9   5   8  1   
 10   5   9  1   
 11   6  10  2   
 12   6  11  am  
 13   7   9  2   
 14   8  12  ar  
 15   8  13  ar  
 16   9  14  1   
 17  11  15  1   
 18  11  16  1   
 19  12  17  ar  
 20  12  29  1   
 21  13  18  ar  
 22  13  30  1   
 23  14  31  1   
 24  14  32  1   
 25  14  33  1   
 26  15  19  1   
 27  15  20  1   
 28  15  34  1   
 29  16  21  1   
 30  16  22  1   
 31  16  35  1   
 32  17  23  ar  
 33  17  36  1   
 34  18  23  ar  
 35  18  37  1   
 36  19  24  1   
 37  19  38  1   
 38  19  39  1   
 39  20  40  1   
 40  20  41  1   
 41  20  42  1   
 42  21  24  1   
 43  21  43  1   
 44  21  44  1   
 45  22  45  1   
 46  22  46  1   
 47  22  47  1   
 48  23  25  1   
 49  24  48  1   
 50  24  49  1   
 51  25  26  1   
 52  26  50  1   
 53  26  51  1   
 54  26  52  1   
@<TRIPOS>SUBSTRUCTURE
  1 ****   1 GROUP 4 **** **** 0

# MOE 2024.06 (io_trps.svl 2023.06)
