@<TRIPOS>MOLECULE
NONAME
20 19 1 0 0 
SMALL
USER_CHARGES


@<TRIPOS>ATOM
  1 S        0.0190    -0.2770     0.2560 S.o   1 <1>   0.1130 
  2 O       -0.5730    -0.9170    -0.9640 O.2   1 <1>  -0.5000 
  3 C        1.5080     0.5920    -0.2970 C.3   1 <1>   0.0340 
  4 C       -1.0740     1.0970     0.6940 C.3   1 <1>  -0.0460 
  5 C        2.4720    -0.3730    -0.9820 C.3   1 <1>   0.1400 
  6 N        3.7080     0.3470    -1.3740 N.am  1 <1>  -0.7300 
  7 C        4.9460     0.2740    -0.8360 C.2   1 <1>   0.5690 
  8 O        5.8390     0.9340    -1.2970 O.2   1 <1>  -0.5700 
  9 C        5.2270    -0.6200     0.3460 C.3   1 <1>  -0.1790 
 10 H        2.0050     1.0470     0.5400 H     1 <1>   0.0800 
 11 H        1.2440     1.3620    -0.9990 H     1 <1>   0.0800 
 12 H       -2.0530     0.7290     0.9440 H     1 <1>   0.0800 
 13 H       -1.1800     1.7770    -0.1300 H     1 <1>   0.0800 
 14 H       -0.6940     1.6400     1.5390 H     1 <1>   0.0800 
 15 H        2.0060    -0.7880    -1.8600 H     1 <1>   0.0800 
 16 H        2.7050    -1.1850    -0.3160 H     1 <1>   0.0800 
 17 H        3.6340     0.9570    -2.1930 H     1 <1>   0.3700 
 18 H        5.0790    -1.6460     0.0680 H     1 <1>   0.0800 
 19 H        4.5760    -0.3660     1.1610 H     1 <1>   0.0800 
 20 H        6.2450    -0.4900     0.6620 H     1 <1>   0.0800 
@<TRIPOS>BOND
  1   1   2  2   
  2   1   3  1   
  3   1   4  1   
  4   3   5  1   
  5   3  10  1   
  6   3  11  1   
  7   4  12  1   
  8   4  13  1   
  9   4  14  1   
 10   5   6  1   
 11   5  15  1   
 12   5  16  1   
 13   6   7  am  
 14   6  17  1   
 15   7   8  2   
 16   7   9  1   
 17   9  18  1   
 18   9  19  1   
 19   9  20  1   
@<TRIPOS>SUBSTRUCTURE
  1 ****   5 GROUP 4 **** **** 0

# MOE 2024.06 (io_trps.svl 2023.06)
