@<TRIPOS>MOLECULE
NONAME
42 43 1 0 0 
SMALL
USER_CHARGES


@<TRIPOS>ATOM
  1 BR       1.1750    -1.5090    -0.6400 Br    1 <1>  -0.0570 
  2 C       -0.3300    -2.5740    -0.0730 C.2   1 <1>   0.0570 
  3 C       -0.3420    -3.3360     1.0310 C.2   1 <1>  -0.1100 
  4 C       -1.5220    -2.5710    -0.8590 C.2   1 <1>  -0.1500 
  5 S       -1.9090    -4.1240     1.1570 S.3   1 <1>  -0.0800 
  6 C       -2.4800    -3.3600    -0.3310 C.2   1 <1>  -0.1400 
  7 C       -3.8910    -3.6890    -0.7700 C.3   1 <1>   0.5230 
  8 N       -4.8300    -3.2530     0.3000 N.4   1 <1>  -0.9590 
  9 C       -6.1920    -3.8240     0.0680 C.3   1 <1>   0.3430 
 10 C       -4.8370    -1.7590     0.4360 C.3   1 <1>   0.2630 
 11 C       -7.0970    -3.6830     1.2940 C.3   1 <1>  -0.0170 
 12 C       -8.4240    -4.3460     0.9830 C.ar  1 <1>  -0.1430 
 13 C       -9.3830    -3.6630     0.2500 C.ar  1 <1>  -0.1500 
 14 C       -8.6900    -5.6370     1.4160 C.ar  1 <1>  -0.1500 
 15 C      -10.5930    -4.2590    -0.0610 C.ar  1 <1>   0.0830 
 16 C       -9.8930    -6.2450     1.0990 C.ar  1 <1>  -0.1500 
 17 O      -11.4850    -3.5130    -0.7580 O.3   1 <1>  -0.3620 
 18 C      -10.8410    -5.5740     0.3470 C.ar  1 <1>   0.0830 
 19 C      -12.7020    -3.2150    -0.1080 C.3   1 <1>   0.0400 
 20 O      -11.9790    -6.2420     0.0390 O.3   1 <1>  -0.3630 
 21 C      -12.1920    -6.5310    -1.3250 C.3   1 <1>   0.0400 
 22 H        0.3960    -3.5280     1.7910 H     1 <1>   0.1500 
 23 H       -1.5750    -1.9840    -1.7600 H     1 <1>   0.1500 
 24 H       -3.9700    -4.7530    -0.9240 H     1 <1>   0.0800 
 25 H       -4.1170    -3.1880    -1.6970 H     1 <1>   0.0800 
 26 H       -4.4460    -3.6510     1.1710 H     1 <1>   0.4500 
 27 H       -6.1100    -4.8740    -0.1650 H     1 <1>   0.0800 
 28 H       -6.6590    -3.3370    -0.7730 H     1 <1>   0.0800 
 29 H       -5.2180    -1.3010    -0.4620 H     1 <1>   0.0800 
 30 H       -3.8360    -1.3950     0.6100 H     1 <1>   0.0800 
 31 H       -5.4530    -1.4570     1.2660 H     1 <1>   0.0800 
 32 H       -7.2720    -2.6480     1.5270 H     1 <1>   0.0800 
 33 H       -6.6470    -4.1590     2.1470 H     1 <1>   0.0800 
 34 H       -9.2160    -2.6560    -0.0870 H     1 <1>   0.1500 
 35 H       -7.9710    -6.1850     2.0010 H     1 <1>   0.1500 
 36 H      -10.1030    -7.2470     1.4300 H     1 <1>   0.1500 
 37 H      -13.2440    -2.5120    -0.7160 H     1 <1>   0.0800 
 38 H      -12.4880    -2.7830     0.8530 H     1 <1>   0.0800 
 39 H      -13.2770    -4.1160     0.0070 H     1 <1>   0.0800 
 40 H      -13.0780    -7.1340    -1.4060 H     1 <1>   0.0800 
 41 H      -11.3420    -7.0720    -1.7020 H     1 <1>   0.0800 
 42 H      -12.3230    -5.6140    -1.8700 H     1 <1>   0.0800 
@<TRIPOS>BOND
  1   1   2  1   
  2   2   3  2   
  3   2   4  1   
  4   3   5  1   
  5   3  22  1   
  6   4   6  2   
  7   4  23  1   
  8   5   6  1   
  9   6   7  1   
 10   7   8  1   
 11   7  24  1   
 12   7  25  1   
 13   8   9  1   
 14   8  10  1   
 15   8  26  1   
 16   9  11  1   
 17   9  27  1   
 18   9  28  1   
 19  10  29  1   
 20  10  30  1   
 21  10  31  1   
 22  11  12  1   
 23  11  32  1   
 24  11  33  1   
 25  12  13  ar  
 26  12  14  ar  
 27  13  15  ar  
 28  13  34  1   
 29  14  16  ar  
 30  14  35  1   
 31  15  17  1   
 32  15  18  ar  
 33  16  18  ar  
 34  16  36  1   
 35  17  19  1   
 36  18  20  1   
 37  19  37  1   
 38  19  38  1   
 39  19  39  1   
 40  20  21  1   
 41  21  40  1   
 42  21  41  1   
 43  21  42  1   
@<TRIPOS>SUBSTRUCTURE
  1 ****   9 GROUP 4 **** **** 0

# MOE 2024.06 (io_trps.svl 2023.06)
