@<TRIPOS>MOLECULE
NONAME
47 49 1 0 0 
SMALL
USER_CHARGES


@<TRIPOS>ATOM
  1 S        0.9390     0.4840     0.6490 S.o2  1 <1>   1.3330 
  2 O       -0.0110    -0.5690     0.9000 O.2   1 <1>  -0.6500 
  3 O        2.1760     0.5480     1.3950 O.2   1 <1>  -0.6500 
  4 N        0.1400     2.0030     0.8810 N.am  1 <1>  -0.6930 
  5 C        1.3110     0.5280    -1.0920 C.3   1 <1>  -0.1350 
  6 C       -1.1310     2.2610     0.3760 C.ar  1 <1>   0.1990 
  7 C        0.9460     3.1220     1.4630 C.3   1 <1>   0.2570 
  8 C       -2.2290     1.5250     0.8050 C.ar  1 <1>  -0.1500 
  9 C       -1.3320     3.2610    -0.5680 C.ar  1 <1>  -0.1500 
 10 C        2.0480     3.6530     0.5380 C.2   1 <1>   0.5690 
 11 C       -3.5070     1.7620     0.3120 C.ar  1 <1>  -0.1440 
 12 C       -2.5940     3.5120    -1.0720 C.ar  1 <1>  -0.1500 
 13 O        1.8270     4.6430    -0.1180 O.2   1 <1>  -0.5700 
 14 N        3.2410     3.0060     0.4720 N.am  1 <1>  -0.7300 
 15 C       -3.6750     2.7660    -0.6370 C.ar  1 <1>  -0.1500 
 16 C       -4.7020     0.9270     0.7990 C.3   1 <1>   1.1630 
 17 C        4.4110     3.4480    -0.3110 C.3   1 <1>   0.2200 
 18 F       -5.8500     1.5920     0.7370 F     1 <1>  -0.3400 
 19 F       -4.5760     0.5290     2.0590 F     1 <1>  -0.3400 
 20 F       -4.8690    -0.1710     0.0730 F     1 <1>  -0.3400 
 21 C        4.8690     2.4150    -1.3610 C.3   1 <1>  -0.0800 
 22 C        5.6510     3.6040     0.5820 C.3   1 <1>  -0.1600 
 23 C        6.3140     2.8460    -1.5640 C.3   1 <1>  -0.1600 
 24 C        5.0810     1.0230    -0.7300 C.3   1 <1>  -0.1600 
 25 C        6.6930     2.6980    -0.0990 C.3   1 <1>  -0.0800 
 26 C        6.3110     1.2340     0.1690 C.3   1 <1>  -0.1600 
 27 H        1.8440    -0.3570    -1.3760 H     1 <1>   0.0800 
 28 H        1.9110     1.3830    -1.3280 H     1 <1>   0.0800 
 29 H        0.4030     0.5780    -1.6600 H     1 <1>   0.0800 
 30 H        1.3950     2.7910     2.3810 H     1 <1>   0.0800 
 31 H        0.2900     3.9390     1.7040 H     1 <1>   0.0800 
 32 H       -2.0690     0.7540     1.5400 H     1 <1>   0.1500 
 33 H       -0.5000     3.8460    -0.9160 H     1 <1>   0.1500 
 34 H       -2.7350     4.2900    -1.8040 H     1 <1>   0.1500 
 35 H        3.3670     2.1230     0.9880 H     1 <1>   0.3700 
 36 H       -4.6510     2.9760    -1.0450 H     1 <1>   0.1500 
 37 H        4.1990     4.3860    -0.7980 H     1 <1>   0.0800 
 38 H        4.2740     2.4180    -2.2580 H     1 <1>   0.0800 
 39 H        5.4720     3.3140     1.6030 H     1 <1>   0.0800 
 40 H        5.9840     4.6260     0.5570 H     1 <1>   0.0800 
 41 H        6.4050     3.8590    -1.9180 H     1 <1>   0.0800 
 42 H        6.8660     2.1790    -2.2060 H     1 <1>   0.0800 
 43 H        5.3090     0.3040    -1.4970 H     1 <1>   0.0800 
 44 H        4.2330     0.6720    -0.1740 H     1 <1>   0.0800 
 45 H        7.7140     2.9390     0.1440 H     1 <1>   0.0800 
 46 H        7.1090     0.5760    -0.1320 H     1 <1>   0.0800 
 47 H        6.0860     1.0600     1.2080 H     1 <1>   0.0800 
@<TRIPOS>BOND
  1   1   2  2   
  2   1   3  2   
  3   1   4  am  
  4   1   5  1   
  5   4   6  1   
  6   4   7  1   
  7   5  27  1   
  8   5  28  1   
  9   5  29  1   
 10   6   8  ar  
 11   6   9  ar  
 12   7  10  1   
 13   7  30  1   
 14   7  31  1   
 15   8  11  ar  
 16   8  32  1   
 17   9  12  ar  
 18   9  33  1   
 19  10  13  2   
 20  10  14  am  
 21  11  15  ar  
 22  11  16  1   
 23  12  15  ar  
 24  12  34  1   
 25  14  17  1   
 26  14  35  1   
 27  15  36  1   
 28  16  18  1   
 29  16  19  1   
 30  16  20  1   
 31  17  21  1   
 32  17  22  1   
 33  17  37  1   
 34  21  23  1   
 35  21  24  1   
 36  21  38  1   
 37  22  25  1   
 38  22  39  1   
 39  22  40  1   
 40  23  25  1   
 41  23  41  1   
 42  23  42  1   
 43  24  26  1   
 44  24  43  1   
 45  24  44  1   
 46  25  26  1   
 47  25  45  1   
 48  26  46  1   
 49  26  47  1   
@<TRIPOS>SUBSTRUCTURE
  1 ****   4 GROUP 4 **** **** 0

# MOE 2024.06 (io_trps.svl 2023.06)
