@<TRIPOS>MOLECULE
NONAME
40 41 1 0 0 
SMALL
USER_CHARGES


@<TRIPOS>ATOM
  1 CL       1.1800    -1.4960     0.4950 Cl    1 <1>  -0.1770 
  2 C        2.7990    -0.8580     0.3530 C.ar  1 <1>   0.1770 
  3 C        3.8580    -1.7290     0.1780 C.ar  1 <1>  -0.1500 
  4 C        2.9970     0.5090     0.4190 C.ar  1 <1>  -0.1500 
  5 C        5.1400    -1.2180     0.0660 C.ar  1 <1>  -0.1500 
  6 C        4.2800     1.0180     0.3070 C.ar  1 <1>  -0.1500 
  7 C        5.3590     0.1520     0.1300 C.ar  1 <1>   0.0830 
  8 O        6.6460     0.5630     0.0120 O.3   1 <1>  -0.3630 
  9 C        6.9880     1.9290     0.0910 C.3   1 <1>   0.3200 
 10 C        8.4680     2.0190    -0.0660 C.1   1 <1>  -0.2000 
 11 C        9.6480     1.9880    -0.2020 C.1   1 <1>  -0.2000 
 12 C       11.1080     1.7770    -0.3840 C.3   1 <1>   0.5430 
 13 N       11.3510     0.3240    -0.2180 N.4   1 <1>  -0.9590 
 14 C       12.7880     0.0030    -0.0370 C.3   1 <1>   0.3430 
 15 C       10.7600    -0.4700    -1.3280 C.3   1 <1>   0.3430 
 16 C       12.9640    -1.2880     0.7680 C.3   1 <1>  -0.1600 
 17 C       10.0060    -1.6750    -0.7650 C.3   1 <1>  -0.1600 
 18 C       12.2340    -2.5340     0.2300 C.3   1 <1>  -0.1600 
 19 C       10.7060    -2.4450     0.3710 C.3   1 <1>  -0.1600 
 20 H        3.6780    -2.7880     0.1300 H     1 <1>   0.1500 
 21 H        2.1520     1.1600     0.5560 H     1 <1>   0.1500 
 22 H        5.9750    -1.8810    -0.0700 H     1 <1>   0.1500 
 23 H        4.4100     2.0830     0.3610 H     1 <1>   0.1500 
 24 H        6.6820     2.3060     1.0510 H     1 <1>   0.0800 
 25 H        6.4870     2.4560    -0.7020 H     1 <1>   0.0800 
 26 H       11.6450     2.3360     0.3650 H     1 <1>   0.0800 
 27 H       11.4180     2.1080    -1.3620 H     1 <1>   0.0800 
 28 H       10.8440     0.0470     0.6320 H     1 <1>   0.4500 
 29 H       13.2790     0.8030     0.4940 H     1 <1>   0.0800 
 30 H       13.2650    -0.0990    -0.9990 H     1 <1>   0.0800 
 31 H       11.5400    -0.8100    -1.9900 H     1 <1>   0.0800 
 32 H       10.0720     0.1300    -1.9030 H     1 <1>   0.0800 
 33 H       12.6680    -1.1100     1.7870 H     1 <1>   0.0800 
 34 H       14.0180    -1.5080     0.7930 H     1 <1>   0.0800 
 35 H        9.8330    -2.3520    -1.5830 H     1 <1>   0.0800 
 36 H        9.0360    -1.3530    -0.4260 H     1 <1>   0.0800 
 37 H       12.5650    -3.3780     0.8130 H     1 <1>   0.0800 
 38 H       12.5120    -2.7350    -0.7910 H     1 <1>   0.0800 
 39 H       10.3030    -3.4450     0.3850 H     1 <1>   0.0800 
 40 H       10.4560    -2.0060     1.3220 H     1 <1>   0.0800 
@<TRIPOS>BOND
  1   1   2  1   
  2   2   3  ar  
  3   2   4  ar  
  4   3   5  ar  
  5   3  20  1   
  6   4   6  ar  
  7   4  21  1   
  8   5   7  ar  
  9   5  22  1   
 10   6   7  ar  
 11   6  23  1   
 12   7   8  1   
 13   8   9  1   
 14   9  10  1   
 15   9  24  1   
 16   9  25  1   
 17  10  11  3   
 18  11  12  1   
 19  12  13  1   
 20  12  26  1   
 21  12  27  1   
 22  13  14  1   
 23  13  15  1   
 24  13  28  1   
 25  14  16  1   
 26  14  29  1   
 27  14  30  1   
 28  15  17  1   
 29  15  31  1   
 30  15  32  1   
 31  16  18  1   
 32  16  33  1   
 33  16  34  1   
 34  17  19  1   
 35  17  35  1   
 36  17  36  1   
 37  18  19  1   
 38  18  37  1   
 39  18  38  1   
 40  19  39  1   
 41  19  40  1   
@<TRIPOS>SUBSTRUCTURE
  1 ****   8 GROUP 4 **** **** 0

# MOE 2024.06 (io_trps.svl 2023.06)
