@<TRIPOS>MOLECULE
Structure2300
28 29 1 0 0 
SMALL
USER_CHARGES


@<TRIPOS>ATOM
  1 N        0.4040    -1.2650     1.3680 N.4   1 <1>  -0.9060 
  2 C        1.3700    -0.1290     1.3850 C.3   1 <1>   0.3430 
  3 C        0.1710    -1.6170    -0.0510 C.3   1 <1>   0.3430 
  4 C        2.1290    -0.1900     0.0570 C.3   1 <1>   0.0630 
  5 C        1.5070    -1.3520    -0.7250 C.3   1 <1>  -0.1600 
  6 C        3.6340    -0.3710     0.2700 C.ar  1 <1>  -0.1430 
  7 C        4.5740     0.4780    -0.3140 C.ar  1 <1>  -0.1430 
  8 C        4.0790    -1.4160     1.0740 C.ar  1 <1>  -0.1500 
  9 C        5.9250     0.2730    -0.0710 C.ar  1 <1>  -0.1500 
 10 C        4.1940     1.6390    -1.2260 C.3   1 <1>  -0.0970 
 11 C        5.4260    -1.6120     1.3080 C.ar  1 <1>  -0.1500 
 12 C        6.3520    -0.7640     0.7360 C.ar  1 <1>  -0.1500 
 13 H       -0.4710    -1.0340     1.8580 H     1 <1>   0.4500 
 14 H        0.8280    -2.0690     1.8460 H     1 <1>   0.4500 
 15 H        2.0480    -0.2060     2.2200 H     1 <1>   0.0800 
 16 H        0.8420     0.8100     1.4500 H     1 <1>   0.0800 
 17 H       -0.5800    -0.9650    -0.4710 H     1 <1>   0.0800 
 18 H       -0.1400    -2.6440    -0.1670 H     1 <1>   0.0800 
 19 H        1.9190     0.7280    -0.4590 H     1 <1>   0.0800 
 20 H        1.3820    -1.1090    -1.7660 H     1 <1>   0.0800 
 21 H        2.1180    -2.2360    -0.6590 H     1 <1>   0.0800 
 22 H        3.3900    -2.1020     1.5300 H     1 <1>   0.1500 
 23 H        6.6630     0.9210    -0.5110 H     1 <1>   0.1500 
 24 H        3.6040     1.2870    -2.0520 H     1 <1>   0.0800 
 25 H        5.0700     2.1150    -1.6300 H     1 <1>   0.0800 
 26 H        3.6400     2.3790    -0.6770 H     1 <1>   0.0800 
 27 H        5.7600    -2.4230     1.9320 H     1 <1>   0.1500 
 28 H        7.4040    -0.9100     0.9150 H     1 <1>   0.1500 
@<TRIPOS>BOND
  1   1   2  1   
  2   1   3  1   
  3   1  13  1   
  4   1  14  1   
  5   2   4  1   
  6   2  15  1   
  7   2  16  1   
  8   3   5  1   
  9   3  17  1   
 10   3  18  1   
 11   4   5  1   
 12   4   6  1   
 13   4  19  1   
 14   5  20  1   
 15   5  21  1   
 16   6   7  ar  
 17   6   8  ar  
 18   7   9  ar  
 19   7  10  1   
 20   8  11  ar  
 21   8  22  1   
 22   9  12  ar  
 23   9  23  1   
 24  10  24  1   
 25  10  25  1   
 26  10  26  1   
 27  11  12  ar  
 28  11  27  1   
 29  12  28  1   
@<TRIPOS>SUBSTRUCTURE
  1 ****   6 GROUP 4 **** **** 0

# MOE 2024.06 (io_trps.svl 2023.06)
