@<TRIPOS>MOLECULE
NONAME
39 40 1 0 0 
SMALL
USER_CHARGES


@<TRIPOS>ATOM
  1 S        0.3160    -0.3210    -0.2590 S.o2  1 <1>   1.3330 
  2 O        0.4030    -0.0840    -1.6810 O.2   1 <1>  -0.6500 
  3 O        0.6660    -1.6150     0.2790 O.2   1 <1>  -0.6500 
  4 N        1.3710     0.8020     0.4590 N.am  1 <1>  -0.8490 
  5 C       -1.3060     0.1500     0.3600 C.3   1 <1>  -0.0550 
  6 C        1.4170     2.0830    -0.2780 C.3   1 <1>   0.1960 
  7 C        2.7230     0.2250     0.6040 C.3   1 <1>   0.1960 
  8 C       -2.4580    -0.7340    -0.1500 C.3   1 <1>  -0.2400 
  9 C        2.3730     3.0970     0.3860 C.3   1 <1>   0.3430 
 10 C        3.7130     1.2060     1.2660 C.3   1 <1>   0.3430 
 11 N        3.7600     2.5340     0.5600 N.4   1 <1>  -0.9590 
 12 C        4.6680     3.4940     1.2460 C.3   1 <1>   0.4860 
 13 C        4.7980     4.7380     0.3870 C.ar  1 <1>  -0.1440 
 14 C        4.1490     5.9110     0.7600 C.ar  1 <1>  -0.1500 
 15 C        5.5630     4.7090    -0.7750 C.ar  1 <1>  -0.1500 
 16 C        4.2510     7.0460    -0.0270 C.ar  1 <1>  -0.1500 
 17 C        5.6710     5.8390    -1.5690 C.ar  1 <1>  -0.1500 
 18 C        5.0100     6.9870    -1.1800 C.ar  1 <1>   0.1900 
 19 F        5.1060     8.0530    -1.9260 F     1 <1>  -0.1900 
 20 H       -1.5110     1.1640     0.0800 H     1 <1>   0.0800 
 21 H       -1.2940     0.1040     1.4320 H     1 <1>   0.0800 
 22 H        0.4300     2.5100    -0.3170 H     1 <1>   0.0800 
 23 H        1.7410     1.9190    -1.2930 H     1 <1>   0.0800 
 24 H        3.0970    -0.0770    -0.3610 H     1 <1>   0.0800 
 25 H        2.6730    -0.6580     1.2210 H     1 <1>   0.0800 
 26 H       -2.5140    -0.6910    -1.2240 H     1 <1>   0.0800 
 27 H       -3.3950    -0.4000     0.2600 H     1 <1>   0.0800 
 28 H       -2.2980    -1.7580     0.1440 H     1 <1>   0.0800 
 29 H        1.9660     3.3670     1.3470 H     1 <1>   0.0800 
 30 H        2.4120     3.9880    -0.2190 H     1 <1>   0.0800 
 31 H        4.6940     0.7590     1.2780 H     1 <1>   0.0800 
 32 H        3.4050     1.3500     2.2890 H     1 <1>   0.0800 
 33 H        4.1420     2.3880    -0.3830 H     1 <1>   0.4500 
 34 H        5.6430     3.0540     1.3820 H     1 <1>   0.0800 
 35 H        4.2740     3.7550     2.2150 H     1 <1>   0.0800 
 36 H        3.5630     5.9610     1.6630 H     1 <1>   0.1500 
 37 H        6.0890     3.8170    -1.0760 H     1 <1>   0.1500 
 38 H        3.7590     7.9650     0.2420 H     1 <1>   0.1500 
 39 H        6.2570     5.8400    -2.4710 H     1 <1>   0.1500 
@<TRIPOS>BOND
  1   1   2  2   
  2   1   3  2   
  3   1   4  am  
  4   1   5  1   
  5   4   6  1   
  6   4   7  1   
  7   5   8  1   
  8   5  20  1   
  9   5  21  1   
 10   6   9  1   
 11   6  22  1   
 12   6  23  1   
 13   7  10  1   
 14   7  24  1   
 15   7  25  1   
 16   8  26  1   
 17   8  27  1   
 18   8  28  1   
 19   9  11  1   
 20   9  29  1   
 21   9  30  1   
 22  10  11  1   
 23  10  31  1   
 24  10  32  1   
 25  11  12  1   
 26  11  33  1   
 27  12  13  1   
 28  12  34  1   
 29  12  35  1   
 30  13  14  ar  
 31  13  15  ar  
 32  14  16  ar  
 33  14  36  1   
 34  15  17  ar  
 35  15  37  1   
 36  16  18  ar  
 37  16  38  1   
 38  17  18  ar  
 39  17  39  1   
 40  18  19  1   
@<TRIPOS>SUBSTRUCTURE
  1 ****   9 GROUP 4 **** **** 0

# MOE 2024.06 (io_trps.svl 2023.06)
