@<TRIPOS>MOLECULE
NONAME
36 35 1 0 0 
SMALL
USER_CHARGES


@<TRIPOS>ATOM
  1 F        0.1940    -0.7810    -0.2420 F     1 <1>  -0.3400 
  2 C        0.5650    -1.4960     0.8200 C.3   1 <1>   1.0200 
  3 F       -0.2590    -1.1200     1.7890 F     1 <1>  -0.3400 
  4 F        1.7420    -0.9940     1.1790 F     1 <1>  -0.3400 
  5 C        0.5840    -3.0580     0.5120 C.3   1 <1>   0.5700 
  6 N       -0.6580    -3.5450    -0.1580 N.am  1 <1>  -0.7300 
  7 N        1.4730    -3.5870    -0.6070 N.3   1 <1>  -0.9000 
  8 C        0.8570    -3.7390     1.9210 C.3   1 <1>   1.0200 
  9 C       -1.9440    -3.3550     0.1780 C.2   1 <1>   0.7800 
 10 C        2.8210    -3.1520    -0.9780 C.3   1 <1>   0.1900 
 11 F        1.9520    -3.3080     2.5380 F     1 <1>  -0.3400 
 12 F       -0.1110    -3.6300     2.8200 F     1 <1>  -0.3400 
 13 F        1.0470    -5.0520     1.7790 F     1 <1>  -0.3400 
 14 O       -2.2920    -2.9160     1.2480 O.2   1 <1>  -0.5700 
 15 O       -2.8330    -3.6780    -0.7510 O.3   1 <1>  -0.4300 
 16 C        3.8340    -3.2600     0.1700 C.3   1 <1>  -0.1600 
 17 C        2.7950    -1.7990    -1.6860 C.3   1 <1>  -0.2400 
 18 C       -4.2130    -3.5160    -0.5120 C.3   1 <1>   0.1200 
 19 C        5.2850    -3.1940    -0.3230 C.3   1 <1>  -0.2400 
 20 C       -4.9660    -3.9660    -1.7600 C.3   1 <1>  -0.2400 
 21 H       -0.4730    -3.7730    -1.1330 H     1 <1>   0.3700 
 22 H        1.5120    -4.6070    -0.4710 H     1 <1>   0.3600 
 23 H        3.1450    -3.8570    -1.7280 H     1 <1>   0.0800 
 24 H        3.7010    -4.2010     0.6740 H     1 <1>   0.0800 
 25 H        3.6930    -2.4660     0.8780 H     1 <1>   0.0800 
 26 H        2.7790    -0.9770    -0.9990 H     1 <1>   0.0800 
 27 H        1.9480    -1.7360    -2.3460 H     1 <1>   0.0800 
 28 H        3.6830    -1.6920    -2.2820 H     1 <1>   0.0800 
 29 H       -4.4030    -2.4760    -0.3010 H     1 <1>   0.0800 
 30 H       -4.4850    -4.1140     0.3410 H     1 <1>   0.0800 
 31 H        5.4780    -3.9690    -1.0430 H     1 <1>   0.0800 
 32 H        5.9580    -3.3260     0.5060 H     1 <1>   0.0800 
 33 H        5.4940    -2.2390    -0.7740 H     1 <1>   0.0800 
 34 H       -4.6770    -3.3670    -2.6040 H     1 <1>   0.0800 
 35 H       -6.0230    -3.8530    -1.6060 H     1 <1>   0.0800 
 36 H       -4.7580    -5.0010    -1.9650 H     1 <1>   0.0800 
@<TRIPOS>BOND
  1   1   2  1   
  2   2   3  1   
  3   2   4  1   
  4   2   5  1   
  5   5   6  1   
  6   5   7  1   
  7   5   8  1   
  8   6   9  am  
  9   6  21  1   
 10   7  10  1   
 11   7  22  1   
 12   8  11  1   
 13   8  12  1   
 14   8  13  1   
 15   9  14  2   
 16   9  15  1   
 17  10  16  1   
 18  10  17  1   
 19  10  23  1   
 20  15  18  1   
 21  16  19  1   
 22  16  24  1   
 23  16  25  1   
 24  17  26  1   
 25  17  27  1   
 26  17  28  1   
 27  18  20  1   
 28  18  29  1   
 29  18  30  1   
 30  19  31  1   
 31  19  32  1   
 32  19  33  1   
 33  20  34  1   
 34  20  35  1   
 35  20  36  1   
@<TRIPOS>SUBSTRUCTURE
  1 ****   5 GROUP 4 **** **** 0

# MOE 2024.06 (io_trps.svl 2023.06)
