@<TRIPOS>MOLECULE
NONAME
54 57 1 0 0 
SMALL
USER_CHARGES


@<TRIPOS>ATOM
  1 O        0.0170    -0.1000    -0.3010 O.2   1 <1>  -0.5700 
  2 C        0.1950    -1.2750    -0.5520 C.2   1 <1>   0.6160 
  3 N       -0.8760    -2.0630    -0.8570 N.am  1 <1>  -0.7300 
  4 C        1.5120    -1.8450    -0.5350 C.2   1 <1>  -0.1360 
  5 C       -2.2860    -1.6160    -0.8960 C.3   1 <1>   0.1400 
  6 C        2.6730    -1.2040    -0.2570 C.2   1 <1>  -0.1780 
  7 C       -3.1260    -2.5510    -0.0180 C.3   1 <1>  -0.1600 
  8 C        4.0160    -1.7260    -0.2260 C.ar  1 <1>   0.0280 
  9 C       -4.6340    -2.2160     0.0460 C.3   1 <1>   0.0000 
 10 C        4.3240    -3.0540    -0.5300 C.ar  1 <1>  -0.1500 
 11 C        5.0770    -0.8890     0.1190 C.ar  1 <1>  -0.1500 
 12 C       -4.8820    -0.8050     0.6310 C.3   1 <1>  -0.1600 
 13 C       -5.3250    -3.2500     0.9670 C.3   1 <1>  -0.1600 
 14 C       -5.2980    -2.2930    -1.3510 C.3   1 <1>  -0.1600 
 15 C        5.6250    -3.5180    -0.4890 C.ar  1 <1>  -0.1500 
 16 C        6.3810    -1.3450     0.1620 C.ar  1 <1>  -0.1500 
 17 C       -6.3920    -0.5150     0.7370 C.3   1 <1>  -0.0800 
 18 C       -6.8360    -2.9730     1.0760 C.3   1 <1>  -0.0800 
 19 C       -6.8100    -2.0100    -1.2530 C.3   1 <1>  -0.0800 
 20 C        6.6650    -2.6720    -0.1430 C.ar  1 <1>   0.0830 
 21 C       -7.0490    -1.5630     1.6540 C.3   1 <1>  -0.1600 
 22 C       -7.0230    -0.6020    -0.6650 C.3   1 <1>  -0.1600 
 23 C       -7.4640    -3.0500    -0.3270 C.3   1 <1>  -0.1600 
 24 O        7.9100    -3.2030    -0.1260 O.3   1 <1>  -0.3620 
 25 C        9.0400    -2.4290     0.2110 C.3   1 <1>   0.0400 
 26 H       -0.7230    -3.0450    -1.0810 H     1 <1>   0.3700 
 27 H        1.5220    -2.8880    -0.7730 H     1 <1>   0.1500 
 28 H       -2.3560    -0.6030    -0.5370 H     1 <1>   0.0800 
 29 H       -2.6280    -1.6410    -1.9150 H     1 <1>   0.0800 
 30 H        2.6110    -0.1550    -0.0210 H     1 <1>   0.1500 
 31 H       -3.0140    -3.5550    -0.3850 H     1 <1>   0.0800 
 32 H       -2.7260    -2.5170     0.9800 H     1 <1>   0.0800 
 33 H        3.5450    -3.7390    -0.8030 H     1 <1>   0.1500 
 34 H        4.8750     0.1400     0.3590 H     1 <1>   0.1500 
 35 H       -4.4330    -0.7290     1.6060 H     1 <1>   0.0800 
 36 H       -4.4340    -0.0540     0.0070 H     1 <1>   0.0800 
 37 H       -5.1750    -4.2430     0.5820 H     1 <1>   0.0800 
 38 H       -4.8880    -3.2130     1.9500 H     1 <1>   0.0800 
 39 H       -4.8590    -1.5710    -2.0150 H     1 <1>   0.0800 
 40 H       -5.1440    -3.2690    -1.7770 H     1 <1>   0.0800 
 41 H        5.8470    -4.5430    -0.7250 H     1 <1>   0.1500 
 42 H        7.1600    -0.6590     0.4340 H     1 <1>   0.1500 
 43 H       -6.5450     0.4700     1.1440 H     1 <1>   0.0800 
 44 H       -7.2940    -3.7030     1.7210 H     1 <1>   0.0800 
 45 H       -7.2540    -2.0650    -2.2320 H     1 <1>   0.0800 
 46 H       -6.6210    -1.5040     2.6400 H     1 <1>   0.0800 
 47 H       -8.1020    -1.3600     1.7430 H     1 <1>   0.0800 
 48 H       -6.5790     0.1350    -1.3110 H     1 <1>   0.0800 
 49 H       -8.0760    -0.3900    -0.6030 H     1 <1>   0.0800 
 50 H       -8.5220    -2.8660    -0.2620 H     1 <1>   0.0800 
 51 H       -7.3290    -4.0370    -0.7340 H     1 <1>   0.0800 
 52 H        9.9060    -3.0630     0.1550 H     1 <1>   0.0800 
 53 H        8.9220    -2.0580     1.2140 H     1 <1>   0.0800 
 54 H        9.1320    -1.6210    -0.4920 H     1 <1>   0.0800 
@<TRIPOS>BOND
  1   1   2  2   
  2   2   3  am  
  3   2   4  1   
  4   3   5  1   
  5   3  26  1   
  6   4   6  2   
  7   4  27  1   
  8   5   7  1   
  9   5  28  1   
 10   5  29  1   
 11   6   8  1   
 12   6  30  1   
 13   7   9  1   
 14   7  31  1   
 15   7  32  1   
 16   8  10  ar  
 17   8  11  ar  
 18   9  12  1   
 19   9  13  1   
 20   9  14  1   
 21  10  15  ar  
 22  10  33  1   
 23  11  16  ar  
 24  11  34  1   
 25  12  17  1   
 26  12  35  1   
 27  12  36  1   
 28  13  18  1   
 29  13  37  1   
 30  13  38  1   
 31  14  19  1   
 32  14  39  1   
 33  14  40  1   
 34  15  20  ar  
 35  15  41  1   
 36  16  20  ar  
 37  16  42  1   
 38  17  21  1   
 39  17  22  1   
 40  17  43  1   
 41  18  21  1   
 42  18  23  1   
 43  18  44  1   
 44  19  22  1   
 45  19  23  1   
 46  19  45  1   
 47  20  24  1   
 48  21  46  1   
 49  21  47  1   
 50  22  48  1   
 51  22  49  1   
 52  23  50  1   
 53  23  51  1   
 54  24  25  1   
 55  25  52  1   
 56  25  53  1   
 57  25  54  1   
@<TRIPOS>SUBSTRUCTURE
  1 ****   3 GROUP 4 **** **** 0

# MOE 2024.06 (io_trps.svl 2023.06)
