@<TRIPOS>MOLECULE
NONAME
45 46 1 0 0 
SMALL
USER_CHARGES


@<TRIPOS>ATOM
  1 O       -0.2410    -3.8690    -0.8420 O.2   1 <1>  -0.5700 
  2 C        0.0480    -2.8760    -0.2270 C.2   1 <1>   0.6590 
  3 O       -0.6210    -1.7400    -0.3510 O.3   1 <1>  -0.4300 
  4 C        1.2290    -2.8400     0.7410 C.3   1 <1>  -0.0190 
  5 C       -1.7280    -1.6300    -1.2160 C.3   1 <1>   0.1200 
  6 C        2.4620    -2.2050     0.0730 C.3   1 <1>  -0.1600 
  7 C        1.5880    -4.2380     1.2860 C.3   1 <1>  -0.1600 
  8 C       -2.2560    -0.2010    -1.1300 C.3   1 <1>  -0.2400 
  9 C        3.6780    -2.2060     0.9970 C.3   1 <1>   0.3430 
 10 C        2.8160    -4.2020     2.1920 C.3   1 <1>   0.3430 
 11 N        3.9600    -3.6000     1.4530 N.4   1 <1>  -0.9590 
 12 C        5.2210    -3.6770     2.2420 C.3   1 <1>   0.4860 
 13 C        6.3740    -3.2560     1.3530 C.ar  1 <1>  -0.1440 
 14 C        6.7360    -4.0430     0.2690 C.ar  1 <1>  -0.1500 
 15 C        7.0720    -2.0850     1.6040 C.ar  1 <1>  -0.1500 
 16 C        7.7660    -3.6750    -0.5800 C.ar  1 <1>   0.0820 
 17 C        8.1090    -1.7020     0.7700 C.ar  1 <1>  -0.1500 
 18 O        7.9810    -4.5530    -1.6010 O.3   1 <1>  -0.3620 
 19 C        8.4610    -2.4810    -0.3220 C.ar  1 <1>   0.0820 
 20 C        9.0840    -4.4620    -2.4760 C.3   1 <1>   0.0400 
 21 O        9.4720    -2.0280    -1.0920 O.3   1 <1>  -0.5330 
 22 H        0.9330    -2.2220     1.5710 H     1 <1>   0.0800 
 23 H       -2.4780    -2.3380    -0.9050 H     1 <1>   0.0800 
 24 H       -1.4060    -1.8630    -2.2180 H     1 <1>   0.0800 
 25 H        2.2350    -1.1890    -0.2020 H     1 <1>   0.0800 
 26 H        2.7030    -2.7350    -0.8340 H     1 <1>   0.0800 
 27 H        1.7720    -4.9180     0.4710 H     1 <1>   0.0800 
 28 H        0.7520    -4.6290     1.8410 H     1 <1>   0.0800 
 29 H       -2.5660     0.0210    -0.1240 H     1 <1>   0.0800 
 30 H       -3.1040    -0.0900    -1.7810 H     1 <1>   0.0800 
 31 H       -1.4970     0.4960    -1.4360 H     1 <1>   0.0800 
 32 H        3.4880    -1.5720     1.8480 H     1 <1>   0.0800 
 33 H        4.5290    -1.8110     0.4620 H     1 <1>   0.0800 
 34 H        3.0610    -5.2070     2.5010 H     1 <1>   0.0800 
 35 H        2.5990    -3.6190     3.0720 H     1 <1>   0.0800 
 36 H        4.1210    -4.1550     0.6030 H     1 <1>   0.4500 
 37 H        5.3870    -4.6870     2.5800 H     1 <1>   0.0800 
 38 H        5.1640    -3.0320     3.1040 H     1 <1>   0.0800 
 39 H        6.2290    -4.9670     0.0570 H     1 <1>   0.1500 
 40 H        6.8230    -1.4590     2.4450 H     1 <1>   0.1500 
 41 H        8.6430    -0.7920     0.9780 H     1 <1>   0.1500 
 42 H        9.0730    -5.3210    -3.1210 H     1 <1>   0.0800 
 43 H        9.9900    -4.4490    -1.8970 H     1 <1>   0.0800 
 44 H        8.9910    -3.5650    -3.0620 H     1 <1>   0.0800 
 45 H        9.8630    -1.1960    -0.7700 H     1 <1>   0.4500 
@<TRIPOS>BOND
  1   1   2  2   
  2   2   3  1   
  3   2   4  1   
  4   3   5  1   
  5   4   6  1   
  6   4   7  1   
  7   4  22  1   
  8   5   8  1   
  9   5  23  1   
 10   5  24  1   
 11   6   9  1   
 12   6  25  1   
 13   6  26  1   
 14   7  10  1   
 15   7  27  1   
 16   7  28  1   
 17   8  29  1   
 18   8  30  1   
 19   8  31  1   
 20   9  11  1   
 21   9  32  1   
 22   9  33  1   
 23  10  11  1   
 24  10  34  1   
 25  10  35  1   
 26  11  12  1   
 27  11  36  1   
 28  12  13  1   
 29  12  37  1   
 30  12  38  1   
 31  13  14  ar  
 32  13  15  ar  
 33  14  16  ar  
 34  14  39  1   
 35  15  17  ar  
 36  15  40  1   
 37  16  18  1   
 38  16  19  ar  
 39  17  19  ar  
 40  17  41  1   
 41  18  20  1   
 42  19  21  1   
 43  20  42  1   
 44  20  43  1   
 45  20  44  1   
 46  21  45  1   
@<TRIPOS>SUBSTRUCTURE
  1 ****   9 GROUP 4 **** **** 0

# MOE 2024.06 (io_trps.svl 2023.06)
