@<TRIPOS>MOLECULE
NONAME
43 45 1 0 0 
SMALL
USER_CHARGES


@<TRIPOS>ATOM
  1 S       -3.3250     4.2690    -1.6390 S.3   1 <1>  -0.0800 
  2 C       -3.3580     2.7390    -0.7510 C.2   1 <1>  -0.0450 
  3 C       -1.6900     4.6180    -1.1270 C.2   1 <1>  -0.1100 
  4 C       -4.5560     1.9430    -0.8020 C.2   1 <1>   0.7150 
  5 C       -2.1630     2.5800    -0.1230 C.2   1 <1>  -0.1500 
  6 C       -1.2270     3.6340    -0.3360 C.2   1 <1>  -0.1500 
  7 O       -5.5380     2.3210    -1.4160 O.2   1 <1>  -0.5700 
  8 N       -4.6080     0.7390    -0.1460 N.am  1 <1>  -0.5470 
  9 C       -5.7300     0.0140     0.2750 C.ar  1 <1>   0.1170 
 10 C       -6.7680     0.5800     1.0410 C.ar  1 <1>   0.0860 
 11 C       -5.7880    -1.3350    -0.0590 C.ar  1 <1>  -0.1500 
 12 C       -6.7590     1.9770     1.4170 C.2   1 <1>   0.5440 
 13 C       -7.8120    -0.2480     1.4570 C.ar  1 <1>  -0.1500 
 14 C       -6.8390    -2.1300     0.3510 C.ar  1 <1>  -0.1500 
 15 O       -5.8150     2.4160     2.0480 O.2   1 <1>  -0.5700 
 16 N       -7.7600     2.8590     1.0440 N.am  1 <1>  -0.6600 
 17 C       -7.8550    -1.5850     1.1160 C.ar  1 <1>  -0.1500 
 18 C       -7.5470     4.3260     1.2050 C.3   1 <1>   0.1400 
 19 C       -8.7860     2.5570     0.0000 C.3   1 <1>   0.1400 
 20 C       -7.0190     4.8890    -0.1240 C.3   1 <1>   0.3430 
 21 C       -8.4110     3.1940    -1.3570 C.3   1 <1>   0.3430 
 22 N       -7.9730     4.6410    -1.2700 N.4   1 <1>  -0.9590 
 23 C       -7.3040     5.0240    -2.5480 C.3   1 <1>   0.2630 
 24 H       -1.2390     5.5320    -1.4730 H     1 <1>   0.1500 
 25 H       -1.8960     1.7470     0.5040 H     1 <1>   0.1500 
 26 H       -0.2480     3.6080     0.1130 H     1 <1>   0.1500 
 27 H       -3.7140     0.4150     0.2200 H     1 <1>   0.3700 
 28 H       -4.9990    -1.7680    -0.6490 H     1 <1>   0.1500 
 29 H       -8.5960     0.1680     2.0670 H     1 <1>   0.1500 
 30 H       -6.8690    -3.1730     0.0820 H     1 <1>   0.1500 
 31 H       -8.6710    -2.2060     1.4460 H     1 <1>   0.1500 
 32 H       -6.8370     4.5290     1.9890 H     1 <1>   0.0800 
 33 H       -8.4710     4.8040     1.4760 H     1 <1>   0.0800 
 34 H       -9.7380     2.9380     0.3240 H     1 <1>   0.0800 
 35 H       -8.8960     1.4970    -0.1380 H     1 <1>   0.0800 
 36 H       -6.0730     4.4150    -0.3320 H     1 <1>   0.0800 
 37 H       -6.8420     5.9460    -0.0170 H     1 <1>   0.0800 
 38 H       -9.2550     3.1130    -2.0230 H     1 <1>   0.0800 
 39 H       -7.6230     2.6060    -1.7900 H     1 <1>   0.0800 
 40 H       -8.8060     5.2240    -1.1230 H     1 <1>   0.4500 
 41 H       -6.4300     4.4110    -2.7040 H     1 <1>   0.0800 
 42 H       -6.9990     6.0580    -2.5190 H     1 <1>   0.0800 
 43 H       -7.9750     4.8850    -3.3810 H     1 <1>   0.0800 
@<TRIPOS>BOND
  1   1   2  1   
  2   1   3  1   
  3   2   4  1   
  4   2   5  2   
  5   3   6  2   
  6   3  24  1   
  7   4   7  2   
  8   4   8  am  
  9   5   6  1   
 10   5  25  1   
 11   6  26  1   
 12   8   9  1   
 13   8  27  1   
 14   9  10  ar  
 15   9  11  ar  
 16  10  12  1   
 17  10  13  ar  
 18  11  14  ar  
 19  11  28  1   
 20  12  15  2   
 21  12  16  am  
 22  13  17  ar  
 23  13  29  1   
 24  14  17  ar  
 25  14  30  1   
 26  16  18  1   
 27  16  19  1   
 28  17  31  1   
 29  18  20  1   
 30  18  32  1   
 31  18  33  1   
 32  19  21  1   
 33  19  34  1   
 34  19  35  1   
 35  20  22  1   
 36  20  36  1   
 37  20  37  1   
 38  21  22  1   
 39  21  38  1   
 40  21  39  1   
 41  22  23  1   
 42  22  40  1   
 43  23  41  1   
 44  23  42  1   
 45  23  43  1   
@<TRIPOS>SUBSTRUCTURE
  1 ****   7 GROUP 4 **** **** 0

# MOE 2024.06 (io_trps.svl 2023.06)
