@<TRIPOS>MOLECULE
NONAME
46 46 1 0 0 
SMALL
USER_CHARGES


@<TRIPOS>ATOM
  1 O        0.0190    -0.1640    -2.1610 O.2   1 <1>  -0.5700 
  2 C        0.5570    -1.0830    -1.5820 C.2   1 <1>   0.6900 
  3 N        1.8860    -1.0510    -1.4130 N.am  1 <1>  -0.7300 
  4 N       -0.1390    -2.1420    -1.1170 N.am  1 <1>  -0.7300 
  5 C        2.5920    -0.9630    -0.1300 C.3   1 <1>   0.4440 
  6 C       -1.6080    -2.2960    -1.1490 C.3   1 <1>   0.1400 
  7 C        3.6690     0.1230    -0.3060 C.ar  1 <1>  -0.1440 
  8 C        3.1550    -2.3590     0.1470 C.3   1 <1>  -0.2400 
  9 C        1.6610    -0.5530     1.0180 C.3   1 <1>  -0.2400 
 10 C       -2.1550    -2.5100     0.2720 C.3   1 <1>  -0.0800 
 11 C        5.0150    -0.0820    -0.0160 C.ar  1 <1>  -0.1500 
 12 C        3.2870     1.3780    -0.7700 C.ar  1 <1>  -0.1500 
 13 C       -1.5830    -3.7730     0.9360 C.3   1 <1>  -0.2400 
 14 C       -3.6860    -2.5980     0.2360 C.3   1 <1>  -0.2400 
 15 C        5.9740     0.9150    -0.1830 C.ar  1 <1>   0.0280 
 16 C        4.2180     2.3850    -0.9400 C.ar  1 <1>  -0.1500 
 17 C        7.3740     0.6940     0.1140 C.2   1 <1>  -0.1670 
 18 C        5.5470     2.1530    -0.6490 C.ar  1 <1>  -0.1500 
 19 C        8.1290     1.5370     0.8360 C.2   1 <1>  -0.3000 
 20 C        7.9900    -0.5730    -0.4620 C.3   1 <1>  -0.1020 
 21 H        2.3190    -0.3940    -2.0590 H     1 <1>   0.3700 
 22 H        0.3950    -2.9220    -0.7450 H     1 <1>   0.3700 
 23 H       -1.8600    -3.1350    -1.7740 H     1 <1>   0.0800 
 24 H       -2.0530    -1.4130    -1.5780 H     1 <1>   0.0800 
 25 H        3.6710    -2.3740     1.0900 H     1 <1>   0.0800 
 26 H        3.8400    -2.6460    -0.6310 H     1 <1>   0.0800 
 27 H        2.3620    -3.0810     0.1940 H     1 <1>   0.0800 
 28 H        2.2410    -0.3930     1.9090 H     1 <1>   0.0800 
 29 H        0.9370    -1.3170     1.2270 H     1 <1>   0.0800 
 30 H        1.1490     0.3630     0.7860 H     1 <1>   0.0800 
 31 H       -1.8870    -1.6500     0.8650 H     1 <1>   0.0800 
 32 H        5.3540    -1.0270     0.3590 H     1 <1>   0.1500 
 33 H        2.2540     1.5840    -1.0010 H     1 <1>   0.1500 
 34 H       -1.7960    -4.6430     0.3410 H     1 <1>   0.0800 
 35 H       -2.0190    -3.9100     1.9100 H     1 <1>   0.0800 
 36 H       -0.5180    -3.6900     1.0610 H     1 <1>   0.0800 
 37 H       -4.0050    -3.4440    -0.3480 H     1 <1>   0.0800 
 38 H       -4.1010    -1.7050    -0.1980 H     1 <1>   0.0800 
 39 H       -4.0780    -2.7010     1.2320 H     1 <1>   0.0800 
 40 H        3.9050     3.3500    -1.3000 H     1 <1>   0.1500 
 41 H        6.2680     2.9380    -0.7870 H     1 <1>   0.1500 
 42 H        9.1710     1.3840     1.0550 H     1 <1>   0.1500 
 43 H        7.7570     2.4480     1.2700 H     1 <1>   0.1500 
 44 H        7.5920    -1.4430     0.0270 H     1 <1>   0.0800 
 45 H        9.0570    -0.5720    -0.3320 H     1 <1>   0.0800 
 46 H        7.7770    -0.6350    -1.5150 H     1 <1>   0.0800 
@<TRIPOS>BOND
  1   1   2  2   
  2   2   3  am  
  3   2   4  am  
  4   3   5  1   
  5   3  21  1   
  6   4   6  1   
  7   4  22  1   
  8   5   7  1   
  9   5   8  1   
 10   5   9  1   
 11   6  10  1   
 12   6  23  1   
 13   6  24  1   
 14   7  11  ar  
 15   7  12  ar  
 16   8  25  1   
 17   8  26  1   
 18   8  27  1   
 19   9  28  1   
 20   9  29  1   
 21   9  30  1   
 22  10  13  1   
 23  10  14  1   
 24  10  31  1   
 25  11  15  ar  
 26  11  32  1   
 27  12  16  ar  
 28  12  33  1   
 29  13  34  1   
 30  13  35  1   
 31  13  36  1   
 32  14  37  1   
 33  14  38  1   
 34  14  39  1   
 35  15  17  1   
 36  15  18  ar  
 37  16  18  ar  
 38  16  40  1   
 39  17  19  2   
 40  17  20  1   
 41  18  41  1   
 42  19  42  1   
 43  19  43  1   
 44  20  44  1   
 45  20  45  1   
 46  20  46  1   
@<TRIPOS>SUBSTRUCTURE
  1 ****   5 GROUP 4 **** **** 0

# MOE 2024.06 (io_trps.svl 2023.06)
