@<TRIPOS>MOLECULE
NONAME
42 45 1 0 0 
SMALL
USER_CHARGES


@<TRIPOS>ATOM
  1 O        0.2760    -0.5430     1.4690 O.2   1 <1>  -0.5700 
  2 C        0.8140    -1.4880     0.9490 C.2   1 <1>   0.5690 
  3 N        2.1570    -1.6010     1.1020 N.am  1 <1>  -0.4930 
  4 C        0.0200    -2.5220     0.1500 C.3   1 <1>  -0.0990 
  5 C        3.0910    -2.5420     0.6530 C.2   1 <1>   0.3520 
  6 C       -1.5140    -2.3640    -0.0080 C.3   1 <1>   0.0000 
  7 N        2.8410    -3.5850    -0.0600 N.2   1 <1>  -0.4100 
  8 C        4.4560    -2.4600     0.9330 C.2   1 <1>  -0.1500 
  9 C       -1.8900    -1.0540    -0.7430 C.3   1 <1>  -0.1600 
 10 C       -2.2450    -2.4070     1.3570 C.3   1 <1>  -0.1600 
 11 C       -2.0330    -3.5500    -0.8590 C.3   1 <1>  -0.1600 
 12 O        3.9900    -4.1810    -0.2510 O.3   1 <1>  -0.0190 
 13 C        4.9700    -3.5380     0.3260 C.2   1 <1>  -0.0400 
 14 C       -3.4150    -0.9550    -0.9380 C.3   1 <1>  -0.0800 
 15 C       -3.7700    -2.3090     1.1640 C.3   1 <1>  -0.0800 
 16 C       -3.5580    -3.4670    -1.0630 C.3   1 <1>  -0.0800 
 17 C        6.3840    -4.0680     0.2210 C.3   1 <1>  -0.0600 
 18 C       -4.1040    -0.9910     0.4390 C.3   1 <1>  -0.1600 
 19 C       -3.8990    -2.1490    -1.7800 C.3   1 <1>  -0.1600 
 20 C       -4.2520    -3.4950     0.3100 C.3   1 <1>  -0.1600 
 21 H        2.5370    -0.8390     1.6570 H     1 <1>   0.3700 
 22 H        0.2070    -3.4780     0.6050 H     1 <1>   0.0800 
 23 H        0.4500    -2.5520    -0.8340 H     1 <1>   0.0800 
 24 H        4.9440    -1.6960     1.5060 H     1 <1>   0.1500 
 25 H       -1.4020    -1.0180    -1.7010 H     1 <1>   0.0800 
 26 H       -1.5610    -0.2000    -0.1800 H     1 <1>   0.0800 
 27 H       -2.0060    -3.3200     1.8730 H     1 <1>   0.0800 
 28 H       -1.9260    -1.5910     1.9800 H     1 <1>   0.0800 
 29 H       -1.7930    -4.4810    -0.3760 H     1 <1>   0.0800 
 30 H       -1.5490    -3.5510    -1.8200 H     1 <1>   0.0800 
 31 H       -3.6560    -0.0340    -1.4400 H     1 <1>   0.0800 
 32 H       -4.2580    -2.3290     2.1230 H     1 <1>   0.0800 
 33 H       -3.8920    -4.3010    -1.6570 H     1 <1>   0.0800 
 34 H        7.0650    -3.4250     0.7490 H     1 <1>   0.0800 
 35 H        6.6790    -4.1180    -0.8120 H     1 <1>   0.0800 
 36 H        6.4360    -5.0550     0.6460 H     1 <1>   0.0800 
 37 H       -5.1690    -0.9030     0.3160 H     1 <1>   0.0800 
 38 H       -3.7730    -0.1570     1.0330 H     1 <1>   0.0800 
 39 H       -4.9620    -2.0810    -1.9320 H     1 <1>   0.0800 
 40 H       -3.4280    -2.1270    -2.7470 H     1 <1>   0.0800 
 41 H       -5.3190    -3.4410     0.1800 H     1 <1>   0.0800 
 42 H       -4.0290    -4.4200     0.8130 H     1 <1>   0.0800 
@<TRIPOS>BOND
  1   1   2  2   
  2   2   3  am  
  3   2   4  1   
  4   3   5  1   
  5   3  21  1   
  6   4   6  1   
  7   4  22  1   
  8   4  23  1   
  9   5   7  2   
 10   5   8  1   
 11   6   9  1   
 12   6  10  1   
 13   6  11  1   
 14   7  12  1   
 15   8  13  2   
 16   8  24  1   
 17   9  14  1   
 18   9  25  1   
 19   9  26  1   
 20  10  15  1   
 21  10  27  1   
 22  10  28  1   
 23  11  16  1   
 24  11  29  1   
 25  11  30  1   
 26  12  13  1   
 27  13  17  1   
 28  14  18  1   
 29  14  19  1   
 30  14  31  1   
 31  15  18  1   
 32  15  20  1   
 33  15  32  1   
 34  16  19  1   
 35  16  20  1   
 36  16  33  1   
 37  17  34  1   
 38  17  35  1   
 39  17  36  1   
 40  18  37  1   
 41  18  38  1   
 42  19  39  1   
 43  19  40  1   
 44  20  41  1   
 45  20  42  1   
@<TRIPOS>SUBSTRUCTURE
  1 ****   4 GROUP 4 **** **** 0

# MOE 2024.06 (io_trps.svl 2023.06)
