@<TRIPOS>MOLECULE
NONAME
46 47 1 0 0 
SMALL
USER_CHARGES


@<TRIPOS>ATOM
  1 O        2.3330    -1.5460     0.8650 O.2   1 <1>  -0.5700 
  2 C        1.3980    -1.4530     0.1010 C.2   1 <1>   0.5690 
  3 N        1.3680    -0.5060    -0.8830 N.am  1 <1>  -0.7300 
  4 C        0.1850    -2.4150     0.2220 C.3   1 <1>   0.2040 
  5 C        2.3550     0.5410    -1.1980 C.3   1 <1>   0.2200 
  6 C       -1.0860    -1.6890    -0.2760 C.ar  1 <1>  -0.1440 
  7 C       -0.0130    -2.9310     1.6640 C.3   1 <1>  -0.1600 
  8 C        0.4810    -3.7280    -0.5270 C.3   1 <1>  -0.1600 
  9 C        3.6970    -0.0870    -1.5640 C.3   1 <1>  -0.2400 
 10 C        2.4720     1.5130    -0.0260 C.3   1 <1>  -0.2400 
 11 C       -1.6430    -0.6900     0.5150 C.ar  1 <1>  -0.1500 
 12 C       -1.6770    -1.9620    -1.5040 C.ar  1 <1>  -0.1500 
 13 C        0.8850    -4.1650     1.8320 C.3   1 <1>  -0.1600 
 14 C        1.3300    -4.5690     0.4250 C.3   1 <1>  -0.1600 
 15 C       -2.7710     0.0160     0.1070 C.ar  1 <1>   0.0830 
 16 C       -2.8000    -1.2710    -1.9230 C.ar  1 <1>  -0.1500 
 17 O       -3.3320     1.0020     0.8660 O.3   1 <1>  -0.3630 
 18 C       -3.3590    -0.2800    -1.1240 C.ar  1 <1>   0.0830 
 19 C       -2.8020     1.3730     2.1190 C.3   1 <1>   0.0400 
 20 O       -4.4660     0.4260    -1.4970 O.3   1 <1>  -0.3630 
 21 C       -5.1790     0.1240    -2.6740 C.3   1 <1>   0.0400 
 22 H        0.4890    -0.4190    -1.3990 H     1 <1>   0.3700 
 23 H        1.9950     1.0870    -2.0550 H     1 <1>   0.0800 
 24 H       -1.0380    -3.2330     1.7940 H     1 <1>   0.0800 
 25 H        0.2200    -2.1770     2.3950 H     1 <1>   0.0800 
 26 H        0.9810    -3.5580    -1.4640 H     1 <1>   0.0800 
 27 H       -0.4380    -4.2590    -0.7030 H     1 <1>   0.0800 
 28 H        4.1250    -0.5960    -0.7190 H     1 <1>   0.0800 
 29 H        4.3840     0.6770    -1.8790 H     1 <1>   0.0800 
 30 H        3.5710    -0.7860    -2.3710 H     1 <1>   0.0800 
 31 H        2.8670     1.0160     0.8410 H     1 <1>   0.0800 
 32 H        1.5080     1.9250     0.2100 H     1 <1>   0.0800 
 33 H        3.1340     2.3190    -0.2850 H     1 <1>   0.0800 
 34 H       -1.1780    -0.4630     1.4540 H     1 <1>   0.1500 
 35 H       -1.2750    -2.7110    -2.1620 H     1 <1>   0.1500 
 36 H        0.3420    -4.9620     2.3100 H     1 <1>   0.0800 
 37 H        1.7470    -3.9220     2.4300 H     1 <1>   0.0800 
 38 H        2.3700    -4.3160     0.2970 H     1 <1>   0.0800 
 39 H        1.2020    -5.6230     0.2500 H     1 <1>   0.0800 
 40 H       -3.2230    -1.5190    -2.8770 H     1 <1>   0.1500 
 41 H       -3.4110     2.1640     2.5150 H     1 <1>   0.0800 
 42 H       -1.7940     1.7220     1.9820 H     1 <1>   0.0800 
 43 H       -2.8330     0.5230     2.7760 H     1 <1>   0.0800 
 44 H       -6.0280     0.7810    -2.7260 H     1 <1>   0.0800 
 45 H       -5.5100    -0.8980    -2.6280 H     1 <1>   0.0800 
 46 H       -4.5380     0.2870    -3.5220 H     1 <1>   0.0800 
@<TRIPOS>BOND
  1   1   2  2   
  2   2   3  am  
  3   2   4  1   
  4   3   5  1   
  5   3  22  1   
  6   4   6  1   
  7   4   7  1   
  8   4   8  1   
  9   5   9  1   
 10   5  10  1   
 11   5  23  1   
 12   6  11  ar  
 13   6  12  ar  
 14   7  13  1   
 15   7  24  1   
 16   7  25  1   
 17   8  14  1   
 18   8  26  1   
 19   8  27  1   
 20   9  28  1   
 21   9  29  1   
 22   9  30  1   
 23  10  31  1   
 24  10  32  1   
 25  10  33  1   
 26  11  15  ar  
 27  11  34  1   
 28  12  16  ar  
 29  12  35  1   
 30  13  14  1   
 31  13  36  1   
 32  13  37  1   
 33  14  38  1   
 34  14  39  1   
 35  15  17  1   
 36  15  18  ar  
 37  16  18  ar  
 38  16  40  1   
 39  17  19  1   
 40  18  20  1   
 41  19  41  1   
 42  19  42  1   
 43  19  43  1   
 44  20  21  1   
 45  21  44  1   
 46  21  45  1   
 47  21  46  1   
@<TRIPOS>SUBSTRUCTURE
  1 ****   6 GROUP 4 **** **** 0

# MOE 2024.06 (io_trps.svl 2023.06)
