@<TRIPOS>MOLECULE
NONAME
47 49 1 0 0 
SMALL
USER_CHARGES


@<TRIPOS>ATOM
  1 S        0.8020     0.3370    -0.3020 S.o2  1 <1>   1.4970 
  2 O        0.8070     1.7060     0.1720 O.2   1 <1>  -0.6500 
  3 O        1.5380     0.0050    -1.5050 O.2   1 <1>  -0.6500 
  4 N        1.3570    -0.6420     0.9320 N.2   1 <1>  -0.6380 
  5 C       -0.9200    -0.2090    -0.4960 C.ar  1 <1>  -0.0090 
  6 C        2.5640    -0.4970     1.3150 C.2   1 <1>   0.4860 
  7 C       -1.9120     0.2300     0.3680 C.ar  1 <1>  -0.1500 
  8 C       -1.2890    -1.0980    -1.5000 C.ar  1 <1>  -0.1500 
  9 N        2.9510    -1.3340     2.3390 N.pl3 1 <1>  -0.5500 
 10 C        3.5890     0.4030     0.8470 C.2   1 <1>  -0.1360 
 11 C       -3.2410    -0.1720     0.2580 C.ar  1 <1>   0.0860 
 12 C       -2.5970    -1.5220    -1.6370 C.ar  1 <1>  -0.1500 
 13 C        4.2150    -1.3370     2.8940 C.2   1 <1>  -0.0500 
 14 C        4.8380     0.4140     1.3810 C.2   1 <1>  -0.1500 
 15 C       -3.5800    -1.0650    -0.7640 C.ar  1 <1>   0.0830 
 16 C       -4.2140     0.3300     1.2040 C.2   1 <1>   0.5440 
 17 C        5.1590    -0.4810     2.4340 C.2   1 <1>  -0.1500 
 18 O       -4.8730    -1.4520    -0.8660 O.3   1 <1>  -0.3630 
 19 O       -4.1960    -0.1020     2.3420 O.2   1 <1>  -0.5700 
 20 N       -5.1150     1.3250     0.8760 N.am  1 <1>  -0.6600 
 21 C       -5.3090    -2.4440    -1.7670 C.3   1 <1>   0.0400 
 22 C       -6.0730     1.8380     1.9020 C.3   1 <1>   0.1400 
 23 C       -5.2070     1.9130    -0.4950 C.3   1 <1>   0.1400 
 24 C       -6.5050     3.2720     1.5770 C.3   1 <1>  -0.1600 
 25 C       -6.6470     2.3360    -0.8000 C.3   1 <1>  -0.1600 
 26 C       -7.1740     3.3820     0.1970 C.3   1 <1>  -0.1600 
 27 H       -1.6530     0.9090     1.1650 H     1 <1>   0.1500 
 28 H       -0.5390    -1.4620    -2.1840 H     1 <1>   0.1500 
 29 H        2.2170    -1.9620     2.6710 H     1 <1>   0.4000 
 30 H        3.3570     1.0840     0.0510 H     1 <1>   0.1500 
 31 H       -2.8310    -2.2080    -2.4290 H     1 <1>   0.1500 
 32 H        4.4100    -2.0350     3.6930 H     1 <1>   0.1500 
 33 H        5.6020     1.0870     1.0290 H     1 <1>   0.1500 
 34 H        6.1540    -0.4570     2.8440 H     1 <1>   0.1500 
 35 H       -6.3600    -2.6020    -1.6060 H     1 <1>   0.0800 
 36 H       -4.7700    -3.3550    -1.5710 H     1 <1>   0.0800 
 37 H       -5.1410    -2.1030    -2.7730 H     1 <1>   0.0800 
 38 H       -5.6120     1.8170     2.8750 H     1 <1>   0.0800 
 39 H       -6.9340     1.1910     1.9260 H     1 <1>   0.0800 
 40 H       -4.8910     1.1990    -1.2330 H     1 <1>   0.0800 
 41 H       -4.5570     2.7700    -0.5510 H     1 <1>   0.0800 
 42 H       -5.6290     3.8970     1.6070 H     1 <1>   0.0800 
 43 H       -7.1790     3.6260     2.3360 H     1 <1>   0.0800 
 44 H       -7.2660     1.4560    -0.7610 H     1 <1>   0.0800 
 45 H       -6.7050     2.7270    -1.8000 H     1 <1>   0.0800 
 46 H       -7.0030     4.3720    -0.1900 H     1 <1>   0.0800 
 47 H       -8.2380     3.2520     0.2990 H     1 <1>   0.0800 
@<TRIPOS>BOND
  1   1   2  2   
  2   1   3  2   
  3   1   4  1   
  4   1   5  1   
  5   4   6  2   
  6   5   7  ar  
  7   5   8  ar  
  8   6   9  1   
  9   6  10  1   
 10   7  11  ar  
 11   7  27  1   
 12   8  12  ar  
 13   8  28  1   
 14   9  13  1   
 15   9  29  1   
 16  10  14  2   
 17  10  30  1   
 18  11  15  ar  
 19  11  16  1   
 20  12  15  ar  
 21  12  31  1   
 22  13  17  2   
 23  13  32  1   
 24  14  17  1   
 25  14  33  1   
 26  15  18  1   
 27  16  19  2   
 28  16  20  am  
 29  17  34  1   
 30  18  21  1   
 31  20  22  1   
 32  20  23  1   
 33  21  35  1   
 34  21  36  1   
 35  21  37  1   
 36  22  24  1   
 37  22  38  1   
 38  22  39  1   
 39  23  25  1   
 40  23  40  1   
 41  23  41  1   
 42  24  26  1   
 43  24  42  1   
 44  24  43  1   
 45  25  26  1   
 46  25  44  1   
 47  25  45  1   
 48  26  46  1   
 49  26  47  1   
@<TRIPOS>SUBSTRUCTURE
  1 ****   7 GROUP 4 **** **** 0

# MOE 2024.06 (io_trps.svl 2023.06)
