@<TRIPOS>MOLECULE
NONAME
33 35 1 0 0 
SMALL
USER_CHARGES


@<TRIPOS>ATOM
  1 CL      -0.2730     0.5460    -0.2900 Cl    1 <1>  -0.2590 
  2 C        0.8940     1.0030     0.9450 C.3   1 <1>   0.9420 
  3 CL       0.3150     0.3080     2.4500 Cl    1 <1>  -0.2590 
  4 CL       0.8210     2.7540     1.1060 Cl    1 <1>  -0.2590 
  5 C        2.3010     0.4420     0.5870 C.2   1 <1>   0.4650 
  6 N        3.3380     1.1610     0.6680 N.2   1 <1>  -0.7520 
  7 N        2.3580    -0.8940     0.1930 N.pl3 1 <1>  -0.4760 
  8 P        4.7840     0.5180     0.2260 P.3   1 <1>   1.1820 
  9 C        3.5130    -1.6370     0.0140 C.2   1 <1>   0.4410 
 10 O        5.2240     1.1360    -1.1600 O.3   1 <1>  -0.5290 
 11 O        5.9190     0.9120     1.2510 O.3   1 <1>  -0.5290 
 12 N        4.6620    -1.1160     0.0860 N.2   1 <1>  -0.7520 
 13 C        3.3610    -3.0600    -0.2220 C.ar  1 <1>   0.1230 
 14 C        5.9540     2.3120    -1.0980 C.3   1 <1>   0.1560 
 15 C        7.2040     0.9750     0.7400 C.3   1 <1>   0.1560 
 16 C        2.5520    -3.5540    -1.2460 C.ar  1 <1>  -0.1150 
 17 C        4.0380    -3.9830     0.5730 C.ar  1 <1>  -0.1150 
 18 C        7.2810     2.0650    -0.3500 C.3   1 <1>  -0.1260 
 19 C        2.4090    -4.9160    -1.4510 C.ar  1 <1>  -0.1150 
 20 C        3.8990    -5.3450     0.3730 C.ar  1 <1>  -0.1150 
 21 C        3.0800    -5.8140    -0.6390 C.ar  1 <1>  -0.1150 
 22 H        1.4820    -1.4190     0.1560 H     1 <1>   0.4270 
 23 H        5.3540     3.0460    -0.5810 H     1 <1>   0.1170 
 24 H        6.1300     2.6550    -2.1040 H     1 <1>   0.1170 
 25 H        7.4440     0.0050     0.3290 H     1 <1>   0.1170 
 26 H        7.8810     1.1830     1.5510 H     1 <1>   0.1170 
 27 H        2.0420    -2.8700    -1.9030 H     1 <1>   0.1850 
 28 H        4.6870    -3.6200     1.3540 H     1 <1>   0.1850 
 29 H        7.6000     2.9900     0.0980 H     1 <1>   0.1170 
 30 H        8.0410     1.7900    -1.0590 H     1 <1>   0.1170 
 31 H        1.7800    -5.2830    -2.2470 H     1 <1>   0.1850 
 32 H        4.4320    -6.0420     1.0010 H     1 <1>   0.1850 
 33 H        2.9710    -6.8750    -0.7980 H     1 <1>   0.1850 
@<TRIPOS>BOND
  1   1   2  1   
  2   2   3  1   
  3   2   4  1   
  4   2   5  1   
  5   5   6  2   
  6   5   7  1   
  7   6   8  1   
  8   7   9  1   
  9   7  22  1   
 10   8  10  1   
 11   8  11  1   
 12   8  12  1   
 13   9  12  2   
 14   9  13  1   
 15  10  14  1   
 16  11  15  1   
 17  13  16  ar  
 18  13  17  ar  
 19  14  18  1   
 20  14  23  1   
 21  14  24  1   
 22  15  18  1   
 23  15  25  1   
 24  15  26  1   
 25  16  19  ar  
 26  16  27  1   
 27  17  20  ar  
 28  17  28  1   
 29  18  29  1   
 30  18  30  1   
 31  19  21  ar  
 32  19  31  1   
 33  20  21  ar  
 34  20  32  1   
 35  21  33  1   
@<TRIPOS>SUBSTRUCTURE
  1 ****   9 GROUP 4 **** **** 0

# MOE 2024.06 (io_trps.svl 2023.06)
