@<TRIPOS>MOLECULE
NONAME
41 44 1 0 0 
SMALL
USER_CHARGES


@<TRIPOS>ATOM
  1 S       -0.1170    -0.4930    -1.8110 S.3   1 <1>  -0.0800 
  2 C       -0.9360    -1.7460    -0.9360 C.2   1 <1>   0.4420 
  3 C       -1.5080     0.4980    -1.5430 C.2   1 <1>   0.2280 
  4 N       -2.0970    -1.3760    -0.5340 N.2   1 <1>  -0.3380 
  5 N       -0.2550    -2.9370    -0.7930 N.am  1 <1>  -0.4940 
  6 N       -2.4190    -0.0920    -0.8830 N.2   1 <1>  -0.3380 
  7 C       -0.6310    -4.0910    -0.1620 C.2   1 <1>   0.5690 
  8 O       -1.6970    -4.2070     0.3900 O.2   1 <1>  -0.5700 
  9 C        0.3680    -5.2690    -0.1770 C.3   1 <1>   0.0610 
 10 C       -0.1850    -6.5000     0.5890 C.3   1 <1>  -0.1600 
 11 C        1.7040    -4.8550     0.4930 C.3   1 <1>  -0.1600 
 12 C        0.6620    -5.7090    -1.6350 C.3   1 <1>  -0.1600 
 13 C        0.8120    -7.6750     0.5720 C.3   1 <1>   0.0000 
 14 C        2.7250    -6.0110     0.4710 C.3   1 <1>   0.0000 
 15 C        1.6720    -6.8700    -1.6640 C.3   1 <1>  -0.0800 
 16 C        2.1290    -7.2150     1.2270 C.3   1 <1>  -0.1600 
 17 C        1.0920    -8.0670    -0.8920 C.3   1 <1>  -0.1600 
 18 C        0.2320    -8.8710     1.3370 C.3   1 <1>  -0.2400 
 19 C        2.9830    -6.4210    -0.9930 C.3   1 <1>  -0.1600 
 20 C        4.0360    -5.5690     1.1330 C.3   1 <1>  -0.2400 
 21 H       -1.5030     1.4980    -1.9360 H     1 <1>   0.1500 
 22 H        0.6650    -2.9600    -1.2190 H     1 <1>   0.3700 
 23 H       -1.1150    -6.8100     0.1430 H     1 <1>   0.0800 
 24 H       -0.3980    -6.2220     1.6060 H     1 <1>   0.0800 
 25 H        1.5120    -4.5630     1.5110 H     1 <1>   0.0800 
 26 H        2.1280    -4.0060    -0.0130 H     1 <1>   0.0800 
 27 H        1.0600    -4.8890    -2.2050 H     1 <1>   0.0800 
 28 H       -0.2540    -6.0190    -2.1070 H     1 <1>   0.0800 
 29 H        1.8660    -7.1580    -2.6840 H     1 <1>   0.0800 
 30 H        1.9470    -6.9440     2.2530 H     1 <1>   0.0800 
 31 H        2.8350    -8.0270     1.2260 H     1 <1>   0.0800 
 32 H        0.1820    -8.3940    -1.3640 H     1 <1>   0.0800 
 33 H        1.7880    -8.8870    -0.9240 H     1 <1>   0.0800 
 34 H        0.0320    -8.6030     2.3590 H     1 <1>   0.0800 
 35 H        0.9230    -9.6950     1.3290 H     1 <1>   0.0800 
 36 H       -0.6890    -9.1950     0.8850 H     1 <1>   0.0800 
 37 H        3.6940    -7.2280    -1.0260 H     1 <1>   0.0800 
 38 H        3.4050    -5.5950    -1.5400 H     1 <1>   0.0800 
 39 H        3.8630    -5.2810     2.1550 H     1 <1>   0.0800 
 40 H        4.4610    -4.7310     0.6100 H     1 <1>   0.0800 
 41 H        4.7500    -6.3730     1.1240 H     1 <1>   0.0800 
@<TRIPOS>BOND
  1   1   2  1   
  2   1   3  1   
  3   2   4  2   
  4   2   5  1   
  5   3   6  2   
  6   3  21  1   
  7   4   6  1   
  8   5   7  am  
  9   5  22  1   
 10   7   8  2   
 11   7   9  1   
 12   9  10  1   
 13   9  11  1   
 14   9  12  1   
 15  10  13  1   
 16  10  23  1   
 17  10  24  1   
 18  11  14  1   
 19  11  25  1   
 20  11  26  1   
 21  12  15  1   
 22  12  27  1   
 23  12  28  1   
 24  13  16  1   
 25  13  17  1   
 26  13  18  1   
 27  14  16  1   
 28  14  19  1   
 29  14  20  1   
 30  15  17  1   
 31  15  19  1   
 32  15  29  1   
 33  16  30  1   
 34  16  31  1   
 35  17  32  1   
 36  17  33  1   
 37  18  34  1   
 38  18  35  1   
 39  18  36  1   
 40  19  37  1   
 41  19  38  1   
 42  20  39  1   
 43  20  40  1   
 44  20  41  1   
@<TRIPOS>SUBSTRUCTURE
  1 ****   9 GROUP 4 **** **** 0

# MOE 2024.06 (io_trps.svl 2023.06)
