@<TRIPOS>MOLECULE
NONAME
33 34 1 0 0 
SMALL
USER_CHARGES


@<TRIPOS>ATOM
  1 CL      -0.1480     0.5960    -0.4970 Cl    1 <1>  -0.1770 
  2 C        1.5530     0.3690    -0.1980 C.ar  1 <1>   0.1770 
  3 C        2.0810    -0.9080    -0.1980 C.ar  1 <1>  -0.1500 
  4 C        2.3550     1.4690     0.0400 C.ar  1 <1>  -0.1500 
  5 C        3.4330    -1.0800     0.0380 C.ar  1 <1>  -0.1500 
  6 C        3.7070     1.2850     0.2750 C.ar  1 <1>  -0.1500 
  7 C        4.2790     0.0080     0.2690 C.ar  1 <1>   0.0860 
  8 C        5.6940    -0.2020     0.5010 C.2   1 <1>   0.4690 
  9 O        6.0090    -1.0400     1.3270 O.2   1 <1>  -0.5700 
 10 C        6.6510     0.5800    -0.2250 C.2   1 <1>  -0.1360 
 11 C        8.0070     0.5790    -0.3520 C.2   1 <1>  -0.0500 
 12 N        8.9710    -0.2700     0.1450 N.pl3 1 <1>  -0.8380 
 13 C       10.3480     0.2240     0.4150 C.3   1 <1>   0.2090 
 14 C        8.7310    -1.7030     0.4810 C.3   1 <1>   0.2090 
 15 C       11.3810    -0.6610    -0.2870 C.3   1 <1>  -0.1600 
 16 C        9.7890    -2.5960    -0.1780 C.3   1 <1>  -0.1600 
 17 C       11.2200    -2.1310     0.1190 C.3   1 <1>  -0.1600 
 18 H        1.4380    -1.7520    -0.3770 H     1 <1>   0.1500 
 19 H        1.9200     2.4520     0.0430 H     1 <1>   0.1500 
 20 H        3.8530    -2.0730     0.0470 H     1 <1>   0.1500 
 21 H        4.3250     2.1420     0.4740 H     1 <1>   0.1500 
 22 H        6.1710     1.3540    -0.7890 H     1 <1>   0.1500 
 23 H        8.4230     1.3840    -0.9370 H     1 <1>   0.1500 
 24 H       10.4490     1.2400     0.0760 H     1 <1>   0.0800 
 25 H       10.5180     0.2070     1.4780 H     1 <1>   0.0800 
 26 H        8.7440    -1.8230     1.5510 H     1 <1>   0.0800 
 27 H        7.7710    -2.0110     0.1120 H     1 <1>   0.0800 
 28 H       11.2570    -0.5600    -1.3510 H     1 <1>   0.0800 
 29 H       12.3690    -0.3210    -0.0350 H     1 <1>   0.0800 
 30 H        9.6560    -3.6060     0.1640 H     1 <1>   0.0800 
 31 H        9.6220    -2.5860    -1.2400 H     1 <1>   0.0800 
 32 H       11.4210    -2.2380     1.1710 H     1 <1>   0.0800 
 33 H       11.9220    -2.7400    -0.4230 H     1 <1>   0.0800 
@<TRIPOS>BOND
  1   1   2  1   
  2   2   3  ar  
  3   2   4  ar  
  4   3   5  ar  
  5   3  18  1   
  6   4   6  ar  
  7   4  19  1   
  8   5   7  ar  
  9   5  20  1   
 10   6   7  ar  
 11   6  21  1   
 12   7   8  1   
 13   8   9  2   
 14   8  10  1   
 15  10  11  2   
 16  10  22  1   
 17  11  12  1   
 18  11  23  1   
 19  12  13  1   
 20  12  14  1   
 21  13  15  1   
 22  13  24  1   
 23  13  25  1   
 24  14  16  1   
 25  14  26  1   
 26  14  27  1   
 27  15  17  1   
 28  15  28  1   
 29  15  29  1   
 30  16  17  1   
 31  16  30  1   
 32  16  31  1   
 33  17  32  1   
 34  17  33  1   
@<TRIPOS>SUBSTRUCTURE
  1 ****   8 GROUP 4 **** **** 0

# MOE 2024.06 (io_trps.svl 2023.06)
