@<TRIPOS>MOLECULE
NONAME
45 47 1 0 0 
SMALL
USER_CHARGES


@<TRIPOS>ATOM
  1 O        0.6830     2.1690     2.9780 O.co2 1 <1>  -0.9000 
  2 C        1.1670     1.4640     2.0850 C.2   1 <1>   0.9060 
  3 O        0.8960     0.2650     2.0030 O.co2 1 <1>  -0.9000 
  4 C        2.0540     2.1540     1.0580 C.3   1 <1>  -0.1860 
  5 C        1.2550     3.1220    -0.1280 C.3   1 <1>  -0.0190 
  6 C        3.0760     1.1400     0.2310 C.3   1 <1>   0.0580 
  7 C       -0.2760     3.2720    -0.1340 C.2   1 <1>   0.5690 
  8 C        1.8400     2.6120    -1.5970 C.3   1 <1>   0.0580 
  9 C        3.6500     0.9080    -1.2620 C.2   1 <1>  -0.2880 
 10 C        2.3760     1.9180    -0.5930 C.3   1 <1>  -0.1600 
 11 O       -0.8080     3.6530    -1.1530 O.2   1 <1>  -0.5700 
 12 N       -0.9930     3.0580     0.9920 N.am  1 <1>  -0.7300 
 13 C        3.0040     1.6790    -2.2190 C.2   1 <1>  -0.2880 
 14 C       -2.4220     2.7330     1.0860 C.3   1 <1>   0.3640 
 15 C       -2.7490     1.5540     0.1620 C.ar  1 <1>  -0.1430 
 16 C       -3.2820     3.9950     0.8880 C.3   1 <1>  -0.1600 
 17 C       -2.2270     0.3100     0.4860 C.ar  1 <1>  -0.1500 
 18 C       -3.5300     1.6640    -0.9830 C.ar  1 <1>  -0.1500 
 19 C       -3.0230     5.0780     1.9480 C.3   1 <1>  -0.2400 
 20 C       -2.4880    -0.7990    -0.2990 C.ar  1 <1>  -0.1500 
 21 C       -3.7960     0.5540    -1.7680 C.ar  1 <1>  -0.1500 
 22 C       -3.2800    -0.6850    -1.4290 C.ar  1 <1>  -0.1430 
 23 C       -3.5610    -1.9020    -2.2890 C.3   1 <1>  -0.0970 
 24 H        2.6630     2.8130     1.6570 H     1 <1>   0.0800 
 25 H        1.5960     4.1360     0.0220 H     1 <1>   0.0800 
 26 H        2.7320     0.1460     0.4830 H     1 <1>   0.0800 
 27 H        0.9660     2.2320    -2.1090 H     1 <1>   0.0800 
 28 H        4.4500     0.2000    -1.3930 H     1 <1>   0.1500 
 29 H        1.5750     1.0800    -0.7230 H     1 <1>   0.0800 
 30 H        3.2470     2.7640    -0.4980 H     1 <1>   0.0800 
 31 H       -0.4750     2.7730     1.8450 H     1 <1>   0.3700 
 32 H        3.1760     1.7200    -3.2810 H     1 <1>   0.1500 
 33 H       -2.5940     2.3880     2.0920 H     1 <1>   0.0800 
 34 H       -4.3160     3.7080     0.9360 H     1 <1>   0.0800 
 35 H       -3.0960     4.4030    -0.0890 H     1 <1>   0.0800 
 36 H       -1.5930     0.2020     1.3540 H     1 <1>   0.1500 
 37 H       -3.9290     2.6140    -1.2830 H     1 <1>   0.1500 
 38 H       -2.0050     5.4240     1.8850 H     1 <1>   0.0800 
 39 H       -3.1920     4.6860     2.9350 H     1 <1>   0.0800 
 40 H       -3.6780     5.9150     1.7890 H     1 <1>   0.0800 
 41 H       -2.0590    -1.7440    -0.0210 H     1 <1>   0.1500 
 42 H       -4.4010     0.6660    -2.6490 H     1 <1>   0.1500 
 43 H       -2.7620    -2.0340    -2.9970 H     1 <1>   0.0800 
 44 H       -4.4850    -1.7820    -2.8240 H     1 <1>   0.0800 
 45 H       -3.6320    -2.7820    -1.6760 H     1 <1>   0.0800 
@<TRIPOS>BOND
  1   1   2  ar  
  2   2   3  ar  
  3   2   4  1   
  4   4   5  1   
  5   4   6  1   
  6   4  24  1   
  7   5   7  1   
  8   5   8  1   
  9   5  25  1   
 10   6   9  1   
 11   6  10  1   
 12   6  26  1   
 13   7  11  2   
 14   7  12  am  
 15   8  10  1   
 16   8  13  1   
 17   8  27  1   
 18   9  13  2   
 19   9  28  1   
 20  10  29  1   
 21  10  30  1   
 22  12  14  1   
 23  12  31  1   
 24  13  32  1   
 25  14  15  1   
 26  14  16  1   
 27  14  33  1   
 28  15  17  ar  
 29  15  18  ar  
 30  16  19  1   
 31  16  34  1   
 32  16  35  1   
 33  17  20  ar  
 34  17  36  1   
 35  18  21  ar  
 36  18  37  1   
 37  19  38  1   
 38  19  39  1   
 39  19  40  1   
 40  20  22  ar  
 41  20  41  1   
 42  21  22  ar  
 43  21  42  1   
 44  22  23  1   
 45  23  43  1   
 46  23  44  1   
 47  23  45  1   
@<TRIPOS>SUBSTRUCTURE
  1 ****   7 GROUP 4 **** **** 0

# MOE 2024.06 (io_trps.svl 2023.06)
