@<TRIPOS>MOLECULE
NONAME
30 29 1 0 0 
SMALL
USER_CHARGES


@<TRIPOS>ATOM
  1 O       -0.0480     0.4310     0.1900 O.2   1 <1>  -0.5700 
  2 C       -0.0380     1.6340     0.0160 C.2   1 <1>   0.5690 
  3 N        1.1560     2.3020    -0.1740 N.am  1 <1>  -0.6600 
  4 C       -1.3930     2.3820    -0.0220 C.3   1 <1>   0.2610 
  5 C        2.4700     1.6030    -0.0890 C.3   1 <1>   0.0600 
  6 C        1.2670     3.7780    -0.3420 C.3   1 <1>   0.0600 
  7 O       -1.4750     3.3520     0.9960 O.3   1 <1>  -0.6800 
  8 C       -2.6120     1.4330     0.0730 C.3   1 <1>   0.2610 
  9 O       -2.5290     0.4630    -0.9450 O.3   1 <1>  -0.6800 
 10 C       -3.9670     2.1820     0.0350 C.2   1 <1>   0.5690 
 11 O       -3.9560     3.3850    -0.1390 O.2   1 <1>  -0.5700 
 12 N       -5.1600     1.5130     0.2250 N.am  1 <1>  -0.6600 
 13 C       -6.4740     2.2130     0.1410 C.3   1 <1>   0.0600 
 14 C       -5.2710     0.0370     0.3940 C.3   1 <1>   0.0600 
 15 H       -1.4580     2.9090    -0.9570 H     1 <1>   0.0800 
 16 H        2.3380     0.5480     0.0810 H     1 <1>   0.0800 
 17 H        3.0440     2.0100     0.7240 H     1 <1>   0.0800 
 18 H        3.0110     1.7350    -1.0090 H     1 <1>   0.0800 
 19 H        0.3800     4.1850    -0.7940 H     1 <1>   0.0800 
 20 H        2.1050     4.0170    -0.9730 H     1 <1>   0.0800 
 21 H        1.4080     4.2380     0.6210 H     1 <1>   0.0800 
 22 H       -2.3290     3.8340     0.8840 H     1 <1>   0.4000 
 23 H       -2.5460     0.9070     1.0080 H     1 <1>   0.0800 
 24 H       -1.6750    -0.0190    -0.8330 H     1 <1>   0.4000 
 25 H       -6.3420     3.2670    -0.0290 H     1 <1>   0.0800 
 26 H       -7.0160     2.0800     1.0600 H     1 <1>   0.0800 
 27 H       -7.0490     1.8050    -0.6730 H     1 <1>   0.0800 
 28 H       -4.3840    -0.3700     0.8450 H     1 <1>   0.0800 
 29 H       -5.4120    -0.4230    -0.5690 H     1 <1>   0.0800 
 30 H       -6.1100    -0.2010     1.0240 H     1 <1>   0.0800 
@<TRIPOS>BOND
  1   1   2  2   
  2   2   3  am  
  3   2   4  1   
  4   3   5  1   
  5   3   6  1   
  6   4   7  1   
  7   4   8  1   
  8   4  15  1   
  9   5  16  1   
 10   5  17  1   
 11   5  18  1   
 12   6  19  1   
 13   6  20  1   
 14   6  21  1   
 15   7  22  1   
 16   8   9  1   
 17   8  10  1   
 18   8  23  1   
 19   9  24  1   
 20  10  11  2   
 21  10  12  am  
 22  12  13  1   
 23  12  14  1   
 24  13  25  1   
 25  13  26  1   
 26  13  27  1   
 27  14  28  1   
 28  14  29  1   
 29  14  30  1   
@<TRIPOS>SUBSTRUCTURE
  1 ****   4 GROUP 4 **** **** 0

# MOE 2024.06 (io_trps.svl 2023.06)
