@<TRIPOS>MOLECULE
NONAME
26 25 1 0 0 
SMALL
USER_CHARGES


@<TRIPOS>ATOM
  1 S       -0.0770    -0.3910     1.5220 S.3   1 <1>  -0.2300 
  2 S        1.8820    -1.1320     1.6900 S.3   1 <1>  -0.2300 
  3 C       -0.9110    -1.8060     0.7420 C.3   1 <1>   0.0700 
  4 C        2.6090    -0.5270     0.1360 C.3   1 <1>   0.0700 
  5 C       -2.4050    -1.5020     0.5540 C.3   1 <1>  -0.1860 
  6 C        4.0900    -0.9240     0.0550 C.3   1 <1>  -0.1860 
  7 C       -3.1310    -2.7880     0.1820 C.2   1 <1>   0.9060 
  8 C       -2.6440    -0.3940    -0.4940 C.3   1 <1>  -0.2400 
  9 C        4.7470    -0.1660    -1.0910 C.2   1 <1>   0.9060 
 10 C        4.2750    -2.4500    -0.0960 C.3   1 <1>  -0.2400 
 11 O       -4.2240    -3.0230     0.7080 O.co2 1 <1>  -0.9000 
 12 O       -2.6070    -3.5610    -0.6280 O.co2 1 <1>  -0.9000 
 13 O        5.8710     0.3130    -0.9160 O.co2 1 <1>  -0.9000 
 14 O        4.1360    -0.0470    -2.1600 O.co2 1 <1>  -0.9000 
 15 H       -0.7710    -2.6500     1.3950 H     1 <1>   0.0800 
 16 H       -0.4280    -1.9980    -0.1990 H     1 <1>   0.0800 
 17 H        2.4980     0.5420     0.1340 H     1 <1>   0.0800 
 18 H        2.0450    -0.9470    -0.6790 H     1 <1>   0.0800 
 19 H       -2.8100    -1.1860     1.4970 H     1 <1>   0.0800 
 20 H        4.5800    -0.6000     0.9540 H     1 <1>   0.0800 
 21 H       -2.2380    -0.6960    -1.4440 H     1 <1>   0.0800 
 22 H       -2.1850     0.5300    -0.1920 H     1 <1>   0.0800 
 23 H       -3.7010    -0.2330    -0.6100 H     1 <1>   0.0800 
 24 H        3.7850    -2.7900    -0.9920 H     1 <1>   0.0800 
 25 H        3.8690    -2.9750     0.7490 H     1 <1>   0.0800 
 26 H        5.3230    -2.6780    -0.1740 H     1 <1>   0.0800 
@<TRIPOS>BOND
  1   1   2  1   
  2   1   3  1   
  3   2   4  1   
  4   3   5  1   
  5   3  15  1   
  6   3  16  1   
  7   4   6  1   
  8   4  17  1   
  9   4  18  1   
 10   5   7  1   
 11   5   8  1   
 12   5  19  1   
 13   6   9  1   
 14   6  10  1   
 15   6  20  1   
 16   7  11  ar  
 17   7  12  ar  
 18   8  21  1   
 19   8  22  1   
 20   8  23  1   
 21   9  13  ar  
 22   9  14  ar  
 23  10  24  1   
 24  10  25  1   
 25  10  26  1   
@<TRIPOS>SUBSTRUCTURE
  1 ****   3 GROUP 4 **** **** 0

# MOE 2024.06 (io_trps.svl 2023.06)
