@<TRIPOS>MOLECULE
NONAME
46 48 1 0 0 
SMALL
USER_CHARGES


@<TRIPOS>ATOM
  1 F        0.4840    -0.0550    -0.4400 F     1 <1>  -0.1900 
  2 C        1.6340    -0.6630    -0.3640 C.ar  1 <1>   0.1900 
  3 C        2.0940    -1.0730     0.8730 C.ar  1 <1>  -0.1500 
  4 C        2.3550    -0.8780    -1.5220 C.ar  1 <1>  -0.1500 
  5 C        3.3180    -1.7160     0.9450 C.ar  1 <1>  -0.1500 
  6 C        3.5770    -1.5220    -1.4310 C.ar  1 <1>  -0.1500 
  7 C        4.0870    -1.9450    -0.2010 C.ar  1 <1>   0.0860 
  8 C        5.3730    -2.6110    -0.1250 C.2   1 <1>   0.5440 
  9 O        5.5380    -3.6360    -0.7570 O.2   1 <1>  -0.5700 
 10 N        6.4130    -2.1140     0.6370 N.am  1 <1>  -0.6600 
 11 C        7.6750    -2.8830     0.8240 C.3   1 <1>   0.1400 
 12 C        6.4510    -0.7260     1.1770 C.3   1 <1>   0.1400 
 13 C        8.8390    -2.1290     0.1740 C.3   1 <1>  -0.1600 
 14 C        7.6100     0.0420     0.5370 C.3   1 <1>  -0.1600 
 15 C        8.9560    -0.6920     0.7130 C.3   1 <1>  -0.0190 
 16 C       10.1240     0.0460     0.0550 C.2   1 <1>   0.5690 
 17 O        9.9200     0.7240    -0.9220 O.2   1 <1>  -0.5700 
 18 N       11.3610    -0.1210     0.6170 N.am  1 <1>  -0.5470 
 19 C       12.6150     0.4160     0.2830 C.ar  1 <1>   0.1170 
 20 C       13.7550    -0.2070     0.7760 C.ar  1 <1>  -0.1500 
 21 C       12.7770     1.5530    -0.5030 C.ar  1 <1>  -0.1500 
 22 C       15.0170     0.2830     0.4900 C.ar  1 <1>  -0.1500 
 23 C       14.0380     2.0440    -0.7910 C.ar  1 <1>  -0.1500 
 24 C       15.1670     1.4120    -0.2970 C.ar  1 <1>  -0.1430 
 25 C       16.5490     1.9540    -0.6140 C.3   1 <1>  -0.0970 
 26 H        1.5010    -0.8950     1.7530 H     1 <1>   0.1500 
 27 H        1.9650    -0.5510    -2.4700 H     1 <1>   0.1500 
 28 H        3.6910    -2.0520     1.8970 H     1 <1>   0.1500 
 29 H        4.1560    -1.7090    -2.3210 H     1 <1>   0.1500 
 30 H        7.5950    -3.8650     0.3890 H     1 <1>   0.0800 
 31 H        7.8560    -3.0050     1.8780 H     1 <1>   0.0800 
 32 H        6.5820    -0.7680     2.2450 H     1 <1>   0.0800 
 33 H        5.5330    -0.2040     0.9730 H     1 <1>   0.0800 
 34 H        8.6820    -2.1060    -0.8920 H     1 <1>   0.0800 
 35 H        9.7520    -2.6680     0.3550 H     1 <1>   0.0800 
 36 H        7.6740     1.0230     0.9730 H     1 <1>   0.0800 
 37 H        7.3980     0.1680    -0.5120 H     1 <1>   0.0800 
 38 H        9.1570    -0.7440     1.7680 H     1 <1>   0.0800 
 39 H       11.3910    -0.7800     1.3890 H     1 <1>   0.3700 
 40 H       13.6630    -1.0860     1.3860 H     1 <1>   0.1500 
 41 H       11.9190     2.0660    -0.8950 H     1 <1>   0.1500 
 42 H       15.8850    -0.2170     0.8830 H     1 <1>   0.1500 
 43 H       14.1340     2.9240    -1.4020 H     1 <1>   0.1500 
 44 H       17.2730     1.1600    -0.6170 H     1 <1>   0.0800 
 45 H       16.8320     2.6800     0.1260 H     1 <1>   0.0800 
 46 H       16.5550     2.4220    -1.5810 H     1 <1>   0.0800 
@<TRIPOS>BOND
  1   1   2  1   
  2   2   3  ar  
  3   2   4  ar  
  4   3   5  ar  
  5   3  26  1   
  6   4   6  ar  
  7   4  27  1   
  8   5   7  ar  
  9   5  28  1   
 10   6   7  ar  
 11   6  29  1   
 12   7   8  1   
 13   8   9  2   
 14   8  10  am  
 15  10  11  1   
 16  10  12  1   
 17  11  13  1   
 18  11  30  1   
 19  11  31  1   
 20  12  14  1   
 21  12  32  1   
 22  12  33  1   
 23  13  15  1   
 24  13  34  1   
 25  13  35  1   
 26  14  15  1   
 27  14  36  1   
 28  14  37  1   
 29  15  16  1   
 30  15  38  1   
 31  16  17  2   
 32  16  18  am  
 33  18  19  1   
 34  18  39  1   
 35  19  20  ar  
 36  19  21  ar  
 37  20  22  ar  
 38  20  40  1   
 39  21  23  ar  
 40  21  41  1   
 41  22  24  ar  
 42  22  42  1   
 43  23  24  ar  
 44  23  43  1   
 45  24  25  1   
 46  25  44  1   
 47  25  45  1   
 48  25  46  1   
@<TRIPOS>SUBSTRUCTURE
  1 ****  15 GROUP 4 **** **** 0

# MOE 2024.06 (io_trps.svl 2023.06)
