@<TRIPOS>MOLECULE
NONAME
35 36 1 0 0 
SMALL
USER_CHARGES


@<TRIPOS>ATOM
  1 CL       0.3170     0.0270    -1.3090 Cl    1 <1>  -0.1770 
  2 C        0.0360     1.6590    -0.7550 C.ar  1 <1>   0.1770 
  3 C       -1.2510     2.1510    -0.7150 C.ar  1 <1>  -0.1500 
  4 C        1.1130     2.4290    -0.3620 C.ar  1 <1>  -0.1500 
  5 C       -1.4890     3.4480    -0.2740 C.ar  1 <1>   0.1170 
  6 C        0.8870     3.7200     0.0800 C.ar  1 <1>  -0.1500 
  7 N       -2.7910     3.9680    -0.2120 N.am  1 <1>  -0.5470 
  8 C       -0.4020     4.2330     0.1260 C.ar  1 <1>  -0.1440 
  9 C       -3.8980     3.7340    -0.9770 C.2   1 <1>   0.5690 
 10 C       -0.6080     5.6640     0.6130 C.3   1 <1>  -0.0960 
 11 O       -3.9100     2.9240    -1.8770 O.2   1 <1>  -0.5700 
 12 C       -5.1930     4.5010    -0.6950 C.3   1 <1>  -0.0190 
 13 C       -5.0880     6.0470    -0.8180 C.3   1 <1>  -0.1860 
 14 C       -5.8380     4.0480     0.6290 C.3   1 <1>  -0.0220 
 15 C       -4.0900     6.7250     0.1120 C.2   1 <1>   0.9060 
 16 C       -6.4790     6.7050    -0.6920 C.3   1 <1>  -0.0220 
 17 C       -7.0750     4.8740     0.9460 C.2   1 <1>  -0.2880 
 18 O       -3.6820     6.1520     1.1300 O.co2 1 <1>  -0.9000 
 19 O       -3.6400     7.8220    -0.2250 O.co2 1 <1>  -0.9000 
 20 C       -7.3590     6.0380     0.3560 C.2   1 <1>  -0.2880 
 21 H       -2.0660     1.5250    -1.0240 H     1 <1>   0.1500 
 22 H        2.1060     2.0220    -0.4020 H     1 <1>   0.1500 
 23 H        1.7200     4.3270     0.3880 H     1 <1>   0.1500 
 24 H       -2.9170     4.7620     0.4490 H     1 <1>   0.3700 
 25 H       -1.1740     6.2280    -0.1080 H     1 <1>   0.0800 
 26 H        0.3280     6.1670     0.7680 H     1 <1>   0.0800 
 27 H       -1.1500     5.6640     1.5420 H     1 <1>   0.0800 
 28 H       -5.8790     4.2000    -1.4670 H     1 <1>   0.0800 
 29 H       -4.7250     6.2640    -1.8060 H     1 <1>   0.0800 
 30 H       -5.1420     4.1380     1.4440 H     1 <1>   0.0800 
 31 H       -6.1120     3.0120     0.5420 H     1 <1>   0.0800 
 32 H       -6.9830     6.6490    -1.6400 H     1 <1>   0.0800 
 33 H       -6.3570     7.7480    -0.4510 H     1 <1>   0.0800 
 34 H       -7.6980     4.4330     1.7040 H     1 <1>   0.1500 
 35 H       -8.2420     6.6090     0.5860 H     1 <1>   0.1500 
@<TRIPOS>BOND
  1   1   2  1   
  2   2   3  ar  
  3   2   4  ar  
  4   3   5  ar  
  5   3  21  1   
  6   4   6  ar  
  7   4  22  1   
  8   5   7  1   
  9   5   8  ar  
 10   6   8  ar  
 11   6  23  1   
 12   7   9  am  
 13   7  24  1   
 14   8  10  1   
 15   9  11  2   
 16   9  12  1   
 17  10  25  1   
 18  10  26  1   
 19  10  27  1   
 20  12  13  1   
 21  12  14  1   
 22  12  28  1   
 23  13  15  1   
 24  13  16  1   
 25  13  29  1   
 26  14  17  1   
 27  14  30  1   
 28  14  31  1   
 29  15  18  ar  
 30  15  19  ar  
 31  16  20  1   
 32  16  32  1   
 33  16  33  1   
 34  17  20  2   
 35  17  34  1   
 36  20  35  1   
@<TRIPOS>SUBSTRUCTURE
  1 ****   7 GROUP 4 **** **** 0

# MOE 2024.06 (io_trps.svl 2023.06)
