@<TRIPOS>MOLECULE
NONAME
41 42 1 0 0 
SMALL
USER_CHARGES


@<TRIPOS>ATOM
  1 CL      -0.0630     1.9680    -1.8000 Cl    1 <1>  -0.1770 
  2 C        1.5540     1.9240    -1.1430 C.ar  1 <1>   0.1770 
  3 C        2.6120     1.5910    -1.9690 C.ar  1 <1>  -0.1500 
  4 C        1.7510     2.2220     0.1930 C.ar  1 <1>  -0.1500 
  5 C        3.8960     1.5560    -1.4500 C.ar  1 <1>  -0.1500 
  6 C        3.0360     2.1850     0.7080 C.ar  1 <1>  -0.1500 
  7 C        4.1110     1.8540    -0.1040 C.ar  1 <1>   0.0830 
  8 O        5.3330     1.8430     0.4840 O.3   1 <1>  -0.3630 
  9 C        6.4960     1.5200    -0.2430 C.3   1 <1>   0.1200 
 10 C        7.6910     1.5990     0.7040 C.3   1 <1>  -0.1600 
 11 C        8.9840     1.2570    -0.0340 C.3   1 <1>   0.1200 
 12 O       10.0480     1.3430     0.8770 O.3   1 <1>  -0.3630 
 13 C       11.2720     1.0620     0.3560 C.ar  1 <1>   0.0830 
 14 C       12.0470     2.0910    -0.1810 C.ar  1 <1>   0.0830 
 15 C       11.7500    -0.2490     0.3820 C.ar  1 <1>   0.0830 
 16 O       11.5270     3.3530    -0.1940 O.3   1 <1>  -0.3630 
 17 C       13.3110     1.7970    -0.6870 C.ar  1 <1>  -0.1500 
 18 O       10.9470    -1.2200     0.9050 O.3   1 <1>  -0.3630 
 19 C       13.0160    -0.5210    -0.1300 C.ar  1 <1>  -0.1500 
 20 C       12.3380     4.4760    -0.4550 C.3   1 <1>   0.0400 
 21 C       13.7890     0.4980    -0.6580 C.ar  1 <1>  -0.1500 
 22 C       11.4530    -2.4970     1.2220 C.3   1 <1>   0.0400 
 23 H        2.4280     1.3650    -3.0040 H     1 <1>   0.1500 
 24 H        0.9130     2.4780     0.8150 H     1 <1>   0.1500 
 25 H        4.7080     1.2960    -2.1020 H     1 <1>   0.1500 
 26 H        3.2150     2.4130     1.7440 H     1 <1>   0.1500 
 27 H        6.6010     2.2290    -1.0460 H     1 <1>   0.0800 
 28 H        6.3860     0.5230    -0.6340 H     1 <1>   0.0800 
 29 H        7.5530     0.9000     1.5100 H     1 <1>   0.0800 
 30 H        7.7670     2.5960     1.1000 H     1 <1>   0.0800 
 31 H        9.1700     1.9550    -0.8330 H     1 <1>   0.0800 
 32 H        8.9550     0.2530    -0.4220 H     1 <1>   0.0800 
 33 H       13.9330     2.5620    -1.1100 H     1 <1>   0.1500 
 34 H       13.4150    -1.5170    -0.1300 H     1 <1>   0.1500 
 35 H       11.7450     5.3580    -0.2970 H     1 <1>   0.0800 
 36 H       12.6720     4.4380    -1.4760 H     1 <1>   0.0800 
 37 H       13.1710     4.4700     0.2260 H     1 <1>   0.0800 
 38 H       14.7670     0.2800    -1.0520 H     1 <1>   0.1500 
 39 H       10.6770    -3.0470     1.7230 H     1 <1>   0.0800 
 40 H       12.3010    -2.3840     1.8740 H     1 <1>   0.0800 
 41 H       11.7270    -3.0000     0.3120 H     1 <1>   0.0800 
@<TRIPOS>BOND
  1   1   2  1   
  2   2   3  ar  
  3   2   4  ar  
  4   3   5  ar  
  5   3  23  1   
  6   4   6  ar  
  7   4  24  1   
  8   5   7  ar  
  9   5  25  1   
 10   6   7  ar  
 11   6  26  1   
 12   7   8  1   
 13   8   9  1   
 14   9  10  1   
 15   9  27  1   
 16   9  28  1   
 17  10  11  1   
 18  10  29  1   
 19  10  30  1   
 20  11  12  1   
 21  11  31  1   
 22  11  32  1   
 23  12  13  1   
 24  13  14  ar  
 25  13  15  ar  
 26  14  16  1   
 27  14  17  ar  
 28  15  18  1   
 29  15  19  ar  
 30  16  20  1   
 31  17  21  ar  
 32  17  33  1   
 33  18  22  1   
 34  19  21  ar  
 35  19  34  1   
 36  20  35  1   
 37  20  36  1   
 38  20  37  1   
 39  21  38  1   
 40  22  39  1   
 41  22  40  1   
 42  22  41  1   
@<TRIPOS>SUBSTRUCTURE
  1 ****  10 GROUP 4 **** **** 0

# MOE 2024.06 (io_trps.svl 2023.06)
