@<TRIPOS>MOLECULE
NONAME
41 41 1 0 0 
SMALL
USER_CHARGES


@<TRIPOS>ATOM
  1 CL      -1.7380    -2.0700    -1.1600 Cl    1 <1>  -0.1770 
  2 C       -0.2030    -2.5610    -0.4670 C.ar  1 <1>   0.1770 
  3 C       -0.1560    -3.3420     0.6860 C.ar  1 <1>   0.0820 
  4 C        0.9550    -2.1480    -1.0950 C.ar  1 <1>  -0.1500 
  5 O       -1.2910    -3.7510     1.3060 O.3   1 <1>  -0.3630 
  6 C        1.0780    -3.6930     1.2230 C.ar  1 <1>  -0.1440 
  7 C        2.1860    -2.5070    -0.5690 C.ar  1 <1>  -0.1440 
  8 C       -2.0540    -4.7430     0.6630 C.3   1 <1>   0.1200 
  9 C        2.2380    -3.2740     0.5850 C.ar  1 <1>  -0.1500 
 10 C        1.1670    -4.5240     2.4940 C.3   1 <1>  -0.0960 
 11 C        3.4720    -2.0660    -1.2450 C.3   1 <1>  -0.0970 
 12 C       -3.5250    -4.4510     0.9610 C.3   1 <1>  -0.1600 
 13 C       -4.4600    -5.3870     0.1830 C.3   1 <1>  -0.1600 
 14 C       -5.9180    -5.0180     0.4490 C.3   1 <1>   0.3430 
 15 N       -6.7960    -5.9060    -0.3490 N.4   1 <1>  -0.9060 
 16 C       -8.2390    -5.5860    -0.1380 C.3   1 <1>   0.3430 
 17 C       -9.1530    -6.4940    -0.9700 C.3   1 <1>   0.1200 
 18 O      -10.4560    -6.1170    -0.7090 O.3   1 <1>  -0.6800 
 19 H        0.8870    -1.5500    -1.9860 H     1 <1>   0.1500 
 20 H       -1.7500    -5.6990     1.0530 H     1 <1>   0.0800 
 21 H       -1.8600    -4.7120    -0.3960 H     1 <1>   0.0800 
 22 H        3.1960    -3.5470     0.9910 H     1 <1>   0.1500 
 23 H        0.7770    -5.5090     2.3140 H     1 <1>   0.0800 
 24 H        0.5890    -4.0600     3.2740 H     1 <1>   0.0800 
 25 H        2.1840    -4.6110     2.8310 H     1 <1>   0.0800 
 26 H        3.2890    -1.2450    -1.9150 H     1 <1>   0.0800 
 27 H        3.8880    -2.8830    -1.8060 H     1 <1>   0.0800 
 28 H        4.1880    -1.7480    -0.5090 H     1 <1>   0.0800 
 29 H       -3.7280    -3.4300     0.6830 H     1 <1>   0.0800 
 30 H       -3.6900    -4.5560     2.0200 H     1 <1>   0.0800 
 31 H       -4.2740    -6.4020     0.4890 H     1 <1>   0.0800 
 32 H       -4.2480    -5.2910    -0.8680 H     1 <1>   0.0800 
 33 H       -6.0840    -3.9880     0.1740 H     1 <1>   0.0800 
 34 H       -6.1330    -5.1280     1.5010 H     1 <1>   0.0800 
 35 H       -6.6130    -6.8830    -0.0890 H     1 <1>   0.4500 
 36 H       -6.5580    -5.8030    -1.3440 H     1 <1>   0.4500 
 37 H       -8.4290    -4.5610    -0.4170 H     1 <1>   0.0800 
 38 H       -8.4910    -5.7070     0.9030 H     1 <1>   0.0800 
 39 H       -9.0430    -7.5270    -0.6870 H     1 <1>   0.0800 
 40 H       -8.9760    -6.3680    -2.0250 H     1 <1>   0.0800 
 41 H      -11.1030    -6.6590    -1.2100 H     1 <1>   0.4000 
@<TRIPOS>BOND
  1   1   2  1   
  2   2   3  ar  
  3   2   4  ar  
  4   3   5  1   
  5   3   6  ar  
  6   4   7  ar  
  7   4  19  1   
  8   5   8  1   
  9   6   9  ar  
 10   6  10  1   
 11   7   9  ar  
 12   7  11  1   
 13   8  12  1   
 14   8  20  1   
 15   8  21  1   
 16   9  22  1   
 17  10  23  1   
 18  10  24  1   
 19  10  25  1   
 20  11  26  1   
 21  11  27  1   
 22  11  28  1   
 23  12  13  1   
 24  12  29  1   
 25  12  30  1   
 26  13  14  1   
 27  13  31  1   
 28  13  32  1   
 29  14  15  1   
 30  14  33  1   
 31  14  34  1   
 32  15  16  1   
 33  15  35  1   
 34  15  36  1   
 35  16  17  1   
 36  16  37  1   
 37  16  38  1   
 38  17  18  1   
 39  17  39  1   
 40  17  40  1   
 41  18  41  1   
@<TRIPOS>SUBSTRUCTURE
  1 ****   8 GROUP 4 **** **** 0

# MOE 2024.06 (io_trps.svl 2023.06)
