@<TRIPOS>MOLECULE
NONAME
35 39 1 0 0 
SMALL
USER_CHARGES


@<TRIPOS>ATOM
  1 I        0.1650    -0.8990    -0.8180 I     1 <1>  -0.0810 
  2 C       -1.6170     0.2590    -0.6960 C.ar  1 <1>   0.0810 
  3 C       -1.6040     1.5540    -1.1800 C.ar  1 <1>  -0.1500 
  4 C       -2.7440    -0.3110    -0.1350 C.ar  1 <1>  -0.1500 
  5 C       -2.7670     2.2990    -1.0950 C.ar  1 <1>  -0.1500 
  6 C       -3.8980     0.4500    -0.0610 C.ar  1 <1>  -0.1500 
  7 C       -3.9280     1.7610    -0.5370 C.ar  1 <1>   0.1170 
  8 N       -5.1130     2.5300    -0.4560 N.am  1 <1>  -0.2370 
  9 C       -6.0310     2.4970     0.5850 C.2   1 <1>   0.5690 
 10 C       -5.5540     3.4470    -1.4000 C.2   1 <1>   0.5690 
 11 O       -5.9050     2.0110     1.6790 O.2   1 <1>  -0.5700 
 12 C       -7.2840     3.1650     0.0960 C.3   1 <1>  -0.0190 
 13 O       -5.1490     3.6220    -2.5210 O.2   1 <1>  -0.5700 
 14 C       -6.6320     4.2630    -0.7500 C.3   1 <1>  -0.0190 
 15 C       -8.5460     3.8730     0.6510 C.3   1 <1>   0.1530 
 16 C       -7.8060     5.2030    -1.0770 C.3   1 <1>   0.1530 
 17 C       -9.5140     3.7270    -0.5170 C.2   1 <1>  -0.2880 
 18 C       -8.2460     5.3490     0.3880 C.3   1 <1>  -0.1900 
 19 C       -9.0510     4.4550    -1.5390 C.2   1 <1>  -0.2880 
 20 C       -7.6810     6.2990     1.3940 C.3   1 <1>  -0.2000 
 21 C       -9.1010     6.4620     0.8960 C.3   1 <1>  -0.2000 
 22 H       -0.7110     1.9690    -1.6120 H     1 <1>   0.1500 
 23 H       -2.7220    -1.3210     0.2340 H     1 <1>   0.1500 
 24 H       -2.7690     3.3070    -1.4720 H     1 <1>   0.1500 
 25 H       -4.7800     0.0170     0.3760 H     1 <1>   0.1500 
 26 H       -7.6660     2.3920    -0.5540 H     1 <1>   0.0800 
 27 H       -6.0130     4.8810    -0.1150 H     1 <1>   0.0800 
 28 H       -8.9150     3.5980     1.6240 H     1 <1>   0.0800 
 29 H       -7.5810     6.1350    -1.5660 H     1 <1>   0.0800 
 30 H      -10.3750     3.0840    -0.4390 H     1 <1>   0.1500 
 31 H       -9.4180     4.5790    -2.5430 H     1 <1>   0.1500 
 32 H       -6.9550     7.0320     1.0890 H     1 <1>   0.1000 
 33 H       -7.5320     5.9660     2.4070 H     1 <1>   0.1000 
 34 H       -9.9160     6.2280     1.5590 H     1 <1>   0.1000 
 35 H       -9.3300     7.2810     0.2360 H     1 <1>   0.1000 
@<TRIPOS>BOND
  1   1   2  1   
  2   2   3  ar  
  3   2   4  ar  
  4   3   5  ar  
  5   3  22  1   
  6   4   6  ar  
  7   4  23  1   
  8   5   7  ar  
  9   5  24  1   
 10   6   7  ar  
 11   6  25  1   
 12   7   8  1   
 13   8   9  am  
 14   8  10  am  
 15   9  11  2   
 16   9  12  1   
 17  10  13  2   
 18  10  14  1   
 19  12  14  1   
 20  12  15  1   
 21  12  26  1   
 22  14  16  1   
 23  14  27  1   
 24  15  17  1   
 25  15  18  1   
 26  15  28  1   
 27  16  18  1   
 28  16  19  1   
 29  16  29  1   
 30  17  19  2   
 31  17  30  1   
 32  18  20  1   
 33  18  21  1   
 34  19  31  1   
 35  20  21  1   
 36  20  32  1   
 37  20  33  1   
 38  21  34  1   
 39  21  35  1   
@<TRIPOS>SUBSTRUCTURE
  1 ****   8 GROUP 4 **** **** 0

# MOE 2024.06 (io_trps.svl 2023.06)
