@<TRIPOS>MOLECULE
NONAME
47 49 1 0 0 
SMALL
USER_CHARGES


@<TRIPOS>ATOM
  1 O        1.1410    -0.0430     3.0280 O.2   1 <1>  -0.5700 
  2 C        0.9000    -0.8000     2.1180 C.2   1 <1>   0.5690 
  3 N        1.5460    -0.7610     0.9120 N.am  1 <1>  -0.5470 
  4 C       -0.1480    -1.9010     2.3270 C.3   1 <1>   0.1710 
  5 C        2.5070     0.0980     0.3500 C.ar  1 <1>   0.1170 
  6 N       -1.4810    -1.6870     1.6910 N.3   1 <1>  -0.8100 
  7 C        2.7600    -0.0140    -1.0220 C.ar  1 <1>   0.0820 
  8 C        3.2140     1.0390     1.0900 C.ar  1 <1>  -0.1500 
  9 C       -2.4200    -2.7580     2.0990 C.3   1 <1>   0.1100 
 10 C       -1.4310    -1.5920     0.2100 C.3   1 <1>   0.1100 
 11 O        2.0420    -0.9520    -1.7130 O.3   1 <1>  -0.3630 
 12 C        3.7050     0.8110    -1.6250 C.ar  1 <1>  -0.1500 
 13 C        4.1520     1.8560     0.4850 C.ar  1 <1>  -0.1500 
 14 C       -3.8250    -2.5750     1.4960 C.3   1 <1>   0.2090 
 15 C       -2.8260    -1.4050    -0.4170 C.3   1 <1>   0.2090 
 16 C        2.2290    -1.1370    -3.1000 C.3   1 <1>   0.0400 
 17 C        4.3980     1.7430    -0.8710 C.ar  1 <1>  -0.1500 
 18 N       -3.7560    -2.4880     0.0100 N.pl3 1 <1>  -0.8380 
 19 C       -4.9710    -2.5510    -0.6610 C.ar  1 <1>   0.1000 
 20 C       -5.9150    -1.5340    -0.5640 C.ar  1 <1>  -0.1500 
 21 C       -5.2590    -3.6550    -1.4520 C.ar  1 <1>  -0.1500 
 22 C       -7.1170    -1.6190    -1.2420 C.ar  1 <1>  -0.1500 
 23 C       -6.4600    -3.7450    -2.1330 C.ar  1 <1>  -0.1500 
 24 C       -7.3910    -2.7260    -2.0280 C.ar  1 <1>  -0.1500 
 25 H        1.2070    -1.4310     0.2220 H     1 <1>   0.3700 
 26 H       -0.2920    -1.9910     3.3890 H     1 <1>   0.0800 
 27 H        0.2660    -2.8310     1.9800 H     1 <1>   0.0800 
 28 H        3.0390     1.1400     2.1450 H     1 <1>   0.1500 
 29 H       -2.5080    -2.7640     3.1720 H     1 <1>   0.0800 
 30 H       -2.0390    -3.7160     1.7880 H     1 <1>   0.0800 
 31 H       -0.9890    -2.4830    -0.2010 H     1 <1>   0.0800 
 32 H       -0.8330    -0.7470    -0.0780 H     1 <1>   0.0800 
 33 H        3.9180     0.7480    -2.6740 H     1 <1>   0.1500 
 34 H        4.6900     2.5790     1.0730 H     1 <1>   0.1500 
 35 H       -4.2670    -1.6780     1.8920 H     1 <1>   0.0800 
 36 H       -4.4480    -3.4080     1.7730 H     1 <1>   0.0800 
 37 H       -2.7430    -1.4120    -1.4900 H     1 <1>   0.0800 
 38 H       -3.2210    -0.4490    -0.1170 H     1 <1>   0.0800 
 39 H        1.5660    -1.9180    -3.4270 H     1 <1>   0.0800 
 40 H        3.2490    -1.4250    -3.2810 H     1 <1>   0.0800 
 41 H        1.9900    -0.2200    -3.6100 H     1 <1>   0.0800 
 42 H        5.1280     2.3800    -1.3390 H     1 <1>   0.1500 
 43 H       -5.7010    -0.6780     0.0470 H     1 <1>   0.1500 
 44 H       -4.5280    -4.4380    -1.5250 H     1 <1>   0.1500 
 45 H       -7.8400    -0.8270    -1.1590 H     1 <1>   0.1500 
 46 H       -6.6690    -4.6070    -2.7420 H     1 <1>   0.1500 
 47 H       -8.3260    -2.7940    -2.5570 H     1 <1>   0.1500 
@<TRIPOS>BOND
  1   1   2  2   
  2   2   3  am  
  3   2   4  1   
  4   3   5  1   
  5   3  25  1   
  6   4   6  1   
  7   4  26  1   
  8   4  27  1   
  9   5   7  ar  
 10   5   8  ar  
 11   6   9  1   
 12   6  10  1   
 13   7  11  1   
 14   7  12  ar  
 15   8  13  ar  
 16   8  28  1   
 17   9  14  1   
 18   9  29  1   
 19   9  30  1   
 20  10  15  1   
 21  10  31  1   
 22  10  32  1   
 23  11  16  1   
 24  12  17  ar  
 25  12  33  1   
 26  13  17  ar  
 27  13  34  1   
 28  14  18  1   
 29  14  35  1   
 30  14  36  1   
 31  15  18  1   
 32  15  37  1   
 33  15  38  1   
 34  16  39  1   
 35  16  40  1   
 36  16  41  1   
 37  17  42  1   
 38  18  19  1   
 39  19  20  ar  
 40  19  21  ar  
 41  20  22  ar  
 42  20  43  1   
 43  21  23  ar  
 44  21  44  1   
 45  22  24  ar  
 46  22  45  1   
 47  23  24  ar  
 48  23  46  1   
 49  24  47  1   
@<TRIPOS>SUBSTRUCTURE
  1 ****  10 GROUP 4 **** **** 0

# MOE 2024.06 (io_trps.svl 2023.06)
