@<TRIPOS>MOLECULE
NONAME
32 33 1 0 0 
SMALL
USER_CHARGES


@<TRIPOS>ATOM
  1 S       -1.0240    -0.5200    -0.0310 S.3   1 <1>  -0.0800 
  2 C       -1.6280     1.1060     0.2560 C.2   1 <1>  -0.1400 
  3 C        0.1690     0.0750    -1.1660 C.2   1 <1>  -0.1100 
  4 C       -0.9350     2.0060    -0.4720 C.2   1 <1>  -0.1810 
  5 C       -2.7670     1.2400     1.2410 C.3   1 <1>   0.5230 
  6 C        0.0850     1.4120    -1.2840 C.2   1 <1>  -0.1500 
  7 C       -1.1200     3.5130    -0.5040 C.3   1 <1>  -0.0590 
  8 N       -4.0520     1.2560     0.4870 N.4   1 <1>  -0.9590 
  9 C       -5.1690     1.7530     1.3420 C.3   1 <1>   0.3430 
 10 C       -4.3430    -0.0750    -0.1310 C.3   1 <1>   0.3430 
 11 C       -6.4490     1.8630     0.5170 C.3   1 <1>  -0.1600 
 12 C       -5.6160     0.0040    -0.9700 C.3   1 <1>  -0.1600 
 13 C       -6.7750     0.5170    -0.1230 C.3   1 <1>   0.2000 
 14 O       -7.8760     0.6700    -0.9280 O.3   1 <1>  -0.6800 
 15 H        0.8200    -0.6460    -1.6300 H     1 <1>   0.1500 
 16 H       -2.6490     2.1680     1.7770 H     1 <1>   0.0800 
 17 H       -2.7440     0.4290     1.9500 H     1 <1>   0.0800 
 18 H        0.7130     2.0140    -1.9190 H     1 <1>   0.1500 
 19 H       -1.3590     3.8330    -1.5030 H     1 <1>   0.0800 
 20 H       -0.2060     3.9960    -0.2020 H     1 <1>   0.0800 
 21 H       -1.9050     3.8280     0.1580 H     1 <1>   0.0800 
 22 H       -3.9050     1.9160    -0.2880 H     1 <1>   0.4500 
 23 H       -4.9240     2.7210     1.7500 H     1 <1>   0.0800 
 24 H       -5.3320     1.0710     2.1620 H     1 <1>   0.0800 
 25 H       -4.4650    -0.8190     0.6400 H     1 <1>   0.0800 
 26 H       -3.5250    -0.3780    -0.7660 H     1 <1>   0.0800 
 27 H       -6.3260     2.6230    -0.2340 H     1 <1>   0.0800 
 28 H       -7.2580     2.1530     1.1640 H     1 <1>   0.0800 
 29 H       -5.8520    -0.9790    -1.3380 H     1 <1>   0.0800 
 30 H       -5.4440     0.6490    -1.8140 H     1 <1>   0.0800 
 31 H       -7.0330    -0.2050     0.6360 H     1 <1>   0.0800 
 32 H       -7.7130     1.2930    -1.6620 H     1 <1>   0.4000 
@<TRIPOS>BOND
  1   1   2  1   
  2   1   3  1   
  3   2   4  2   
  4   2   5  1   
  5   3   6  2   
  6   3  15  1   
  7   4   6  1   
  8   4   7  1   
  9   5   8  1   
 10   5  16  1   
 11   5  17  1   
 12   6  18  1   
 13   7  19  1   
 14   7  20  1   
 15   7  21  1   
 16   8   9  1   
 17   8  10  1   
 18   8  22  1   
 19   9  11  1   
 20   9  23  1   
 21   9  24  1   
 22  10  12  1   
 23  10  25  1   
 24  10  26  1   
 25  11  13  1   
 26  11  27  1   
 27  11  28  1   
 28  12  13  1   
 29  12  29  1   
 30  12  30  1   
 31  13  14  1   
 32  13  31  1   
 33  14  32  1   
@<TRIPOS>SUBSTRUCTURE
  1 ****   8 GROUP 4 **** **** 0

# MOE 2024.06 (io_trps.svl 2023.06)
