@<TRIPOS>MOLECULE
NONAME
42 42 1 0 0 
SMALL
USER_CHARGES


@<TRIPOS>ATOM
  1 O       -0.8100    -0.7390     0.9380 O.2   1 <1>  -0.5700 
  2 C       -0.0800    -1.4080     0.2310 C.2   1 <1>   0.5440 
  3 N        1.0940    -0.8570    -0.2030 N.am  1 <1>  -0.7300 
  4 C       -0.4380    -2.7570    -0.1590 C.ar  1 <1>   0.0860 
  5 C        1.5800     0.4980     0.1340 C.3   1 <1>   0.1400 
  6 C       -1.7420    -3.0900    -0.5690 C.ar  1 <1>   0.1170 
  7 C        0.5320    -3.7630    -0.1400 C.ar  1 <1>  -0.1500 
  8 C        3.0820     0.4350     0.4080 C.3   1 <1>  -0.1600 
  9 N       -2.7410    -2.1030    -0.5870 N.am  1 <1>  -0.5470 
 10 C       -2.0180    -4.4040    -0.9440 C.ar  1 <1>  -0.1500 
 11 C        0.2410    -5.0570    -0.5200 C.ar  1 <1>  -0.1500 
 12 C        3.6390     1.8190     0.7670 C.3   1 <1>  -0.1600 
 13 C       -3.9570    -2.0020    -1.2070 C.2   1 <1>   0.5690 
 14 C       -1.0410    -5.3780    -0.9250 C.ar  1 <1>  -0.1500 
 15 C        5.1440     1.7540     1.0410 C.3   1 <1>  -0.2400 
 16 O       -4.4150    -2.8490    -1.9360 O.2   1 <1>  -0.5700 
 17 C       -4.7750    -0.7370    -0.9640 C.3   1 <1>   0.1810 
 18 O       -4.0230     0.2410    -0.2910 O.3   1 <1>  -0.5600 
 19 C       -4.7180     1.4060    -0.0060 C.3   1 <1>   0.1200 
 20 C       -3.7540     2.3420     0.7110 C.3   1 <1>  -0.2400 
 21 H        1.6430    -1.3580    -0.9020 H     1 <1>   0.3700 
 22 H        1.0630     0.8670     1.0050 H     1 <1>   0.0800 
 23 H        1.3770     1.1620    -0.6890 H     1 <1>   0.0800 
 24 H        1.5290    -3.5250     0.1860 H     1 <1>   0.1500 
 25 H        3.5890     0.0650    -0.4650 H     1 <1>   0.0800 
 26 H        3.2600    -0.2420     1.2260 H     1 <1>   0.0800 
 27 H       -2.5030    -1.2480    -0.0540 H     1 <1>   0.3700 
 28 H       -3.0100    -4.6760    -1.2530 H     1 <1>   0.1500 
 29 H        1.0040    -5.8170    -0.4980 H     1 <1>   0.1500 
 30 H        3.1360     2.1940     1.6430 H     1 <1>   0.0800 
 31 H        3.4560     2.5050    -0.0420 H     1 <1>   0.0800 
 32 H       -1.2790    -6.3860    -1.2210 H     1 <1>   0.1500 
 33 H        5.3490     1.0900     1.8630 H     1 <1>   0.0800 
 34 H        5.5140     2.7320     1.2930 H     1 <1>   0.0800 
 35 H        5.6710     1.4030     0.1710 H     1 <1>   0.0800 
 36 H       -5.6340    -0.9850    -0.3670 H     1 <1>   0.0800 
 37 H       -5.0930    -0.3360    -1.9100 H     1 <1>   0.0800 
 38 H       -5.5570     1.1670     0.6260 H     1 <1>   0.0800 
 39 H       -5.0600     1.8450    -0.9290 H     1 <1>   0.0800 
 40 H       -3.4020     1.8830     1.6180 H     1 <1>   0.0800 
 41 H       -4.2520     3.2610     0.9600 H     1 <1>   0.0800 
 42 H       -2.9150     2.5630     0.0770 H     1 <1>   0.0800 
@<TRIPOS>BOND
  1   1   2  2   
  2   2   3  am  
  3   2   4  1   
  4   3   5  1   
  5   3  21  1   
  6   4   6  ar  
  7   4   7  ar  
  8   5   8  1   
  9   5  22  1   
 10   5  23  1   
 11   6   9  1   
 12   6  10  ar  
 13   7  11  ar  
 14   7  24  1   
 15   8  12  1   
 16   8  25  1   
 17   8  26  1   
 18   9  13  am  
 19   9  27  1   
 20  10  14  ar  
 21  10  28  1   
 22  11  14  ar  
 23  11  29  1   
 24  12  15  1   
 25  12  30  1   
 26  12  31  1   
 27  13  16  2   
 28  13  17  1   
 29  14  32  1   
 30  15  33  1   
 31  15  34  1   
 32  15  35  1   
 33  17  18  1   
 34  17  36  1   
 35  17  37  1   
 36  18  19  1   
 37  19  20  1   
 38  19  38  1   
 39  19  39  1   
 40  20  40  1   
 41  20  41  1   
 42  20  42  1   
@<TRIPOS>SUBSTRUCTURE
  1 ****   2 GROUP 4 **** **** 0

# MOE 2024.06 (io_trps.svl 2023.06)
