@<TRIPOS>MOLECULE
NONAME
31 32 1 0 0 
SMALL
USER_CHARGES


@<TRIPOS>ATOM
  1 S        0.1980    -0.5470    -2.1830 S.o2  1 <1>   1.4470 
  2 O        0.6770    -1.3870    -3.2560 O.2   1 <1>  -0.6500 
  3 O        0.0000     0.8640    -2.4290 O.2   1 <1>  -0.6500 
  4 N        1.3630    -0.6660    -0.9810 N.am  1 <1>  -0.7890 
  5 C       -1.2830    -1.2780    -1.4300 C.ar  1 <1>  -0.0090 
  6 C        1.1890     0.2510     0.1200 C.3   1 <1>   0.1310 
  7 C       -2.2940    -0.4810    -0.9140 C.ar  1 <1>  -0.1500 
  8 C       -1.4260    -2.6530    -1.3210 C.ar  1 <1>  -0.1500 
  9 C        1.9130    -0.0520     1.3860 C.3   1 <1>  -0.2000 
 10 C        0.4210    -0.2090     1.3120 C.3   1 <1>  -0.2000 
 11 C       -3.4330    -1.0030    -0.3020 C.ar  1 <1>   0.0860 
 12 C       -2.5420    -3.2060    -0.7210 C.ar  1 <1>  -0.1500 
 13 C       -3.5430    -2.3960    -0.2120 C.ar  1 <1>  -0.1430 
 14 C       -4.4420    -0.0910     0.2080 C.2   1 <1>   0.5440 
 15 C       -4.7550    -3.0500     0.4400 C.3   1 <1>  -0.0970 
 16 O       -4.8570    -0.1500     1.3440 O.2   1 <1>  -0.5700 
 17 N       -4.9600     0.8850    -0.5720 N.am  1 <1>  -0.8000 
 18 H        2.2280    -0.4250    -1.4560 H     1 <1>   0.4200 
 19 H        1.1160     1.2860    -0.1820 H     1 <1>   0.1000 
 20 H       -2.1920     0.5900    -0.9790 H     1 <1>   0.1500 
 21 H       -0.6550    -3.2990    -1.7100 H     1 <1>   0.1500 
 22 H        2.3060     0.7590     1.9720 H     1 <1>   0.1000 
 23 H        2.5210    -0.9380     1.4380 H     1 <1>   0.1000 
 24 H        0.0090    -1.2030     1.3180 H     1 <1>   0.1000 
 25 H       -0.1930     0.4980     1.8410 H     1 <1>   0.1000 
 26 H       -2.6220    -4.2780    -0.6510 H     1 <1>   0.1500 
 27 H       -4.7560    -4.1140     0.2870 H     1 <1>   0.0800 
 28 H       -4.7470    -2.8590     1.4990 H     1 <1>   0.0800 
 29 H       -5.6640    -2.6490     0.0270 H     1 <1>   0.0800 
 30 H       -5.6800     1.4950    -0.1830 H     1 <1>   0.3700 
 31 H       -4.7510     0.9910    -1.5640 H     1 <1>   0.3700 
@<TRIPOS>BOND
  1   1   2  2   
  2   1   3  2   
  3   1   4  am  
  4   1   5  1   
  5   4   6  1   
  6   4  18  1   
  7   5   7  ar  
  8   5   8  ar  
  9   6   9  1   
 10   6  10  1   
 11   6  19  1   
 12   7  11  ar  
 13   7  20  1   
 14   8  12  ar  
 15   8  21  1   
 16   9  10  1   
 17   9  22  1   
 18   9  23  1   
 19  10  24  1   
 20  10  25  1   
 21  11  13  ar  
 22  11  14  1   
 23  12  13  ar  
 24  12  26  1   
 25  13  15  1   
 26  14  16  2   
 27  14  17  am  
 28  15  27  1   
 29  15  28  1   
 30  15  29  1   
 31  17  30  1   
 32  17  31  1   
@<TRIPOS>SUBSTRUCTURE
  1 ****   7 GROUP 4 **** **** 0

# MOE 2024.06 (io_trps.svl 2023.06)
