@<TRIPOS>MOLECULE
NONAME
36 37 1 0 0 
SMALL
USER_CHARGES


@<TRIPOS>ATOM
  1 O       -0.5770    -0.6640    -0.3100 O.3   1 <1>  -0.0190 
  2 N       -1.7750    -0.8090     0.1620 N.2   1 <1>  -0.4100 
  3 C       -0.5540     0.5680    -0.7490 C.2   1 <1>   0.2980 
  4 C       -2.4050     0.2990    -0.0100 C.2   1 <1>   0.4620 
  5 N       -1.6360     1.2150    -0.6080 N.2   1 <1>  -0.5650 
  6 C        0.7180     1.1000    -1.3890 C.3   1 <1>   0.0200 
  7 C       -3.7800     0.5650     0.3820 C.ar  1 <1>   0.0540 
  8 C        1.8150     1.5450    -0.3910 C.3   1 <1>   0.0000 
  9 C       -4.3840     1.8040     0.1560 C.ar  1 <1>  -0.1500 
 10 C       -4.5570    -0.4140     1.0050 C.ar  1 <1>  -0.1500 
 11 C        1.2900     2.6540     0.5360 C.3   1 <1>  -0.2400 
 12 C        2.3050     0.3690     0.4690 C.3   1 <1>  -0.2400 
 13 C        3.0110     2.0960    -1.1830 C.3   1 <1>  -0.2400 
 14 C       -5.6910     2.0590     0.5300 C.ar  1 <1>  -0.1500 
 15 C       -5.8650    -0.1690     1.3820 C.ar  1 <1>  -0.1500 
 16 C       -6.4440     1.0670     1.1490 C.ar  1 <1>   0.0820 
 17 O       -7.7290     1.2280     1.5470 O.3   1 <1>  -0.3630 
 18 C       -8.4110     2.4470     1.3530 C.3   1 <1>   0.0400 
 19 H        0.4470     1.9380    -2.0050 H     1 <1>   0.0800 
 20 H        1.1080     0.3400    -2.0410 H     1 <1>   0.0800 
 21 H       -3.8170     2.5840    -0.3220 H     1 <1>   0.1500 
 22 H       -4.1310    -1.3830     1.1980 H     1 <1>   0.1500 
 23 H        0.9320     3.4900    -0.0390 H     1 <1>   0.0800 
 24 H        2.0700     3.0010     1.1900 H     1 <1>   0.0800 
 25 H        0.4800     2.2940     1.1460 H     1 <1>   0.0800 
 26 H        2.6370    -0.4450    -0.1520 H     1 <1>   0.0800 
 27 H        3.1270     0.6750     1.0920 H     1 <1>   0.0800 
 28 H        1.5230     0.0080     1.1140 H     1 <1>   0.0800 
 29 H        2.7130     2.9370    -1.7850 H     1 <1>   0.0800 
 30 H        3.4170     1.3410    -1.8320 H     1 <1>   0.0800 
 31 H        3.7900     2.4210    -0.5160 H     1 <1>   0.0800 
 32 H       -6.1040     3.0290     0.3320 H     1 <1>   0.1500 
 33 H       -6.4470    -0.9350     1.8610 H     1 <1>   0.1500 
 34 H       -9.4060     2.3380     1.7440 H     1 <1>   0.0800 
 35 H       -8.4530     2.6590     0.2990 H     1 <1>   0.0800 
 36 H       -7.8920     3.2250     1.8840 H     1 <1>   0.0800 
@<TRIPOS>BOND
  1   1   2  1   
  2   1   3  1   
  3   2   4  2   
  4   3   5  2   
  5   3   6  1   
  6   4   5  1   
  7   4   7  1   
  8   6   8  1   
  9   6  19  1   
 10   6  20  1   
 11   7   9  ar  
 12   7  10  ar  
 13   8  11  1   
 14   8  12  1   
 15   8  13  1   
 16   9  14  ar  
 17   9  21  1   
 18  10  15  ar  
 19  10  22  1   
 20  11  23  1   
 21  11  24  1   
 22  11  25  1   
 23  12  26  1   
 24  12  27  1   
 25  12  28  1   
 26  13  29  1   
 27  13  30  1   
 28  13  31  1   
 29  14  16  ar  
 30  14  32  1   
 31  15  16  ar  
 32  15  33  1   
 33  16  17  1   
 34  17  18  1   
 35  18  34  1   
 36  18  35  1   
 37  18  36  1   
@<TRIPOS>SUBSTRUCTURE
  1 ****   4 GROUP 4 **** **** 0

# MOE 2024.06 (io_trps.svl 2023.06)
