@<TRIPOS>MOLECULE
NONAME
39 40 1 0 0 
SMALL
USER_CHARGES


@<TRIPOS>ATOM
  1 CL      -0.2750    -0.6830     1.9370 Cl    1 <1>  -0.1770 
  2 C       -0.8100    -1.7130     0.6260 C.ar  1 <1>   0.1770 
  3 C        0.1050    -2.4810    -0.0850 C.ar  1 <1>   0.0830 
  4 C       -2.1590    -1.7600     0.3270 C.ar  1 <1>  -0.1500 
  5 O        1.4290    -2.4410     0.2040 O.3   1 <1>  -0.2320 
  6 C       -0.3450    -3.3180    -1.0950 C.ar  1 <1>  -0.1500 
  7 C       -2.6020    -2.5920    -0.6900 C.ar  1 <1>  -0.1500 
  8 C        2.1950    -1.3940    -0.0910 C.2   1 <1>   0.6590 
  9 C       -1.6970    -3.3690    -1.3960 C.ar  1 <1>  -0.1500 
 10 O        1.7940    -0.4600    -0.7390 O.2   1 <1>  -0.5700 
 11 C        3.6160    -1.4540     0.4670 C.3   1 <1>  -0.0190 
 12 C        4.3500    -0.1020     0.3960 C.3   1 <1>  -0.1600 
 13 C        4.4590    -2.5230    -0.2490 C.3   1 <1>  -0.1600 
 14 C        5.7830    -0.2230     0.9180 C.3   1 <1>   0.1960 
 15 C        5.8970    -2.5550     0.2780 C.3   1 <1>   0.1960 
 16 N        6.5170    -1.2340     0.1480 N.am  1 <1>  -0.8490 
 17 S        8.1650    -1.2720     0.5490 S.o2  1 <1>   1.3330 
 18 O        8.2780    -0.9260     1.9490 O.2   1 <1>  -0.6500 
 19 O        8.7140    -2.5230     0.0760 O.2   1 <1>  -0.6500 
 20 C        8.8500     0.0530    -0.4580 C.3   1 <1>  -0.0550 
 21 C       10.3680     0.2520    -0.3010 C.3   1 <1>  -0.2400 
 22 H       -2.8510    -1.1550     0.8840 H     1 <1>   0.1500 
 23 H        0.3570    -3.9200    -1.6440 H     1 <1>   0.1500 
 24 H       -3.6510    -2.6340    -0.9310 H     1 <1>   0.1500 
 25 H       -2.0470    -4.0150    -2.1840 H     1 <1>   0.1500 
 26 H        3.5330    -1.7290     1.5040 H     1 <1>   0.0800 
 27 H        3.8190     0.6290     0.9790 H     1 <1>   0.0800 
 28 H        4.3800     0.2490    -0.6210 H     1 <1>   0.0800 
 29 H        4.4850    -2.3200    -1.3060 H     1 <1>   0.0800 
 30 H        4.0160    -3.4940    -0.1110 H     1 <1>   0.0800 
 31 H        5.7710    -0.4930     1.9620 H     1 <1>   0.0800 
 32 H        6.2700     0.7320     0.8260 H     1 <1>   0.0800 
 33 H        6.4500    -3.2780    -0.2990 H     1 <1>   0.0800 
 34 H        5.9150    -2.8670     1.3100 H     1 <1>   0.0800 
 35 H        8.3590     0.9730    -0.2070 H     1 <1>   0.0800 
 36 H        8.6370    -0.1560    -1.4880 H     1 <1>   0.0800 
 37 H       10.6070     0.4880     0.7210 H     1 <1>   0.0800 
 38 H       10.7060     1.0550    -0.9320 H     1 <1>   0.0800 
 39 H       10.8890    -0.6490    -0.5770 H     1 <1>   0.0800 
@<TRIPOS>BOND
  1   1   2  1   
  2   2   3  ar  
  3   2   4  ar  
  4   3   5  1   
  5   3   6  ar  
  6   4   7  ar  
  7   4  22  1   
  8   5   8  1   
  9   6   9  ar  
 10   6  23  1   
 11   7   9  ar  
 12   7  24  1   
 13   8  10  2   
 14   8  11  1   
 15   9  25  1   
 16  11  12  1   
 17  11  13  1   
 18  11  26  1   
 19  12  14  1   
 20  12  27  1   
 21  12  28  1   
 22  13  15  1   
 23  13  29  1   
 24  13  30  1   
 25  14  16  1   
 26  14  31  1   
 27  14  32  1   
 28  15  16  1   
 29  15  33  1   
 30  15  34  1   
 31  16  17  am  
 32  17  18  2   
 33  17  19  2   
 34  17  20  1   
 35  20  21  1   
 36  20  35  1   
 37  20  36  1   
 38  21  37  1   
 39  21  38  1   
 40  21  39  1   
@<TRIPOS>SUBSTRUCTURE
  1 ****  11 GROUP 4 **** **** 0

# MOE 2024.06 (io_trps.svl 2023.06)
