@<TRIPOS>MOLECULE
NONAME
42 43 1 0 0 
SMALL
USER_CHARGES


@<TRIPOS>ATOM
  1 O        1.7550     2.9340     1.2350 O.2   1 <1>  -0.5700 
  2 C        0.7670     2.4200     0.7680 C.2   1 <1>   0.5690 
  3 N        0.7210     1.9960    -0.5280 N.am  1 <1>  -0.7300 
  4 C       -0.4500     2.2150     1.6580 C.3   1 <1>   0.0440 
  5 C        1.6280     2.2500    -1.6970 C.3   1 <1>   0.1400 
  6 C       -1.5300     1.3790     0.9690 C.ar  1 <1>  -0.1430 
  7 C        3.0850     2.6570    -1.3730 C.3   1 <1>   0.3430 
  8 C       -2.4850     1.9470     0.1280 C.ar  1 <1>  -0.1440 
  9 C       -1.5310     0.0060     1.1760 C.ar  1 <1>  -0.1500 
 10 N        3.7060     1.8200    -0.3040 N.4   1 <1>  -0.9590 
 11 C       -3.4140     1.1280    -0.4960 C.ar  1 <1>  -0.1500 
 12 C       -2.5530     3.4470    -0.1290 C.3   1 <1>  -0.0970 
 13 C       -2.4610    -0.8010     0.5490 C.ar  1 <1>  -0.1500 
 14 C        5.0510     2.3320     0.1150 C.3   1 <1>   0.3430 
 15 C        3.7360     0.3480    -0.5900 C.3   1 <1>   0.3430 
 16 C       -3.4030    -0.2390    -0.2900 C.ar  1 <1>  -0.1500 
 17 C        5.6610     1.4530     1.2230 C.3   1 <1>   0.1200 
 18 C        4.4150    -0.4290     0.5540 C.3   1 <1>   0.1200 
 19 O        5.6760     0.1100     0.8280 O.3   1 <1>  -0.5600 
 20 H       -0.1820     1.5690    -0.7900 H     1 <1>   0.3700 
 21 H       -0.8380     3.1740     1.9440 H     1 <1>   0.0800 
 22 H       -0.1330     1.7260     2.5600 H     1 <1>   0.0800 
 23 H        1.1890     3.0250    -2.3020 H     1 <1>   0.0800 
 24 H        1.6520     1.3620    -2.3030 H     1 <1>   0.0800 
 25 H        3.0760     3.6850    -1.0480 H     1 <1>   0.0800 
 26 H        3.6770     2.6040    -2.2720 H     1 <1>   0.0800 
 27 H       -0.8060    -0.4490     1.8290 H     1 <1>   0.1500 
 28 H        3.0740     1.9690     0.5110 H     1 <1>   0.4500 
 29 H       -4.1610     1.5500    -1.1460 H     1 <1>   0.1500 
 30 H       -1.6000     3.8240    -0.4510 H     1 <1>   0.0800 
 31 H       -2.8470     3.9590     0.7700 H     1 <1>   0.0800 
 32 H       -3.2750     3.6750    -0.8920 H     1 <1>   0.0800 
 33 H       -2.4570    -1.8640     0.7160 H     1 <1>   0.1500 
 34 H        4.9630     3.3440     0.4730 H     1 <1>   0.0800 
 35 H        5.7220     2.3310    -0.7290 H     1 <1>   0.0800 
 36 H        4.2840     0.1630    -1.4990 H     1 <1>   0.0800 
 37 H        2.7320    -0.0220    -0.7210 H     1 <1>   0.0800 
 38 H       -4.1320    -0.8630    -0.7790 H     1 <1>   0.1500 
 39 H        5.1000     1.5400     2.1380 H     1 <1>   0.0800 
 40 H        6.6780     1.7490     1.4150 H     1 <1>   0.0800 
 41 H        4.5530    -1.4590     0.2730 H     1 <1>   0.0800 
 42 H        3.8200    -0.3950     1.4510 H     1 <1>   0.0800 
@<TRIPOS>BOND
  1   1   2  2   
  2   2   3  am  
  3   2   4  1   
  4   3   5  1   
  5   3  20  1   
  6   4   6  1   
  7   4  21  1   
  8   4  22  1   
  9   5   7  1   
 10   5  23  1   
 11   5  24  1   
 12   6   8  ar  
 13   6   9  ar  
 14   7  10  1   
 15   7  25  1   
 16   7  26  1   
 17   8  11  ar  
 18   8  12  1   
 19   9  13  ar  
 20   9  27  1   
 21  10  14  1   
 22  10  15  1   
 23  10  28  1   
 24  11  16  ar  
 25  11  29  1   
 26  12  30  1   
 27  12  31  1   
 28  12  32  1   
 29  13  16  ar  
 30  13  33  1   
 31  14  17  1   
 32  14  34  1   
 33  14  35  1   
 34  15  18  1   
 35  15  36  1   
 36  15  37  1   
 37  16  38  1   
 38  17  19  1   
 39  17  39  1   
 40  17  40  1   
 41  18  19  1   
 42  18  41  1   
 43  18  42  1   
@<TRIPOS>SUBSTRUCTURE
  1 ****   3 GROUP 4 **** **** 0

# MOE 2024.06 (io_trps.svl 2023.06)
