@<TRIPOS>MOLECULE
NONAME
45 46 1 0 0 
SMALL
USER_CHARGES


@<TRIPOS>ATOM
  1 CL       0.0980    -2.7300     2.6270 Cl    1 <1>  -0.1770 
  2 C        0.3550    -3.2360     0.9700 C.ar  1 <1>   0.1770 
  3 C       -0.1710    -2.5060    -0.0900 C.ar  1 <1>   0.0820 
  4 C        1.1070    -4.3720     0.7400 C.ar  1 <1>  -0.1500 
  5 O       -0.8600    -1.3630     0.1090 O.3   1 <1>  -0.3630 
  6 C        0.0240    -2.9540    -1.3860 C.ar  1 <1>  -0.1500 
  7 C        1.3420    -4.7930    -0.5620 C.ar  1 <1>  -0.1440 
  8 C       -0.0730    -0.2170     0.3600 C.3   1 <1>   0.1200 
  9 C        0.7810    -4.0900    -1.6210 C.ar  1 <1>  -0.1500 
 10 C        2.2730    -5.9770    -0.8080 C.3   1 <1>   0.0450 
 11 C       -0.9740     0.9420     0.8100 C.3   1 <1>  -0.0800 
 12 C        3.7100    -5.5790    -0.5080 C.2   1 <1>   0.5690 
 13 C       -0.1370     2.2120     1.0070 C.3   1 <1>  -0.2400 
 14 C       -1.7170     0.6060     2.1120 C.3   1 <1>  -0.2400 
 15 O        4.4550    -6.3750     0.0090 O.2   1 <1>  -0.5700 
 16 N        4.0920    -4.3110    -0.7940 N.am  1 <1>  -0.7300 
 17 C        5.2290    -3.6110    -0.1830 C.3   1 <1>   0.2840 
 18 C        4.6880    -2.2870     0.3300 C.ar  1 <1>  -0.1440 
 19 C        3.9200    -2.2550     1.4840 C.ar  1 <1>  -0.1500 
 20 C        4.9280    -1.1070    -0.3580 C.ar  1 <1>  -0.1500 
 21 C        3.3950    -1.0610     1.9460 C.ar  1 <1>  -0.1500 
 22 C        4.4050     0.0900     0.1040 C.ar  1 <1>  -0.1500 
 23 C        3.6380     0.1130     1.2560 C.ar  1 <1>  -0.1500 
 24 H        1.5190    -4.9070     1.5770 H     1 <1>   0.1500 
 25 H       -0.4080    -2.4040    -2.2030 H     1 <1>   0.1500 
 26 H        0.4460     0.0320    -0.5490 H     1 <1>   0.0800 
 27 H        0.6460    -0.4510     1.1250 H     1 <1>   0.0800 
 28 H        0.9400    -4.4150    -2.6350 H     1 <1>   0.1500 
 29 H        2.2120    -6.3090    -1.8270 H     1 <1>   0.0800 
 30 H        1.9960    -6.7970    -0.1710 H     1 <1>   0.0800 
 31 H       -1.6950     1.1300     0.0330 H     1 <1>   0.0800 
 32 H        0.5970     2.0670     1.7800 H     1 <1>   0.0800 
 33 H       -0.7700     3.0350     1.2860 H     1 <1>   0.0800 
 34 H        0.3700     2.4710     0.0940 H     1 <1>   0.0800 
 35 H       -1.0200     0.3920     2.9030 H     1 <1>   0.0800 
 36 H       -2.3460    -0.2560     1.9710 H     1 <1>   0.0800 
 37 H       -2.3400     1.4300     2.4120 H     1 <1>   0.0800 
 38 H        3.3700    -3.6650    -1.1240 H     1 <1>   0.3700 
 39 H        5.9960    -3.4540    -0.9210 H     1 <1>   0.0800 
 40 H        5.6370    -4.1920     0.6270 H     1 <1>   0.0800 
 41 H        3.7230    -3.1650     2.0260 H     1 <1>   0.1500 
 42 H        5.5190    -1.1130    -1.2570 H     1 <1>   0.1500 
 43 H        2.7980    -1.0480     2.8420 H     1 <1>   0.1500 
 44 H        4.5960     1.0020    -0.4330 H     1 <1>   0.1500 
 45 H        3.2330     1.0430     1.6150 H     1 <1>   0.1500 
@<TRIPOS>BOND
  1   1   2  1   
  2   2   3  ar  
  3   2   4  ar  
  4   3   5  1   
  5   3   6  ar  
  6   4   7  ar  
  7   4  24  1   
  8   5   8  1   
  9   6   9  ar  
 10   6  25  1   
 11   7   9  ar  
 12   7  10  1   
 13   8  11  1   
 14   8  26  1   
 15   8  27  1   
 16   9  28  1   
 17  10  12  1   
 18  10  29  1   
 19  10  30  1   
 20  11  13  1   
 21  11  14  1   
 22  11  31  1   
 23  12  15  2   
 24  12  16  am  
 25  13  32  1   
 26  13  33  1   
 27  13  34  1   
 28  14  35  1   
 29  14  36  1   
 30  14  37  1   
 31  16  17  1   
 32  16  38  1   
 33  17  18  1   
 34  17  39  1   
 35  17  40  1   
 36  18  19  ar  
 37  18  20  ar  
 38  19  21  ar  
 39  19  41  1   
 40  20  22  ar  
 41  20  42  1   
 42  21  23  ar  
 43  21  43  1   
 44  22  23  ar  
 45  22  44  1   
 46  23  45  1   
@<TRIPOS>SUBSTRUCTURE
  1 ****   2 GROUP 4 **** **** 0

# MOE 2024.06 (io_trps.svl 2023.06)
