@<TRIPOS>MOLECULE
NONAME
40 41 1 0 0 
SMALL
USER_CHARGES


@<TRIPOS>ATOM
  1 BR       1.5400    -0.4630     0.3430 Br    1 <1>  -0.1110 
  2 C        1.2220    -2.3440     0.5800 C.ar  1 <1>   0.1110 
  3 C        0.5430    -3.0370    -0.4020 C.ar  1 <1>  -0.1500 
  4 C        1.6820    -2.9610     1.7260 C.ar  1 <1>  -0.1500 
  5 C        0.3230    -4.3930    -0.2240 C.ar  1 <1>  -0.1500 
  6 C        1.4530    -4.3170     1.8820 C.ar  1 <1>  -0.1500 
  7 C        0.7770    -5.0590     0.9150 C.ar  1 <1>  -0.0090 
  8 S        0.5070    -6.8390     1.1780 S.o2  1 <1>   1.4470 
  9 O        1.7800    -7.5170     1.3170 O.2   1 <1>  -0.6500 
 10 O       -0.4590    -6.9890     2.2440 O.2   1 <1>  -0.6500 
 11 N       -0.2180    -7.4160    -0.2500 N.am  1 <1>  -0.8490 
 12 C        0.7470    -7.9500    -1.2510 C.3   1 <1>   0.2570 
 13 C       -1.2850    -8.3930    -0.0010 C.3   1 <1>   0.1160 
 14 C        1.7820    -6.9580    -1.8080 C.2   1 <1>   0.5690 
 15 O        1.5470    -6.3920    -2.8490 O.2   1 <1>  -0.5700 
 16 N        2.9420    -6.7600    -1.1330 N.am  1 <1>  -0.7300 
 17 C        4.0760    -5.9320    -1.5760 C.3   1 <1>   0.2200 
 18 C        5.3620    -6.7080    -1.3240 C.3   1 <1>  -0.1600 
 19 C        4.2110    -4.7340    -0.6480 C.3   1 <1>  -0.1600 
 20 C        5.6790    -6.5160     0.1650 C.3   1 <1>  -0.1600 
 21 C        4.9090    -5.2650     0.6080 C.3   1 <1>  -0.1600 
 22 H        0.1970    -2.5300    -1.2850 H     1 <1>   0.1500 
 23 H        2.2060    -2.3920     2.4740 H     1 <1>   0.1500 
 24 H       -0.2070    -4.9330    -0.9900 H     1 <1>   0.1500 
 25 H        1.8050    -4.8120     2.7730 H     1 <1>   0.1500 
 26 H        0.1940    -8.3160    -2.0980 H     1 <1>   0.0800 
 27 H        1.2750    -8.7870    -0.8300 H     1 <1>   0.0800 
 28 H       -2.0590    -7.9480     0.6020 H     1 <1>   0.0800 
 29 H       -0.8940    -9.2520     0.5180 H     1 <1>   0.0800 
 30 H       -1.7290    -8.7090    -0.9290 H     1 <1>   0.0800 
 31 H        3.0520    -7.1620    -0.1920 H     1 <1>   0.3700 
 32 H        3.9590    -5.6440    -2.6090 H     1 <1>   0.0800 
 33 H        6.1480    -6.2610    -1.9080 H     1 <1>   0.0800 
 34 H        5.2760    -7.7440    -1.6020 H     1 <1>   0.0800 
 35 H        3.2640    -4.2710    -0.4420 H     1 <1>   0.0800 
 36 H        4.8480    -4.0080    -1.1220 H     1 <1>   0.0800 
 37 H        6.7380    -6.3990     0.3180 H     1 <1>   0.0800 
 38 H        5.3380    -7.3680     0.7280 H     1 <1>   0.0800 
 39 H        4.1730    -5.5390     1.3450 H     1 <1>   0.0800 
 40 H        5.5640    -4.5220     1.0310 H     1 <1>   0.0800 
@<TRIPOS>BOND
  1   1   2  1   
  2   2   3  ar  
  3   2   4  ar  
  4   3   5  ar  
  5   3  22  1   
  6   4   6  ar  
  7   4  23  1   
  8   5   7  ar  
  9   5  24  1   
 10   6   7  ar  
 11   6  25  1   
 12   7   8  1   
 13   8   9  2   
 14   8  10  2   
 15   8  11  am  
 16  11  12  1   
 17  11  13  1   
 18  12  14  1   
 19  12  26  1   
 20  12  27  1   
 21  13  28  1   
 22  13  29  1   
 23  13  30  1   
 24  14  15  2   
 25  14  16  am  
 26  16  17  1   
 27  16  31  1   
 28  17  18  1   
 29  17  19  1   
 30  17  32  1   
 31  18  20  1   
 32  18  33  1   
 33  18  34  1   
 34  19  21  1   
 35  19  35  1   
 36  19  36  1   
 37  20  21  1   
 38  20  37  1   
 39  20  38  1   
 40  21  39  1   
 41  21  40  1   
@<TRIPOS>SUBSTRUCTURE
  1 ****   7 GROUP 4 **** **** 0

# MOE 2024.06 (io_trps.svl 2023.06)
