@<TRIPOS>MOLECULE
NONAME
35 36 1 0 0 
SMALL
USER_CHARGES


@<TRIPOS>ATOM
  1 O        1.6220     1.5900    -1.6430 O.2   1 <1>  -0.5700 
  2 C        2.6920     1.5290    -1.0720 C.2   1 <1>   0.6900 
  3 N        3.1930     0.3470    -0.5600 N.am  1 <1>  -0.4230 
  4 N        3.4150     2.6770    -0.9380 N.am  1 <1>  -0.4900 
  5 C        4.4330     0.3680     0.0790 C.2   1 <1>   0.2900 
  6 C        2.4610    -0.9420    -0.6690 C.3   1 <1>   0.0600 
  7 C        4.6220     2.7370    -0.3210 C.2   1 <1>   0.7150 
  8 N        5.0630    -0.6720     0.6200 N.2   1 <1>  -0.5650 
  9 C        5.1320     1.5210     0.2000 C.2   1 <1>  -0.2370 
 10 O        5.1970     3.8030    -0.2450 O.2   1 <1>  -0.5700 
 11 C        6.1710    -0.1460     1.0820 C.2   1 <1>   0.3120 
 12 N        6.2660     1.1920     0.8550 N.pl3 1 <1>   0.0480 
 13 N        7.1540    -0.8490     1.7280 N.2   1 <1>  -0.4440 
 14 C        7.3780     2.0980     1.2260 C.3   1 <1>   0.0960 
 15 N        6.9900    -2.0890     1.8810 N.1   1 <1>   0.6880 
 16 C        8.3610     2.2440     0.0590 C.3   1 <1>  -0.1600 
 17 N        6.8610    -3.3060     2.0470 N.1   1 <1>  -0.3700 
 18 C        9.5230     3.1740     0.4310 C.3   1 <1>  -0.1600 
 19 C       10.5070     3.3190    -0.7360 C.3   1 <1>  -0.1600 
 20 C       11.6650     4.2490    -0.3660 C.3   1 <1>  -0.2400 
 21 H        3.0250     3.5290    -1.3220 H     1 <1>   0.3700 
 22 H        1.5210    -0.8090    -1.1750 H     1 <1>   0.0800 
 23 H        2.2770    -1.3330     0.3160 H     1 <1>   0.0800 
 24 H        3.0590    -1.6470    -1.2190 H     1 <1>   0.0800 
 25 H        7.8840     1.6970     2.0870 H     1 <1>   0.0800 
 26 H        6.9720     3.0580     1.4910 H     1 <1>   0.0800 
 27 H        7.8430     2.6510    -0.7930 H     1 <1>   0.0800 
 28 H        8.7500     1.2750    -0.2040 H     1 <1>   0.0800 
 29 H       10.0420     2.7790     1.2870 H     1 <1>   0.0800 
 30 H        9.1350     4.1450     0.6910 H     1 <1>   0.0800 
 31 H        9.9940     3.7180    -1.5950 H     1 <1>   0.0800 
 32 H       10.9010     2.3530    -1.0010 H     1 <1>   0.0800 
 33 H       11.2960     5.2300    -0.1200 H     1 <1>   0.0800 
 34 H       12.3440     4.3390    -1.1960 H     1 <1>   0.0800 
 35 H       12.2070     3.8600     0.4780 H     1 <1>   0.0800 
@<TRIPOS>BOND
  1   1   2  2   
  2   2   3  am  
  3   2   4  am  
  4   3   5  1   
  5   3   6  1   
  6   4   7  am  
  7   4  21  1   
  8   5   8  1   
  9   5   9  2   
 10   6  22  1   
 11   6  23  1   
 12   6  24  1   
 13   7   9  1   
 14   7  10  2   
 15   8  11  2   
 16   9  12  1   
 17  11  12  1   
 18  11  13  1   
 19  12  14  1   
 20  13  15  2   
 21  14  16  1   
 22  14  25  1   
 23  14  26  1   
 24  15  17  3   
 25  16  18  1   
 26  16  27  1   
 27  16  28  1   
 28  18  19  1   
 29  18  29  1   
 30  18  30  1   
 31  19  20  1   
 32  19  31  1   
 33  19  32  1   
 34  20  33  1   
 35  20  34  1   
 36  20  35  1   
@<TRIPOS>SUBSTRUCTURE
  1 ****  12 GROUP 4 **** **** 0

# MOE 2024.06 (io_trps.svl 2023.06)
