@<TRIPOS>MOLECULE
NONAME
50 52 1 0 0 
SMALL
USER_CHARGES


@<TRIPOS>ATOM
  1 F       -2.1410     0.2380     0.4780 F     1 <1>  -0.3400 
  2 C       -2.7620     0.7390    -0.5810 C.3   1 <1>   1.1640 
  3 F       -1.8350     0.9320    -1.5110 F     1 <1>  -0.3400 
  4 F       -3.5550    -0.2230    -1.0380 F     1 <1>  -0.3400 
  5 C       -3.5560     2.0100    -0.2310 C.ar  1 <1>  -0.1440 
  6 C       -4.7590     1.9110     0.4630 C.ar  1 <1>  -0.1500 
  7 C       -3.0960     3.2730    -0.5860 C.ar  1 <1>  -0.1500 
  8 C       -5.4930     3.0430     0.7880 C.ar  1 <1>  -0.1440 
  9 C       -3.8180     4.4050    -0.2580 C.ar  1 <1>  -0.1500 
 10 C       -5.0130     4.2930     0.4280 C.ar  1 <1>  -0.1500 
 11 C       -6.8140     2.9220     1.5250 C.3   1 <1>   0.4870 
 12 N       -7.8500     2.4080     0.5910 N.4   1 <1>  -0.9590 
 13 C       -8.0240     3.3240    -0.5980 C.3   1 <1>   0.3430 
 14 C       -9.1660     2.2130     1.2990 C.3   1 <1>   0.3430 
 15 C       -9.1200     2.8500    -1.5750 C.3   1 <1>   0.2090 
 16 C      -10.2850     1.7020     0.3670 C.3   1 <1>   0.2090 
 17 N      -10.3980     2.5120    -0.8810 N.pl3 1 <1>  -0.8380 
 18 C      -11.4150     3.4770    -0.9160 C.ar  1 <1>   0.1000 
 19 C      -11.3810     4.6910    -0.2040 C.ar  1 <1>   0.0830 
 20 C      -12.5190     3.1980    -1.7080 C.ar  1 <1>  -0.1500 
 21 O      -10.2860     4.9620     0.5760 O.3   1 <1>  -0.3630 
 22 C      -12.4500     5.5770    -0.3090 C.ar  1 <1>  -0.1500 
 23 C      -13.5750     4.0840    -1.8070 C.ar  1 <1>  -0.1500 
 24 C      -10.1580     6.2000     1.2400 C.3   1 <1>   0.1200 
 25 C      -13.5410     5.2740    -1.1070 C.ar  1 <1>  -0.1500 
 26 C       -8.8150     6.2120     1.9660 C.3   1 <1>  -0.2400 
 27 H       -5.1150     0.9350     0.7530 H     1 <1>   0.1500 
 28 H       -2.1650     3.3890    -1.1200 H     1 <1>   0.1500 
 29 H       -3.4440     5.3770    -0.5360 H     1 <1>   0.1500 
 30 H       -5.5540     5.1910     0.6760 H     1 <1>   0.1500 
 31 H       -7.1070     3.8860     1.9070 H     1 <1>   0.0800 
 32 H       -6.6970     2.2470     2.3580 H     1 <1>   0.0800 
 33 H       -7.5360     1.5030     0.2260 H     1 <1>   0.4500 
 34 H       -7.0950     3.4050    -1.1390 H     1 <1>   0.0800 
 35 H       -8.2850     4.3110    -0.2580 H     1 <1>   0.0800 
 36 H       -9.4900     3.1500     1.7200 H     1 <1>   0.0800 
 37 H       -9.0480     1.5150     2.1110 H     1 <1>   0.0800 
 38 H       -8.7750     1.9850    -2.1130 H     1 <1>   0.0800 
 39 H       -9.3040     3.6270    -2.2990 H     1 <1>   0.0800 
 40 H      -11.2240     1.7320     0.8950 H     1 <1>   0.0800 
 41 H      -10.0970     0.6770     0.1020 H     1 <1>   0.0800 
 42 H      -12.5440     2.2720    -2.2530 H     1 <1>   0.1500 
 43 H      -12.4680     6.5110     0.2180 H     1 <1>   0.1500 
 44 H      -14.4210     3.8470    -2.4290 H     1 <1>   0.1500 
 45 H      -10.9690     6.2980     1.9420 H     1 <1>   0.0800 
 46 H      -10.2010     6.9890     0.5080 H     1 <1>   0.0800 
 47 H      -14.3630     5.9650    -1.1820 H     1 <1>   0.1500 
 48 H       -8.7780     5.4230     2.6940 H     1 <1>   0.0800 
 49 H       -8.6990     7.1500     2.4810 H     1 <1>   0.0800 
 50 H       -8.0100     6.1140     1.2620 H     1 <1>   0.0800 
@<TRIPOS>BOND
  1   1   2  1   
  2   2   3  1   
  3   2   4  1   
  4   2   5  1   
  5   5   6  ar  
  6   5   7  ar  
  7   6   8  ar  
  8   6  27  1   
  9   7   9  ar  
 10   7  28  1   
 11   8  10  ar  
 12   8  11  1   
 13   9  10  ar  
 14   9  29  1   
 15  10  30  1   
 16  11  12  1   
 17  11  31  1   
 18  11  32  1   
 19  12  13  1   
 20  12  14  1   
 21  12  33  1   
 22  13  15  1   
 23  13  34  1   
 24  13  35  1   
 25  14  16  1   
 26  14  36  1   
 27  14  37  1   
 28  15  17  1   
 29  15  38  1   
 30  15  39  1   
 31  16  17  1   
 32  16  40  1   
 33  16  41  1   
 34  17  18  1   
 35  18  19  ar  
 36  18  20  ar  
 37  19  21  1   
 38  19  22  ar  
 39  20  23  ar  
 40  20  42  1   
 41  21  24  1   
 42  22  25  ar  
 43  22  43  1   
 44  23  25  ar  
 45  23  44  1   
 46  24  26  1   
 47  24  45  1   
 48  24  46  1   
 49  25  47  1   
 50  26  48  1   
 51  26  49  1   
 52  26  50  1   
@<TRIPOS>SUBSTRUCTURE
  1 ****  13 GROUP 4 **** **** 0

# MOE 2024.06 (io_trps.svl 2023.06)
