@<TRIPOS>MOLECULE
NONAME
46 48 1 0 0 
SMALL
USER_CHARGES


@<TRIPOS>ATOM
  1 O       -0.1950     0.2720     1.0820 O.2   1 <1>  -0.5700 
  2 C       -0.2040     1.0430     0.1430 C.2   1 <1>   0.6900 
  3 N       -1.3550     1.5310    -0.3960 N.am  1 <1>  -0.5470 
  4 N        0.9720     1.4450    -0.4010 N.am  1 <1>  -0.7300 
  5 C       -2.6960     1.2200    -0.1200 C.ar  1 <1>   0.1170 
  6 C        2.2780     1.0260     0.1270 C.3   1 <1>   0.2200 
  7 C       -3.6670     2.1860    -0.3830 C.ar  1 <1>  -0.1500 
  8 C       -3.0940    -0.0230     0.3880 C.ar  1 <1>  -0.1500 
  9 C        3.3230     2.0990    -0.1530 C.3   1 <1>  -0.1600 
 10 C        2.6850    -0.2950    -0.5160 C.3   1 <1>  -0.1600 
 11 C       -4.9880     1.8830    -0.1280 C.ar  1 <1>   0.0830 
 12 C       -4.4280    -0.3110     0.6400 C.ar  1 <1>  -0.1500 
 13 C        4.6920     1.6370     0.3420 C.3   1 <1>   0.3430 
 14 C        4.0580    -0.7230    -0.0110 C.3   1 <1>   0.3430 
 15 O       -6.0640     2.6570    -0.3060 O.3   1 <1>  -0.3630 
 16 C       -5.3610     0.6690     0.3700 C.ar  1 <1>   0.0830 
 17 N        5.0800     0.3380    -0.3020 N.4   1 <1>  -0.9590 
 18 C       -7.1920     1.8900     0.1110 C.3   1 <1>   0.4000 
 19 O       -6.6900     0.6230     0.5290 O.3   1 <1>  -0.3620 
 20 C        6.4620    -0.0920     0.0710 C.3   1 <1>   0.4230 
 21 C        7.4700     0.9970    -0.3040 C.3   1 <1>  -0.2400 
 22 C        6.8310    -1.3780    -0.6720 C.3   1 <1>  -0.2400 
 23 H       -1.2250     2.3330    -1.0020 H     1 <1>   0.3700 
 24 H        0.9610     1.9200    -1.3010 H     1 <1>   0.3700 
 25 H        2.1920     0.8890     1.1950 H     1 <1>   0.0800 
 26 H       -3.4100     3.1520    -0.7720 H     1 <1>   0.1500 
 27 H       -2.3560    -0.7780     0.5880 H     1 <1>   0.1500 
 28 H        3.0530     3.0010     0.3680 H     1 <1>   0.0800 
 29 H        3.3760     2.3160    -1.2050 H     1 <1>   0.0800 
 30 H        2.7010    -0.2110    -1.5880 H     1 <1>   0.0800 
 31 H        1.9680    -1.0520    -0.2480 H     1 <1>   0.0800 
 32 H       -4.7370    -1.2630     1.0320 H     1 <1>   0.1500 
 33 H        4.6660     1.5170     1.4140 H     1 <1>   0.0800 
 34 H        5.4150     2.4010     0.1080 H     1 <1>   0.0800 
 35 H        4.3270    -1.6470    -0.4960 H     1 <1>   0.0800 
 36 H        4.0100    -0.9030     1.0520 H     1 <1>   0.0800 
 37 H        5.0890     0.4840    -1.3180 H     1 <1>   0.4500 
 38 H       -7.8640     1.7570    -0.7180 H     1 <1>   0.0800 
 39 H       -7.6730     2.3790     0.9400 H     1 <1>   0.0800 
 40 H        6.5160    -0.2710     1.1340 H     1 <1>   0.0800 
 41 H        7.3770     1.2760    -1.3390 H     1 <1>   0.0800 
 42 H        8.4710     0.6320    -0.1500 H     1 <1>   0.0800 
 43 H        7.3660     1.8660     0.3190 H     1 <1>   0.0800 
 44 H        6.6910    -1.2690    -1.7330 H     1 <1>   0.0800 
 45 H        6.2670    -2.2190    -0.3140 H     1 <1>   0.0800 
 46 H        7.8670    -1.6120    -0.4980 H     1 <1>   0.0800 
@<TRIPOS>BOND
  1   1   2  2   
  2   2   3  am  
  3   2   4  am  
  4   3   5  1   
  5   3  23  1   
  6   4   6  1   
  7   4  24  1   
  8   5   7  ar  
  9   5   8  ar  
 10   6   9  1   
 11   6  10  1   
 12   6  25  1   
 13   7  11  ar  
 14   7  26  1   
 15   8  12  ar  
 16   8  27  1   
 17   9  13  1   
 18   9  28  1   
 19   9  29  1   
 20  10  14  1   
 21  10  30  1   
 22  10  31  1   
 23  11  15  1   
 24  11  16  ar  
 25  12  16  ar  
 26  12  32  1   
 27  13  17  1   
 28  13  33  1   
 29  13  34  1   
 30  14  17  1   
 31  14  35  1   
 32  14  36  1   
 33  15  18  1   
 34  16  19  1   
 35  17  20  1   
 36  17  37  1   
 37  18  19  1   
 38  18  38  1   
 39  18  39  1   
 40  20  21  1   
 41  20  22  1   
 42  20  40  1   
 43  21  41  1   
 44  21  42  1   
 45  21  43  1   
 46  22  44  1   
 47  22  45  1   
 48  22  46  1   
@<TRIPOS>SUBSTRUCTURE
  1 ****   2 GROUP 4 **** **** 0

# MOE 2024.06 (io_trps.svl 2023.06)
