@<TRIPOS>MOLECULE
NONAME
53 55 1 0 0 
SMALL
USER_CHARGES


@<TRIPOS>ATOM
  1 O        0.7340    -1.0500     0.8890 O.2   1 <1>  -0.5700 
  2 C        0.1020    -1.2780    -0.1240 C.2   1 <1>   0.5440 
  3 N        0.6490    -0.8830    -1.3140 N.am  1 <1>  -0.7300 
  4 C       -1.1670    -1.9830    -0.0670 C.ar  1 <1>   0.0860 
  5 C        1.7250     0.1410    -1.5010 C.3   1 <1>   0.1400 
  6 C       -2.1780    -1.7720    -1.0060 C.ar  1 <1>  -0.1500 
  7 C       -1.4230    -2.9050     0.9480 C.ar  1 <1>  -0.1500 
  8 C        3.1430    -0.4430    -1.3260 C.3   1 <1>   0.3430 
  9 C       -3.3830    -2.4470    -0.9340 C.ar  1 <1>  -0.1500 
 10 C       -2.6240    -3.5840     1.0260 C.ar  1 <1>  -0.1500 
 11 N        3.3380    -0.9830     0.0500 N.4   1 <1>  -0.9590 
 12 C       -3.6180    -3.3540     0.0890 C.ar  1 <1>  -0.1430 
 13 C        3.6770     0.0750     1.0600 C.3   1 <1>   0.3430 
 14 C        4.2990    -2.1310     0.1150 C.3   1 <1>   0.3430 
 15 C       -4.9510    -4.0740     0.1910 C.3   1 <1>   0.4860 
 16 C        3.8800    -0.5380     2.4580 C.3   1 <1>   0.1200 
 17 C        4.4790    -2.6280     1.5630 C.3   1 <1>   0.1200 
 18 N       -5.7130    -3.4890     1.3260 N.4   1 <1>  -0.9590 
 19 O        4.8290    -1.5660     2.4020 O.3   1 <1>  -0.5600 
 20 C       -6.9620    -4.2690     1.6280 C.3   1 <1>   0.3430 
 21 C       -6.0350    -2.0350     1.0960 C.3   1 <1>   0.3430 
 22 C       -7.7960    -3.5920     2.7330 C.3   1 <1>   0.1200 
 23 C       -6.9100    -1.4660     2.2280 C.3   1 <1>   0.1200 
 24 O       -8.0490    -2.2580     2.3990 O.3   1 <1>  -0.5600 
 25 H        0.1610    -1.1550    -2.1730 H     1 <1>   0.3700 
 26 H        1.5770     0.9460    -0.8000 H     1 <1>   0.0800 
 27 H        1.6390     0.5560    -2.4900 H     1 <1>   0.0800 
 28 H       -2.0270    -1.0630    -1.8010 H     1 <1>   0.1500 
 29 H       -0.6630    -3.0890     1.6890 H     1 <1>   0.1500 
 30 H        3.8800     0.3160    -1.5280 H     1 <1>   0.0800 
 31 H        3.2720    -1.2320    -2.0480 H     1 <1>   0.0800 
 32 H       -4.1340    -2.2540    -1.6840 H     1 <1>   0.1500 
 33 H       -2.7660    -4.2930     1.8260 H     1 <1>   0.1500 
 34 H        2.4000    -1.3290     0.3470 H     1 <1>   0.4500 
 35 H        2.8820     0.8010     1.1100 H     1 <1>   0.0800 
 36 H        4.5820     0.5820     0.7730 H     1 <1>   0.0800 
 37 H        5.2610    -1.8230    -0.2600 H     1 <1>   0.0800 
 38 H        3.9450    -2.9430    -0.4980 H     1 <1>   0.0800 
 39 H       -4.7750    -5.1240     0.3610 H     1 <1>   0.0800 
 40 H       -5.5040    -3.9640    -0.7280 H     1 <1>   0.0800 
 41 H        2.9550    -0.9360     2.8420 H     1 <1>   0.0800 
 42 H        4.2430     0.2080     3.1420 H     1 <1>   0.0800 
 43 H        5.2690    -3.3570     1.6100 H     1 <1>   0.0800 
 44 H        3.5740    -3.0790     1.9320 H     1 <1>   0.0800 
 45 H       -5.1000    -3.5270     2.1490 H     1 <1>   0.4500 
 46 H       -6.7100    -5.2700     1.9360 H     1 <1>   0.0800 
 47 H       -7.5730    -4.3380     0.7420 H     1 <1>   0.0800 
 48 H       -6.5670    -1.9200     0.1670 H     1 <1>   0.0800 
 49 H       -5.1240    -1.4610     1.0300 H     1 <1>   0.0800 
 50 H       -7.2890    -3.6230     3.6820 H     1 <1>   0.0800 
 51 H       -8.7460    -4.0880     2.8370 H     1 <1>   0.0800 
 52 H       -7.2390    -0.4710     1.9780 H     1 <1>   0.0800 
 53 H       -6.3700    -1.4240     3.1580 H     1 <1>   0.0800 
@<TRIPOS>BOND
  1   1   2  2   
  2   2   3  am  
  3   2   4  1   
  4   3   5  1   
  5   3  25  1   
  6   4   6  ar  
  7   4   7  ar  
  8   5   8  1   
  9   5  26  1   
 10   5  27  1   
 11   6   9  ar  
 12   6  28  1   
 13   7  10  ar  
 14   7  29  1   
 15   8  11  1   
 16   8  30  1   
 17   8  31  1   
 18   9  12  ar  
 19   9  32  1   
 20  10  12  ar  
 21  10  33  1   
 22  11  13  1   
 23  11  14  1   
 24  11  34  1   
 25  12  15  1   
 26  13  16  1   
 27  13  35  1   
 28  13  36  1   
 29  14  17  1   
 30  14  37  1   
 31  14  38  1   
 32  15  18  1   
 33  15  39  1   
 34  15  40  1   
 35  16  19  1   
 36  16  41  1   
 37  16  42  1   
 38  17  19  1   
 39  17  43  1   
 40  17  44  1   
 41  18  20  1   
 42  18  21  1   
 43  18  45  1   
 44  20  22  1   
 45  20  46  1   
 46  20  47  1   
 47  21  23  1   
 48  21  48  1   
 49  21  49  1   
 50  22  24  1   
 51  22  50  1   
 52  22  51  1   
 53  23  24  1   
 54  23  52  1   
 55  23  53  1   
@<TRIPOS>SUBSTRUCTURE
  1 ****   4 GROUP 4 **** **** 0

# MOE 2024.06 (io_trps.svl 2023.06)
