@<TRIPOS>MOLECULE
NONAME
52 53 1 0 0 
SMALL
USER_CHARGES


@<TRIPOS>ATOM
  1 O       -0.1550    -1.0110    -2.1400 O.2   1 <1>  -0.5700 
  2 C       -0.0880    -1.7800    -1.2120 C.2   1 <1>   0.5690 
  3 N       -1.0960    -1.9590    -0.2990 N.am  1 <1>  -0.5470 
  4 C        1.2010    -2.5950    -1.0300 C.3   1 <1>   0.1710 
  5 C       -2.3180    -1.2880    -0.1300 C.ar  1 <1>   0.1170 
  6 N        2.3500    -1.8190    -0.4780 N.3   1 <1>  -0.8100 
  7 C       -3.3090    -1.8940     0.6320 C.ar  1 <1>  -0.1500 
  8 C       -2.5820    -0.0340    -0.6690 C.ar  1 <1>  -0.1500 
  9 C        2.0700    -1.1560     0.8200 C.3   1 <1>   0.1100 
 10 C        3.6080    -2.5970    -0.4290 C.3   1 <1>   0.1100 
 11 C       -4.5240    -1.2700     0.8510 C.ar  1 <1>  -0.1500 
 12 C       -3.7970     0.5910    -0.4520 C.ar  1 <1>  -0.1500 
 13 C        3.2750    -0.3200     1.3220 C.3   1 <1>   0.3430 
 14 C        4.8130    -1.7190    -0.0030 C.3   1 <1>   0.3430 
 15 C       -4.7820    -0.0190     0.3110 C.ar  1 <1>  -0.1440 
 16 N        4.3830    -0.3130     0.3110 N.4   1 <1>  -0.9590 
 17 C       -6.1280     0.6580     0.5590 C.3   1 <1>   0.0630 
 18 C        5.4850     0.6180     0.6640 C.3   1 <1>   0.3430 
 19 C       -6.8760     0.8870    -0.7580 C.3   1 <1>  -0.2400 
 20 C       -5.9450     1.9770     1.3170 C.3   1 <1>  -0.2400 
 21 C        6.3810     0.8720    -0.5500 C.3   1 <1>  -0.1600 
 22 C        7.4470     1.9260    -0.2340 C.3   1 <1>  -0.2400 
 23 H       -0.9670    -2.7330     0.3480 H     1 <1>   0.3700 
 24 H        1.4740    -2.9700    -2.0010 H     1 <1>   0.0800 
 25 H        0.9990    -3.4400    -0.3980 H     1 <1>   0.0800 
 26 H       -3.1380    -2.8640     1.0600 H     1 <1>   0.1500 
 27 H       -1.8430     0.4700    -1.2630 H     1 <1>   0.1500 
 28 H        1.8130    -1.8910     1.5640 H     1 <1>   0.0800 
 29 H        1.2270    -0.4940     0.7110 H     1 <1>   0.0800 
 30 H        3.8110    -3.0100    -1.4030 H     1 <1>   0.0800 
 31 H        3.5050    -3.4190     0.2590 H     1 <1>   0.0800 
 32 H       -5.2720    -1.7660     1.4440 H     1 <1>   0.1500 
 33 H       -3.9700     1.5600    -0.8850 H     1 <1>   0.1500 
 34 H        3.6290    -0.7310     2.2520 H     1 <1>   0.0800 
 35 H        2.9430     0.6870     1.5120 H     1 <1>   0.0800 
 36 H        5.5310    -1.7120    -0.8060 H     1 <1>   0.0800 
 37 H        5.2890    -2.1610     0.8570 H     1 <1>   0.0800 
 38 H        3.9160     0.0040    -0.5560 H     1 <1>   0.4500 
 39 H       -6.7340     0.0110     1.1710 H     1 <1>   0.0800 
 40 H        6.0700     0.2120     1.4740 H     1 <1>   0.0800 
 41 H        5.0700     1.5590     0.9870 H     1 <1>   0.0800 
 42 H       -6.3370     1.5680    -1.3910 H     1 <1>   0.0800 
 43 H       -7.8530     1.2930    -0.5670 H     1 <1>   0.0800 
 44 H       -6.9900    -0.0470    -1.2800 H     1 <1>   0.0800 
 45 H       -5.3870     2.6820     0.7290 H     1 <1>   0.0800 
 46 H       -5.4140     1.8000     2.2350 H     1 <1>   0.0800 
 47 H       -6.9020     2.4070     1.5520 H     1 <1>   0.0800 
 48 H        5.7840     1.2240    -1.3740 H     1 <1>   0.0800 
 49 H        6.8790    -0.0350    -0.8450 H     1 <1>   0.0800 
 50 H        6.9920     2.8630     0.0380 H     1 <1>   0.0800 
 51 H        8.0660     2.0940    -1.0990 H     1 <1>   0.0800 
 52 H        8.0810     1.6010     0.5730 H     1 <1>   0.0800 
@<TRIPOS>BOND
  1   1   2  2   
  2   2   3  am  
  3   2   4  1   
  4   3   5  1   
  5   3  23  1   
  6   4   6  1   
  7   4  24  1   
  8   4  25  1   
  9   5   7  ar  
 10   5   8  ar  
 11   6   9  1   
 12   6  10  1   
 13   7  11  ar  
 14   7  26  1   
 15   8  12  ar  
 16   8  27  1   
 17   9  13  1   
 18   9  28  1   
 19   9  29  1   
 20  10  14  1   
 21  10  30  1   
 22  10  31  1   
 23  11  15  ar  
 24  11  32  1   
 25  12  15  ar  
 26  12  33  1   
 27  13  16  1   
 28  13  34  1   
 29  13  35  1   
 30  14  16  1   
 31  14  36  1   
 32  14  37  1   
 33  15  17  1   
 34  16  18  1   
 35  16  38  1   
 36  17  19  1   
 37  17  20  1   
 38  17  39  1   
 39  18  21  1   
 40  18  40  1   
 41  18  41  1   
 42  19  42  1   
 43  19  43  1   
 44  19  44  1   
 45  20  45  1   
 46  20  46  1   
 47  20  47  1   
 48  21  22  1   
 49  21  48  1   
 50  21  49  1   
 51  22  50  1   
 52  22  51  1   
 53  22  52  1   
@<TRIPOS>SUBSTRUCTURE
  1 ****   2 GROUP 4 **** **** 0

# MOE 2024.06 (io_trps.svl 2023.06)
