@<TRIPOS>MOLECULE
NONAME
33 33 1 0 0 
SMALL
USER_CHARGES


@<TRIPOS>ATOM
  1 F       -1.5490     0.1560    -1.1030 F     1 <1>  -0.3400 
  2 C       -2.2120     0.4140     0.0230 C.3   1 <1>   1.0200 
  3 F       -1.5020     1.3560     0.6410 F     1 <1>  -0.3400 
  4 F       -3.3410     1.0070    -0.3510 F     1 <1>  -0.3400 
  5 C       -2.4150    -0.8780     0.9190 C.3   1 <1>   0.5800 
  6 O       -3.2060    -0.6710     2.0550 O.3   1 <1>  -0.6800 
  7 N       -3.0190    -2.0330     0.1870 N.am  1 <1>  -0.2980 
  8 C       -1.0730    -1.4650     1.3920 C.3   1 <1>  -0.0990 
  9 N       -2.1180    -3.0690     0.0600 N.2   1 <1>  -0.5120 
 10 C       -4.3470    -2.0760    -0.1810 C.2   1 <1>   0.5690 
 11 C       -1.0640    -2.8000     0.6910 C.2   1 <1>   0.3280 
 12 O       -5.1080    -1.1750     0.0820 O.2   1 <1>  -0.5700 
 13 C       -4.8770    -3.2800    -0.9250 C.3   1 <1>   0.1010 
 14 C        0.1520    -3.7010     0.7980 C.3   1 <1>  -0.0990 
 15 C       -5.2110    -4.3500     0.0460 C.1   1 <1>   0.3570 
 16 C        1.0570    -3.6510    -0.4470 C.3   1 <1>  -0.0800 
 17 N       -5.4820    -5.1810     0.7730 N.1   1 <1>  -0.5570 
 18 C        2.2160    -4.6430    -0.2890 C.3   1 <1>  -0.2400 
 19 C        1.6150    -2.2470    -0.7130 C.3   1 <1>  -0.2400 
 20 H       -4.1400    -0.5830     1.7520 H     1 <1>   0.4000 
 21 H       -1.0480    -1.6010     2.4580 H     1 <1>   0.0800 
 22 H       -0.2340    -0.8700     1.0850 H     1 <1>   0.0800 
 23 H       -4.1460    -3.6410    -1.6220 H     1 <1>   0.0800 
 24 H       -5.7640    -3.0070    -1.4640 H     1 <1>   0.0800 
 25 H       -0.2020    -4.7100     0.9260 H     1 <1>   0.0800 
 26 H        0.7150    -3.4440     1.6780 H     1 <1>   0.0800 
 27 H        0.4730    -3.9520    -1.3030 H     1 <1>   0.0800 
 28 H        2.8330    -4.3770     0.5510 H     1 <1>   0.0800 
 29 H        2.8270    -4.6480    -1.1750 H     1 <1>   0.0800 
 30 H        1.8390    -5.6390    -0.1380 H     1 <1>   0.0800 
 31 H        2.1430    -1.8750     0.1470 H     1 <1>   0.0800 
 32 H        0.8240    -1.5630    -0.9650 H     1 <1>   0.0800 
 33 H        2.2960    -2.2720    -1.5450 H     1 <1>   0.0800 
@<TRIPOS>BOND
  1   1   2  1   
  2   2   3  1   
  3   2   4  1   
  4   2   5  1   
  5   5   6  1   
  6   5   7  1   
  7   5   8  1   
  8   6  20  1   
  9   7   9  1   
 10   7  10  am  
 11   8  11  1   
 12   8  21  1   
 13   8  22  1   
 14   9  11  2   
 15  10  12  2   
 16  10  13  1   
 17  11  14  1   
 18  13  15  1   
 19  13  23  1   
 20  13  24  1   
 21  14  16  1   
 22  14  25  1   
 23  14  26  1   
 24  15  17  3   
 25  16  18  1   
 26  16  19  1   
 27  16  27  1   
 28  18  28  1   
 29  18  29  1   
 30  18  30  1   
 31  19  31  1   
 32  19  32  1   
 33  19  33  1   
@<TRIPOS>SUBSTRUCTURE
  1 ****   7 GROUP 4 **** **** 0

# MOE 2024.06 (io_trps.svl 2023.06)
