@<TRIPOS>MOLECULE
NONAME
37 39 1 0 0 
SMALL
USER_CHARGES


@<TRIPOS>ATOM
  1 S      -11.7560     3.6920    -0.6190 S.3   1 <1>  -0.0800 
  2 C      -10.0650     3.6610    -1.1180 C.ar  1 <1>   0.2970 
  3 C      -11.5060     2.3460     0.5000 C.2   1 <1>  -0.1400 
  4 N       -9.5500     4.4800    -2.0100 N.ar  1 <1>  -0.5670 
  5 C       -9.3900     2.6760    -0.4440 C.ar  1 <1>   0.0000 
  6 C      -10.2250     1.9380     0.4670 C.2   1 <1>  -0.1500 
  7 C      -12.7130     1.8770     1.2860 C.3   1 <1>  -0.0600 
  8 C       -8.2650     4.2660    -2.2140 C.ar  1 <1>   0.4700 
  9 C       -8.0390     2.5690    -0.7580 C.ar  1 <1>   0.4100 
 10 N       -7.4660     3.3670    -1.6430 N.ar  1 <1>  -0.6200 
 11 N       -7.2230     1.6490    -0.1420 N.pl3 1 <1>  -0.8380 
 12 C       -6.3890     0.7660    -1.0110 C.3   1 <1>   0.2090 
 13 C       -6.5500     2.0900     1.1120 C.3   1 <1>   0.2090 
 14 C       -5.0080     1.4020    -1.2880 C.3   1 <1>   0.3430 
 15 C       -5.1740     2.7200     0.8020 C.3   1 <1>   0.3430 
 16 N       -4.2880     1.8140    -0.0250 N.4   1 <1>  -0.9590 
 17 C       -2.9890     2.4520    -0.3570 C.3   1 <1>   0.3430 
 18 C       -2.1190     2.5280     0.8920 C.3   1 <1>  -0.2400 
 19 H       -9.8070     1.1330     1.0450 H     1 <1>   0.1500 
 20 H      -13.0930     2.6820     1.8890 H     1 <1>   0.0800 
 21 H      -12.4440     1.0580     1.9270 H     1 <1>   0.0800 
 22 H      -13.4850     1.5520     0.6120 H     1 <1>   0.0800 
 23 H       -7.8000     4.9120    -2.9420 H     1 <1>   0.1500 
 24 H       -6.8970     0.6040    -1.9470 H     1 <1>   0.0800 
 25 H       -6.2670    -0.1920    -0.5360 H     1 <1>   0.0800 
 26 H       -6.4330     1.2490     1.7720 H     1 <1>   0.0800 
 27 H       -7.1670     2.8170     1.6150 H     1 <1>   0.0800 
 28 H       -5.1660     2.2690    -1.9080 H     1 <1>   0.0800 
 29 H       -4.4060     0.7030    -1.8440 H     1 <1>   0.0800 
 30 H       -4.6870     2.9660     1.7300 H     1 <1>   0.0800 
 31 H       -5.3450     3.6380     0.2640 H     1 <1>   0.0800 
 32 H       -4.1030     0.9640     0.5230 H     1 <1>   0.4500 
 33 H       -3.1520     3.4400    -0.7600 H     1 <1>   0.0800 
 34 H       -2.4760     1.8650    -1.1020 H     1 <1>   0.0800 
 35 H       -2.5430     3.1830     1.6310 H     1 <1>   0.0800 
 36 H       -1.1560     2.9250     0.6230 H     1 <1>   0.0800 
 37 H       -1.9660     1.5510     1.3140 H     1 <1>   0.0800 
@<TRIPOS>BOND
  1   1   2  1   
  2   1   3  1   
  3   2   4  ar  
  4   2   5  ar  
  5   3   6  2   
  6   3   7  1   
  7   4   8  ar  
  8   5   6  1   
  9   5   9  ar  
 10   6  19  1   
 11   7  20  1   
 12   7  21  1   
 13   7  22  1   
 14   8  10  ar  
 15   8  23  1   
 16   9  10  ar  
 17   9  11  1   
 18  11  12  1   
 19  11  13  1   
 20  12  14  1   
 21  12  24  1   
 22  12  25  1   
 23  13  15  1   
 24  13  26  1   
 25  13  27  1   
 26  14  16  1   
 27  14  28  1   
 28  14  29  1   
 29  15  16  1   
 30  15  30  1   
 31  15  31  1   
 32  16  17  1   
 33  16  32  1   
 34  17  18  1   
 35  17  33  1   
 36  17  34  1   
 37  18  35  1   
 38  18  36  1   
 39  18  37  1   
@<TRIPOS>SUBSTRUCTURE
  1 ****   9 GROUP 4 **** **** 0

# MOE 2024.06 (io_trps.svl 2023.06)
