@<TRIPOS>MOLECULE
NONAME
34 34 1 0 0 
SMALL
USER_CHARGES


@<TRIPOS>ATOM
  1 BR      -2.0500     0.6380     3.4400 Br    1 <1>  -0.1110 
  2 C       -2.4910     1.2480     1.6710 C.ar  1 <1>   0.1110 
  3 C       -3.5890     0.6990     1.0370 C.ar  1 <1>  -0.1500 
  4 C       -1.7010     2.2150     1.0820 C.ar  1 <1>  -0.1500 
  5 C       -3.9170     1.1410    -0.2380 C.ar  1 <1>  -0.1440 
  6 C       -2.0270     2.6450    -0.1930 C.ar  1 <1>  -0.1500 
  7 C       -3.1260     2.1100    -0.8470 C.ar  1 <1>  -0.1500 
  8 C       -5.1270     0.5740    -0.9580 C.3   1 <1>   0.4870 
  9 N       -6.3610     1.1210    -0.3260 N.4   1 <1>  -0.9590 
 10 C       -7.5680     0.3750    -0.8170 C.3   1 <1>   0.3430 
 11 C       -6.4550     2.5960    -0.5480 C.3   1 <1>   0.3430 
 12 C       -8.4750    -0.0910     0.3300 C.3   1 <1>   0.1200 
 13 C       -7.5470     3.2190     0.3230 C.3   1 <1>  -0.1600 
 14 O       -9.5240    -0.7950    -0.2310 O.3   1 <1>  -0.6800 
 15 C       -7.5100     4.7480     0.2310 C.3   1 <1>  -0.2400 
 16 H       -4.1560    -0.0600     1.5470 H     1 <1>   0.1500 
 17 H       -0.8520     2.6180     1.6070 H     1 <1>   0.1500 
 18 H       -1.4210     3.3950    -0.6740 H     1 <1>   0.1500 
 19 H       -3.3510     2.4610    -1.8410 H     1 <1>   0.1500 
 20 H       -5.1120    -0.5010    -0.8750 H     1 <1>   0.0800 
 21 H       -5.0930     0.8350    -2.0030 H     1 <1>   0.0800 
 22 H       -6.2490     0.9720     0.6840 H     1 <1>   0.4500 
 23 H       -7.2590    -0.5000    -1.3650 H     1 <1>   0.0800 
 24 H       -8.1400     1.0010    -1.4840 H     1 <1>   0.0800 
 25 H       -6.6550     2.8060    -1.5870 H     1 <1>   0.0800 
 26 H       -5.5160     3.0600    -0.2900 H     1 <1>   0.0800 
 27 H       -8.8870     0.7410     0.8740 H     1 <1>   0.0800 
 28 H       -7.9500    -0.7540     0.9950 H     1 <1>   0.0800 
 29 H       -7.4020     2.9370     1.3520 H     1 <1>   0.0800 
 30 H       -8.5180     2.8880    -0.0010 H     1 <1>   0.0800 
 31 H      -10.1540    -1.1180     0.4500 H     1 <1>   0.4000 
 32 H       -6.5620     5.1300     0.5700 H     1 <1>   0.0800 
 33 H       -8.2820     5.1740     0.8490 H     1 <1>   0.0800 
 34 H       -7.6730     5.0770    -0.7810 H     1 <1>   0.0800 
@<TRIPOS>BOND
  1   1   2  1   
  2   2   3  ar  
  3   2   4  ar  
  4   3   5  ar  
  5   3  16  1   
  6   4   6  ar  
  7   4  17  1   
  8   5   7  ar  
  9   5   8  1   
 10   6   7  ar  
 11   6  18  1   
 12   7  19  1   
 13   8   9  1   
 14   8  20  1   
 15   8  21  1   
 16   9  10  1   
 17   9  11  1   
 18   9  22  1   
 19  10  12  1   
 20  10  23  1   
 21  10  24  1   
 22  11  13  1   
 23  11  25  1   
 24  11  26  1   
 25  12  14  1   
 26  12  27  1   
 27  12  28  1   
 28  13  15  1   
 29  13  29  1   
 30  13  30  1   
 31  14  31  1   
 32  15  32  1   
 33  15  33  1   
 34  15  34  1   
@<TRIPOS>SUBSTRUCTURE
  1 ****   9 GROUP 4 **** **** 0

# MOE 2024.06 (io_trps.svl 2023.06)
