@<TRIPOS>MOLECULE
NONAME
39 41 1 0 0 
SMALL
USER_CHARGES


@<TRIPOS>ATOM
  1 F        0.0300     0.0980    -1.6060 F     1 <1>  -0.1900 
  2 C        1.1580    -0.5120    -1.3040 C.ar  1 <1>   0.1900 
  3 C        1.1950    -1.8730    -1.0110 C.ar  1 <1>   0.4100 
  4 C        2.3190     0.2070    -1.2810 C.ar  1 <1>   0.1600 
  5 N        2.3480    -2.4480    -0.7200 N.ar  1 <1>  -0.6200 
  6 N        0.0660    -2.6830    -0.9960 N.pl3 1 <1>  -0.8380 
  7 N        3.4710    -0.3600    -0.9820 N.ar  1 <1>  -0.6200 
  8 C        3.4170    -1.6640    -0.7170 C.ar  1 <1>   0.7200 
  9 C       -1.0580    -2.3570    -0.0680 C.3   1 <1>   0.2090 
 10 C        0.1640    -4.1490    -1.2750 C.3   1 <1>   0.2090 
 11 N        4.5700    -2.3300    -0.4150 N.pl3 1 <1>  -0.6000 
 12 C       -1.0320    -3.2730     1.1710 C.3   1 <1>   0.1200 
 13 C        0.1300    -4.9600     0.0330 C.3   1 <1>   0.1200 
 14 C        5.8960    -1.9130    -0.2370 C.ar  1 <1>   0.1000 
 15 O       -0.9930    -4.6240     0.8020 O.3   1 <1>  -0.5600 
 16 C        6.9260    -2.7680    -0.6100 C.ar  1 <1>  -0.1500 
 17 C        6.2270    -0.6840     0.3250 C.ar  1 <1>  -0.1500 
 18 C        8.2490    -2.4030    -0.4360 C.ar  1 <1>  -0.1500 
 19 C        7.5480    -0.3120     0.5000 C.ar  1 <1>  -0.1500 
 20 C        8.5710    -1.1750     0.1180 C.ar  1 <1>   0.0820 
 21 O        9.8940    -0.8930     0.2530 O.3   1 <1>  -0.3620 
 22 C       10.3170     0.3470     0.7740 C.3   1 <1>   0.0400 
 23 H        2.3070     1.2580    -1.5080 H     1 <1>   0.1500 
 24 H       -1.9930    -2.4850    -0.5850 H     1 <1>   0.0800 
 25 H       -0.9960    -1.3320     0.2530 H     1 <1>   0.0800 
 26 H        1.0680    -4.3680    -1.8150 H     1 <1>   0.0800 
 27 H       -0.6650    -4.4460    -1.8930 H     1 <1>   0.0800 
 28 H        4.4020    -3.3300    -0.3830 H     1 <1>   0.4000 
 29 H       -1.9160    -3.1200     1.7640 H     1 <1>   0.0800 
 30 H       -0.1670    -3.0580     1.7750 H     1 <1>   0.0800 
 31 H        1.0160    -4.7670     0.6130 H     1 <1>   0.0800 
 32 H        0.0790    -6.0120    -0.1830 H     1 <1>   0.0800 
 33 H        6.6930    -3.7220    -1.0450 H     1 <1>   0.1500 
 34 H        5.4460    -0.0140     0.6310 H     1 <1>   0.1500 
 35 H        9.0410    -3.0670    -0.7290 H     1 <1>   0.1500 
 36 H        7.7570     0.6460     0.9340 H     1 <1>   0.1500 
 37 H       11.3920     0.3590     0.7770 H     1 <1>   0.0800 
 38 H        9.9480     0.4470     1.7790 H     1 <1>   0.0800 
 39 H        9.9450     1.1360     0.1450 H     1 <1>   0.0800 
@<TRIPOS>BOND
  1   1   2  1   
  2   2   3  ar  
  3   2   4  ar  
  4   3   5  ar  
  5   3   6  1   
  6   4   7  ar  
  7   4  23  1   
  8   5   8  ar  
  9   6   9  1   
 10   6  10  1   
 11   7   8  ar  
 12   8  11  1   
 13   9  12  1   
 14   9  24  1   
 15   9  25  1   
 16  10  13  1   
 17  10  26  1   
 18  10  27  1   
 19  11  14  1   
 20  11  28  1   
 21  12  15  1   
 22  12  29  1   
 23  12  30  1   
 24  13  15  1   
 25  13  31  1   
 26  13  32  1   
 27  14  16  ar  
 28  14  17  ar  
 29  16  18  ar  
 30  16  33  1   
 31  17  19  ar  
 32  17  34  1   
 33  18  20  ar  
 34  18  35  1   
 35  19  20  ar  
 36  19  36  1   
 37  20  21  1   
 38  21  22  1   
 39  22  37  1   
 40  22  38  1   
 41  22  39  1   
@<TRIPOS>SUBSTRUCTURE
  1 ****   8 GROUP 4 **** **** 0

# MOE 2024.06 (io_trps.svl 2023.06)
