@<TRIPOS>MOLECULE
NONAME
35 38 1 0 0 
SMALL
USER_CHARGES


@<TRIPOS>ATOM
  1 O       -0.3480    -0.7310     1.2840 O.2   1 <1>  -0.5700 
  2 C       -0.5810    -1.7460     0.6810 C.2   1 <1>   0.5690 
  3 N        0.3070    -2.7080     0.2280 N.am  1 <1>  -0.2370 
  4 C       -1.9480    -2.1650     0.2310 C.3   1 <1>  -0.0190 
  5 C        1.7110    -2.5920     0.1970 C.ar  1 <1>   0.1170 
  6 C       -0.4080    -3.8350    -0.1400 C.2   1 <1>   0.5690 
  7 C       -3.4330    -2.0010     0.6090 C.3   1 <1>   0.3380 
  8 C       -1.7870    -3.6700     0.4180 C.3   1 <1>  -0.0190 
  9 C        2.3600    -1.6640    -0.6210 C.ar  1 <1>  -0.1430 
 10 C        2.4740    -3.4290     1.0030 C.ar  1 <1>  -0.1500 
 11 O       -0.0300    -4.8000    -0.7510 O.2   1 <1>  -0.5700 
 12 O       -3.7230    -3.2170     1.2300 O.3   1 <1>  -0.5600 
 13 C       -4.1690    -2.2930    -0.6850 C.2   1 <1>  -0.2880 
 14 C       -3.2340    -4.1300     0.2910 C.3   1 <1>   0.3380 
 15 C        3.7440    -1.5870    -0.6030 C.ar  1 <1>  -0.1500 
 16 C        1.5880    -0.7270    -1.5420 C.3   1 <1>  -0.0970 
 17 C        3.8530    -3.3460     1.0100 C.ar  1 <1>  -0.1500 
 18 C       -3.9920    -3.5930    -0.9100 C.2   1 <1>  -0.2880 
 19 C        4.4960    -2.4200     0.2080 C.ar  1 <1>  -0.1430 
 20 C        6.0110    -2.3200     0.2100 C.3   1 <1>  -0.0970 
 21 H       -1.8980    -1.9130    -0.8170 H     1 <1>   0.0800 
 22 H       -3.7470    -1.1530     1.1950 H     1 <1>   0.0800 
 23 H       -1.5900    -3.8830     1.4590 H     1 <1>   0.0800 
 24 H        1.9870    -4.1540     1.6290 H     1 <1>   0.1500 
 25 H       -4.6620    -1.5150    -1.2410 H     1 <1>   0.1500 
 26 H       -3.4610    -5.1370     0.6000 H     1 <1>   0.0800 
 27 H        4.2480    -0.8710    -1.2290 H     1 <1>   0.1500 
 28 H        0.8540    -1.2760    -2.1040 H     1 <1>   0.0800 
 29 H        2.2480    -0.2440    -2.2390 H     1 <1>   0.0800 
 30 H        1.0950     0.0330    -0.9620 H     1 <1>   0.0800 
 31 H        4.4230    -4.0050     1.6410 H     1 <1>   0.1500 
 32 H       -4.2890    -4.2390    -1.7170 H     1 <1>   0.1500 
 33 H        6.3190    -1.2990     0.0760 H     1 <1>   0.0800 
 34 H        6.4150    -2.9140    -0.5910 H     1 <1>   0.0800 
 35 H        6.4120    -2.6750     1.1420 H     1 <1>   0.0800 
@<TRIPOS>BOND
  1   1   2  2   
  2   2   3  am  
  3   2   4  1   
  4   3   5  1   
  5   3   6  am  
  6   4   7  1   
  7   4   8  1   
  8   4  21  1   
  9   5   9  ar  
 10   5  10  ar  
 11   6   8  1   
 12   6  11  2   
 13   7  12  1   
 14   7  13  1   
 15   7  22  1   
 16   8  14  1   
 17   8  23  1   
 18   9  15  ar  
 19   9  16  1   
 20  10  17  ar  
 21  10  24  1   
 22  12  14  1   
 23  13  18  2   
 24  13  25  1   
 25  14  18  1   
 26  14  26  1   
 27  15  19  ar  
 28  15  27  1   
 29  16  28  1   
 30  16  29  1   
 31  16  30  1   
 32  17  19  ar  
 33  17  31  1   
 34  18  32  1   
 35  19  20  1   
 36  20  33  1   
 37  20  34  1   
 38  20  35  1   
@<TRIPOS>SUBSTRUCTURE
  1 ****   3 GROUP 4 **** **** 0

# MOE 2024.06 (io_trps.svl 2023.06)
