@<TRIPOS>MOLECULE
NONAME
35 36 1 0 0 
SMALL
USER_CHARGES


@<TRIPOS>ATOM
  1 BR       0.3020    -0.0300     0.0510 Br    1 <1>  -0.1110 
  2 C       -1.4500    -0.8300     0.0290 C.ar  1 <1>   0.1110 
  3 C       -1.5540    -2.2060     0.0580 C.ar  1 <1>  -0.1500 
  4 C       -2.5550    -0.0070    -0.0150 C.ar  1 <1>  -0.1500 
  5 C       -2.8080    -2.8030     0.0420 C.ar  1 <1>  -0.1440 
  6 C       -3.8080    -0.5910    -0.0310 C.ar  1 <1>  -0.1500 
  7 C       -3.9440    -1.9820    -0.0020 C.ar  1 <1>   0.0830 
  8 C       -2.8600    -4.3370     0.0760 C.3   1 <1>   0.0640 
  9 O       -5.1680    -2.5760    -0.0170 O.3   1 <1>  -0.3620 
 10 C       -3.4930    -4.9230    -1.1910 C.3   1 <1>  -0.2400 
 11 C       -3.5460    -4.8650     1.3420 C.3   1 <1>  -0.2400 
 12 C       -6.3660    -1.8370    -0.0670 C.3   1 <1>   0.1200 
 13 C       -7.5250    -2.8270    -0.0770 C.3   1 <1>   0.0960 
 14 N       -8.8000    -2.0920    -0.1440 N.pl3 1 <1>   0.0480 
 15 C       -9.5140    -1.7700    -1.2450 C.2   1 <1>   0.0360 
 16 C       -9.4950    -1.5650     0.8800 C.2   1 <1>  -0.3020 
 17 N      -10.5870    -1.0910    -0.9970 N.2   1 <1>  -0.5650 
 18 C      -10.5780    -0.9620     0.3420 C.2   1 <1>   0.0770 
 19 H       -0.6540    -2.7940     0.0920 H     1 <1>   0.1500 
 20 H       -2.4350     1.0610    -0.0370 H     1 <1>   0.1500 
 21 H       -4.6620     0.0580    -0.0650 H     1 <1>   0.1500 
 22 H       -1.8470    -4.7020     0.1060 H     1 <1>   0.0800 
 23 H       -4.5380    -4.6830    -1.2510 H     1 <1>   0.0800 
 24 H       -3.3900    -5.9930    -1.1960 H     1 <1>   0.0800 
 25 H       -3.0000    -4.5270    -2.0610 H     1 <1>   0.0800 
 26 H       -4.5910    -4.6200     1.3480 H     1 <1>   0.0800 
 27 H       -3.0880    -4.4310     2.2130 H     1 <1>   0.0800 
 28 H       -3.4460    -5.9330     1.3990 H     1 <1>   0.0800 
 29 H       -6.3620    -1.2470    -0.9670 H     1 <1>   0.0800 
 30 H       -6.4110    -1.2070     0.8050 H     1 <1>   0.0800 
 31 H       -7.5130    -3.4180     0.8210 H     1 <1>   0.0800 
 32 H       -7.4500    -3.4730    -0.9320 H     1 <1>   0.0800 
 33 H       -9.2030    -2.0600    -2.2340 H     1 <1>   0.1500 
 34 H       -9.1950    -1.6430     1.9090 H     1 <1>   0.1500 
 35 H      -11.3640    -0.4330     0.8560 H     1 <1>   0.1500 
@<TRIPOS>BOND
  1   1   2  1   
  2   2   3  ar  
  3   2   4  ar  
  4   3   5  ar  
  5   3  19  1   
  6   4   6  ar  
  7   4  20  1   
  8   5   7  ar  
  9   5   8  1   
 10   6   7  ar  
 11   6  21  1   
 12   7   9  1   
 13   8  10  1   
 14   8  11  1   
 15   8  22  1   
 16   9  12  1   
 17  10  23  1   
 18  10  24  1   
 19  10  25  1   
 20  11  26  1   
 21  11  27  1   
 22  11  28  1   
 23  12  13  1   
 24  12  29  1   
 25  12  30  1   
 26  13  14  1   
 27  13  31  1   
 28  13  32  1   
 29  14  15  1   
 30  14  16  1   
 31  15  17  2   
 32  15  33  1   
 33  16  18  2   
 34  16  34  1   
 35  17  18  1   
 36  18  35  1   
@<TRIPOS>SUBSTRUCTURE
  1 ****   9 GROUP 4 **** **** 0

# MOE 2024.06 (io_trps.svl 2023.06)
