@<TRIPOS>MOLECULE
NONAME
40 43 1 0 0 
SMALL
USER_CHARGES


@<TRIPOS>ATOM
  1 S        0.0670    -0.2550     0.2130 S.3   1 <1>  -0.0800 
  2 C        0.2290     1.5080     0.2580 C.2   1 <1>   0.1040 
  3 C       -1.6560    -0.1080    -0.0270 C.2   1 <1>  -0.1400 
  4 N        1.4900     2.0830     0.3520 N.am  1 <1>  -0.4940 
  5 C       -0.9920     2.1200     0.1240 C.2   1 <1>  -0.0860 
  6 C       -2.0420     1.1550    -0.0540 C.2   1 <1>  -0.1810 
  7 C       -2.7170    -1.1450    -0.2050 C.3   1 <1>   0.0200 
  8 C        2.6940     1.6000     0.8180 C.2   1 <1>   0.5440 
  9 C       -1.2380     3.5330     0.1680 C.2   1 <1>   0.7160 
 10 C       -3.5300     1.2460    -0.2710 C.3   1 <1>   0.0210 
 11 C       -3.9710    -0.2440    -0.3600 C.3   1 <1>  -0.1600 
 12 O        2.7330     0.5690     1.4570 O.2   1 <1>  -0.5700 
 13 C        3.9070     2.3510     0.5600 C.ar  1 <1>   0.0860 
 14 O       -2.1300     4.0710    -0.4550 O.2   1 <1>  -0.5700 
 15 N       -0.4860     4.3430     0.9460 N.am  1 <1>  -0.8000 
 16 C        5.1270     1.6910     0.3960 C.ar  1 <1>  -0.1500 
 17 C        3.9110     3.7480     0.4640 C.ar  1 <1>  -0.1500 
 18 C        6.2910     2.3860     0.1310 C.ar  1 <1>   0.0820 
 19 C        5.0710     4.4520     0.1930 C.ar  1 <1>  -0.1500 
 20 O        7.4510     1.6960    -0.0100 O.3   1 <1>  -0.3620 
 21 C        6.2640     3.7760     0.0150 C.ar  1 <1>   0.0820 
 22 C        8.6520     2.4430     0.0620 C.3   1 <1>   0.1200 
 23 O        7.3830     4.4800    -0.2700 O.3   1 <1>  -0.3630 
 24 C        8.5110     3.7550    -0.7220 C.3   1 <1>   0.1200 
 25 H        1.5490     3.0180    -0.0470 H     1 <1>   0.3700 
 26 H       -2.7820    -1.7770     0.6630 H     1 <1>   0.0800 
 27 H       -2.5320    -1.7300    -1.0880 H     1 <1>   0.0800 
 28 H       -3.7420     1.7730    -1.1860 H     1 <1>   0.0800 
 29 H       -4.0020     1.7470     0.5550 H     1 <1>   0.0800 
 30 H       -4.6760    -0.4630     0.4220 H     1 <1>   0.0800 
 31 H       -4.4410    -0.4310    -1.3090 H     1 <1>   0.0800 
 32 H       -0.8020     5.3070     1.0450 H     1 <1>   0.3700 
 33 H        0.0090     3.9500     1.7470 H     1 <1>   0.3700 
 34 H        5.1650     0.6190     0.4790 H     1 <1>   0.1500 
 35 H        3.0020     4.3020     0.6090 H     1 <1>   0.1500 
 36 H        5.0630     5.5250     0.1160 H     1 <1>   0.1500 
 37 H        9.4430     1.8380    -0.3420 H     1 <1>   0.0800 
 38 H        8.8580     2.6460     1.0980 H     1 <1>   0.0800 
 39 H        8.3790     3.5500    -1.7700 H     1 <1>   0.0800 
 40 H        9.3790     4.3750    -0.5900 H     1 <1>   0.0800 
@<TRIPOS>BOND
  1   1   2  1   
  2   1   3  1   
  3   2   4  1   
  4   2   5  2   
  5   3   6  2   
  6   3   7  1   
  7   4   8  am  
  8   4  25  1   
  9   5   6  1   
 10   5   9  1   
 11   6  10  1   
 12   7  11  1   
 13   7  26  1   
 14   7  27  1   
 15   8  12  2   
 16   8  13  1   
 17   9  14  2   
 18   9  15  am  
 19  10  11  1   
 20  10  28  1   
 21  10  29  1   
 22  11  30  1   
 23  11  31  1   
 24  13  16  ar  
 25  13  17  ar  
 26  15  32  1   
 27  15  33  1   
 28  16  18  ar  
 29  16  34  1   
 30  17  19  ar  
 31  17  35  1   
 32  18  20  1   
 33  18  21  ar  
 34  19  21  ar  
 35  19  36  1   
 36  20  22  1   
 37  21  23  1   
 38  22  24  1   
 39  22  37  1   
 40  22  38  1   
 41  23  24  1   
 42  24  39  1   
 43  24  40  1   
@<TRIPOS>SUBSTRUCTURE
  1 ****   4 GROUP 4 **** **** 0

# MOE 2024.06 (io_trps.svl 2023.06)
