@<TRIPOS>MOLECULE
NONAME
32 32 1 0 0 
SMALL
USER_CHARGES


@<TRIPOS>ATOM
  1 S        0.7380     0.2270     1.3850 S.2   1 <1>  -0.6770 
  2 P        0.5200     1.5070    -0.0370 P.3   1 <1>   0.9530 
  3 N        1.7950     1.2930    -1.1400 N.pl3 1 <1>  -0.7760 
  4 C       -0.9260     1.2770    -1.0360 C.3   1 <1>  -0.1600 
  5 C        0.6190     3.2070     0.4660 C.3   1 <1>  -0.1600 
  6 C        2.9750     2.0140    -1.1040 C.ar  1 <1>   0.1000 
  7 C       -2.2510     1.0560    -0.2850 C.3   1 <1>  -0.2400 
  8 C       -0.4230     3.6890     1.4890 C.3   1 <1>  -0.2400 
  9 C        3.9560     1.7080    -0.1700 C.ar  1 <1>  -0.1500 
 10 C        3.1890     3.0550    -1.9940 C.ar  1 <1>  -0.1500 
 11 C        5.1440     2.4260    -0.1110 C.ar  1 <1>  -0.1430 
 12 C        4.3620     3.7820    -1.9480 C.ar  1 <1>  -0.1500 
 13 C        5.3340     3.4720    -1.0110 C.ar  1 <1>  -0.1500 
 14 C        6.2150     2.0770     0.9350 C.3   1 <1>   1.1630 
 15 F        7.4390     2.4290     0.5570 F     1 <1>  -0.3400 
 16 F        5.9940     2.6860     2.0920 F     1 <1>  -0.3400 
 17 F        6.2720     0.7770     1.2000 F     1 <1>  -0.3400 
 18 H        1.9710     0.2920    -1.2460 H     1 <1>   0.4000 
 19 H       -0.7850     0.4110    -1.6560 H     1 <1>   0.0800 
 20 H       -1.0540     2.1060    -1.7070 H     1 <1>   0.0800 
 21 H        0.5650     3.8540    -0.3900 H     1 <1>   0.0800 
 22 H        1.5830     3.3800     0.9100 H     1 <1>   0.0800 
 23 H       -2.1710     0.2040     0.3690 H     1 <1>   0.0800 
 24 H       -3.0460     0.8690    -0.9870 H     1 <1>   0.0800 
 25 H       -2.5170     1.9140     0.3040 H     1 <1>   0.0800 
 26 H       -1.4050     3.7130     1.0560 H     1 <1>   0.0800 
 27 H       -0.1790     4.6840     1.8190 H     1 <1>   0.0800 
 28 H       -0.4330     3.0390     2.3480 H     1 <1>   0.0800 
 29 H        3.7730     0.8990     0.5190 H     1 <1>   0.1500 
 30 H        2.4330     3.2890    -2.7220 H     1 <1>   0.1500 
 31 H        4.5220     4.5900    -2.6410 H     1 <1>   0.1500 
 32 H        6.2410     4.0530    -0.9920 H     1 <1>   0.1500 
@<TRIPOS>BOND
  1   1   2  2   
  2   2   3  1   
  3   2   4  1   
  4   2   5  1   
  5   3   6  1   
  6   3  18  1   
  7   4   7  1   
  8   4  19  1   
  9   4  20  1   
 10   5   8  1   
 11   5  21  1   
 12   5  22  1   
 13   6   9  ar  
 14   6  10  ar  
 15   7  23  1   
 16   7  24  1   
 17   7  25  1   
 18   8  26  1   
 19   8  27  1   
 20   8  28  1   
 21   9  11  ar  
 22   9  29  1   
 23  10  12  ar  
 24  10  30  1   
 25  11  13  ar  
 26  11  14  1   
 27  12  13  ar  
 28  12  31  1   
 29  13  32  1   
 30  14  15  1   
 31  14  16  1   
 32  14  17  1   
@<TRIPOS>SUBSTRUCTURE
  1 ****   9 GROUP 4 **** **** 0

# MOE 2024.06 (io_trps.svl 2023.06)
