@<TRIPOS>MOLECULE
NONAME
50 52 1 0 0 
SMALL
USER_CHARGES


@<TRIPOS>ATOM
  1 O        0.7990     0.2870    -1.8130 O.2   1 <1>  -0.5700 
  2 C        1.5030     0.8480    -1.0110 C.2   1 <1>   0.5690 
  3 N        2.7040     0.2650    -0.7320 N.am  1 <1>  -0.7300 
  4 C        1.0100     2.1510    -0.3320 C.3   1 <1>   0.1990 
  5 C        3.8050     0.7280     0.1470 C.3   1 <1>   0.1400 
  6 C        1.7140     3.4600    -0.7350 C.2   1 <1>  -0.2760 
  7 C       -0.4290     2.5450    -0.6480 C.3   1 <1>  -0.1600 
  8 C        0.9460     2.0790     1.2150 C.3   1 <1>  -0.1600 
  9 C        5.1290     0.7910    -0.6360 C.3   1 <1>   0.3430 
 10 C        2.8500     3.6230    -1.4240 C.2   1 <1>  -0.3000 
 11 C        0.7820     4.5850    -0.2800 C.3   1 <1>   0.1380 
 12 C       -0.4390     3.7810     0.2500 C.3   1 <1>  -0.0800 
 13 C       -0.1290     3.1110     1.5980 C.3   1 <1>  -0.1600 
 14 N        6.1920     1.5730     0.0790 N.4   1 <1>  -0.9590 
 15 C        0.3680     5.4550    -1.4790 C.3   1 <1>  -0.2400 
 16 C        1.4700     5.4890     0.7560 C.3   1 <1>  -0.2400 
 17 C        5.8680     3.0470     0.1530 C.3   1 <1>   0.3430 
 18 C        7.5280     1.3810    -0.5920 C.3   1 <1>   0.3430 
 19 C        7.0310     3.8580     0.7550 C.3   1 <1>   0.1200 
 20 C        8.6180     2.2630     0.0470 C.3   1 <1>   0.1200 
 21 O        8.2130     3.6010     0.0540 O.3   1 <1>  -0.5600 
 22 H        2.8070    -0.6530    -1.1770 H     1 <1>   0.3700 
 23 H        3.8980     0.0520     0.9790 H     1 <1>   0.0800 
 24 H        3.5680     1.7050     0.5180 H     1 <1>   0.0800 
 25 H       -1.1380     1.7940    -0.3430 H     1 <1>   0.0800 
 26 H       -0.5700     2.7620    -1.6920 H     1 <1>   0.0800 
 27 H        1.8840     2.3330     1.6690 H     1 <1>   0.0800 
 28 H        0.6440     1.0970     1.5370 H     1 <1>   0.0800 
 29 H        4.9430     1.2460    -1.5950 H     1 <1>   0.0800 
 30 H        5.4720    -0.2160    -0.8050 H     1 <1>   0.0800 
 31 H        3.2470     4.5880    -1.6920 H     1 <1>   0.1500 
 32 H        3.4530     2.8240    -1.8060 H     1 <1>   0.1500 
 33 H       -1.3640     4.3310     0.2490 H     1 <1>   0.0800 
 34 H        0.1940     3.7980     2.3590 H     1 <1>   0.0800 
 35 H       -1.0090     2.6050     1.9590 H     1 <1>   0.0800 
 36 H        6.2850     1.2220     1.0420 H     1 <1>   0.4500 
 37 H       -0.0490     4.8590    -2.2700 H     1 <1>   0.0800 
 38 H        1.2150     5.9820    -1.8780 H     1 <1>   0.0800 
 39 H       -0.3680     6.1780    -1.1760 H     1 <1>   0.0800 
 40 H        1.9460     4.9130     1.5260 H     1 <1>   0.0800 
 41 H        0.7500     6.1480     1.2070 H     1 <1>   0.0800 
 42 H        2.2280     6.0870     0.2840 H     1 <1>   0.0800 
 43 H        4.9820     3.2080     0.7460 H     1 <1>   0.0800 
 44 H        5.6720     3.4270    -0.8370 H     1 <1>   0.0800 
 45 H        7.4530     1.6430    -1.6350 H     1 <1>   0.0800 
 46 H        7.8280     0.3480    -0.5320 H     1 <1>   0.0800 
 47 H        7.1830     3.6150     1.7930 H     1 <1>   0.0800 
 48 H        6.8290     4.9120     0.6760 H     1 <1>   0.0800 
 49 H        9.5280     2.2020    -0.5260 H     1 <1>   0.0800 
 50 H        8.8290     1.9570     1.0570 H     1 <1>   0.0800 
@<TRIPOS>BOND
  1   1   2  2   
  2   2   3  am  
  3   2   4  1   
  4   3   5  1   
  5   3  22  1   
  6   4   6  1   
  7   4   7  1   
  8   4   8  1   
  9   5   9  1   
 10   5  23  1   
 11   5  24  1   
 12   6  10  2   
 13   6  11  1   
 14   7  12  1   
 15   7  25  1   
 16   7  26  1   
 17   8  13  1   
 18   8  27  1   
 19   8  28  1   
 20   9  14  1   
 21   9  29  1   
 22   9  30  1   
 23  10  31  1   
 24  10  32  1   
 25  11  12  1   
 26  11  15  1   
 27  11  16  1   
 28  12  13  1   
 29  12  33  1   
 30  13  34  1   
 31  13  35  1   
 32  14  17  1   
 33  14  18  1   
 34  14  36  1   
 35  15  37  1   
 36  15  38  1   
 37  15  39  1   
 38  16  40  1   
 39  16  41  1   
 40  16  42  1   
 41  17  19  1   
 42  17  43  1   
 43  17  44  1   
 44  18  20  1   
 45  18  45  1   
 46  18  46  1   
 47  19  21  1   
 48  19  47  1   
 49  19  48  1   
 50  20  21  1   
 51  20  49  1   
 52  20  50  1   
@<TRIPOS>SUBSTRUCTURE
  1 ****  10 GROUP 4 **** **** 0

# MOE 2024.06 (io_trps.svl 2023.06)
