@<TRIPOS>MOLECULE
NONAME
45 47 1 0 0 
SMALL
USER_CHARGES


@<TRIPOS>ATOM
  1 O        0.1770    -0.2930     0.4130 O.2   1 <1>  -0.5700 
  2 C        0.1900    -1.5020     0.5110 C.2   1 <1>   0.7800 
  3 O       -0.9090    -2.2080     0.2500 O.3   1 <1>  -0.4300 
  4 N        1.3220    -2.1930     0.8600 N.am  1 <1>  -0.6600 
  5 C       -2.1140    -1.5640    -0.1010 C.3   1 <1>   0.1200 
  6 C        1.4190    -3.6810     0.8180 C.3   1 <1>   0.1400 
  7 C        2.6040    -1.4870     1.1520 C.3   1 <1>   0.1400 
  8 C       -3.1730    -2.6360    -0.3370 C.3   1 <1>  -0.2400 
  9 C        2.5210    -4.1160    -0.1670 C.3   1 <1>   0.3430 
 10 C        3.6960    -1.9320     0.1630 C.3   1 <1>   0.3430 
 11 N        3.8370    -3.4350     0.1080 N.4   1 <1>  -0.9590 
 12 C        4.8800    -3.8440    -0.8710 C.3   1 <1>   0.4860 
 13 C        6.2150    -3.3010    -0.4020 C.ar  1 <1>  -0.1440 
 14 C        6.8070    -2.2390    -1.0360 C.ar  1 <1>  -0.1500 
 15 C        6.8540    -3.8880     0.7020 C.ar  1 <1>  -0.1500 
 16 C        8.0340    -1.7070    -0.5950 C.ar  1 <1>   0.0000 
 17 C        8.0460    -3.3910     1.1490 C.ar  1 <1>  -0.1500 
 18 C        8.6640    -2.2910     0.5240 C.ar  1 <1>   0.0000 
 19 C        8.6570    -0.6110    -1.2270 C.ar  1 <1>  -0.1500 
 20 C        9.8890    -1.7540     0.9700 C.ar  1 <1>  -0.1500 
 21 C        9.8450    -0.1110    -0.7720 C.ar  1 <1>  -0.1500 
 22 C       10.4680    -0.6880     0.3390 C.ar  1 <1>  -0.1500 
 23 H       -1.9460    -0.9840    -0.9940 H     1 <1>   0.0800 
 24 H       -2.4000    -0.9100     0.7060 H     1 <1>   0.0800 
 25 H        0.4830    -4.1190     0.5140 H     1 <1>   0.0800 
 26 H        1.6410    -4.0490     1.8050 H     1 <1>   0.0800 
 27 H        2.9100    -1.7060     2.1600 H     1 <1>   0.0800 
 28 H        2.4760    -0.4200     1.0790 H     1 <1>   0.0800 
 29 H       -2.8730    -3.2860    -1.1390 H     1 <1>   0.0800 
 30 H       -4.1040    -2.1710    -0.6050 H     1 <1>   0.0800 
 31 H       -3.3250    -3.2110     0.5590 H     1 <1>   0.0800 
 32 H        2.1920    -3.8750    -1.1650 H     1 <1>   0.0800 
 33 H        2.6400    -5.1860    -0.1100 H     1 <1>   0.0800 
 34 H        4.6330    -1.4840     0.4540 H     1 <1>   0.0800 
 35 H        3.4410    -1.5540    -0.8130 H     1 <1>   0.0800 
 36 H        4.1730    -3.7310     1.0330 H     1 <1>   0.4500 
 37 H        4.6470    -3.4560    -1.8490 H     1 <1>   0.0800 
 38 H        4.9370    -4.9190    -0.9340 H     1 <1>   0.0800 
 39 H        6.3520    -1.7750    -1.8940 H     1 <1>   0.1500 
 40 H        6.4150    -4.7370     1.1980 H     1 <1>   0.1500 
 41 H        8.5440    -3.8370     1.9930 H     1 <1>   0.1500 
 42 H        8.1810    -0.1670    -2.0840 H     1 <1>   0.1500 
 43 H       10.3670    -2.2020     1.8230 H     1 <1>   0.1500 
 44 H       10.3170     0.7260    -1.2580 H     1 <1>   0.1500 
 45 H       11.4040    -0.2830     0.6840 H     1 <1>   0.1500 
@<TRIPOS>BOND
  1   1   2  2   
  2   2   3  1   
  3   2   4  am  
  4   3   5  1   
  5   4   6  1   
  6   4   7  1   
  7   5   8  1   
  8   5  23  1   
  9   5  24  1   
 10   6   9  1   
 11   6  25  1   
 12   6  26  1   
 13   7  10  1   
 14   7  27  1   
 15   7  28  1   
 16   8  29  1   
 17   8  30  1   
 18   8  31  1   
 19   9  11  1   
 20   9  32  1   
 21   9  33  1   
 22  10  11  1   
 23  10  34  1   
 24  10  35  1   
 25  11  12  1   
 26  11  36  1   
 27  12  13  1   
 28  12  37  1   
 29  12  38  1   
 30  13  14  ar  
 31  13  15  ar  
 32  14  16  ar  
 33  14  39  1   
 34  15  17  ar  
 35  15  40  1   
 36  16  18  ar  
 37  16  19  ar  
 38  17  18  ar  
 39  17  41  1   
 40  18  20  ar  
 41  19  21  ar  
 42  19  42  1   
 43  20  22  ar  
 44  20  43  1   
 45  21  22  ar  
 46  21  44  1   
 47  22  45  1   
@<TRIPOS>SUBSTRUCTURE
  1 ****  10 GROUP 4 **** **** 0

# MOE 2024.06 (io_trps.svl 2023.06)
