@<TRIPOS>MOLECULE
NONAME
36 37 1 0 0 
SMALL
USER_CHARGES


@<TRIPOS>ATOM
  1 S        0.7420    -0.5680    -1.4760 S.3   1 <1>  -0.0800 
  2 C        1.0270    -1.1270     0.1590 C.2   1 <1>  -0.1400 
  3 C       -0.5990    -1.6720    -1.6610 C.2   1 <1>  -0.1100 
  4 C        0.1380    -2.0790     0.4920 C.2   1 <1>  -0.1500 
  5 C        2.1770    -0.4960     0.9160 C.3   1 <1>  -0.0600 
  6 C       -0.8170    -2.4020    -0.5380 C.2   1 <1>  -0.0860 
  7 C       -1.8540    -3.3920    -0.3370 C.2   1 <1>   0.7160 
  8 O       -1.7750    -4.2210     0.5490 O.2   1 <1>  -0.5700 
  9 N       -3.0060    -3.3850    -1.0920 N.am  1 <1>  -0.6600 
 10 C       -3.8030    -4.6400    -1.2070 C.3   1 <1>   0.1400 
 11 C       -3.8400    -2.1510    -1.1370 C.3   1 <1>   0.1400 
 12 C       -4.8450    -4.7000    -0.0740 C.3   1 <1>   0.3430 
 13 C       -4.9120    -2.1980    -0.0260 C.3   1 <1>   0.3430 
 14 N       -5.7210    -3.4730    -0.0520 N.4   1 <1>  -0.9590 
 15 C       -6.6820    -3.5390     1.0710 C.3   1 <1>   0.4810 
 16 C       -7.7820    -2.5480     0.7710 C.2   1 <1>  -0.2880 
 17 C       -9.0030    -2.8650     0.3260 C.2   1 <1>  -0.3000 
 18 H       -1.1030    -1.6720    -2.6110 H     1 <1>   0.1500 
 19 H        0.1070    -2.5890     1.4400 H     1 <1>   0.1500 
 20 H        2.0190     0.5630     1.0070 H     1 <1>   0.0800 
 21 H        3.0990    -0.6690     0.3910 H     1 <1>   0.0800 
 22 H        2.2510    -0.9230     1.9000 H     1 <1>   0.0800 
 23 H       -3.1500    -5.4950    -1.1390 H     1 <1>   0.0800 
 24 H       -4.2900    -4.6760    -2.1660 H     1 <1>   0.0800 
 25 H       -4.3100    -2.0680    -2.1020 H     1 <1>   0.0800 
 26 H       -3.2270    -1.2770    -0.9950 H     1 <1>   0.0800 
 27 H       -4.3140    -4.7880     0.8610 H     1 <1>   0.0800 
 28 H       -5.4490    -5.5850    -0.1960 H     1 <1>   0.0800 
 29 H       -5.5650    -1.3470    -0.1340 H     1 <1>   0.0800 
 30 H       -4.4130    -2.1100     0.9250 H     1 <1>   0.0800 
 31 H       -6.2940    -3.4660    -0.9050 H     1 <1>   0.4500 
 32 H       -6.2020    -3.3140     2.0110 H     1 <1>   0.0800 
 33 H       -7.1080    -4.5280     1.1280 H     1 <1>   0.0800 
 34 H       -7.4960    -1.5270     0.9620 H     1 <1>   0.1500 
 35 H       -9.7750    -2.1370     0.1270 H     1 <1>   0.1500 
 36 H       -9.3520    -3.8650     0.1260 H     1 <1>   0.1500 
@<TRIPOS>BOND
  1   1   2  1   
  2   1   3  1   
  3   2   4  2   
  4   2   5  1   
  5   3   6  2   
  6   3  18  1   
  7   4   6  1   
  8   4  19  1   
  9   5  20  1   
 10   5  21  1   
 11   5  22  1   
 12   6   7  1   
 13   7   8  2   
 14   7   9  am  
 15   9  10  1   
 16   9  11  1   
 17  10  12  1   
 18  10  23  1   
 19  10  24  1   
 20  11  13  1   
 21  11  25  1   
 22  11  26  1   
 23  12  14  1   
 24  12  27  1   
 25  12  28  1   
 26  13  14  1   
 27  13  29  1   
 28  13  30  1   
 29  14  15  1   
 30  14  31  1   
 31  15  16  1   
 32  15  32  1   
 33  15  33  1   
 34  16  17  2   
 35  16  34  1   
 36  17  35  1   
 37  17  36  1   
@<TRIPOS>SUBSTRUCTURE
  1 ****   9 GROUP 4 **** **** 0

# MOE 2024.06 (io_trps.svl 2023.06)
