@<TRIPOS>MOLECULE
NONAME
38 39 1 0 0 
SMALL
USER_CHARGES


@<TRIPOS>ATOM
  1 CL      -2.5930    -0.4130     2.1210 Cl    1 <1>  -0.1770 
  2 C       -2.5080     0.6410     0.7310 C.ar  1 <1>   0.1770 
  3 C       -2.6890     0.1290    -0.5570 C.ar  1 <1>   0.0860 
  4 C       -2.2620     1.9840     0.9650 C.ar  1 <1>  -0.1500 
  5 C       -2.9460    -1.2700    -0.8170 C.2   1 <1>   0.5440 
  6 C       -2.5960     1.0290    -1.6180 C.ar  1 <1>  -0.1500 
  7 C       -2.1870     2.8610    -0.1030 C.ar  1 <1>  -0.1500 
  8 O       -2.1900    -1.9090    -1.5100 O.2   1 <1>  -0.5700 
  9 N       -4.0420    -1.9450    -0.3710 N.am  1 <1>  -0.7300 
 10 C       -2.3560     2.3690    -1.3850 C.ar  1 <1>   0.1770 
 11 C       -5.2160    -1.4440     0.3840 C.3   1 <1>   0.1400 
 12 CL      -2.2680     3.4670    -2.7350 Cl    1 <1>  -0.1770 
 13 C       -6.4990    -1.6360    -0.4450 C.3   1 <1>   0.3430 
 14 N       -7.7380    -1.2140     0.2880 N.4   1 <1>  -0.9590 
 15 C       -8.9520    -1.6790    -0.4500 C.3   1 <1>   0.3430 
 16 C       -7.7900     0.2620     0.5290 C.3   1 <1>   0.3430 
 17 C      -10.2050    -1.3810     0.3760 C.3   1 <1>  -0.1600 
 18 C       -9.0170     0.6050     1.3760 C.3   1 <1>  -0.1600 
 19 C      -10.3140     0.1090     0.7250 C.3   1 <1>  -0.1600 
 20 H       -2.1250     2.3370     1.9730 H     1 <1>   0.1500 
 21 H       -2.7040     0.6780    -2.6300 H     1 <1>   0.1500 
 22 H       -1.9960     3.9100     0.0490 H     1 <1>   0.1500 
 23 H       -3.9820    -2.9560    -0.5400 H     1 <1>   0.3700 
 24 H       -5.0790    -0.4020     0.6090 H     1 <1>   0.0800 
 25 H       -5.2860    -1.9930     1.3080 H     1 <1>   0.0800 
 26 H       -6.5790    -2.6800    -0.7000 H     1 <1>   0.0800 
 27 H       -6.4110    -1.0740    -1.3600 H     1 <1>   0.0800 
 28 H       -7.7610    -1.6770     1.2070 H     1 <1>   0.4500 
 29 H       -8.8910    -2.7400    -0.6350 H     1 <1>   0.0800 
 30 H       -9.0200    -1.1720    -1.3990 H     1 <1>   0.0800 
 31 H       -7.8480     0.7840    -0.4130 H     1 <1>   0.0800 
 32 H       -6.9030     0.5910     1.0450 H     1 <1>   0.0800 
 33 H      -10.1890    -1.9700     1.2770 H     1 <1>   0.0800 
 34 H      -11.0740    -1.6780    -0.1850 H     1 <1>   0.0800 
 35 H       -9.0700     1.6720     1.5030 H     1 <1>   0.0800 
 36 H       -8.9080     0.1720     2.3560 H     1 <1>   0.0800 
 37 H      -11.1450     0.2690     1.3930 H     1 <1>   0.0800 
 38 H      -10.5040     0.6750    -0.1720 H     1 <1>   0.0800 
@<TRIPOS>BOND
  1   1   2  1   
  2   2   3  ar  
  3   2   4  ar  
  4   3   5  1   
  5   3   6  ar  
  6   4   7  ar  
  7   4  20  1   
  8   5   8  2   
  9   5   9  am  
 10   6  10  ar  
 11   6  21  1   
 12   7  10  ar  
 13   7  22  1   
 14   9  11  1   
 15   9  23  1   
 16  10  12  1   
 17  11  13  1   
 18  11  24  1   
 19  11  25  1   
 20  13  14  1   
 21  13  26  1   
 22  13  27  1   
 23  14  15  1   
 24  14  16  1   
 25  14  28  1   
 26  15  17  1   
 27  15  29  1   
 28  15  30  1   
 29  16  18  1   
 30  16  31  1   
 31  16  32  1   
 32  17  19  1   
 33  17  33  1   
 34  17  34  1   
 35  18  19  1   
 36  18  35  1   
 37  18  36  1   
 38  19  37  1   
 39  19  38  1   
@<TRIPOS>SUBSTRUCTURE
  1 ****  11 GROUP 4 **** **** 0

# MOE 2024.06 (io_trps.svl 2023.06)
