@<TRIPOS>MOLECULE
NONAME
46 47 1 0 0 
SMALL
USER_CHARGES


@<TRIPOS>ATOM
  1 BR      -2.3650     1.2790     2.3720 Br    1 <1>  -0.1110 
  2 C       -1.2900     2.4430     1.2700 C.ar  1 <1>   0.1110 
  3 C       -1.6770     2.6960    -0.0380 C.ar  1 <1>  -0.1440 
  4 C       -0.1570     2.9960     1.8330 C.ar  1 <1>  -0.1500 
  5 C       -0.8860     3.5470    -0.7970 C.ar  1 <1>  -0.1500 
  6 C       -2.9290     2.0740    -0.6230 C.3   1 <1>   0.4870 
  7 C        0.6280     3.8370     1.0640 C.ar  1 <1>   0.0820 
  8 C        0.2470     4.1320    -0.2520 C.ar  1 <1>   0.0820 
  9 N       -4.1130     2.7230    -0.0040 N.4   1 <1>  -0.9590 
 10 O        1.7470     4.3370     1.6390 O.3   1 <1>  -0.3620 
 11 O        0.9360     4.9800    -1.0550 O.3   1 <1>  -0.3620 
 12 C       -5.3640     1.9680    -0.2740 C.3   1 <1>   0.4860 
 13 C       -4.2240     4.1740    -0.3780 C.3   1 <1>   0.3430 
 14 C        2.9790     3.8860     1.1170 C.3   1 <1>   0.0400 
 15 C        1.0600     6.3200    -0.6250 C.3   1 <1>   0.0400 
 16 C       -6.4180     2.4420     0.7050 C.ar  1 <1>  -0.1440 
 17 C       -4.4210     5.0780     0.8470 C.3   1 <1>   0.1200 
 18 C       -6.3680     2.0390     2.0320 C.ar  1 <1>  -0.1500 
 19 C       -7.4310     3.2930     0.2860 C.ar  1 <1>  -0.1500 
 20 O       -4.4590     6.3860     0.3980 O.3   1 <1>  -0.6800 
 21 C       -7.3130     2.4940     2.9330 C.ar  1 <1>  -0.1500 
 22 C       -8.3750     3.7470     1.1900 C.ar  1 <1>  -0.1500 
 23 C       -8.3150     3.3500     2.5130 C.ar  1 <1>  -0.1500 
 24 H        0.1220     2.7780     2.8490 H     1 <1>   0.1500 
 25 H       -1.1300     3.7800    -1.8190 H     1 <1>   0.1500 
 26 H       -2.9290     1.0170    -0.4090 H     1 <1>   0.0800 
 27 H       -2.9440     2.2070    -1.6930 H     1 <1>   0.0800 
 28 H       -3.9670     2.6810     1.0130 H     1 <1>   0.4500 
 29 H       -5.2040     0.9120    -0.1280 H     1 <1>   0.0800 
 30 H       -5.6950     2.1310    -1.2870 H     1 <1>   0.0800 
 31 H       -5.0500     4.3200    -1.0540 H     1 <1>   0.0800 
 32 H       -3.3240     4.4940    -0.8760 H     1 <1>   0.0800 
 33 H        3.7700     4.3200     1.7010 H     1 <1>   0.0800 
 34 H        3.0690     4.1970     0.0910 H     1 <1>   0.0800 
 35 H        3.0150     2.8130     1.1870 H     1 <1>   0.0800 
 36 H        1.4710     6.8950    -1.4350 H     1 <1>   0.0800 
 37 H        1.7200     6.3680     0.2220 H     1 <1>   0.0800 
 38 H        0.0870     6.6970    -0.3640 H     1 <1>   0.0800 
 39 H       -3.5960     4.9860     1.5320 H     1 <1>   0.0800 
 40 H       -5.3510     4.8700     1.3470 H     1 <1>   0.0800 
 41 H       -5.6030     1.3670     2.3840 H     1 <1>   0.1500 
 42 H       -7.5030     3.6140    -0.7400 H     1 <1>   0.1500 
 43 H       -4.6110     7.0140     1.1360 H     1 <1>   0.4000 
 44 H       -7.2770     2.1820     3.9640 H     1 <1>   0.1500 
 45 H       -9.1620     4.4080     0.8660 H     1 <1>   0.1500 
 46 H       -9.0520     3.7030     3.2150 H     1 <1>   0.1500 
@<TRIPOS>BOND
  1   1   2  1   
  2   2   3  ar  
  3   2   4  ar  
  4   3   5  ar  
  5   3   6  1   
  6   4   7  ar  
  7   4  24  1   
  8   5   8  ar  
  9   5  25  1   
 10   6   9  1   
 11   6  26  1   
 12   6  27  1   
 13   7   8  ar  
 14   7  10  1   
 15   8  11  1   
 16   9  12  1   
 17   9  13  1   
 18   9  28  1   
 19  10  14  1   
 20  11  15  1   
 21  12  16  1   
 22  12  29  1   
 23  12  30  1   
 24  13  17  1   
 25  13  31  1   
 26  13  32  1   
 27  14  33  1   
 28  14  34  1   
 29  14  35  1   
 30  15  36  1   
 31  15  37  1   
 32  15  38  1   
 33  16  18  ar  
 34  16  19  ar  
 35  17  20  1   
 36  17  39  1   
 37  17  40  1   
 38  18  21  ar  
 39  18  41  1   
 40  19  22  ar  
 41  19  42  1   
 42  20  43  1   
 43  21  23  ar  
 44  21  44  1   
 45  22  23  ar  
 46  22  45  1   
 47  23  46  1   
@<TRIPOS>SUBSTRUCTURE
  1 ****   9 GROUP 4 **** **** 0

# MOE 2024.06 (io_trps.svl 2023.06)
