@<TRIPOS>MOLECULE
NONAME
45 47 1 0 0 
SMALL
USER_CHARGES


@<TRIPOS>ATOM
  1 CL       0.5540     0.2200     1.7170 Cl    1 <1>  -0.1770 
  2 C        2.0270     0.7780     0.9600 C.ar  1 <1>   0.1770 
  3 C        3.0590     1.2810     1.7320 C.ar  1 <1>   0.1600 
  4 C        2.1580     0.7140    -0.4090 C.ar  1 <1>  -0.1500 
  5 N        4.2100     1.7260     1.2430 N.ar  1 <1>  -0.6200 
  6 C        3.3500     1.1730    -0.9270 C.ar  1 <1>  -0.1500 
  7 C        4.3420     1.6670    -0.0760 C.ar  1 <1>   0.4270 
  8 N        5.5620     2.1450    -0.4960 N.am  1 <1>  -0.5470 
  9 C        6.1700     2.2270    -1.7160 C.2   1 <1>   0.5690 
 10 O        5.6260     1.9040    -2.7440 O.2   1 <1>  -0.5700 
 11 C        7.5890     2.8100    -1.7810 C.3   1 <1>   0.1710 
 12 N        8.6940     1.9180    -1.3230 N.3   1 <1>  -0.8100 
 13 C       10.0010     2.4620    -1.7510 C.3   1 <1>   0.1100 
 14 C        8.6880     1.6600     0.1370 C.3   1 <1>   0.1100 
 15 C       11.1740     1.5500    -1.3540 C.3   1 <1>   0.1400 
 16 C        9.8390     0.7350     0.5670 C.3   1 <1>   0.1400 
 17 N       11.1520     1.2760     0.1130 N.am  1 <1>  -0.6600 
 18 C       12.2140     1.4430     0.9750 C.2   1 <1>   0.5690 
 19 O       12.0920     1.1780     2.1520 O.2   1 <1>  -0.5700 
 20 C       13.5730     1.9980     0.4710 C.3   1 <1>   0.2610 
 21 O       14.1360     1.1690    -0.5120 O.3   1 <1>  -0.5600 
 22 C       14.6860     2.0820     1.5170 C.3   1 <1>  -0.1600 
 23 C       14.8740     0.1550     0.0920 C.3   1 <1>   0.1200 
 24 C       15.3540     0.7180     1.4290 C.3   1 <1>  -0.1600 
 25 H        2.9250     1.3180     2.7990 H     1 <1>   0.1500 
 26 H        1.3700     0.3260    -1.0300 H     1 <1>   0.1500 
 27 H        3.5060     1.1460    -1.9880 H     1 <1>   0.1500 
 28 H        6.1180     2.4460     0.2980 H     1 <1>   0.3700 
 29 H        7.6120     3.7270    -1.2200 H     1 <1>   0.0800 
 30 H        7.7630     3.0630    -2.8120 H     1 <1>   0.0800 
 31 H       10.1530     3.4340    -1.3140 H     1 <1>   0.0800 
 32 H       10.0060     2.5720    -2.8220 H     1 <1>   0.0800 
 33 H        7.7690     1.1790     0.4170 H     1 <1>   0.0800 
 34 H        8.7680     2.5880     0.6770 H     1 <1>   0.0800 
 35 H       12.0940     2.0170    -1.6510 H     1 <1>   0.0800 
 36 H       11.0930     0.6180    -1.8860 H     1 <1>   0.0800 
 37 H        9.6910    -0.2390     0.1330 H     1 <1>   0.0800 
 38 H        9.8220     0.6240     1.6380 H     1 <1>   0.0800 
 39 H       13.4040     2.9650     0.0350 H     1 <1>   0.0800 
 40 H       14.3210     2.3050     2.5040 H     1 <1>   0.0800 
 41 H       15.3790     2.8490     1.2230 H     1 <1>   0.0800 
 42 H       15.6900    -0.1100    -0.5570 H     1 <1>   0.0800 
 43 H       14.2250    -0.6920     0.2380 H     1 <1>   0.0800 
 44 H       15.0230     0.0760     2.2280 H     1 <1>   0.0800 
 45 H       16.4260     0.7960     1.4590 H     1 <1>   0.0800 
@<TRIPOS>BOND
  1   1   2  1   
  2   2   3  ar  
  3   2   4  ar  
  4   3   5  ar  
  5   3  25  1   
  6   4   6  ar  
  7   4  26  1   
  8   5   7  ar  
  9   6   7  ar  
 10   6  27  1   
 11   7   8  1   
 12   8   9  am  
 13   8  28  1   
 14   9  10  2   
 15   9  11  1   
 16  11  12  1   
 17  11  29  1   
 18  11  30  1   
 19  12  13  1   
 20  12  14  1   
 21  13  15  1   
 22  13  31  1   
 23  13  32  1   
 24  14  16  1   
 25  14  33  1   
 26  14  34  1   
 27  15  17  1   
 28  15  35  1   
 29  15  36  1   
 30  16  17  1   
 31  16  37  1   
 32  16  38  1   
 33  17  18  am  
 34  18  19  2   
 35  18  20  1   
 36  20  21  1   
 37  20  22  1   
 38  20  39  1   
 39  21  23  1   
 40  22  24  1   
 41  22  40  1   
 42  22  41  1   
 43  23  24  1   
 44  23  42  1   
 45  23  43  1   
 46  24  44  1   
 47  24  45  1   
@<TRIPOS>SUBSTRUCTURE
  1 ****  14 GROUP 4 **** **** 0

# MOE 2024.06 (io_trps.svl 2023.06)
