@<TRIPOS>MOLECULE
NONAME
34 34 1 0 0 
SMALL
USER_CHARGES


@<TRIPOS>ATOM
  1 S       -0.5220     0.3570     1.6010 S.o2  1 <1>   1.2040 
  2 O       -1.2770     1.3670     2.3090 O.2   1 <1>  -0.6500 
  3 O        0.4230    -0.4690     2.3180 O.2   1 <1>  -0.6500 
  4 C       -1.6530    -0.6940     0.6590 C.ar  1 <1>  -0.0090 
  5 C        0.3830     1.1890     0.3000 C.3   1 <1>  -0.0550 
  6 C       -2.8970    -0.2270     0.2510 C.ar  1 <1>  -0.1500 
  7 C       -1.2950    -1.9850     0.2880 C.ar  1 <1>  -0.1500 
  8 C        1.4370     2.1680     0.8460 C.3   1 <1>  -0.0990 
  9 C       -3.7520    -1.0190    -0.4950 C.ar  1 <1>  -0.1500 
 10 C       -2.1450    -2.7800    -0.4590 C.ar  1 <1>  -0.1500 
 11 C        2.1980     2.8740    -0.2560 C.2   1 <1>   0.6590 
 12 C       -3.3890    -2.3080    -0.8550 C.ar  1 <1>   0.1170 
 13 O        1.9650     2.6750    -1.4200 O.2   1 <1>  -0.5700 
 14 O        3.1340     3.7220     0.1460 O.3   1 <1>  -0.4300 
 15 N       -4.2640    -3.0890    -1.6140 N.am  1 <1>  -0.5470 
 16 C        3.9210     4.4500    -0.7740 C.3   1 <1>   0.0400 
 17 C       -4.7250    -4.3520    -1.4190 C.2   1 <1>   0.5690 
 18 O       -5.4570    -4.8520    -2.2310 O.2   1 <1>  -0.5700 
 19 C       -4.3530    -5.1400    -0.1850 C.3   1 <1>  -0.1790 
 20 H       -0.3040     1.7320    -0.3210 H     1 <1>   0.0800 
 21 H        0.8740     0.4600    -0.3160 H     1 <1>   0.0800 
 22 H       -3.2050     0.7690     0.5270 H     1 <1>   0.1500 
 23 H       -0.3360    -2.3760     0.5910 H     1 <1>   0.1500 
 24 H        2.1430     1.6350     1.4580 H     1 <1>   0.0800 
 25 H        0.9590     2.9120     1.4570 H     1 <1>   0.0800 
 26 H       -4.7120    -0.6350    -0.7940 H     1 <1>   0.1500 
 27 H       -1.8380    -3.7710    -0.7410 H     1 <1>   0.1500 
 28 H       -4.6840    -2.6470    -2.4320 H     1 <1>   0.3700 
 29 H        4.6060     5.0680    -0.2220 H     1 <1>   0.0800 
 30 H        3.2740     5.0610    -1.3780 H     1 <1>   0.0800 
 31 H        4.4630     3.7570    -1.3940 H     1 <1>   0.0800 
 32 H       -4.3130    -4.4960     0.6730 H     1 <1>   0.0800 
 33 H       -3.4000    -5.6100    -0.3300 H     1 <1>   0.0800 
 34 H       -5.0910    -5.9010    -0.0110 H     1 <1>   0.0800 
@<TRIPOS>BOND
  1   1   2  2   
  2   1   3  2   
  3   1   4  1   
  4   1   5  1   
  5   4   6  ar  
  6   4   7  ar  
  7   5   8  1   
  8   5  20  1   
  9   5  21  1   
 10   6   9  ar  
 11   6  22  1   
 12   7  10  ar  
 13   7  23  1   
 14   8  11  1   
 15   8  24  1   
 16   8  25  1   
 17   9  12  ar  
 18   9  26  1   
 19  10  12  ar  
 20  10  27  1   
 21  11  13  2   
 22  11  14  1   
 23  12  15  1   
 24  14  16  1   
 25  15  17  am  
 26  15  28  1   
 27  16  29  1   
 28  16  30  1   
 29  16  31  1   
 30  17  18  2   
 31  17  19  1   
 32  19  32  1   
 33  19  33  1   
 34  19  34  1   
@<TRIPOS>SUBSTRUCTURE
  1 ****   4 GROUP 4 **** **** 0

# MOE 2024.06 (io_trps.svl 2023.06)
