@<TRIPOS>MOLECULE
NONAME
53 56 1 0 0 
SMALL
USER_CHARGES


@<TRIPOS>ATOM
  1 O        2.0360    -1.2760    -1.8240 O.2   1 <1>  -0.5700 
  2 C        1.6080    -2.1810    -1.1200 C.2   1 <1>   0.6160 
  3 N        2.3740    -3.3200    -0.9010 N.am  1 <1>  -0.4690 
  4 C        0.3310    -2.0920    -0.5040 C.2   1 <1>  -0.1360 
  5 C        1.9110    -4.3230    -0.0480 C.2   1 <1>  -0.0290 
  6 C        3.5870    -3.5040    -1.7610 C.3   1 <1>   0.1400 
  7 C       -0.1330    -3.0820     0.3000 C.2   1 <1>  -0.1500 
  8 C        0.6830    -4.2150     0.5320 C.2   1 <1>  -0.1500 
  9 C        2.7980    -5.5370     0.2520 C.3   1 <1>   0.0580 
 10 C        4.5530    -4.5170    -1.1400 C.3   1 <1>  -0.0800 
 11 C        3.5740    -5.2730     1.5620 C.3   1 <1>   0.3430 
 12 C        3.7610    -5.8150    -0.9060 C.3   1 <1>  -0.1600 
 13 C        5.1180    -3.8720     0.1470 C.3   1 <1>   0.3430 
 14 N        4.9700    -4.7260     1.3760 N.4   1 <1>  -0.9590 
 15 C        6.0130    -5.7890     1.4590 C.3   1 <1>   0.4860 
 16 C        7.3740    -5.1270     1.5380 C.ar  1 <1>  -0.1430 
 17 C        8.1880    -5.0880     0.4140 C.ar  1 <1>  -0.1500 
 18 C        7.8170    -4.5530     2.7210 C.ar  1 <1>  -0.1500 
 19 C        9.4230    -4.4680     0.4590 C.ar  1 <1>   0.0820 
 20 C        9.0480    -3.9210     2.7700 C.ar  1 <1>  -0.1500 
 21 O       10.1600    -4.4930    -0.6780 O.3   1 <1>  -0.3620 
 22 C        9.8490    -3.8550     1.6420 C.ar  1 <1>   0.0820 
 23 C       11.4060    -5.1530    -0.6190 C.3   1 <1>   0.1200 
 24 O       11.0210    -3.1860     1.7510 O.3   1 <1>  -0.3630 
 25 C       11.9570    -5.2460    -2.0380 C.3   1 <1>  -0.2400 
 26 C       11.1530    -2.0060     0.9880 C.3   1 <1>   0.0400 
 27 H       -0.2380    -1.2060    -0.7140 H     1 <1>   0.1500 
 28 H        4.0890    -2.5600    -1.8980 H     1 <1>   0.0800 
 29 H        3.2660    -3.8450    -2.7310 H     1 <1>   0.0800 
 30 H       -1.1020    -3.0300     0.7680 H     1 <1>   0.1500 
 31 H        0.2880    -4.9760     1.1840 H     1 <1>   0.1500 
 32 H        2.1620    -6.3920     0.4020 H     1 <1>   0.0800 
 33 H        5.3560    -4.6920    -1.8350 H     1 <1>   0.0800 
 34 H        3.6280    -6.1920     2.1230 H     1 <1>   0.0800 
 35 H        2.9970    -4.5760     2.1490 H     1 <1>   0.0800 
 36 H        3.2020    -6.0770    -1.7900 H     1 <1>   0.0800 
 37 H        4.4080    -6.6420    -0.6800 H     1 <1>   0.0800 
 38 H        4.5850    -2.9500     0.3170 H     1 <1>   0.0800 
 39 H        6.1520    -3.6090    -0.0060 H     1 <1>   0.0800 
 40 H        5.1700    -4.1040     2.1700 H     1 <1>   0.4500 
 41 H        5.9720    -6.4310     0.5960 H     1 <1>   0.0800 
 42 H        5.8620    -6.3920     2.3400 H     1 <1>   0.0800 
 43 H        7.8850    -5.5410    -0.5140 H     1 <1>   0.1500 
 44 H        7.2200    -4.5860     3.6170 H     1 <1>   0.1500 
 45 H        9.3980    -3.4700     3.6820 H     1 <1>   0.1500 
 46 H       11.2540    -6.1340    -0.2010 H     1 <1>   0.0800 
 47 H       12.0740    -4.5920     0.0100 H     1 <1>   0.0800 
 48 H       11.2830    -5.8050    -2.6630 H     1 <1>   0.0800 
 49 H       12.9080    -5.7470    -2.0250 H     1 <1>   0.0800 
 50 H       12.0950    -4.2610    -2.4470 H     1 <1>   0.0800 
 51 H       12.0910    -1.5460     1.2410 H     1 <1>   0.0800 
 52 H       10.3410    -1.3430     1.2290 H     1 <1>   0.0800 
 53 H       11.1380    -2.2520    -0.0590 H     1 <1>   0.0800 
@<TRIPOS>BOND
  1   1   2  2   
  2   2   3  am  
  3   2   4  1   
  4   3   5  1   
  5   3   6  1   
  6   4   7  2   
  7   4  27  1   
  8   5   8  2   
  9   5   9  1   
 10   6  10  1   
 11   6  28  1   
 12   6  29  1   
 13   7   8  1   
 14   7  30  1   
 15   8  31  1   
 16   9  11  1   
 17   9  12  1   
 18   9  32  1   
 19  10  12  1   
 20  10  13  1   
 21  10  33  1   
 22  11  14  1   
 23  11  34  1   
 24  11  35  1   
 25  12  36  1   
 26  12  37  1   
 27  13  14  1   
 28  13  38  1   
 29  13  39  1   
 30  14  15  1   
 31  14  40  1   
 32  15  16  1   
 33  15  41  1   
 34  15  42  1   
 35  16  17  ar  
 36  16  18  ar  
 37  17  19  ar  
 38  17  43  1   
 39  18  20  ar  
 40  18  44  1   
 41  19  21  1   
 42  19  22  ar  
 43  20  22  ar  
 44  20  45  1   
 45  21  23  1   
 46  22  24  1   
 47  23  25  1   
 48  23  46  1   
 49  23  47  1   
 50  24  26  1   
 51  25  48  1   
 52  25  49  1   
 53  25  50  1   
 54  26  51  1   
 55  26  52  1   
 56  26  53  1   
@<TRIPOS>SUBSTRUCTURE
  1 ****  13 GROUP 4 **** **** 0

# MOE 2024.06 (io_trps.svl 2023.06)
