@<TRIPOS>MOLECULE
NONAME
44 45 1 0 0 
SMALL
USER_CHARGES


@<TRIPOS>ATOM
  1 CL       0.3320    -0.2520    -1.2960 Cl    1 <1>  -0.1770 
  2 C        1.9640     0.1210    -0.8000 C.ar  1 <1>   0.1770 
  3 C        2.4000    -0.2740     0.4500 C.ar  1 <1>  -0.1500 
  4 C        2.7940     0.8070    -1.6660 C.ar  1 <1>  -0.1500 
  5 C        3.6950     0.0180     0.8510 C.ar  1 <1>  -0.1440 
  6 C        4.0870     1.1020    -1.2720 C.ar  1 <1>  -0.1500 
  7 C        4.5440     0.7100    -0.0140 C.ar  1 <1>   0.0830 
  8 C        4.1740    -0.4190     2.2280 C.3   1 <1>  -0.0960 
  9 O        5.8030     0.9720     0.4250 O.3   1 <1>  -0.3630 
 10 C        6.7690     1.5940    -0.4020 C.3   1 <1>   0.1200 
 11 C        8.0880     1.7130     0.3710 C.3   1 <1>   0.2000 
 12 O        7.8130     2.3120     1.5960 O.3   1 <1>  -0.6800 
 13 C        9.1400     2.5340    -0.4080 C.3   1 <1>   0.1100 
 14 N       10.5380     2.3610     0.0660 N.3   1 <1>  -0.8100 
 15 C       11.4890     3.0400    -0.8450 C.3   1 <1>   0.1100 
 16 C       10.7230     2.8460     1.4630 C.3   1 <1>   0.1100 
 17 C       12.9650     2.8040    -0.4370 C.3   1 <1>   0.3430 
 18 C       12.2050     2.9170     1.8990 C.3   1 <1>   0.3430 
 19 N       13.0710     2.1800     0.9240 N.4   1 <1>  -0.9590 
 20 C       14.4760     1.9990     1.3890 C.3   1 <1>   0.2630 
 21 H        1.7240    -0.8050     1.0960 H     1 <1>   0.1500 
 22 H        2.4270     1.1020    -2.6320 H     1 <1>   0.1500 
 23 H        4.7160     1.6370    -1.9580 H     1 <1>   0.1500 
 24 H        3.4180    -0.9860     2.7410 H     1 <1>   0.0800 
 25 H        4.4160     0.4440     2.8200 H     1 <1>   0.0800 
 26 H        5.0520    -1.0320     2.1320 H     1 <1>   0.0800 
 27 H        6.4070     2.5690    -0.6760 H     1 <1>   0.0800 
 28 H        6.9030     0.9900    -1.2820 H     1 <1>   0.0800 
 29 H        8.4710     0.7240     0.5560 H     1 <1>   0.0800 
 30 H        6.9740     1.9280     1.9340 H     1 <1>   0.4000 
 31 H        8.8630     3.5750    -0.3850 H     1 <1>   0.0800 
 32 H        9.1020     2.2110    -1.4340 H     1 <1>   0.0800 
 33 H       11.2900     4.0990    -0.8490 H     1 <1>   0.0800 
 34 H       11.3480     2.6810    -1.8510 H     1 <1>   0.0800 
 35 H       10.2180     2.1750     2.1350 H     1 <1>   0.0800 
 36 H       10.2710     3.8170     1.5830 H     1 <1>   0.0800 
 37 H       13.4900     3.7450    -0.4580 H     1 <1>   0.0800 
 38 H       13.4260     2.1570    -1.1660 H     1 <1>   0.0800 
 39 H       12.3010     2.4920     2.8840 H     1 <1>   0.0800 
 40 H       12.5100     3.9480     1.9520 H     1 <1>   0.0800 
 41 H       12.5950     1.2690     0.8170 H     1 <1>   0.4500 
 42 H       14.9600     2.9550     1.5010 H     1 <1>   0.0800 
 43 H       15.0310     1.4110     0.6770 H     1 <1>   0.0800 
 44 H       14.4910     1.4900     2.3390 H     1 <1>   0.0800 
@<TRIPOS>BOND
  1   1   2  1   
  2   2   3  ar  
  3   2   4  ar  
  4   3   5  ar  
  5   3  21  1   
  6   4   6  ar  
  7   4  22  1   
  8   5   7  ar  
  9   5   8  1   
 10   6   7  ar  
 11   6  23  1   
 12   7   9  1   
 13   8  24  1   
 14   8  25  1   
 15   8  26  1   
 16   9  10  1   
 17  10  11  1   
 18  10  27  1   
 19  10  28  1   
 20  11  12  1   
 21  11  13  1   
 22  11  29  1   
 23  12  30  1   
 24  13  14  1   
 25  13  31  1   
 26  13  32  1   
 27  14  15  1   
 28  14  16  1   
 29  15  17  1   
 30  15  33  1   
 31  15  34  1   
 32  16  18  1   
 33  16  35  1   
 34  16  36  1   
 35  17  19  1   
 36  17  37  1   
 37  17  38  1   
 38  18  19  1   
 39  18  39  1   
 40  18  40  1   
 41  19  20  1   
 42  19  41  1   
 43  20  42  1   
 44  20  43  1   
 45  20  44  1   
@<TRIPOS>SUBSTRUCTURE
  1 ****  11 GROUP 4 **** **** 0

# MOE 2024.06 (io_trps.svl 2023.06)
