@<TRIPOS>MOLECULE
NONAME
42 44 1 0 0 
SMALL
USER_CHARGES


@<TRIPOS>ATOM
  1 BR       0.4250     0.4220    -1.5990 Br    1 <1>  -0.1110 
  2 C       -0.1070    -1.2490    -0.7950 C.ar  1 <1>   0.1110 
  3 C        0.6980    -1.8520     0.1620 C.ar  1 <1>   0.0820 
  4 C       -1.3070    -1.8050    -1.1970 C.ar  1 <1>  -0.1500 
  5 O        1.8580    -1.2980     0.5710 O.3   1 <1>  -0.3630 
  6 C        0.2780    -3.0440     0.7280 C.ar  1 <1>  -0.1500 
  7 C       -1.7260    -2.9980    -0.6200 C.ar  1 <1>  -0.1430 
  8 C        3.0020    -1.6050    -0.1930 C.3   1 <1>   0.0400 
  9 C       -0.9250    -3.6140     0.3370 C.ar  1 <1>  -0.1500 
 10 C       -3.0520    -3.6150    -1.0240 C.3   1 <1>   0.4870 
 11 N       -4.0480    -3.3420     0.0450 N.4   1 <1>  -0.9590 
 12 C       -5.3260    -4.1190    -0.1860 C.3   1 <1>   0.3430 
 13 C       -4.3150    -1.8560     0.1910 C.3   1 <1>   0.3430 
 14 C       -6.4090    -3.7990     0.8640 C.3   1 <1>   0.2090 
 15 C       -5.4190    -1.5370     1.2210 C.3   1 <1>   0.2090 
 16 N       -6.6430    -2.3270     0.9050 N.pl3 1 <1>  -0.8380 
 17 C       -7.6130    -1.7540     0.1150 C.ar  1 <1>   0.7200 
 18 N       -8.0420    -2.4700    -0.9230 N.ar  1 <1>  -0.6200 
 19 N       -7.9940    -0.5260     0.4430 N.ar  1 <1>  -0.6200 
 20 C       -8.9770    -1.9100    -1.6550 C.ar  1 <1>   0.1600 
 21 C       -8.9290     0.0070    -0.3070 C.ar  1 <1>   0.1600 
 22 C       -9.4640    -0.6550    -1.3840 C.ar  1 <1>  -0.1500 
 23 H       -1.8870    -1.2990    -1.9490 H     1 <1>   0.1500 
 24 H        0.8970    -3.5160     1.4720 H     1 <1>   0.1500 
 25 H        3.8440    -1.1000     0.2450 H     1 <1>   0.0800 
 26 H        2.8550    -1.2650    -1.2020 H     1 <1>   0.0800 
 27 H        3.1610    -2.6690    -0.1730 H     1 <1>   0.0800 
 28 H       -1.2200    -4.5460     0.7900 H     1 <1>   0.1500 
 29 H       -2.9250    -4.6770    -1.1520 H     1 <1>   0.0800 
 30 H       -3.3860    -3.1960    -1.9600 H     1 <1>   0.0800 
 31 H       -3.6340    -3.6550     0.9310 H     1 <1>   0.4500 
 32 H       -5.1240    -5.1770    -0.1710 H     1 <1>   0.0800 
 33 H       -5.7300    -3.8720    -1.1550 H     1 <1>   0.0800 
 34 H       -4.6280    -1.4540    -0.7580 H     1 <1>   0.0800 
 35 H       -3.4100    -1.3470     0.4820 H     1 <1>   0.0800 
 36 H       -6.0970    -4.1400     1.8360 H     1 <1>   0.0800 
 37 H       -7.3220    -4.3170     0.6200 H     1 <1>   0.0800 
 38 H       -5.6290    -0.4810     1.2020 H     1 <1>   0.0800 
 39 H       -5.0830    -1.7780     2.2140 H     1 <1>   0.0800 
 40 H       -9.3660    -2.4640    -2.4940 H     1 <1>   0.1500 
 41 H       -9.2760     0.9960    -0.0560 H     1 <1>   0.1500 
 42 H      -10.2320    -0.2090    -1.9880 H     1 <1>   0.1500 
@<TRIPOS>BOND
  1   1   2  1   
  2   2   3  ar  
  3   2   4  ar  
  4   3   5  1   
  5   3   6  ar  
  6   4   7  ar  
  7   4  23  1   
  8   5   8  1   
  9   6   9  ar  
 10   6  24  1   
 11   7   9  ar  
 12   7  10  1   
 13   8  25  1   
 14   8  26  1   
 15   8  27  1   
 16   9  28  1   
 17  10  11  1   
 18  10  29  1   
 19  10  30  1   
 20  11  12  1   
 21  11  13  1   
 22  11  31  1   
 23  12  14  1   
 24  12  32  1   
 25  12  33  1   
 26  13  15  1   
 27  13  34  1   
 28  13  35  1   
 29  14  16  1   
 30  14  36  1   
 31  14  37  1   
 32  15  16  1   
 33  15  38  1   
 34  15  39  1   
 35  16  17  1   
 36  17  18  ar  
 37  17  19  ar  
 38  18  20  ar  
 39  19  21  ar  
 40  20  22  ar  
 41  20  40  1   
 42  21  22  ar  
 43  21  41  1   
 44  22  42  1   
@<TRIPOS>SUBSTRUCTURE
  1 ****  13 GROUP 4 **** **** 0

# MOE 2024.06 (io_trps.svl 2023.06)
