@<TRIPOS>MOLECULE
NONAME
49 51 1 0 0 
SMALL
USER_CHARGES


@<TRIPOS>ATOM
  1 CL       1.1830    -0.5020    -3.1750 Cl    1 <1>  -0.1770 
  2 C        2.0670    -0.9570    -1.7400 C.ar  1 <1>   0.1770 
  3 C        3.2570    -0.3230    -1.4500 C.ar  1 <1>  -0.1500 
  4 C        1.5580    -1.9460    -0.9190 C.ar  1 <1>  -0.1500 
  5 C        3.9680    -0.6770    -0.3120 C.ar  1 <1>   0.1000 
  6 C        2.2620    -2.3050     0.2190 C.ar  1 <1>  -0.1500 
  7 N        5.1660    -0.0350    -0.0260 N.pl3 1 <1>  -0.8380 
  8 C        3.4580    -1.6730     0.5170 C.ar  1 <1>  -0.1500 
  9 C        6.4080    -0.8350    -0.2000 C.3   1 <1>   0.2090 
 10 C        5.1730     0.8720     1.1540 C.3   1 <1>   0.2090 
 11 C        7.6370     0.0970    -0.2460 C.3   1 <1>   0.3430 
 12 C        6.4070     1.7970     1.1050 C.3   1 <1>   0.3430 
 13 N        7.7170     1.0400     0.9460 N.4   1 <1>  -0.9590 
 14 C        8.8960     1.9610     0.9630 C.3   1 <1>   0.4230 
 15 C        8.9970     2.8190    -0.3060 C.3   1 <1>  -0.1600 
 16 C       10.1910     1.1720     1.1690 C.3   1 <1>  -0.1600 
 17 C       10.2110     3.7470    -0.2350 C.3   1 <1>   0.3430 
 18 C       11.3950     2.1150     1.2290 C.3   1 <1>   0.3430 
 19 N       11.4560     2.9500    -0.0060 N.4   1 <1>  -0.9590 
 20 C       12.6610     3.8300     0.0440 C.3   1 <1>   0.3430 
 21 C       12.9830     4.3430    -1.3550 C.3   1 <1>  -0.2400 
 22 H        3.6310     0.4420    -2.1030 H     1 <1>   0.1500 
 23 H        0.6270    -2.4240    -1.1690 H     1 <1>   0.1500 
 24 H        1.8770    -3.0740     0.8670 H     1 <1>   0.1500 
 25 H        3.9970    -1.9580     1.4010 H     1 <1>   0.1500 
 26 H        6.3430    -1.3910    -1.1210 H     1 <1>   0.0800 
 27 H        6.5040    -1.5420     0.6060 H     1 <1>   0.0800 
 28 H        5.1750     0.2930     2.0610 H     1 <1>   0.0800 
 29 H        4.2760     1.4690     1.1450 H     1 <1>   0.0800 
 30 H        7.5710     0.6690    -1.1560 H     1 <1>   0.0800 
 31 H        8.5240    -0.5110    -0.3010 H     1 <1>   0.0800 
 32 H        6.4290     2.3890     2.0050 H     1 <1>   0.0800 
 33 H        6.2740     2.4670     0.2730 H     1 <1>   0.0800 
 34 H        7.7780     0.4340     1.7760 H     1 <1>   0.4500 
 35 H        8.7860     2.6280     1.8040 H     1 <1>   0.0800 
 36 H        8.1200     3.4320    -0.4110 H     1 <1>   0.0800 
 37 H        9.0890     2.2100    -1.1870 H     1 <1>   0.0800 
 38 H       10.3500     0.4650     0.3750 H     1 <1>   0.0800 
 39 H       10.1420     0.6310     2.0980 H     1 <1>   0.0800 
 40 H       10.0830     4.4580     0.5660 H     1 <1>   0.0800 
 41 H       10.2910     4.2990    -1.1590 H     1 <1>   0.0800 
 42 H       12.3020     1.5360     1.3250 H     1 <1>   0.0800 
 43 H       11.3160     2.7530     2.0960 H     1 <1>   0.0800 
 44 H       11.6040     2.3290    -0.8160 H     1 <1>   0.4500 
 45 H       13.5090     3.2680     0.4050 H     1 <1>   0.0800 
 46 H       12.4980     4.6590     0.7150 H     1 <1>   0.0800 
 47 H       13.1340     3.5290    -2.0410 H     1 <1>   0.0800 
 48 H       13.8970     4.9100    -1.3160 H     1 <1>   0.0800 
 49 H       12.2160     4.9980    -1.7270 H     1 <1>   0.0800 
@<TRIPOS>BOND
  1   1   2  1   
  2   2   3  ar  
  3   2   4  ar  
  4   3   5  ar  
  5   3  22  1   
  6   4   6  ar  
  7   4  23  1   
  8   5   7  1   
  9   5   8  ar  
 10   6   8  ar  
 11   6  24  1   
 12   7   9  1   
 13   7  10  1   
 14   8  25  1   
 15   9  11  1   
 16   9  26  1   
 17   9  27  1   
 18  10  12  1   
 19  10  28  1   
 20  10  29  1   
 21  11  13  1   
 22  11  30  1   
 23  11  31  1   
 24  12  13  1   
 25  12  32  1   
 26  12  33  1   
 27  13  14  1   
 28  13  34  1   
 29  14  15  1   
 30  14  16  1   
 31  14  35  1   
 32  15  17  1   
 33  15  36  1   
 34  15  37  1   
 35  16  18  1   
 36  16  38  1   
 37  16  39  1   
 38  17  19  1   
 39  17  40  1   
 40  17  41  1   
 41  18  19  1   
 42  18  42  1   
 43  18  43  1   
 44  19  20  1   
 45  19  44  1   
 46  20  21  1   
 47  20  45  1   
 48  20  46  1   
 49  21  47  1   
 50  21  48  1   
 51  21  49  1   
@<TRIPOS>SUBSTRUCTURE
  1 ****  11 GROUP 4 **** **** 0

# MOE 2024.06 (io_trps.svl 2023.06)
