@<TRIPOS>MOLECULE
NONAME
40 40 1 0 0 
SMALL
USER_CHARGES


@<TRIPOS>ATOM
  1 O        0.6490    -1.0560    -0.9040 O.3   1 <1>  -0.5600 
  2 C        0.3930    -1.0070     0.4770 C.3   1 <1>   0.1200 
  3 C       -0.1520    -0.1940    -1.6560 C.3   1 <1>   0.0400 
  4 C        1.1600    -2.1520     1.1830 C.3   1 <1>   0.4230 
  5 N        2.2980    -2.5730     0.3320 N.4   1 <1>  -0.9060 
  6 C        0.2700    -3.3800     1.3450 C.3   1 <1>  -0.2400 
  7 C        3.6420    -2.0500     0.6630 C.3   1 <1>   0.4230 
  8 C        3.7180    -0.5380     0.4250 C.3   1 <1>  -0.1600 
  9 C        4.6600    -2.7780    -0.2160 C.3   1 <1>  -0.1600 
 10 C        5.1430    -0.0120     0.6080 C.3   1 <1>   0.3430 
 11 C        6.0720    -2.2270    -0.0150 C.3   1 <1>   0.3430 
 12 N        6.0840    -0.7570    -0.2750 N.4   1 <1>  -0.9590 
 13 C        7.4580    -0.1890    -0.1400 C.3   1 <1>   0.3430 
 14 C        8.3130    -0.6230    -1.3250 C.3   1 <1>  -0.2400 
 15 H       -0.6670    -1.0970     0.6490 H     1 <1>   0.0800 
 16 H        0.7170    -0.0500     0.8480 H     1 <1>   0.0800 
 17 H        0.0030     0.8210    -1.3310 H     1 <1>   0.0800 
 18 H       -1.1860    -0.4710    -1.5390 H     1 <1>   0.0800 
 19 H        0.1260    -0.2870    -2.6920 H     1 <1>   0.0800 
 20 H        1.4940    -1.8340     2.1580 H     1 <1>   0.0800 
 21 H        2.0030    -2.2370    -0.6050 H     1 <1>   0.4500 
 22 H        2.2920    -3.5960     0.2820 H     1 <1>   0.4500 
 23 H       -0.1040    -3.7170     0.3920 H     1 <1>   0.0800 
 24 H       -0.5770    -3.1340     1.9620 H     1 <1>   0.0800 
 25 H        0.8010    -4.1800     1.8290 H     1 <1>   0.0800 
 26 H        3.8630    -2.2610     1.6990 H     1 <1>   0.0800 
 27 H        3.0890    -0.0240     1.1280 H     1 <1>   0.0800 
 28 H        3.3820    -0.2940    -0.5680 H     1 <1>   0.0800 
 29 H        4.3990    -2.6840    -1.2560 H     1 <1>   0.0800 
 30 H        4.6710    -3.8250     0.0340 H     1 <1>   0.0800 
 31 H        5.4450    -0.1250     1.6380 H     1 <1>   0.0800 
 32 H        5.1700     1.0410     0.3680 H     1 <1>   0.0800 
 33 H        6.7490    -2.7280    -0.6900 H     1 <1>   0.0800 
 34 H        6.4030    -2.4220     0.9930 H     1 <1>   0.0800 
 35 H        5.8110    -0.5930    -1.2560 H     1 <1>   0.4500 
 36 H        7.9130    -0.5110     0.7840 H     1 <1>   0.0800 
 37 H        7.4080     0.8890    -0.1310 H     1 <1>   0.0800 
 38 H        8.4840    -1.6840    -1.3280 H     1 <1>   0.0800 
 39 H        9.2740    -0.1430    -1.2560 H     1 <1>   0.0800 
 40 H        7.8650    -0.3220    -2.2560 H     1 <1>   0.0800 
@<TRIPOS>BOND
  1   1   2  1   
  2   1   3  1   
  3   2   4  1   
  4   2  15  1   
  5   2  16  1   
  6   3  17  1   
  7   3  18  1   
  8   3  19  1   
  9   4   5  1   
 10   4   6  1   
 11   4  20  1   
 12   5   7  1   
 13   5  21  1   
 14   5  22  1   
 15   6  23  1   
 16   6  24  1   
 17   6  25  1   
 18   7   8  1   
 19   7   9  1   
 20   7  26  1   
 21   8  10  1   
 22   8  27  1   
 23   8  28  1   
 24   9  11  1   
 25   9  29  1   
 26   9  30  1   
 27  10  12  1   
 28  10  31  1   
 29  10  32  1   
 30  11  12  1   
 31  11  33  1   
 32  11  34  1   
 33  12  13  1   
 34  12  35  1   
 35  13  14  1   
 36  13  36  1   
 37  13  37  1   
 38  14  38  1   
 39  14  39  1   
 40  14  40  1   
@<TRIPOS>SUBSTRUCTURE
  1 ****   7 GROUP 4 **** **** 0

# MOE 2024.06 (io_trps.svl 2023.06)
