@<TRIPOS>MOLECULE
NONAME
31 32 1 0 0 
SMALL
USER_CHARGES


@<TRIPOS>ATOM
  1 CL       0.6050     1.6130     2.1500 Cl    1 <1>  -0.1770 
  2 C       -0.5100     2.4090     1.0630 C.ar  1 <1>   0.1770 
  3 C       -0.1020     2.9740    -0.1350 C.ar  1 <1>   0.3960 
  4 C       -1.8340     2.4950     1.4190 C.ar  1 <1>   0.1600 
  5 N       -0.9960     3.6090    -0.9010 N.ar  1 <1>  -0.6200 
  6 C        1.2910     2.8720    -0.5440 C.2   1 <1>   0.5440 
  7 N       -2.7240     3.1070     0.6660 N.ar  1 <1>  -0.6200 
  8 C       -2.2330     3.6240    -0.4500 C.ar  1 <1>   0.7220 
  9 O        1.7400     1.7720    -0.8130 O.2   1 <1>  -0.5700 
 10 N        2.1320     3.9720    -0.6210 N.am  1 <1>  -0.6600 
 11 S       -3.4000     4.4790    -1.4960 S.3   1 <1>  -0.3320 
 12 C        3.5710     3.8400    -0.9880 C.3   1 <1>   0.1400 
 13 C        1.7030     5.3750    -0.3590 C.3   1 <1>   0.1400 
 14 C       -5.0300     4.3200    -0.6380 C.3   1 <1>  -0.0100 
 15 C        4.4410     4.4210     0.1320 C.3   1 <1>  -0.1600 
 16 C        2.5530     5.9690     0.7690 C.3   1 <1>  -0.1600 
 17 C        4.0530     5.8700     0.4590 C.3   1 <1>  -0.1600 
 18 H       -2.1630     2.0540     2.3440 H     1 <1>   0.1500 
 19 H        3.7470     4.3740    -1.9050 H     1 <1>   0.0800 
 20 H        3.8360     2.8090    -1.1490 H     1 <1>   0.0800 
 21 H        0.6650     5.4270    -0.0870 H     1 <1>   0.0800 
 22 H        1.8380     5.9520    -1.2590 H     1 <1>   0.0800 
 23 H       -5.7680     4.8180    -1.2400 H     1 <1>   0.0800 
 24 H       -4.9420     4.7830     0.3280 H     1 <1>   0.0800 
 25 H       -5.2530     3.2720    -0.5430 H     1 <1>   0.0800 
 26 H        5.4740     4.3800    -0.1650 H     1 <1>   0.0800 
 27 H        4.3280     3.8060     1.0080 H     1 <1>   0.0800 
 28 H        2.3360     5.4420     1.6820 H     1 <1>   0.0800 
 29 H        2.2820     7.0000     0.9130 H     1 <1>   0.0800 
 30 H        4.2860     6.4990    -0.3840 H     1 <1>   0.0800 
 31 H        4.6240     6.2180     1.3020 H     1 <1>   0.0800 
@<TRIPOS>BOND
  1   1   2  1   
  2   2   3  ar  
  3   2   4  ar  
  4   3   5  ar  
  5   3   6  1   
  6   4   7  ar  
  7   4  18  1   
  8   5   8  ar  
  9   6   9  2   
 10   6  10  am  
 11   7   8  ar  
 12   8  11  1   
 13  10  12  1   
 14  10  13  1   
 15  11  14  1   
 16  12  15  1   
 17  12  19  1   
 18  12  20  1   
 19  13  16  1   
 20  13  21  1   
 21  13  22  1   
 22  14  23  1   
 23  14  24  1   
 24  14  25  1   
 25  15  17  1   
 26  15  26  1   
 27  15  27  1   
 28  16  17  1   
 29  16  28  1   
 30  16  29  1   
 31  17  30  1   
 32  17  31  1   
@<TRIPOS>SUBSTRUCTURE
  1 ****   3 GROUP 4 **** **** 0

# MOE 2024.06 (io_trps.svl 2023.06)
