@<TRIPOS>MOLECULE
NONAME
42 42 1 0 0 
SMALL
USER_CHARGES


@<TRIPOS>ATOM
  1 O        0.1350    -0.2920     1.2220 O.2   1 <1>  -0.5700 
  2 C        0.1010    -1.2310     0.4490 C.2   1 <1>   0.7060 
  3 O        1.2220    -1.5490    -0.2110 O.3   1 <1>  -0.4300 
  4 C       -1.0900    -1.9670     0.1790 C.2   1 <1>   0.0290 
  5 C        2.4300    -0.8540     0.0010 C.3   1 <1>   0.1200 
  6 C       -0.9300    -3.3530    -0.1330 C.2   1 <1>   0.7060 
  7 C       -2.3160    -1.3520     0.2320 C.2   1 <1>  -0.0500 
  8 C        3.4990    -1.4900    -0.8800 C.3   1 <1>  -0.2400 
  9 O       -1.7100    -3.9720    -0.8380 O.2   1 <1>  -0.5700 
 10 O        0.0960    -4.0190     0.4130 O.3   1 <1>  -0.4300 
 11 N       -3.5220    -1.9330    -0.0450 N.pl3 1 <1>  -0.6000 
 12 C        0.3210    -5.3990     0.2110 C.3   1 <1>   0.1200 
 13 C       -4.8080    -1.3820     0.0330 C.ar  1 <1>   0.1000 
 14 C       -0.5000    -6.1880     1.2300 C.3   1 <1>  -0.2400 
 15 C       -5.8410    -1.9700    -0.6840 C.ar  1 <1>  -0.1500 
 16 C       -5.0930    -0.2690     0.8110 C.ar  1 <1>  -0.1500 
 17 C       -7.1320    -1.4660    -0.6390 C.ar  1 <1>  -0.1430 
 18 C       -6.3760     0.2440     0.8620 C.ar  1 <1>  -0.1500 
 19 C       -7.4030    -0.3460     0.1410 C.ar  1 <1>  -0.1430 
 20 C       -8.2230    -2.1520    -1.4490 C.3   1 <1>  -0.0970 
 21 C       -8.8010     0.2480     0.2230 C.3   1 <1>  -0.0970 
 22 H        2.2800     0.1810    -0.2560 H     1 <1>   0.0800 
 23 H        2.6910    -0.9340     1.0440 H     1 <1>   0.0800 
 24 H       -2.3510    -0.3090     0.5080 H     1 <1>   0.1500 
 25 H        3.2210    -1.4120    -1.9160 H     1 <1>   0.0800 
 26 H        3.6280    -2.5250    -0.6190 H     1 <1>   0.0800 
 27 H        4.4360    -0.9820    -0.7380 H     1 <1>   0.0800 
 28 H       -3.4910    -2.8950    -0.4220 H     1 <1>   0.4000 
 29 H        0.0590    -5.6620    -0.8000 H     1 <1>   0.0800 
 30 H        1.3720    -5.5810     0.3580 H     1 <1>   0.0800 
 31 H       -1.5510    -6.0210     1.0740 H     1 <1>   0.0800 
 32 H       -0.2320    -5.8980     2.2300 H     1 <1>   0.0800 
 33 H       -0.3050    -7.2390     1.1140 H     1 <1>   0.0800 
 34 H       -5.6240    -2.8320    -1.2860 H     1 <1>   0.1500 
 35 H       -4.3170     0.1980     1.3860 H     1 <1>   0.1500 
 36 H       -6.5690     1.1080     1.4720 H     1 <1>   0.1500 
 37 H       -7.8320    -2.9970    -1.9860 H     1 <1>   0.0800 
 38 H       -8.6410    -1.4640    -2.1610 H     1 <1>   0.0800 
 39 H       -9.0030    -2.4990    -0.7960 H     1 <1>   0.0800 
 40 H       -8.8180     1.1070     0.8690 H     1 <1>   0.0800 
 41 H       -9.4880    -0.4810     0.6130 H     1 <1>   0.0800 
 42 H       -9.1290     0.5540    -0.7540 H     1 <1>   0.0800 
@<TRIPOS>BOND
  1   1   2  2   
  2   2   3  1   
  3   2   4  1   
  4   3   5  1   
  5   4   6  1   
  6   4   7  2   
  7   5   8  1   
  8   5  22  1   
  9   5  23  1   
 10   6   9  2   
 11   6  10  1   
 12   7  11  1   
 13   7  24  1   
 14   8  25  1   
 15   8  26  1   
 16   8  27  1   
 17  10  12  1   
 18  11  13  1   
 19  11  28  1   
 20  12  14  1   
 21  12  29  1   
 22  12  30  1   
 23  13  15  ar  
 24  13  16  ar  
 25  14  31  1   
 26  14  32  1   
 27  14  33  1   
 28  15  17  ar  
 29  15  34  1   
 30  16  18  ar  
 31  16  35  1   
 32  17  19  ar  
 33  17  20  1   
 34  18  19  ar  
 35  18  36  1   
 36  19  21  1   
 37  20  37  1   
 38  20  38  1   
 39  20  39  1   
 40  21  40  1   
 41  21  41  1   
 42  21  42  1   
@<TRIPOS>SUBSTRUCTURE
  1 ****   7 GROUP 4 **** **** 0

# MOE 2024.06 (io_trps.svl 2023.06)
