@<TRIPOS>MOLECULE
NONAME
47 50 1 0 0 
SMALL
USER_CHARGES


@<TRIPOS>ATOM
  1 S       -7.3390    -6.3870     0.0990 S.3   1 <1>  -0.0800 
  2 C       -6.5020    -4.8850     0.3560 C.2   1 <1>  -0.1120 
  3 C       -5.8640    -6.9920    -0.6790 C.2   1 <1>   0.1980 
  4 N       -6.7970    -3.6780     0.8980 N.pl3 1 <1>   0.0480 
  5 C       -5.2610    -4.9560    -0.1480 C.2   1 <1>   0.2270 
  6 N       -4.9000    -6.1590    -0.7370 N.2   1 <1>  -0.5650 
  7 C       -5.8940    -8.4120    -1.1920 C.3   1 <1>  -0.0600 
  8 C       -5.6580    -2.9080     0.7130 C.ar  1 <1>  -0.1520 
  9 C       -8.1430    -3.2170     1.2530 C.3   1 <1>   0.0960 
 10 C       -4.6820    -3.6820     0.0670 C.ar  1 <1>   0.0000 
 11 C       -5.3860    -1.5800     1.0540 C.ar  1 <1>  -0.1500 
 12 C       -8.8590    -2.8350    -0.0460 C.3   1 <1>   0.3430 
 13 C       -3.4390    -3.1260    -0.2390 C.ar  1 <1>  -0.1500 
 14 C       -4.1560    -1.0440     0.7460 C.ar  1 <1>  -0.1500 
 15 N      -10.2800    -2.4030     0.1690 N.4   1 <1>  -0.9590 
 16 C       -3.1750    -1.8170     0.0960 C.ar  1 <1>   0.0830 
 17 C      -11.1610    -3.5320     0.6070 C.3   1 <1>   0.3430 
 18 C      -10.8090    -1.7680    -1.0770 C.3   1 <1>   0.3430 
 19 O       -1.9430    -1.3370    -0.2310 O.3   1 <1>  -0.3620 
 20 C      -12.5640    -3.0040     0.9090 C.3   1 <1>  -0.1600 
 21 C      -12.2040    -1.1980    -0.8140 C.3   1 <1>  -0.1600 
 22 C       -1.5300    -0.0510     0.1750 C.3   1 <1>   0.0400 
 23 C      -13.1690    -2.2740    -0.2970 C.3   1 <1>  -0.1600 
 24 H       -6.6680    -8.5210    -1.9280 H     1 <1>   0.0800 
 25 H       -6.0760    -9.0900    -0.3780 H     1 <1>   0.0800 
 26 H       -4.9470    -8.6540    -1.6410 H     1 <1>   0.0800 
 27 H       -8.0600    -2.3720     1.9110 H     1 <1>   0.0800 
 28 H       -8.6490    -4.0200     1.7560 H     1 <1>   0.0800 
 29 H       -6.1220    -0.9810     1.5590 H     1 <1>   0.1500 
 30 H       -8.8410    -3.6800    -0.7170 H     1 <1>   0.0800 
 31 H       -8.3080    -2.0320    -0.5080 H     1 <1>   0.0800 
 32 H       -2.6990    -3.7270    -0.7340 H     1 <1>   0.1500 
 33 H       -3.9540    -0.0240     1.0110 H     1 <1>   0.1500 
 34 H      -10.3140    -1.6800     0.9000 H     1 <1>   0.4500 
 35 H      -10.7610    -3.9990     1.4920 H     1 <1>   0.0800 
 36 H      -11.2170    -4.2750    -0.1730 H     1 <1>   0.0800 
 37 H      -10.8640    -2.5010    -1.8660 H     1 <1>   0.0800 
 38 H      -10.1540    -0.9740    -1.3980 H     1 <1>   0.0800 
 39 H      -12.5250    -2.3420     1.7570 H     1 <1>   0.0800 
 40 H      -13.2000    -3.8300     1.1770 H     1 <1>   0.0800 
 41 H      -12.5930    -0.7840    -1.7290 H     1 <1>   0.0800 
 42 H      -12.1360    -0.3930    -0.1030 H     1 <1>   0.0800 
 43 H       -0.5150     0.0900    -0.1510 H     1 <1>   0.0800 
 44 H       -1.5810     0.0090     1.2480 H     1 <1>   0.0800 
 45 H       -2.1660     0.6820    -0.2860 H     1 <1>   0.0800 
 46 H      -14.1070    -1.8220    -0.0200 H     1 <1>   0.0800 
 47 H      -13.3690    -2.9840    -1.0830 H     1 <1>   0.0800 
@<TRIPOS>BOND
  1   1   2  1   
  2   1   3  1   
  3   2   4  1   
  4   2   5  2   
  5   3   6  2   
  6   3   7  1   
  7   4   8  1   
  8   4   9  1   
  9   5   6  1   
 10   5  10  1   
 11   7  24  1   
 12   7  25  1   
 13   7  26  1   
 14   8  10  ar  
 15   8  11  ar  
 16   9  12  1   
 17   9  27  1   
 18   9  28  1   
 19  10  13  ar  
 20  11  14  ar  
 21  11  29  1   
 22  12  15  1   
 23  12  30  1   
 24  12  31  1   
 25  13  16  ar  
 26  13  32  1   
 27  14  16  ar  
 28  14  33  1   
 29  15  17  1   
 30  15  18  1   
 31  15  34  1   
 32  16  19  1   
 33  17  20  1   
 34  17  35  1   
 35  17  36  1   
 36  18  21  1   
 37  18  37  1   
 38  18  38  1   
 39  19  22  1   
 40  20  23  1   
 41  20  39  1   
 42  20  40  1   
 43  21  23  1   
 44  21  41  1   
 45  21  42  1   
 46  22  43  1   
 47  22  44  1   
 48  22  45  1   
 49  23  46  1   
 50  23  47  1   
@<TRIPOS>SUBSTRUCTURE
  1 ****   4 GROUP 4 **** **** 0

# MOE 2024.06 (io_trps.svl 2023.06)
