@<TRIPOS>MOLECULE
NONAME
52 54 1 0 0 
SMALL
USER_CHARGES


@<TRIPOS>ATOM
  1 N        0.2060    -0.4820    -0.9420 N.3   1 <1>  -0.8100 
  2 C       -0.0070    -1.9460    -0.8060 C.3   1 <1>   0.1100 
  3 C        1.1020    -0.1880    -2.0830 C.3   1 <1>   0.1100 
  4 C       -1.0690     0.2600    -1.0380 C.3   1 <1>   0.2540 
  5 C        1.3230    -2.7360    -0.7490 C.3   1 <1>   0.3430 
  6 C        2.4640    -0.9160    -1.9570 C.3   1 <1>   0.3430 
  7 C       -1.9170     0.0280     0.2040 C.ar  1 <1>  -0.1440 
  8 N        2.5000    -1.8060    -0.7450 N.4   1 <1>  -0.9590 
  9 C       -1.4650     0.4530     1.4440 C.ar  1 <1>  -0.1500 
 10 C       -3.1450    -0.6100     0.1110 C.ar  1 <1>  -0.1500 
 11 C        3.7900    -2.5040    -0.5100 C.3   1 <1>   0.3430 
 12 C       -2.2280     0.2390     2.5790 C.ar  1 <1>  -0.1500 
 13 C       -3.9090    -0.8250     1.2460 C.ar  1 <1>  -0.1500 
 14 C        4.8910    -1.4960    -0.1830 C.3   1 <1>  -0.1600 
 15 C       -3.4500    -0.4010     2.4800 C.ar  1 <1>  -0.1500 
 16 C        6.1920    -2.1860     0.2600 C.3   1 <1>   0.0630 
 17 C        7.1930    -1.1290     0.7140 C.ar  1 <1>  -0.1440 
 18 C        6.7930    -3.0710    -0.8420 C.3   1 <1>  -0.2400 
 19 C        7.7680    -0.2400    -0.1860 C.ar  1 <1>  -0.1500 
 20 C        7.5400    -1.0390     2.0550 C.ar  1 <1>  -0.1500 
 21 C        8.6670     0.7190     0.2460 C.ar  1 <1>  -0.1500 
 22 C        8.4380    -0.0810     2.4900 C.ar  1 <1>  -0.1500 
 23 C        9.0030     0.8000     1.5850 C.ar  1 <1>  -0.1500 
 24 H       -0.6020    -2.3110    -1.6260 H     1 <1>   0.0800 
 25 H       -0.5540    -2.1480     0.1000 H     1 <1>   0.0800 
 26 H        1.2820     0.8730    -2.1320 H     1 <1>   0.0800 
 27 H        0.6280    -0.4790    -3.0050 H     1 <1>   0.0800 
 28 H       -1.6090    -0.0460    -1.9180 H     1 <1>   0.0800 
 29 H       -0.8650     1.3140    -1.1200 H     1 <1>   0.0800 
 30 H        1.3790    -3.3970    -1.5980 H     1 <1>   0.0800 
 31 H        1.3270    -3.3420     0.1420 H     1 <1>   0.0800 
 32 H        3.2430    -0.1750    -1.8890 H     1 <1>   0.0800 
 33 H        2.6400    -1.4960    -2.8480 H     1 <1>   0.0800 
 34 H        2.2930    -1.1640     0.0370 H     1 <1>   0.4500 
 35 H       -0.5140     0.9500     1.5270 H     1 <1>   0.1500 
 36 H       -3.5170    -0.9430    -0.8410 H     1 <1>   0.1500 
 37 H        4.0640    -3.0790    -1.3800 H     1 <1>   0.0800 
 38 H        3.6830    -3.1820     0.3220 H     1 <1>   0.0800 
 39 H       -1.8720     0.5730     3.5390 H     1 <1>   0.1500 
 40 H       -4.8610    -1.3200     1.1690 H     1 <1>   0.1500 
 41 H        4.5640    -0.8600     0.6210 H     1 <1>   0.0800 
 42 H        5.1000    -0.8820    -1.0390 H     1 <1>   0.0800 
 43 H       -4.0440    -0.5660     3.3620 H     1 <1>   0.1500 
 44 H        5.9720    -2.8210     1.1020 H     1 <1>   0.0800 
 45 H        6.9470    -2.5150    -1.7490 H     1 <1>   0.0800 
 46 H        6.1630    -3.9150    -1.0530 H     1 <1>   0.0800 
 47 H        7.7480    -3.4470    -0.5160 H     1 <1>   0.0800 
 48 H        7.5250    -0.2840    -1.2320 H     1 <1>   0.1500 
 49 H        7.1150    -1.7150     2.7770 H     1 <1>   0.1500 
 50 H        9.1080     1.4020    -0.4580 H     1 <1>   0.1500 
 51 H        8.7010    -0.0210     3.5320 H     1 <1>   0.1500 
 52 H        9.7020     1.5450     1.9220 H     1 <1>   0.1500 
@<TRIPOS>BOND
  1   1   2  1   
  2   1   3  1   
  3   1   4  1   
  4   2   5  1   
  5   2  24  1   
  6   2  25  1   
  7   3   6  1   
  8   3  26  1   
  9   3  27  1   
 10   4   7  1   
 11   4  28  1   
 12   4  29  1   
 13   5   8  1   
 14   5  30  1   
 15   5  31  1   
 16   6   8  1   
 17   6  32  1   
 18   6  33  1   
 19   7   9  ar  
 20   7  10  ar  
 21   8  11  1   
 22   8  34  1   
 23   9  12  ar  
 24   9  35  1   
 25  10  13  ar  
 26  10  36  1   
 27  11  14  1   
 28  11  37  1   
 29  11  38  1   
 30  12  15  ar  
 31  12  39  1   
 32  13  15  ar  
 33  13  40  1   
 34  14  16  1   
 35  14  41  1   
 36  14  42  1   
 37  15  43  1   
 38  16  17  1   
 39  16  18  1   
 40  16  44  1   
 41  17  19  ar  
 42  17  20  ar  
 43  18  45  1   
 44  18  46  1   
 45  18  47  1   
 46  19  21  ar  
 47  19  48  1   
 48  20  22  ar  
 49  20  49  1   
 50  21  23  ar  
 51  21  50  1   
 52  22  23  ar  
 53  22  51  1   
 54  23  52  1   
@<TRIPOS>SUBSTRUCTURE
  1 ****   8 GROUP 4 **** **** 0

# MOE 2024.06 (io_trps.svl 2023.06)
