@<TRIPOS>MOLECULE
NONAME
43 45 1 0 0 
SMALL
USER_CHARGES


@<TRIPOS>ATOM
  1 CL       0.0340     1.0010     1.5570 Cl    1 <1>  -0.1770 
  2 C       -1.0110     2.0740     0.6630 C.ar  1 <1>   0.1770 
  3 C       -0.4830     2.8240    -0.3690 C.ar  1 <1>  -0.1500 
  4 C       -2.3480     2.1520     1.0040 C.ar  1 <1>  -0.1500 
  5 C       -1.3350     3.6630    -1.0610 C.ar  1 <1>   0.1770 
  6 C       -3.2010     3.0010     0.3060 C.ar  1 <1>   0.1170 
  7 CL      -0.6990     4.6190    -2.3750 Cl    1 <1>  -0.1770 
  8 C       -2.6750     3.7580    -0.7380 C.ar  1 <1>  -0.1500 
  9 N       -4.5550     3.0510     0.6630 N.am  1 <1>  -0.5470 
 10 C       -5.4680     4.0580     0.5340 C.2   1 <1>   0.6900 
 11 O       -5.1220     5.1750     0.2010 O.2   1 <1>  -0.5700 
 12 N       -6.7830     3.7990     0.8160 N.am  1 <1>  -0.6600 
 13 C       -7.7510     4.9370     0.9150 C.3   1 <1>   0.1400 
 14 C       -7.3770     2.4240     0.8040 C.3   1 <1>   0.1400 
 15 C       -9.0370     4.5470     1.6580 C.3   1 <1>   0.1400 
 16 C       -8.8240     2.4180     0.2840 C.3   1 <1>   0.1400 
 17 N       -9.7090     3.3550     1.0460 N.am  1 <1>  -0.6600 
 18 C      -11.0770     3.2120     1.1260 C.2   1 <1>   0.5690 
 19 O      -11.7330     4.0080     1.7630 O.2   1 <1>  -0.5700 
 20 C      -11.8080     2.0250     0.4380 C.3   1 <1>   0.2610 
 21 O      -11.4530     1.9100    -0.9160 O.3   1 <1>  -0.5600 
 22 C      -13.3330     2.1340     0.3740 C.3   1 <1>  -0.1600 
 23 C      -12.2630     2.7360    -1.6920 C.3   1 <1>   0.1200 
 24 C      -13.5740     2.8890    -0.9240 C.3   1 <1>  -0.1600 
 25 H        0.5570     2.7580    -0.6270 H     1 <1>   0.1500 
 26 H       -2.7160     1.5540     1.8160 H     1 <1>   0.1500 
 27 H       -3.3040     4.4210    -1.3030 H     1 <1>   0.1500 
 28 H       -4.8980     2.2840     1.2300 H     1 <1>   0.3700 
 29 H       -8.0020     5.2720    -0.0770 H     1 <1>   0.0800 
 30 H       -7.2830     5.7600     1.4290 H     1 <1>   0.0800 
 31 H       -7.3670     2.0290     1.8050 H     1 <1>   0.0800 
 32 H       -6.7890     1.7770     0.1770 H     1 <1>   0.0800 
 33 H       -9.7090     5.3880     1.6480 H     1 <1>   0.0800 
 34 H       -8.8010     4.3280     2.6850 H     1 <1>   0.0800 
 35 H       -9.2090     1.4150     0.3510 H     1 <1>   0.0800 
 36 H       -8.8270     2.7030    -0.7540 H     1 <1>   0.0800 
 37 H      -11.5220     1.1180     0.9360 H     1 <1>   0.0800 
 38 H      -13.7590     2.6270     1.2300 H     1 <1>   0.0800 
 39 H      -13.7460     1.1440     0.3050 H     1 <1>   0.0800 
 40 H      -12.4040     2.2740    -2.6530 H     1 <1>   0.0800 
 41 H      -11.7650     3.6850    -1.8060 H     1 <1>   0.0800 
 42 H      -13.7590     3.9320    -0.7320 H     1 <1>   0.0800 
 43 H      -14.4020     2.4800    -1.4750 H     1 <1>   0.0800 
@<TRIPOS>BOND
  1   1   2  1   
  2   2   3  ar  
  3   2   4  ar  
  4   3   5  ar  
  5   3  25  1   
  6   4   6  ar  
  7   4  26  1   
  8   5   7  1   
  9   5   8  ar  
 10   6   8  ar  
 11   6   9  1   
 12   8  27  1   
 13   9  10  am  
 14   9  28  1   
 15  10  11  2   
 16  10  12  am  
 17  12  13  1   
 18  12  14  1   
 19  13  15  1   
 20  13  29  1   
 21  13  30  1   
 22  14  16  1   
 23  14  31  1   
 24  14  32  1   
 25  15  17  1   
 26  15  33  1   
 27  15  34  1   
 28  16  17  1   
 29  16  35  1   
 30  16  36  1   
 31  17  18  am  
 32  18  19  2   
 33  18  20  1   
 34  20  21  1   
 35  20  22  1   
 36  20  37  1   
 37  21  23  1   
 38  22  24  1   
 39  22  38  1   
 40  22  39  1   
 41  23  24  1   
 42  23  40  1   
 43  23  41  1   
 44  24  42  1   
 45  24  43  1   
@<TRIPOS>SUBSTRUCTURE
  1 ****  12 GROUP 4 **** **** 0

# MOE 2024.06 (io_trps.svl 2023.06)
