@<TRIPOS>MOLECULE
NONAME
48 48 1 0 0 
SMALL
USER_CHARGES


@<TRIPOS>ATOM
  1 N       -0.2600     0.0220    -0.2840 N.4   1 <1>  -0.9590 
  2 C       -1.4570     0.8300     0.0740 C.3   1 <1>   0.3430 
  3 C       -0.2530    -1.3150     0.3680 C.3   1 <1>   0.3430 
  4 C        0.9920     0.7720     0.0700 C.3   1 <1>   0.2630 
  5 C       -2.7370     0.0790    -0.3110 C.3   1 <1>  -0.1600 
  6 C       -1.5150    -2.0930    -0.0140 C.3   1 <1>  -0.1600 
  7 C       -2.8040    -1.3210     0.3260 C.3   1 <1>   0.4230 
  8 N       -4.0270    -2.0810    -0.1510 N.4   1 <1>  -0.9590 
  9 C       -5.3370    -1.3430     0.1080 C.3   1 <1>   0.3430 
 10 C       -4.0830    -3.4640     0.4580 C.3   1 <1>   0.2630 
 11 C       -6.6190    -2.0230    -0.4690 C.3   1 <1>   0.3430 
 12 N       -7.9220    -1.3230    -0.1570 N.4   1 <1>  -0.9590 
 13 C       -9.0680    -2.1940    -0.5610 C.3   1 <1>   0.3430 
 14 C       -8.0650     0.0200    -0.8010 C.3   1 <1>   0.3430 
 15 C      -10.3100    -1.7940     0.2280 C.3   1 <1>  -0.2400 
 16 C       -7.7260     1.1000     0.2190 C.3   1 <1>  -0.2400 
 17 H       -0.2380    -0.1080    -1.3090 H     1 <1>   0.4500 
 18 H       -1.4250     1.7780    -0.4410 H     1 <1>   0.0800 
 19 H       -1.4550     1.0290     1.1350 H     1 <1>   0.0800 
 20 H       -0.2060    -1.1970     1.4400 H     1 <1>   0.0800 
 21 H        0.6200    -1.8690     0.0580 H     1 <1>   0.0800 
 22 H        1.0430     0.9470     1.1330 H     1 <1>   0.0800 
 23 H        1.0160     1.7250    -0.4350 H     1 <1>   0.0800 
 24 H        1.8640     0.2110    -0.2270 H     1 <1>   0.0800 
 25 H       -2.7840     0.0090    -1.3840 H     1 <1>   0.0800 
 26 H       -3.5570     0.6850     0.0260 H     1 <1>   0.0800 
 27 H       -1.4740    -3.0180     0.5310 H     1 <1>   0.0800 
 28 H       -1.4740    -2.3190    -1.0650 H     1 <1>   0.0800 
 29 H       -2.8580    -1.2060     1.3980 H     1 <1>   0.0800 
 30 H       -3.9110    -2.2040    -1.1710 H     1 <1>   0.4500 
 31 H       -5.2750    -0.3610    -0.3270 H     1 <1>   0.0800 
 32 H       -5.4640    -1.2280     1.1720 H     1 <1>   0.0800 
 33 H       -4.1240    -3.4050     1.5340 H     1 <1>   0.0800 
 34 H       -3.2140    -4.0400     0.1810 H     1 <1>   0.0800 
 35 H       -4.9490    -4.0040     0.1110 H     1 <1>   0.0800 
 36 H       -6.6750    -3.0230    -0.0710 H     1 <1>   0.0800 
 37 H       -6.5190    -2.1010    -1.5400 H     1 <1>   0.0800 
 38 H       -8.0390    -1.1890     0.8600 H     1 <1>   0.4500 
 39 H       -8.8450    -3.2270    -0.3410 H     1 <1>   0.0800 
 40 H       -9.2560    -2.1080    -1.6200 H     1 <1>   0.0800 
 41 H       -9.0840     0.1690    -1.1260 H     1 <1>   0.0800 
 42 H       -7.4300     0.1010    -1.6690 H     1 <1>   0.0800 
 43 H      -10.1460    -1.8940     1.2860 H     1 <1>   0.0800 
 44 H      -11.1200    -2.4490    -0.0400 H     1 <1>   0.0800 
 45 H      -10.6210    -0.7890     0.0030 H     1 <1>   0.0800 
 46 H       -8.3910     1.0470     1.0630 H     1 <1>   0.0800 
 47 H       -7.8660     2.0650    -0.2380 H     1 <1>   0.0800 
 48 H       -6.7090     1.0440     0.5550 H     1 <1>   0.0800 
@<TRIPOS>BOND
  1   1   2  1   
  2   1   3  1   
  3   1   4  1   
  4   1  17  1   
  5   2   5  1   
  6   2  18  1   
  7   2  19  1   
  8   3   6  1   
  9   3  20  1   
 10   3  21  1   
 11   4  22  1   
 12   4  23  1   
 13   4  24  1   
 14   5   7  1   
 15   5  25  1   
 16   5  26  1   
 17   6   7  1   
 18   6  27  1   
 19   6  28  1   
 20   7   8  1   
 21   7  29  1   
 22   8   9  1   
 23   8  10  1   
 24   8  30  1   
 25   9  11  1   
 26   9  31  1   
 27   9  32  1   
 28  10  33  1   
 29  10  34  1   
 30  10  35  1   
 31  11  12  1   
 32  11  36  1   
 33  11  37  1   
 34  12  13  1   
 35  12  14  1   
 36  12  38  1   
 37  13  15  1   
 38  13  39  1   
 39  13  40  1   
 40  14  16  1   
 41  14  41  1   
 42  14  42  1   
 43  15  43  1   
 44  15  44  1   
 45  15  45  1   
 46  16  46  1   
 47  16  47  1   
 48  16  48  1   
@<TRIPOS>SUBSTRUCTURE
  1 ****   9 GROUP 4 **** **** 0

# MOE 2024.06 (io_trps.svl 2023.06)
