@<TRIPOS>MOLECULE
NONAME
45 46 1 0 0 
SMALL
USER_CHARGES


@<TRIPOS>ATOM
  1 CL       0.6260     0.8010    -0.6950 Cl    1 <1>  -0.1770 
  2 C        1.9940    -0.1940    -0.2650 C.ar  1 <1>   0.1770 
  3 C        3.2720     0.2950    -0.4480 C.ar  1 <1>  -0.1500 
  4 C        1.7730    -1.4570     0.2530 C.ar  1 <1>  -0.1500 
  5 C        4.3600    -0.4930    -0.1070 C.ar  1 <1>   0.0830 
  6 C        2.8580    -2.2470     0.5950 C.ar  1 <1>  -0.1500 
  7 O        5.5880     0.0440    -0.3110 O.3   1 <1>  -0.3630 
  8 C        4.1470    -1.7690     0.4160 C.ar  1 <1>  -0.1500 
  9 C        6.7630    -0.6710     0.0020 C.3   1 <1>   0.1200 
 10 C        7.9590     0.2090    -0.3440 C.3   1 <1>   0.1200 
 11 O        9.1320    -0.4850    -0.0370 O.3   1 <1>  -0.5600 
 12 C       10.2990     0.2150    -0.3100 C.3   1 <1>   0.1200 
 13 C       11.4760    -0.6940     0.0650 C.3   1 <1>   0.3430 
 14 N       12.8110    -0.0790    -0.2350 N.4   1 <1>  -0.9590 
 15 C       13.8830    -1.1110    -0.1160 C.3   1 <1>   0.3430 
 16 C       13.1020     1.1010     0.6350 C.3   1 <1>   0.3430 
 17 C       15.2220    -0.5180    -0.5570 C.3   1 <1>  -0.1600 
 18 C       14.4230     1.7420     0.2100 C.3   1 <1>  -0.1600 
 19 C       15.5810     0.7350     0.2550 C.3   1 <1>  -0.0800 
 20 C       16.8710     1.3700    -0.2730 C.3   1 <1>  -0.2400 
 21 H        3.4220     1.2780    -0.8510 H     1 <1>   0.1500 
 22 H        0.7670    -1.8120     0.3850 H     1 <1>   0.1500 
 23 H        2.6990    -3.2320     0.9990 H     1 <1>   0.1500 
 24 H        4.9680    -2.4030     0.6900 H     1 <1>   0.1500 
 25 H        6.7770    -1.5720    -0.5850 H     1 <1>   0.0800 
 26 H        6.7530    -0.8960     1.0540 H     1 <1>   0.0800 
 27 H        7.9280     1.1150     0.2380 H     1 <1>   0.0800 
 28 H        7.9540     0.4370    -1.3960 H     1 <1>   0.0800 
 29 H       10.2970     1.1150     0.2800 H     1 <1>   0.0800 
 30 H       10.3170     0.4480    -1.3610 H     1 <1>   0.0800 
 31 H       11.3740    -1.6110    -0.4910 H     1 <1>   0.0800 
 32 H       11.4130    -0.9290     1.1150 H     1 <1>   0.0800 
 33 H       12.8180     0.2420    -1.2120 H     1 <1>   0.4500 
 34 H       13.6490    -1.9630    -0.7350 H     1 <1>   0.0800 
 35 H       13.9580    -1.4450     0.9070 H     1 <1>   0.0800 
 36 H       13.1690     0.7890     1.6650 H     1 <1>   0.0800 
 37 H       12.3130     1.8310     0.5520 H     1 <1>   0.0800 
 38 H       15.1790    -0.2840    -1.6070 H     1 <1>   0.0800 
 39 H       15.9900    -1.2600    -0.4250 H     1 <1>   0.0800 
 40 H       14.6400     2.5620     0.8730 H     1 <1>   0.0800 
 41 H       14.3200     2.1480    -0.7810 H     1 <1>   0.0800 
 42 H       15.7460     0.4440     1.2810 H     1 <1>   0.0800 
 43 H       16.7600     1.6780    -1.2980 H     1 <1>   0.0800 
 44 H       17.6860     0.6690    -0.2160 H     1 <1>   0.0800 
 45 H       17.1330     2.2320     0.3150 H     1 <1>   0.0800 
@<TRIPOS>BOND
  1   1   2  1   
  2   2   3  ar  
  3   2   4  ar  
  4   3   5  ar  
  5   3  21  1   
  6   4   6  ar  
  7   4  22  1   
  8   5   7  1   
  9   5   8  ar  
 10   6   8  ar  
 11   6  23  1   
 12   7   9  1   
 13   8  24  1   
 14   9  10  1   
 15   9  25  1   
 16   9  26  1   
 17  10  11  1   
 18  10  27  1   
 19  10  28  1   
 20  11  12  1   
 21  12  13  1   
 22  12  29  1   
 23  12  30  1   
 24  13  14  1   
 25  13  31  1   
 26  13  32  1   
 27  14  15  1   
 28  14  16  1   
 29  14  33  1   
 30  15  17  1   
 31  15  34  1   
 32  15  35  1   
 33  16  18  1   
 34  16  36  1   
 35  16  37  1   
 36  17  19  1   
 37  17  38  1   
 38  17  39  1   
 39  18  19  1   
 40  18  40  1   
 41  18  41  1   
 42  19  20  1   
 43  19  42  1   
 44  20  43  1   
 45  20  44  1   
 46  20  45  1   
@<TRIPOS>SUBSTRUCTURE
  1 ****  11 GROUP 4 **** **** 0

# MOE 2024.06 (io_trps.svl 2023.06)
