@<TRIPOS>MOLECULE
NONAME
42 44 1 0 0 
SMALL
USER_CHARGES


@<TRIPOS>ATOM
  1 S       -0.2460     0.2620    -0.0960 S.o2  1 <1>   1.4470 
  2 O       -1.0330     0.2590     1.1180 O.2   1 <1>  -0.6500 
  3 O        0.1610    -1.0000    -0.6740 O.2   1 <1>  -0.6500 
  4 N       -1.1980     1.0350    -1.2670 N.am  1 <1>  -0.8490 
  5 C        1.1900     1.3580     0.0700 C.ar  1 <1>  -0.0090 
  6 C       -1.5280     2.4340    -0.9010 C.3   1 <1>   0.1960 
  7 C       -2.4000     0.2380    -1.6060 C.3   1 <1>   0.1960 
  8 C        1.3670     2.1510     1.1990 C.ar  1 <1>  -0.1500 
  9 C        2.1350     1.4540    -0.9430 C.ar  1 <1>  -0.1500 
 10 C       -2.8210     2.9300    -1.5790 C.3   1 <1>   0.1960 
 11 C       -3.6630     0.7250    -0.8640 C.3   1 <1>   0.1960 
 12 C        2.4480     3.0080     1.3110 C.ar  1 <1>  -0.1500 
 13 C        3.2190     2.3090    -0.8370 C.ar  1 <1>  -0.1500 
 14 N       -4.0070     2.1290    -1.1950 N.am  1 <1>  -0.8490 
 15 C        3.3810     3.0910     0.2930 C.ar  1 <1>  -0.1440 
 16 S       -4.9080     2.8880     0.0250 S.o2  1 <1>   1.5000 
 17 C        4.5670     4.0300     0.4140 C.3   1 <1>  -0.0960 
 18 O       -4.0970     2.8240     1.2210 O.2   1 <1>  -0.6500 
 19 O       -5.2900     4.1860    -0.4840 O.2   1 <1>  -0.6500 
 20 C       -6.3720     1.8420     0.2210 C.2   1 <1>  -0.0220 
 21 S       -7.3410     1.4880    -1.2090 S.3   1 <1>  -0.0800 
 22 C       -6.9220     1.2330     1.2930 C.2   1 <1>  -0.1500 
 23 C       -8.4670     0.5140    -0.2830 C.2   1 <1>  -0.1100 
 24 C       -8.1070     0.4810     1.0110 C.2   1 <1>  -0.1500 
 25 H       -0.7090     3.0720    -1.1860 H     1 <1>   0.0800 
 26 H       -1.6580     2.5250     0.1660 H     1 <1>   0.0800 
 27 H       -2.2370    -0.8050    -1.3910 H     1 <1>   0.0800 
 28 H       -2.5800     0.3150    -2.6640 H     1 <1>   0.0800 
 29 H        0.6500     2.0970     2.0020 H     1 <1>   0.1500 
 30 H        2.0200     0.8490    -1.8280 H     1 <1>   0.1500 
 31 H       -2.6890     2.8640    -2.6460 H     1 <1>   0.0800 
 32 H       -2.9710     3.9710    -1.3470 H     1 <1>   0.0800 
 33 H       -3.4870     0.6160     0.1940 H     1 <1>   0.0800 
 34 H       -4.4930     0.0910    -1.1230 H     1 <1>   0.0800 
 35 H        2.5580     3.6100     2.1970 H     1 <1>   0.1500 
 36 H        3.9350     2.3600    -1.6390 H     1 <1>   0.1500 
 37 H        4.3040     5.0010     0.0330 H     1 <1>   0.0800 
 38 H        5.4060     3.6540    -0.1440 H     1 <1>   0.0800 
 39 H        4.8640     4.1300     1.4430 H     1 <1>   0.0800 
 40 H       -6.5300     1.2860     2.2950 H     1 <1>   0.1500 
 41 H       -9.2900     0.0670    -0.8140 H     1 <1>   0.1500 
 42 H       -8.6290    -0.0440     1.7930 H     1 <1>   0.1500 
@<TRIPOS>BOND
  1   1   2  2   
  2   1   3  2   
  3   1   4  am  
  4   1   5  1   
  5   4   6  1   
  6   4   7  1   
  7   5   8  ar  
  8   5   9  ar  
  9   6  10  1   
 10   6  25  1   
 11   6  26  1   
 12   7  11  1   
 13   7  27  1   
 14   7  28  1   
 15   8  12  ar  
 16   8  29  1   
 17   9  13  ar  
 18   9  30  1   
 19  10  14  1   
 20  10  31  1   
 21  10  32  1   
 22  11  14  1   
 23  11  33  1   
 24  11  34  1   
 25  12  15  ar  
 26  12  35  1   
 27  13  15  ar  
 28  13  36  1   
 29  14  16  am  
 30  15  17  1   
 31  16  18  2   
 32  16  19  2   
 33  16  20  1   
 34  17  37  1   
 35  17  38  1   
 36  17  39  1   
 37  20  21  1   
 38  20  22  2   
 39  21  23  1   
 40  22  24  1   
 41  22  40  1   
 42  23  24  2   
 43  23  41  1   
 44  24  42  1   
@<TRIPOS>SUBSTRUCTURE
  1 ****   6 GROUP 4 **** **** 0

# MOE 2024.06 (io_trps.svl 2023.06)
