@<TRIPOS>MOLECULE
NONAME
62 64 1 0 0 
SMALL
USER_CHARGES


@<TRIPOS>ATOM
  1 O        0.3410    -0.5330     0.9140 O.2   1 <1>  -0.5700 
  2 C        1.4030    -1.0070     0.6010 C.2   1 <1>   0.5690 
  3 N        2.5350    -0.3800     0.9980 N.am  1 <1>  -0.7300 
  4 C        1.3820    -2.2980    -0.2220 C.3   1 <1>  -0.0190 
  5 C        3.9800    -0.6720     0.8700 C.3   1 <1>   0.2200 
  6 C        0.5240    -2.1280    -1.4910 C.3   1 <1>  -0.1600 
  7 C        0.8490    -3.4660     0.6280 C.3   1 <1>  -0.1600 
  8 C        4.4230    -0.4610    -0.5850 C.3   1 <1>  -0.1600 
  9 C        4.3150    -2.0310     1.5090 C.3   1 <1>  -0.1600 
 10 C        0.3720    -3.4360    -2.2630 C.3   1 <1>   0.3430 
 11 C        0.6880    -4.7460    -0.1870 C.3   1 <1>   0.3430 
 12 C        5.9130    -0.7280    -0.8510 C.3   1 <1>  -0.1600 
 13 C        5.8160    -2.1860     1.7970 C.3   1 <1>  -0.1600 
 14 N       -0.1900    -4.4770    -1.3620 N.4   1 <1>  -0.9590 
 15 C        6.2670    -2.2200    -0.7820 C.3   1 <1>  -0.1600 
 16 C        6.6410    -2.7290     0.6200 C.3   1 <1>  -0.1600 
 17 C       -0.5260    -5.7240    -2.1010 C.3   1 <1>   0.4860 
 18 C       -1.3020    -6.6390    -1.1750 C.ar  1 <1>  -0.1440 
 19 C       -2.5940    -6.3060    -0.7920 C.ar  1 <1>  -0.1500 
 20 C       -0.7270    -7.8060    -0.6920 C.ar  1 <1>  -0.1500 
 21 C       -3.3050    -7.1130     0.0800 C.ar  1 <1>   0.0820 
 22 C       -1.4380    -8.6300     0.1630 C.ar  1 <1>  -0.1500 
 23 O       -4.5420    -6.6750     0.4310 O.3   1 <1>  -0.3630 
 24 C       -2.7280    -8.3010     0.5430 C.ar  1 <1>   0.0820 
 25 C       -4.8790    -6.6380     1.8020 C.3   1 <1>   0.0400 
 26 O       -3.3800    -9.1690     1.3500 O.3   1 <1>  -0.3630 
 27 C       -4.3810    -9.9460     0.7290 C.3   1 <1>   0.0400 
 28 H        2.3480     0.4750     1.5270 H     1 <1>   0.3700 
 29 H        2.3760    -2.5400    -0.5370 H     1 <1>   0.0800 
 30 H        4.4890     0.0760     1.4570 H     1 <1>   0.0800 
 31 H        0.9790    -1.3900    -2.1300 H     1 <1>   0.0800 
 32 H       -0.4540    -1.7610    -1.2310 H     1 <1>   0.0800 
 33 H       -0.1020    -3.2020     1.0600 H     1 <1>   0.0800 
 34 H        1.5260    -3.6510     1.4450 H     1 <1>   0.0800 
 35 H        4.2250     0.5670    -0.8380 H     1 <1>   0.0800 
 36 H        3.8430    -1.0670    -1.2520 H     1 <1>   0.0800 
 37 H        3.9850    -2.8530     0.9050 H     1 <1>   0.0800 
 38 H        3.8010    -2.0830     2.4530 H     1 <1>   0.0800 
 39 H        1.3350    -3.7520    -2.6340 H     1 <1>   0.0800 
 40 H       -0.2830    -3.2780    -3.1050 H     1 <1>   0.0800 
 41 H        0.2510    -5.5100     0.4380 H     1 <1>   0.0800 
 42 H        1.6540    -5.0910    -0.5190 H     1 <1>   0.0800 
 43 H        6.5320    -0.1590    -0.1780 H     1 <1>   0.0800 
 44 H        6.1320    -0.3830    -1.8480 H     1 <1>   0.0800 
 45 H        5.9420    -2.8630     2.6240 H     1 <1>   0.0800 
 46 H        6.2230    -1.2400     2.1120 H     1 <1>   0.0800 
 47 H       -1.0770    -4.1210    -0.9800 H     1 <1>   0.4500 
 48 H        7.1100    -2.4020    -1.4270 H     1 <1>   0.0800 
 49 H        5.4510    -2.8030    -1.1720 H     1 <1>   0.0800 
 50 H        6.5690    -3.8040     0.6120 H     1 <1>   0.0800 
 51 H        7.6750    -2.4920     0.8060 H     1 <1>   0.0800 
 52 H        0.3730    -6.2140    -2.4380 H     1 <1>   0.0800 
 53 H       -1.1340    -5.4950    -2.9610 H     1 <1>   0.0800 
 54 H       -3.0770    -5.4160    -1.1540 H     1 <1>   0.1500 
 55 H        0.2730    -8.0930    -0.9740 H     1 <1>   0.1500 
 56 H       -1.0020    -9.5400     0.5370 H     1 <1>   0.1500 
 57 H       -4.0300    -6.2920     2.3670 H     1 <1>   0.0800 
 58 H       -5.1670    -7.6210     2.1250 H     1 <1>   0.0800 
 59 H       -5.7050    -5.9620     1.9270 H     1 <1>   0.0800 
 60 H       -4.8210   -10.5850     1.4720 H     1 <1>   0.0800 
 61 H       -3.9280   -10.5390    -0.0460 H     1 <1>   0.0800 
 62 H       -5.1280    -9.2940     0.3120 H     1 <1>   0.0800 
@<TRIPOS>BOND
  1   1   2  2   
  2   2   3  am  
  3   2   4  1   
  4   3   5  1   
  5   3  28  1   
  6   4   6  1   
  7   4   7  1   
  8   4  29  1   
  9   5   8  1   
 10   5   9  1   
 11   5  30  1   
 12   6  10  1   
 13   6  31  1   
 14   6  32  1   
 15   7  11  1   
 16   7  33  1   
 17   7  34  1   
 18   8  12  1   
 19   8  35  1   
 20   8  36  1   
 21   9  13  1   
 22   9  37  1   
 23   9  38  1   
 24  10  14  1   
 25  10  39  1   
 26  10  40  1   
 27  11  14  1   
 28  11  41  1   
 29  11  42  1   
 30  12  15  1   
 31  12  43  1   
 32  12  44  1   
 33  13  16  1   
 34  13  45  1   
 35  13  46  1   
 36  14  17  1   
 37  14  47  1   
 38  15  16  1   
 39  15  48  1   
 40  15  49  1   
 41  16  50  1   
 42  16  51  1   
 43  17  18  1   
 44  17  52  1   
 45  17  53  1   
 46  18  19  ar  
 47  18  20  ar  
 48  19  21  ar  
 49  19  54  1   
 50  20  22  ar  
 51  20  55  1   
 52  21  23  1   
 53  21  24  ar  
 54  22  24  ar  
 55  22  56  1   
 56  23  25  1   
 57  24  26  1   
 58  25  57  1   
 59  25  58  1   
 60  25  59  1   
 61  26  27  1   
 62  27  60  1   
 63  27  61  1   
 64  27  62  1   
@<TRIPOS>SUBSTRUCTURE
  1 ****  11 GROUP 4 **** **** 0

# MOE 2024.06 (io_trps.svl 2023.06)
