@<TRIPOS>MOLECULE
NONAME
27 27 1 0 0 
SMALL
USER_CHARGES


@<TRIPOS>ATOM
  1 S       -0.3250    -0.2070    -1.0050 S.o2  1 <1>   1.4470 
  2 O       -0.4150    -0.2480    -2.4450 O.2   1 <1>  -0.6500 
  3 O       -1.0700    -1.1640    -0.2180 O.2   1 <1>  -0.6500 
  4 N       -0.9230     1.3050    -0.5930 N.am  1 <1>  -0.9140 
  5 C        1.4100    -0.1360    -0.4790 C.ar  1 <1>  -0.0090 
  6 C       -1.2390     1.4640     0.8110 C.3   1 <1>   0.1960 
  7 C        1.9270    -1.0540     0.4300 C.ar  1 <1>  -0.1500 
  8 C        2.2620     0.8470    -0.9730 C.ar  1 <1>  -0.1500 
  9 C       -1.7450     2.8840     1.0210 C.3   1 <1>  -0.2400 
 10 C        3.2490    -0.9930     0.8360 C.ar  1 <1>  -0.1500 
 11 C        3.5870     0.9210    -0.5760 C.ar  1 <1>  -0.1500 
 12 C        4.0730    -0.0050     0.3320 C.ar  1 <1>   0.1010 
 13 S        5.7790     0.0140     0.9070 S.3   1 <1>  -0.3310 
 14 C        6.6160     1.4180     0.0480 C.3   1 <1>  -0.0100 
 15 H       -1.7870     1.3750    -1.1250 H     1 <1>   0.4200 
 16 H       -0.3550     1.3000     1.4070 H     1 <1>   0.0800 
 17 H       -1.9960     0.7560     1.1110 H     1 <1>   0.0800 
 18 H        1.2880    -1.8280     0.8250 H     1 <1>   0.1500 
 19 H        1.8770     1.5650    -1.6790 H     1 <1>   0.1500 
 20 H       -0.9920     3.5940     0.7260 H     1 <1>   0.0800 
 21 H       -1.9670     3.0370     2.0620 H     1 <1>   0.0800 
 22 H       -2.6410     3.0540     0.4530 H     1 <1>   0.0800 
 23 H        3.6430    -1.7060     1.5390 H     1 <1>   0.1500 
 24 H        4.2150     1.6920    -0.9770 H     1 <1>   0.1500 
 25 H        7.6390     1.4370     0.3780 H     1 <1>   0.0800 
 26 H        6.1100     2.3260     0.3240 H     1 <1>   0.0800 
 27 H        6.5600     1.2410    -1.0110 H     1 <1>   0.0800 
@<TRIPOS>BOND
  1   1   2  2   
  2   1   3  2   
  3   1   4  am  
  4   1   5  1   
  5   4   6  1   
  6   4  15  1   
  7   5   7  ar  
  8   5   8  ar  
  9   6   9  1   
 10   6  16  1   
 11   6  17  1   
 12   7  10  ar  
 13   7  18  1   
 14   8  11  ar  
 15   8  19  1   
 16   9  20  1   
 17   9  21  1   
 18   9  22  1   
 19  10  12  ar  
 20  10  23  1   
 21  11  12  ar  
 22  11  24  1   
 23  12  13  1   
 24  13  14  1   
 25  14  25  1   
 26  14  26  1   
 27  14  27  1   
@<TRIPOS>SUBSTRUCTURE
  1 ****   5 GROUP 4 **** **** 0

# MOE 2024.06 (io_trps.svl 2023.06)
