@<TRIPOS>MOLECULE
NONAME
52 54 1 0 0 
SMALL
USER_CHARGES


@<TRIPOS>ATOM
  1 O        0.8840    -0.4830     1.6640 O.2   1 <1>  -0.5700 
  2 C        1.6200    -1.1430     0.9730 C.2   1 <1>   0.5690 
  3 N        1.3370    -2.3220     0.3460 N.am  1 <1>  -0.4770 
  4 C        3.0310    -0.7020     0.6970 C.3   1 <1>  -0.0990 
  5 C        0.1220    -3.0390     0.3220 C.ar  1 <1>   0.1170 
  6 C        2.5170    -2.8010    -0.4040 C.3   1 <1>   0.1400 
  7 C        3.4370    -1.5740    -0.5000 C.3   1 <1>  -0.0190 
  8 C        0.1140    -4.4300     0.2670 C.ar  1 <1>  -0.1500 
  9 C       -1.1030    -2.3810     0.3410 C.ar  1 <1>  -0.1500 
 10 C        4.9220    -1.9090    -0.5490 C.2   1 <1>   0.5690 
 11 C       -1.0750    -5.1360     0.2230 C.ar  1 <1>  -0.1500 
 12 C       -2.2940    -3.0840     0.2980 C.ar  1 <1>  -0.1500 
 13 O        5.2580    -3.0660    -0.5920 O.2   1 <1>  -0.5700 
 14 N        5.8070    -0.8630    -0.5460 N.am  1 <1>  -0.5470 
 15 C       -2.2870    -4.4670     0.2360 C.ar  1 <1>  -0.1430 
 16 C        7.2050    -0.8340    -0.6130 C.ar  1 <1>   0.1170 
 17 C       -3.5940    -5.2390     0.1910 C.3   1 <1>  -0.0970 
 18 C        7.9790    -1.8990    -1.0640 C.ar  1 <1>  -0.1500 
 19 C        7.8680     0.3240    -0.2240 C.ar  1 <1>  -0.1500 
 20 C        9.3570    -1.8070    -1.1160 C.ar  1 <1>  -0.1500 
 21 C        9.2460     0.4140    -0.2780 C.ar  1 <1>  -0.1500 
 22 C       10.0350    -0.6510    -0.7250 C.ar  1 <1>   0.0860 
 23 C       11.4810    -0.5710    -0.7860 C.2   1 <1>   0.6340 
 24 O       12.1810    -1.4830    -1.1780 O.2   1 <1>  -0.5700 
 25 O       12.0630     0.5670    -0.3890 O.3   1 <1>  -0.4300 
 26 C       13.4650     0.7510    -0.3760 C.3   1 <1>   0.1200 
 27 C       14.0320     0.1900     0.9320 C.3   1 <1>  -0.1600 
 28 C       15.5440     0.4220     1.0260 C.3   1 <1>  -0.2400 
 29 H        3.6290    -0.9160     1.5640 H     1 <1>   0.0800 
 30 H        3.0630     0.3480     0.4690 H     1 <1>   0.0800 
 31 H        2.2360    -3.1610    -1.3790 H     1 <1>   0.0800 
 32 H        2.9810    -3.5950     0.1570 H     1 <1>   0.0800 
 33 H        3.1830    -1.0570    -1.4080 H     1 <1>   0.0800 
 34 H        1.0400    -4.9730     0.2660 H     1 <1>   0.1500 
 35 H       -1.1290    -1.3070     0.3890 H     1 <1>   0.1500 
 36 H       -1.0530    -6.2110     0.1820 H     1 <1>   0.1500 
 37 H       -3.2250    -2.5470     0.3160 H     1 <1>   0.1500 
 38 H        5.3790     0.0560    -0.4490 H     1 <1>   0.3700 
 39 H       -3.4630    -6.1710    -0.3290 H     1 <1>   0.0800 
 40 H       -4.3490    -4.6680    -0.3190 H     1 <1>   0.0800 
 41 H       -3.9290    -5.4420     1.1920 H     1 <1>   0.0800 
 42 H        7.5100    -2.8120    -1.3830 H     1 <1>   0.1500 
 43 H        7.3030     1.1680     0.1290 H     1 <1>   0.1500 
 44 H        9.9270    -2.6510    -1.4680 H     1 <1>   0.1500 
 45 H        9.7240     1.3270     0.0340 H     1 <1>   0.1500 
 46 H       13.6530     1.8080    -0.4420 H     1 <1>   0.0800 
 47 H       13.8970     0.2650    -1.2350 H     1 <1>   0.0800 
 48 H       13.8380    -0.8680     0.9800 H     1 <1>   0.0800 
 49 H       13.5480     0.6690     1.7650 H     1 <1>   0.0800 
 50 H       16.0500    -0.0650     0.2100 H     1 <1>   0.0800 
 51 H       15.9200     0.0180     1.9500 H     1 <1>   0.0800 
 52 H       15.7680     1.4740     0.9970 H     1 <1>   0.0800 
@<TRIPOS>BOND
  1   1   2  2   
  2   2   3  am  
  3   2   4  1   
  4   3   5  1   
  5   3   6  1   
  6   4   7  1   
  7   4  29  1   
  8   4  30  1   
  9   5   8  ar  
 10   5   9  ar  
 11   6   7  1   
 12   6  31  1   
 13   6  32  1   
 14   7  10  1   
 15   7  33  1   
 16   8  11  ar  
 17   8  34  1   
 18   9  12  ar  
 19   9  35  1   
 20  10  13  2   
 21  10  14  am  
 22  11  15  ar  
 23  11  36  1   
 24  12  15  ar  
 25  12  37  1   
 26  14  16  1   
 27  14  38  1   
 28  15  17  1   
 29  16  18  ar  
 30  16  19  ar  
 31  17  39  1   
 32  17  40  1   
 33  17  41  1   
 34  18  20  ar  
 35  18  42  1   
 36  19  21  ar  
 37  19  43  1   
 38  20  22  ar  
 39  20  44  1   
 40  21  22  ar  
 41  21  45  1   
 42  22  23  1   
 43  23  24  2   
 44  23  25  1   
 45  25  26  1   
 46  26  27  1   
 47  26  46  1   
 48  26  47  1   
 49  27  28  1   
 50  27  48  1   
 51  27  49  1   
 52  28  50  1   
 53  28  51  1   
 54  28  52  1   
@<TRIPOS>SUBSTRUCTURE
  1 ****  10 GROUP 4 **** **** 0

# MOE 2024.06 (io_trps.svl 2023.06)
