@<TRIPOS>MOLECULE
NONAME
38 39 1 0 0 
SMALL
USER_CHARGES


@<TRIPOS>ATOM
  1 O        0.2690    -5.7500     0.8300 O.3   1 <1>  -0.3630 
  2 C       -1.0420    -5.5450     0.5440 C.ar  1 <1>   0.0830 
  3 C        1.0280    -6.6990     0.1180 C.3   1 <1>   0.1200 
  4 C       -1.7030    -4.5880     1.2950 C.ar  1 <1>  -0.1500 
  5 C       -1.7380    -6.2340    -0.4440 C.ar  1 <1>  -0.1500 
  6 C        2.4500    -6.6750     0.6690 C.3   1 <1>   0.0960 
  7 C       -3.0400    -4.3160     1.0680 C.ar  1 <1>  -0.1500 
  8 C       -3.0760    -5.9590    -0.6680 C.ar  1 <1>  -0.1500 
  9 N        3.2800    -7.6440    -0.0660 N.pl3 1 <1>   0.0480 
 10 C       -3.7410    -4.9990     0.0840 C.ar  1 <1>  -0.1430 
 11 C        4.0380    -7.4220    -1.1630 C.2   1 <1>   0.0360 
 12 C        3.4270    -8.9570     0.1890 C.2   1 <1>  -0.3020 
 13 C       -5.2180    -4.6880    -0.1540 C.3   1 <1>   0.0630 
 14 N        4.6390    -8.4760    -1.6100 N.2   1 <1>  -0.5650 
 15 C        4.2570    -9.4450    -0.7580 C.2   1 <1>   0.0770 
 16 C       -6.0790    -5.9260     0.1620 C.3   1 <1>  -0.1600 
 17 C       -5.4270    -4.1740    -1.5850 C.3   1 <1>  -0.2400 
 18 C       -7.5880    -5.6460     0.1400 C.3   1 <1>  -0.2400 
 19 H        1.0190    -6.4260    -0.9230 H     1 <1>   0.0800 
 20 H        0.5800    -7.6670     0.2630 H     1 <1>   0.0800 
 21 H       -1.1640    -4.0560     2.0590 H     1 <1>   0.1500 
 22 H       -1.2640    -6.9830    -1.0480 H     1 <1>   0.1500 
 23 H        2.4460    -6.9420     1.7100 H     1 <1>   0.0800 
 24 H        2.8730    -5.6950     0.5520 H     1 <1>   0.0800 
 25 H       -3.5320    -3.5680     1.6650 H     1 <1>   0.1500 
 26 H       -3.6010    -6.4990    -1.4350 H     1 <1>   0.1500 
 27 H        4.1210    -6.4470    -1.6130 H     1 <1>   0.1500 
 28 H        2.9490    -9.4630     1.0080 H     1 <1>   0.1500 
 29 H       -5.5110    -3.9020     0.5210 H     1 <1>   0.0800 
 30 H        4.6050   -10.4580    -0.8750 H     1 <1>   0.1500 
 31 H       -5.8120    -6.2810     1.1430 H     1 <1>   0.0800 
 32 H       -5.8560    -6.7130    -0.5370 H     1 <1>   0.0800 
 33 H       -5.2550    -4.9550    -2.3020 H     1 <1>   0.0800 
 34 H       -4.7420    -3.3690    -1.7850 H     1 <1>   0.0800 
 35 H       -6.4260    -3.8010    -1.7130 H     1 <1>   0.0800 
 36 H       -7.8320    -4.8430     0.8120 H     1 <1>   0.0800 
 37 H       -8.1250    -6.5250     0.4510 H     1 <1>   0.0800 
 38 H       -7.9170    -5.3870    -0.8500 H     1 <1>   0.0800 
@<TRIPOS>BOND
  1   1   2  1   
  2   1   3  1   
  3   2   4  ar  
  4   2   5  ar  
  5   3   6  1   
  6   3  19  1   
  7   3  20  1   
  8   4   7  ar  
  9   4  21  1   
 10   5   8  ar  
 11   5  22  1   
 12   6   9  1   
 13   6  23  1   
 14   6  24  1   
 15   7  10  ar  
 16   7  25  1   
 17   8  10  ar  
 18   8  26  1   
 19   9  11  1   
 20   9  12  1   
 21  10  13  1   
 22  11  14  2   
 23  11  27  1   
 24  12  15  2   
 25  12  28  1   
 26  13  16  1   
 27  13  17  1   
 28  13  29  1   
 29  14  15  1   
 30  15  30  1   
 31  16  18  1   
 32  16  31  1   
 33  16  32  1   
 34  17  33  1   
 35  17  34  1   
 36  17  35  1   
 37  18  36  1   
 38  18  37  1   
 39  18  38  1   
@<TRIPOS>SUBSTRUCTURE
  1 ****   5 GROUP 4 **** **** 0

# MOE 2024.06 (io_trps.svl 2023.06)
