@<TRIPOS>MOLECULE
NONAME
40 41 1 0 0 
SMALL
USER_CHARGES


@<TRIPOS>ATOM
  1 F       -0.3120    -0.5590    -1.4820 F     1 <1>  -0.1900 
  2 C       -1.3730    -1.2360    -1.1070 C.ar  1 <1>   0.1900 
  3 C       -1.2180    -2.3620    -0.2890 C.ar  1 <1>   0.1000 
  4 C       -2.6040    -0.7920    -1.5470 C.ar  1 <1>  -0.1500 
  5 N        0.0140    -2.8430     0.1780 N.pl3 1 <1>  -0.8380 
  6 C       -2.3760    -3.0370     0.0750 C.ar  1 <1>  -0.1500 
  7 C       -3.7400    -1.4880    -1.1660 C.ar  1 <1>  -0.1500 
  8 C        0.7110    -1.9520     1.1540 C.3   1 <1>   0.2090 
  9 C        0.9100    -3.4110    -0.8750 C.3   1 <1>   0.2090 
 10 C       -3.6220    -2.6070    -0.3570 C.ar  1 <1>  -0.1500 
 11 C        1.9480    -2.6480     1.7610 C.3   1 <1>   0.3430 
 12 C        2.1470    -4.0890    -0.2510 C.3   1 <1>   0.3430 
 13 N        2.8810    -3.1820     0.7060 N.4   1 <1>  -0.9590 
 14 C        4.0510    -3.8670     1.2990 C.3   1 <1>   0.4810 
 15 C        5.0240    -4.1950     0.1790 C.2   1 <1>  -0.2760 
 16 C        5.2000    -5.4590    -0.2330 C.2   1 <1>  -0.2880 
 17 C        5.7520    -2.9670    -0.3710 C.3   1 <1>  -0.1020 
 18 C        6.1150    -5.9910    -1.3270 C.3   1 <1>  -0.1020 
 19 H       -2.6750     0.0790    -2.1740 H     1 <1>   0.1500 
 20 H       -2.2960    -3.9060     0.7010 H     1 <1>   0.1500 
 21 H       -4.7110    -1.1610    -1.4960 H     1 <1>   0.1500 
 22 H        1.0120    -1.0410     0.6670 H     1 <1>   0.0800 
 23 H        0.0260    -1.6920     1.9430 H     1 <1>   0.0800 
 24 H        0.3610    -4.1360    -1.4520 H     1 <1>   0.0800 
 25 H        1.2270    -2.6310    -1.5460 H     1 <1>   0.0800 
 26 H       -4.5050    -3.1470    -0.0610 H     1 <1>   0.1500 
 27 H        1.6010    -3.4590     2.3800 H     1 <1>   0.0800 
 28 H        2.4680    -1.9470     2.3930 H     1 <1>   0.0800 
 29 H        2.8100    -4.4030    -1.0410 H     1 <1>   0.0800 
 30 H        1.8170    -4.9720     0.2700 H     1 <1>   0.0800 
 31 H        3.2410    -2.3950     0.1570 H     1 <1>   0.4500 
 32 H        4.5350    -3.2370     2.0280 H     1 <1>   0.0800 
 33 H        3.7360    -4.7760     1.7860 H     1 <1>   0.0800 
 34 H        4.6630    -6.2770     0.2210 H     1 <1>   0.1500 
 35 H        6.2200    -2.4230     0.4320 H     1 <1>   0.0800 
 36 H        5.0710    -2.3110    -0.8820 H     1 <1>   0.0800 
 37 H        6.5280    -3.2320    -1.0630 H     1 <1>   0.0800 
 38 H        5.5400    -6.5470    -2.0460 H     1 <1>   0.0800 
 39 H        6.8470    -6.6530    -0.8980 H     1 <1>   0.0800 
 40 H        6.6370    -5.2140    -1.8530 H     1 <1>   0.0800 
@<TRIPOS>BOND
  1   1   2  1   
  2   2   3  ar  
  3   2   4  ar  
  4   3   5  1   
  5   3   6  ar  
  6   4   7  ar  
  7   4  19  1   
  8   5   8  1   
  9   5   9  1   
 10   6  10  ar  
 11   6  20  1   
 12   7  10  ar  
 13   7  21  1   
 14   8  11  1   
 15   8  22  1   
 16   8  23  1   
 17   9  12  1   
 18   9  24  1   
 19   9  25  1   
 20  10  26  1   
 21  11  13  1   
 22  11  27  1   
 23  11  28  1   
 24  12  13  1   
 25  12  29  1   
 26  12  30  1   
 27  13  14  1   
 28  13  31  1   
 29  14  15  1   
 30  14  32  1   
 31  14  33  1   
 32  15  16  2   
 33  15  17  1   
 34  16  18  1   
 35  16  34  1   
 36  17  35  1   
 37  17  36  1   
 38  17  37  1   
 39  18  38  1   
 40  18  39  1   
 41  18  40  1   
@<TRIPOS>SUBSTRUCTURE
  1 ****   9 GROUP 4 **** **** 0

# MOE 2024.06 (io_trps.svl 2023.06)
