@<TRIPOS>MOLECULE
NONAME
44 45 1 0 0 
SMALL
USER_CHARGES


@<TRIPOS>ATOM
  1 O       -0.0740    -4.2040    -1.3500 O.2   1 <1>  -0.5700 
  2 C        0.0560    -3.3570    -0.5050 C.2   1 <1>   0.6590 
  3 O       -0.7750    -2.3330    -0.3870 O.3   1 <1>  -0.4300 
  4 C        1.2090    -3.3870     0.4950 C.3   1 <1>  -0.0190 
  5 C       -1.8770    -2.1780    -1.2530 C.3   1 <1>   0.1200 
  6 C        2.3920    -2.5450    -0.0170 C.3   1 <1>  -0.1600 
  7 C        1.6780    -4.8230     0.8070 C.3   1 <1>  -0.1600 
  8 C       -2.6170    -0.9060    -0.8530 C.3   1 <1>  -0.2400 
  9 C        3.5890    -2.6020     0.9290 C.3   1 <1>   0.3430 
 10 C        2.8830    -4.8430     1.7440 C.3   1 <1>   0.3430 
 11 N        3.9720    -4.0230     1.1570 N.4   1 <1>  -0.9590 
 12 C        5.2440    -4.1500     1.9120 C.3   1 <1>   0.4860 
 13 C        6.3620    -3.5540     1.0790 C.ar  1 <1>  -0.1440 
 14 C        6.6410    -4.0620    -0.1880 C.ar  1 <1>   0.0820 
 15 C        7.1090    -2.4980     1.5810 C.ar  1 <1>  -0.1500 
 16 O        5.8740    -5.0930    -0.6370 O.3   1 <1>  -0.3620 
 17 C        7.6700    -3.5010    -0.9400 C.ar  1 <1>  -0.1500 
 18 C        8.1290    -1.9470     0.8270 C.ar  1 <1>  -0.1500 
 19 C        6.1980    -5.7790    -1.8310 C.3   1 <1>   0.0400 
 20 C        8.4080    -2.4480    -0.4320 C.ar  1 <1>  -0.1500 
 21 H        0.8460    -2.9470     1.4080 H     1 <1>   0.0800 
 22 H       -2.5120    -3.0420    -1.1560 H     1 <1>   0.0800 
 23 H       -1.5110    -2.1110    -2.2640 H     1 <1>   0.0800 
 24 H        2.0810    -1.5200    -0.1260 H     1 <1>   0.0800 
 25 H        2.6950    -2.8920    -0.9910 H     1 <1>   0.0800 
 26 H        1.9370    -5.3350    -0.1050 H     1 <1>   0.0800 
 27 H        0.8700    -5.3720     1.2600 H     1 <1>   0.0800 
 28 H       -2.9700    -0.9830     0.1600 H     1 <1>   0.0800 
 29 H       -3.4650    -0.7640    -1.4990 H     1 <1>   0.0800 
 30 H       -1.9700    -0.0530    -0.9470 H     1 <1>   0.0800 
 31 H        3.3350    -2.1360     1.8670 H     1 <1>   0.0800 
 32 H        4.4150    -2.0610     0.4930 H     1 <1>   0.0800 
 33 H        3.2160    -5.8600     1.8780 H     1 <1>   0.0800 
 34 H        2.6020    -4.4460     2.7060 H     1 <1>   0.0800 
 35 H        4.2150    -4.4200     0.2310 H     1 <1>   0.4500 
 36 H        5.4640    -5.1910     2.0890 H     1 <1>   0.0800 
 37 H        5.1720    -3.6440     2.8600 H     1 <1>   0.0800 
 38 H        6.9130    -2.0940     2.5600 H     1 <1>   0.1500 
 39 H        7.9150    -3.8640    -1.9210 H     1 <1>   0.1500 
 40 H        8.7110    -1.1280     1.2170 H     1 <1>   0.1500 
 41 H        6.1070    -5.1020    -2.6630 H     1 <1>   0.0800 
 42 H        5.5080    -6.5950    -1.9510 H     1 <1>   0.0800 
 43 H        7.2020    -6.1600    -1.7560 H     1 <1>   0.0800 
 44 H        9.2050    -2.0170    -1.0150 H     1 <1>   0.1500 
@<TRIPOS>BOND
  1   1   2  2   
  2   2   3  1   
  3   2   4  1   
  4   3   5  1   
  5   4   6  1   
  6   4   7  1   
  7   4  21  1   
  8   5   8  1   
  9   5  22  1   
 10   5  23  1   
 11   6   9  1   
 12   6  24  1   
 13   6  25  1   
 14   7  10  1   
 15   7  26  1   
 16   7  27  1   
 17   8  28  1   
 18   8  29  1   
 19   8  30  1   
 20   9  11  1   
 21   9  31  1   
 22   9  32  1   
 23  10  11  1   
 24  10  33  1   
 25  10  34  1   
 26  11  12  1   
 27  11  35  1   
 28  12  13  1   
 29  12  36  1   
 30  12  37  1   
 31  13  14  ar  
 32  13  15  ar  
 33  14  16  1   
 34  14  17  ar  
 35  15  18  ar  
 36  15  38  1   
 37  16  19  1   
 38  17  20  ar  
 39  17  39  1   
 40  18  20  ar  
 41  18  40  1   
 42  19  41  1   
 43  19  42  1   
 44  19  43  1   
 45  20  44  1   
@<TRIPOS>SUBSTRUCTURE
  1 ****   9 GROUP 4 **** **** 0

# MOE 2024.06 (io_trps.svl 2023.06)
