@<TRIPOS>MOLECULE
NONAME
37 38 1 0 0 
SMALL
USER_CHARGES


@<TRIPOS>ATOM
  1 F        0.0230    -1.0330    -0.8400 F     1 <1>  -0.1900 
  2 C       -1.2250    -1.3240    -0.5800 C.ar  1 <1>   0.1900 
  3 C       -1.5360    -2.5980    -0.1460 C.ar  1 <1>  -0.1500 
  4 C       -2.1870    -0.3490    -0.7480 C.ar  1 <1>  -0.1500 
  5 C       -2.8570    -2.9150     0.1320 C.ar  1 <1>  -0.1440 
  6 C       -3.5030    -0.6700    -0.4680 C.ar  1 <1>  -0.1500 
  7 C       -3.8560    -1.9470    -0.0300 C.ar  1 <1>   0.1170 
  8 C       -3.1890    -4.3260     0.6020 C.3   1 <1>  -0.0960 
  9 N       -5.1890    -2.2670     0.2730 N.am  1 <1>  -0.5470 
 10 C       -6.3600    -1.7830    -0.2280 C.2   1 <1>   0.6900 
 11 O       -6.3920    -1.0070    -1.1620 O.2   1 <1>  -0.5700 
 12 N       -7.5060    -2.2130     0.3510 N.am  1 <1>  -0.7300 
 13 C       -8.8610    -1.8160    -0.0670 C.3   1 <1>   0.2200 
 14 C       -9.4480    -0.8700     0.9840 C.3   1 <1>  -0.1600 
 15 C       -9.7190    -3.0760    -0.2240 C.3   1 <1>  -0.1600 
 16 C      -10.9040    -0.5070     0.6540 C.3   1 <1>  -0.1600 
 17 C      -11.1750    -2.7180    -0.5570 C.3   1 <1>  -0.1600 
 18 C      -11.7660    -1.7670     0.4920 C.3   1 <1>  -0.1600 
 19 H       -0.7470    -3.3190    -0.0330 H     1 <1>   0.1500 
 20 H       -1.9120     0.6320    -1.0880 H     1 <1>   0.1500 
 21 H       -4.2620     0.0820    -0.5900 H     1 <1>   0.1500 
 22 H       -2.3150    -4.9520     0.5860 H     1 <1>   0.0800 
 23 H       -3.9270    -4.7670    -0.0440 H     1 <1>   0.0800 
 24 H       -3.5670    -4.3020     1.6090 H     1 <1>   0.0800 
 25 H       -5.3040    -3.0830     0.8610 H     1 <1>   0.3700 
 26 H       -7.4630    -2.7100     1.2350 H     1 <1>   0.3700 
 27 H       -8.8160    -1.3040    -1.0160 H     1 <1>   0.0800 
 28 H       -8.8580     0.0300     1.0180 H     1 <1>   0.0800 
 29 H       -9.4160    -1.3380     1.9520 H     1 <1>   0.0800 
 30 H       -9.7000    -3.6430     0.6900 H     1 <1>   0.0800 
 31 H       -9.3140    -3.6850    -1.0130 H     1 <1>   0.0800 
 32 H      -10.9290     0.0600    -0.2610 H     1 <1>   0.0800 
 33 H      -11.3090     0.1110     1.4360 H     1 <1>   0.0800 
 34 H      -11.7660    -3.6160    -0.6050 H     1 <1>   0.0800 
 35 H      -11.2120    -2.2470    -1.5250 H     1 <1>   0.0800 
 36 H      -12.7640    -1.4850     0.2010 H     1 <1>   0.0800 
 37 H      -11.8330    -2.2770     1.4390 H     1 <1>   0.0800 
@<TRIPOS>BOND
  1   1   2  1   
  2   2   3  ar  
  3   2   4  ar  
  4   3   5  ar  
  5   3  19  1   
  6   4   6  ar  
  7   4  20  1   
  8   5   7  ar  
  9   5   8  1   
 10   6   7  ar  
 11   6  21  1   
 12   7   9  1   
 13   8  22  1   
 14   8  23  1   
 15   8  24  1   
 16   9  10  am  
 17   9  25  1   
 18  10  11  2   
 19  10  12  am  
 20  12  13  1   
 21  12  26  1   
 22  13  14  1   
 23  13  15  1   
 24  13  27  1   
 25  14  16  1   
 26  14  28  1   
 27  14  29  1   
 28  15  17  1   
 29  15  30  1   
 30  15  31  1   
 31  16  18  1   
 32  16  32  1   
 33  16  33  1   
 34  17  18  1   
 35  17  34  1   
 36  17  35  1   
 37  18  36  1   
 38  18  37  1   
@<TRIPOS>SUBSTRUCTURE
  1 ****  10 GROUP 4 **** **** 0

# MOE 2024.06 (io_trps.svl 2023.06)
