@<TRIPOS>MOLECULE
NONAME
44 46 1 0 0 
SMALL
USER_CHARGES


@<TRIPOS>ATOM
  1 S        0.0040     0.9490     1.6070 S.3   1 <1>  -0.0800 
  2 C        0.4540     2.3300     0.5990 C.ar  1 <1>   0.2970 
  3 C       -1.6760     1.0810     1.0970 C.2   1 <1>  -0.1400 
  4 N        1.6800     2.7970     0.5330 N.ar  1 <1>  -0.5670 
  5 C       -0.6450     2.8220    -0.0730 C.ar  1 <1>   0.0000 
  6 C       -1.8470     2.0820     0.2280 C.2   1 <1>  -0.1810 
  7 C       -2.7450     0.1420     1.6160 C.3   1 <1>   0.3000 
  8 C        1.7690     3.8340    -0.2730 C.ar  1 <1>   0.7220 
  9 C       -0.3770     3.9160    -0.8870 C.ar  1 <1>   0.3930 
 10 C       -3.2370     2.3420    -0.3230 C.3   1 <1>   0.0210 
 11 O       -4.0110     0.6250     1.2310 O.3   1 <1>  -0.5600 
 12 S        3.3980     4.5570    -0.3990 S.3   1 <1>  -0.3320 
 13 N        0.8310     4.4290    -1.0010 N.ar  1 <1>  -0.6200 
 14 O       -1.3830     4.4770    -1.5810 O.3   1 <1>  -0.3630 
 15 C       -4.1760     1.1270    -0.0730 C.3   1 <1>   0.2800 
 16 C        3.1790     6.0600    -1.4580 C.3   1 <1>  -0.0100 
 17 C       -1.1910     5.6450    -2.3770 C.3   1 <1>   0.1810 
 18 C       -3.9310    -0.0100    -1.0780 C.3   1 <1>  -0.2400 
 19 C       -5.6390     1.5620    -0.1600 C.3   1 <1>  -0.2400 
 20 C       -0.8390     6.8730    -1.5440 C.2   1 <1>   0.6590 
 21 O        0.0410     7.6290    -1.8750 O.2   1 <1>  -0.5700 
 22 O       -1.5610     7.0710    -0.4470 O.3   1 <1>  -0.4300 
 23 C       -1.3000     8.1460     0.4230 C.3   1 <1>   0.1200 
 24 C       -2.2710     8.0500     1.5950 C.3   1 <1>  -0.2400 
 25 H       -2.7240     0.1010     2.6900 H     1 <1>   0.0800 
 26 H       -2.6150    -0.8490     1.2190 H     1 <1>   0.0800 
 27 H       -3.1880     2.5380    -1.3780 H     1 <1>   0.0800 
 28 H       -3.6360     3.2180     0.1560 H     1 <1>   0.0800 
 29 H        4.1360     6.5390    -1.5520 H     1 <1>   0.0800 
 30 H        2.4700     6.7080    -0.9740 H     1 <1>   0.0800 
 31 H        2.8110     5.7410    -2.4170 H     1 <1>   0.0800 
 32 H       -2.1080     5.8310    -2.9030 H     1 <1>   0.0800 
 33 H       -0.4110     5.4490    -3.0900 H     1 <1>   0.0800 
 34 H       -2.8960    -0.2950    -1.1020 H     1 <1>   0.0800 
 35 H       -4.2020     0.3110    -2.0670 H     1 <1>   0.0800 
 36 H       -4.5320    -0.8660    -0.8260 H     1 <1>   0.0800 
 37 H       -5.8470     2.3170     0.5760 H     1 <1>   0.0800 
 38 H       -6.2870     0.7220     0.0130 H     1 <1>   0.0800 
 39 H       -5.8540     1.9640    -1.1330 H     1 <1>   0.0800 
 40 H       -1.4350     9.0670    -0.1200 H     1 <1>   0.0800 
 41 H       -0.2790     8.0710     0.7610 H     1 <1>   0.0800 
 42 H       -3.2850     8.1150     1.2440 H     1 <1>   0.0800 
 43 H       -2.0930     8.8580     2.2810 H     1 <1>   0.0800 
 44 H       -2.1290     7.1210     2.1170 H     1 <1>   0.0800 
@<TRIPOS>BOND
  1   1   2  1   
  2   1   3  1   
  3   2   4  ar  
  4   2   5  ar  
  5   3   6  2   
  6   3   7  1   
  7   4   8  ar  
  8   5   6  1   
  9   5   9  ar  
 10   6  10  1   
 11   7  11  1   
 12   7  25  1   
 13   7  26  1   
 14   8  12  1   
 15   8  13  ar  
 16   9  13  ar  
 17   9  14  1   
 18  10  15  1   
 19  10  27  1   
 20  10  28  1   
 21  11  15  1   
 22  12  16  1   
 23  14  17  1   
 24  15  18  1   
 25  15  19  1   
 26  16  29  1   
 27  16  30  1   
 28  16  31  1   
 29  17  20  1   
 30  17  32  1   
 31  17  33  1   
 32  18  34  1   
 33  18  35  1   
 34  18  36  1   
 35  19  37  1   
 36  19  38  1   
 37  19  39  1   
 38  20  21  2   
 39  20  22  1   
 40  22  23  1   
 41  23  24  1   
 42  23  40  1   
 43  23  41  1   
 44  24  42  1   
 45  24  43  1   
 46  24  44  1   
@<TRIPOS>SUBSTRUCTURE
  1 ****   5 GROUP 4 **** **** 0

# MOE 2024.06 (io_trps.svl 2023.06)
