@<TRIPOS>MOLECULE
NONAME
47 48 1 0 0 
SMALL
USER_CHARGES


@<TRIPOS>ATOM
  1 N        0.0270     0.2290    -0.2280 N.4   1 <1>  -0.9590 
  2 C        0.6080    -0.5210     0.9260 C.3   1 <1>   0.4810 
  3 C       -1.2880     0.9030     0.0760 C.3   1 <1>   0.3430 
  4 C        0.0190    -0.6170    -1.4730 C.3   1 <1>   0.2630 
  5 C        2.0360    -0.8620     0.5780 C.2   1 <1>  -0.2540 
  6 C       -2.4840    -0.0600     0.3400 C.3   1 <1>   0.3430 
  7 C        2.4610    -2.1960     0.3240 C.2   1 <1>  -0.2880 
  8 C        3.0580     0.5210     0.5370 C.3   1 <1>   0.1160 
  9 N       -3.7810     0.6310     0.6950 N.4   1 <1>  -0.9590 
 10 C        4.1270    -2.3020    -0.0500 C.3   1 <1>  -0.0220 
 11 C        4.7110     0.8400     0.1880 C.3   1 <1>   0.0000 
 12 C        3.8570    -0.4540     0.2310 C.3   1 <1>   0.0000 
 13 C       -4.8170    -0.3810     1.0970 C.3   1 <1>   0.2630 
 14 C       -4.3400     1.4750    -0.4170 C.3   1 <1>   0.2630 
 15 C        5.0390    -0.8220    -0.1010 C.3   1 <1>   0.0000 
 16 C        5.5280     1.4220     1.3710 C.3   1 <1>  -0.2400 
 17 C        4.9110     1.7610    -1.0450 C.3   1 <1>  -0.2400 
 18 H        0.7280     0.9680    -0.4070 H     1 <1>   0.4500 
 19 H        0.0550    -1.4290     1.1030 H     1 <1>   0.0800 
 20 H        0.5940     0.0780     1.8220 H     1 <1>   0.0800 
 21 H       -1.5430     1.5400    -0.7560 H     1 <1>   0.0800 
 22 H       -1.1580     1.5320     0.9420 H     1 <1>   0.0800 
 23 H       -0.6160    -1.4790    -1.3470 H     1 <1>   0.0800 
 24 H        1.0170    -0.9650    -1.6930 H     1 <1>   0.0800 
 25 H       -0.3290    -0.0450    -2.3180 H     1 <1>   0.0800 
 26 H       -2.2150    -0.7170     1.1500 H     1 <1>   0.0800 
 27 H       -2.6430    -0.6640    -0.5380 H     1 <1>   0.0800 
 28 H        1.9000    -3.1170     0.3390 H     1 <1>   0.1500 
 29 H        2.9840     0.8900     1.5480 H     1 <1>   0.0000 
 30 H       -3.6450     1.2430     1.5190 H     1 <1>   0.4500 
 31 H        4.2290    -2.7930    -1.0030 H     1 <1>   0.0800 
 32 H        4.5930    -2.9550     0.6710 H     1 <1>   0.0800 
 33 H        3.4630    -0.4850    -0.8680 H     1 <1>   0.0000 
 34 H        3.9920    -0.7730     1.3440 H     1 <1>   0.0000 
 35 H       -5.0350    -1.0480     0.2780 H     1 <1>   0.0800 
 36 H       -5.7320     0.1120     1.3860 H     1 <1>   0.0800 
 37 H       -4.4710    -0.9670     1.9350 H     1 <1>   0.0800 
 38 H       -4.5310     0.8730    -1.2910 H     1 <1>   0.0800 
 39 H       -3.6560     2.2650    -0.6820 H     1 <1>   0.0800 
 40 H       -5.2710     1.9270    -0.1100 H     1 <1>   0.0800 
 41 H        5.3730    -0.7940    -1.1280 H     1 <1>   0.0000 
 42 H        5.4300     0.8120     2.2510 H     1 <1>   0.0800 
 43 H        5.1930     2.4170     1.6070 H     1 <1>   0.0800 
 44 H        6.5710     1.4660     1.1110 H     1 <1>   0.0800 
 45 H        4.3670     1.3980    -1.8980 H     1 <1>   0.0800 
 46 H        5.9530     1.8040    -1.3070 H     1 <1>   0.0800 
 47 H        4.5740     2.7590    -0.8240 H     1 <1>   0.0800 
@<TRIPOS>BOND
  1   1   2  1   
  2   1   3  1   
  3   1   4  1   
  4   1  18  1   
  5   2   5  1   
  6   2  19  1   
  7   2  20  1   
  8   3   6  1   
  9   3  21  1   
 10   3  22  1   
 11   4  23  1   
 12   4  24  1   
 13   4  25  1   
 14   5   7  2   
 15   5   8  1   
 16   6   9  1   
 17   6  26  1   
 18   6  27  1   
 19   7  10  1   
 20   7  28  1   
 21   8  11  1   
 22   8  12  1   
 23   8  29  1   
 24   9  13  1   
 25   9  14  1   
 26   9  30  1   
 27  10  15  1   
 28  10  31  1   
 29  10  32  1   
 30  11  15  1   
 31  11  16  1   
 32  11  17  1   
 33  12  15  1   
 34  12  33  1   
 35  12  34  1   
 36  13  35  1   
 37  13  36  1   
 38  13  37  1   
 39  14  38  1   
 40  14  39  1   
 41  14  40  1   
 42  15  41  1   
 43  16  42  1   
 44  16  43  1   
 45  16  44  1   
 46  17  45  1   
 47  17  46  1   
 48  17  47  1   
@<TRIPOS>SUBSTRUCTURE
  1 ****   2 GROUP 4 **** **** 0

# MOE 2024.06 (io_trps.svl 2023.06)
