@<TRIPOS>MOLECULE
NONAME
51 52 1 0 0 
SMALL
USER_CHARGES


@<TRIPOS>ATOM
  1 F       -0.2330    -0.3410    -0.1320 F     1 <1>  -0.1900 
  2 C       -0.8070    -1.4780     0.1850 C.ar  1 <1>   0.1900 
  3 C       -0.0270    -2.6220     0.3940 C.ar  1 <1>   0.1000 
  4 C       -2.1790    -1.4810     0.2820 C.ar  1 <1>  -0.1500 
  5 N        1.3650    -2.6830     0.3080 N.pl3 1 <1>  -0.8380 
  6 C       -0.7230    -3.7810     0.7220 C.ar  1 <1>  -0.1500 
  7 C       -2.8670    -2.6550     0.5890 C.ar  1 <1>   0.0860 
  8 C        1.9960    -3.4540    -0.8060 C.3   1 <1>   0.2090 
  9 C        2.2180    -1.5640     0.8090 C.3   1 <1>   0.2090 
 10 C       -2.1030    -3.8110     0.8290 C.ar  1 <1>  -0.1430 
 11 C       -4.3040    -2.6150     0.6440 C.2   1 <1>   0.4230 
 12 C        3.3890    -3.9650    -0.3990 C.3   1 <1>   0.1400 
 13 C        3.6110    -2.0760     1.2160 C.3   1 <1>   0.1400 
 14 C       -2.7600    -5.1240     1.2430 C.3   1 <1>  -0.0960 
 15 O       -4.9080    -1.9090     1.4120 O.2   1 <1>  -0.5700 
 16 C       -5.1140    -3.4620    -0.3310 C.3   1 <1>  -0.0990 
 17 N        4.2540    -2.8480     0.1030 N.am  1 <1>  -0.6600 
 18 C       -5.9040    -2.6020    -1.3280 C.3   1 <1>  -0.2400 
 19 C        5.4590    -2.5650    -0.4900 C.2   1 <1>   0.5690 
 20 O        5.8750    -3.2110    -1.4220 O.2   1 <1>  -0.5700 
 21 C        6.3330    -1.4190    -0.0030 C.3   1 <1>  -0.0990 
 22 C        5.8820    -0.0620    -0.5690 C.3   1 <1>  -0.1600 
 23 C        6.7550     1.0820    -0.0420 C.3   1 <1>  -0.1600 
 24 C        6.2970     2.4280    -0.6110 C.3   1 <1>  -0.2400 
 25 H       -2.7290    -0.5720     0.1180 H     1 <1>   0.1500 
 26 H       -0.1460    -4.6680     0.9090 H     1 <1>   0.1500 
 27 H        2.0930    -2.8170    -1.6680 H     1 <1>   0.0800 
 28 H        1.3720    -4.2880    -1.0750 H     1 <1>   0.0800 
 29 H        1.7420    -1.1020     1.6570 H     1 <1>   0.0800 
 30 H        2.3250    -0.8230     0.0370 H     1 <1>   0.0800 
 31 H        3.8450    -4.4500    -1.2450 H     1 <1>   0.0800 
 32 H        3.2790    -4.6990     0.3790 H     1 <1>   0.0800 
 33 H        3.5040    -2.7210     2.0710 H     1 <1>   0.0800 
 34 H        4.2130    -1.2380     1.5120 H     1 <1>   0.0800 
 35 H       -2.0540    -5.7560     1.7520 H     1 <1>   0.0800 
 36 H       -3.1220    -5.6510     0.3800 H     1 <1>   0.0800 
 37 H       -3.5790    -4.9430     1.9170 H     1 <1>   0.0800 
 38 H       -5.7960    -4.0710     0.2340 H     1 <1>   0.0800 
 39 H       -4.4580    -4.1120    -0.8800 H     1 <1>   0.0800 
 40 H       -6.5880    -1.9590    -0.8020 H     1 <1>   0.0800 
 41 H       -6.4670    -3.2300    -1.9960 H     1 <1>   0.0800 
 42 H       -5.2350    -1.9900    -1.9080 H     1 <1>   0.0800 
 43 H        7.3420    -1.6120    -0.3230 H     1 <1>   0.0800 
 44 H        6.3430    -1.4030     1.0700 H     1 <1>   0.0800 
 45 H        4.8550     0.1200    -0.3070 H     1 <1>   0.0800 
 46 H        5.9440    -0.0980    -1.6440 H     1 <1>   0.0800 
 47 H        7.7820     0.9120    -0.3210 H     1 <1>   0.0800 
 48 H        6.7020     1.1160     1.0330 H     1 <1>   0.0800 
 49 H        6.3650     2.4250    -1.6850 H     1 <1>   0.0800 
 50 H        6.9210     3.2190    -0.2330 H     1 <1>   0.0800 
 51 H        5.2790     2.6310    -0.3280 H     1 <1>   0.0800 
@<TRIPOS>BOND
  1   1   2  1   
  2   2   3  ar  
  3   2   4  ar  
  4   3   5  1   
  5   3   6  ar  
  6   4   7  ar  
  7   4  25  1   
  8   5   8  1   
  9   5   9  1   
 10   6  10  ar  
 11   6  26  1   
 12   7  10  ar  
 13   7  11  1   
 14   8  12  1   
 15   8  27  1   
 16   8  28  1   
 17   9  13  1   
 18   9  29  1   
 19   9  30  1   
 20  10  14  1   
 21  11  15  2   
 22  11  16  1   
 23  12  17  1   
 24  12  31  1   
 25  12  32  1   
 26  13  17  1   
 27  13  33  1   
 28  13  34  1   
 29  14  35  1   
 30  14  36  1   
 31  14  37  1   
 32  16  18  1   
 33  16  38  1   
 34  16  39  1   
 35  17  19  am  
 36  18  40  1   
 37  18  41  1   
 38  18  42  1   
 39  19  20  2   
 40  19  21  1   
 41  21  22  1   
 42  21  43  1   
 43  21  44  1   
 44  22  23  1   
 45  22  45  1   
 46  22  46  1   
 47  23  24  1   
 48  23  47  1   
 49  23  48  1   
 50  24  49  1   
 51  24  50  1   
 52  24  51  1   
@<TRIPOS>SUBSTRUCTURE
  1 ****   5 GROUP 4 **** **** 0

# MOE 2024.06 (io_trps.svl 2023.06)
