@<TRIPOS>MOLECULE
NONAME
60 62 1 0 0 
SMALL
USER_CHARGES


@<TRIPOS>ATOM
  1 S        1.5110    -1.6650    -1.2110 S.o2  1 <1>   1.4470 
  2 O        2.2920    -2.4550    -2.1330 O.2   1 <1>  -0.6500 
  3 O        1.4460    -0.2340    -1.4120 O.2   1 <1>  -0.6500 
  4 N        2.2420    -1.8630     0.3150 N.am  1 <1>  -0.8490 
  5 C       -0.1420    -2.3790    -0.9960 C.ar  1 <1>  -0.0090 
  6 C        3.7130    -1.7950     0.2500 C.3   1 <1>   0.1960 
  7 C        1.7310    -0.9620     1.3720 C.3   1 <1>   0.1960 
  8 C       -1.1980    -1.6030    -0.5500 C.ar  1 <1>  -0.1500 
  9 C       -0.3890    -3.7240    -1.2310 C.ar  1 <1>  -0.1500 
 10 C        4.2150    -0.3540    -0.0020 C.3   1 <1>   0.3430 
 11 C        2.2370     0.5010     1.2540 C.3   1 <1>   0.3430 
 12 C       -2.4770    -2.1060    -0.3000 C.ar  1 <1>   0.0860 
 13 C       -1.6440    -4.2620    -1.0230 C.ar  1 <1>  -0.1500 
 14 N        3.7350     0.6060     1.0580 N.4   1 <1>  -0.9590 
 15 C       -2.6920    -3.4710    -0.5590 C.ar  1 <1>   0.0830 
 16 C       -3.4820    -1.1940     0.2260 C.2   1 <1>   0.5440 
 17 C        4.1360     1.9920     0.7010 C.3   1 <1>   0.3430 
 18 O       -3.9240    -3.9960    -0.3400 O.3   1 <1>  -0.3630 
 19 O       -3.1320    -0.1900     0.8200 O.2   1 <1>  -0.5700 
 20 N       -4.8160    -1.4210     0.0650 N.am  1 <1>  -0.7300 
 21 C        3.9710     2.9060     1.9090 C.3   1 <1>  -0.2400 
 22 C       -4.2200    -5.3690    -0.4900 C.3   1 <1>   0.0400 
 23 C       -5.9160    -0.5890     0.5730 C.3   1 <1>   0.2200 
 24 C       -6.6220    -1.3420     1.7050 C.3   1 <1>  -0.1600 
 25 C       -6.8790    -0.2870    -0.5790 C.3   1 <1>  -0.1600 
 26 C       -7.8520    -0.5690     2.2040 C.3   1 <1>  -0.1600 
 27 C       -8.1090     0.4890    -0.0850 C.3   1 <1>  -0.1600 
 28 C       -8.8180    -0.2600     1.0520 C.3   1 <1>  -0.1600 
 29 H        4.0820    -2.4460    -0.5260 H     1 <1>   0.0800 
 30 H        4.1260    -2.1570     1.1760 H     1 <1>   0.0800 
 31 H        2.0350    -1.3510     2.3290 H     1 <1>   0.0800 
 32 H        0.6540    -0.9650     1.3690 H     1 <1>   0.0800 
 33 H       -1.0290    -0.5520    -0.3830 H     1 <1>   0.1500 
 34 H        0.4110    -4.3560    -1.5830 H     1 <1>   0.1500 
 35 H        3.8630    -0.0340    -0.9700 H     1 <1>   0.0800 
 36 H        5.2930    -0.3570    -0.0300 H     1 <1>   0.0800 
 37 H        1.9480     1.0390     2.1420 H     1 <1>   0.0800 
 38 H        1.7360     0.9730     0.4260 H     1 <1>   0.0800 
 39 H       -1.7810    -5.3080    -1.2290 H     1 <1>   0.1500 
 40 H        4.1940     0.3590     1.9450 H     1 <1>   0.4500 
 41 H        3.5380     2.3510    -0.1230 H     1 <1>   0.0800 
 42 H        5.1700     2.0030     0.3940 H     1 <1>   0.0800 
 43 H       -5.0870    -2.3380    -0.3010 H     1 <1>   0.3700 
 44 H        2.9390     3.0090     2.1900 H     1 <1>   0.0800 
 45 H        4.3360     3.8860     1.6570 H     1 <1>   0.0800 
 46 H        4.5440     2.5460     2.7450 H     1 <1>   0.0800 
 47 H       -5.2500    -5.5210    -0.2230 H     1 <1>   0.0800 
 48 H       -3.5860    -5.9380     0.1670 H     1 <1>   0.0800 
 49 H       -4.0650    -5.6520    -1.5160 H     1 <1>   0.0800 
 50 H       -5.5240     0.3390     0.9570 H     1 <1>   0.0800 
 51 H       -5.9340    -1.4790     2.5210 H     1 <1>   0.0800 
 52 H       -6.9350    -2.3090     1.3550 H     1 <1>   0.0800 
 53 H       -7.2040    -1.2080    -1.0280 H     1 <1>   0.0800 
 54 H       -6.3670     0.2960    -1.3240 H     1 <1>   0.0800 
 55 H       -7.5310     0.3540     2.6560 H     1 <1>   0.0800 
 56 H       -8.3600    -1.1460     2.9570 H     1 <1>   0.0800 
 57 H       -8.7940     0.6380    -0.9020 H     1 <1>   0.0800 
 58 H       -7.8000     1.4590     0.2670 H     1 <1>   0.0800 
 59 H       -9.6380     0.3340     1.4180 H     1 <1>   0.0800 
 60 H       -9.2240    -1.1820     0.6710 H     1 <1>   0.0800 
@<TRIPOS>BOND
  1   1   2  2   
  2   1   3  2   
  3   1   4  am  
  4   1   5  1   
  5   4   6  1   
  6   4   7  1   
  7   5   8  ar  
  8   5   9  ar  
  9   6  10  1   
 10   6  29  1   
 11   6  30  1   
 12   7  11  1   
 13   7  31  1   
 14   7  32  1   
 15   8  12  ar  
 16   8  33  1   
 17   9  13  ar  
 18   9  34  1   
 19  10  14  1   
 20  10  35  1   
 21  10  36  1   
 22  11  14  1   
 23  11  37  1   
 24  11  38  1   
 25  12  15  ar  
 26  12  16  1   
 27  13  15  ar  
 28  13  39  1   
 29  14  17  1   
 30  14  40  1   
 31  15  18  1   
 32  16  19  2   
 33  16  20  am  
 34  17  21  1   
 35  17  41  1   
 36  17  42  1   
 37  18  22  1   
 38  20  23  1   
 39  20  43  1   
 40  21  44  1   
 41  21  45  1   
 42  21  46  1   
 43  22  47  1   
 44  22  48  1   
 45  22  49  1   
 46  23  24  1   
 47  23  25  1   
 48  23  50  1   
 49  24  26  1   
 50  24  51  1   
 51  24  52  1   
 52  25  27  1   
 53  25  53  1   
 54  25  54  1   
 55  26  28  1   
 56  26  55  1   
 57  26  56  1   
 58  27  28  1   
 59  27  57  1   
 60  27  58  1   
 61  28  59  1   
 62  28  60  1   
@<TRIPOS>SUBSTRUCTURE
  1 ****   8 GROUP 4 **** **** 0

# MOE 2024.06 (io_trps.svl 2023.06)
