@<TRIPOS>MOLECULE
NONAME
41 42 1 0 0 
SMALL
USER_CHARGES


@<TRIPOS>ATOM
  1 S        0.2540     0.5960     1.9510 S.3   1 <1>  -0.0800 
  2 C        0.1040    -0.9310     1.0940 C.2   1 <1>   0.1040 
  3 C        1.9000     0.8220     1.3860 C.2   1 <1>  -0.1400 
  4 N       -1.0680    -1.6630     1.1750 N.am  1 <1>  -0.4940 
  5 C        1.2580    -1.2200     0.4190 C.2   1 <1>  -0.0860 
  6 C        2.2670    -0.2070     0.6050 C.2   1 <1>  -0.1500 
  7 C        2.6160     2.0760     1.8420 C.3   1 <1>  -0.0600 
  8 C       -2.3290    -1.3980     1.6360 C.2   1 <1>   0.5690 
  9 C        1.4620    -2.3830    -0.3970 C.2   1 <1>   0.8060 
 10 O       -2.6830    -0.3440     2.1050 O.2   1 <1>  -0.5700 
 11 C       -3.3420    -2.5390     1.5190 C.3   1 <1>   0.1710 
 12 O        0.5940    -3.2110    -0.6150 O.2   1 <1>  -0.5700 
 13 O        2.6680    -2.5610    -0.9490 O.3   1 <1>  -0.4300 
 14 N       -2.8900    -3.6610     0.6420 N.3   1 <1>  -0.8100 
 15 C        2.9510    -3.6800    -1.7590 C.3   1 <1>   0.1200 
 16 C       -3.6590    -4.8930     0.8990 C.3   1 <1>   0.1100 
 17 C       -2.9880    -3.3190    -0.7970 C.3   1 <1>   0.1100 
 18 C        4.4010    -3.5750    -2.2190 C.3   1 <1>  -0.2400 
 19 C       -3.1990    -6.0320    -0.0300 C.3   1 <1>   0.1200 
 20 C       -2.5400    -4.5030    -1.6710 C.3   1 <1>   0.1200 
 21 O       -3.2970    -5.6410    -1.3710 O.3   1 <1>  -0.5600 
 22 H       -1.0350    -2.6030     0.7520 H     1 <1>   0.3700 
 23 H        3.2320    -0.3020     0.1370 H     1 <1>   0.1500 
 24 H        2.6770     2.0920     2.9150 H     1 <1>   0.0800 
 25 H        2.0770     2.9450     1.5100 H     1 <1>   0.0800 
 26 H        3.6110     2.1050     1.4350 H     1 <1>   0.0800 
 27 H       -4.2760    -2.1430     1.1600 H     1 <1>   0.0800 
 28 H       -3.5040    -2.9120     2.5140 H     1 <1>   0.0800 
 29 H        2.2780    -3.6720    -2.6010 H     1 <1>   0.0800 
 30 H        2.7940    -4.5730    -1.1780 H     1 <1>   0.0800 
 31 H       -4.7090    -4.7150     0.7410 H     1 <1>   0.0800 
 32 H       -3.5170    -5.1980     1.9210 H     1 <1>   0.0800 
 33 H       -2.3660    -2.4700    -1.0210 H     1 <1>   0.0800 
 34 H       -4.0040    -3.0650    -1.0490 H     1 <1>   0.0800 
 35 H        4.5460    -2.6750    -2.7900 H     1 <1>   0.0800 
 36 H        4.6460    -4.4180    -2.8410 H     1 <1>   0.0800 
 37 H        5.0610    -3.5740    -1.3700 H     1 <1>   0.0800 
 38 H       -3.8200    -6.8990     0.1050 H     1 <1>   0.0800 
 39 H       -2.1770    -6.2980     0.1770 H     1 <1>   0.0800 
 40 H       -1.5000    -4.7230    -1.5050 H     1 <1>   0.0800 
 41 H       -2.6860    -4.2760    -2.7120 H     1 <1>   0.0800 
@<TRIPOS>BOND
  1   1   2  1   
  2   1   3  1   
  3   2   4  1   
  4   2   5  2   
  5   3   6  2   
  6   3   7  1   
  7   4   8  am  
  8   4  22  1   
  9   5   6  1   
 10   5   9  1   
 11   6  23  1   
 12   7  24  1   
 13   7  25  1   
 14   7  26  1   
 15   8  10  2   
 16   8  11  1   
 17   9  12  2   
 18   9  13  1   
 19  11  14  1   
 20  11  27  1   
 21  11  28  1   
 22  13  15  1   
 23  14  16  1   
 24  14  17  1   
 25  15  18  1   
 26  15  29  1   
 27  15  30  1   
 28  16  19  1   
 29  16  31  1   
 30  16  32  1   
 31  17  20  1   
 32  17  33  1   
 33  17  34  1   
 34  18  35  1   
 35  18  36  1   
 36  18  37  1   
 37  19  21  1   
 38  19  38  1   
 39  19  39  1   
 40  20  21  1   
 41  20  40  1   
 42  20  41  1   
@<TRIPOS>SUBSTRUCTURE
  1 ****   4 GROUP 4 **** **** 0

# MOE 2024.06 (io_trps.svl 2023.06)
