@<TRIPOS>MOLECULE
NONAME
61 64 1 0 0 
SMALL
USER_CHARGES


@<TRIPOS>ATOM
  1 O       -9.1520     0.5060    -2.5450 O.3   1 <1>  -0.3670 
  2 C       -8.3580     1.3720    -1.8750 C.ar  1 <1>   0.0760 
  3 C       -9.5570     0.7680    -3.8720 C.3   1 <1>   0.0330 
  4 C       -7.5840     2.3450    -2.4970 C.ar  1 <1>  -0.1560 
  5 C       -8.3300     1.2560    -0.4960 C.ar  1 <1>  -0.1560 
  6 C       -6.7660     3.1650    -1.7400 C.ar  1 <1>  -0.1560 
  7 C       -7.5150     2.0780     0.2600 C.ar  1 <1>  -0.1560 
  8 C       -6.7080     3.0220    -0.3580 C.ar  1 <1>  -0.1490 
  9 C       -5.7280     3.8320     0.4790 C.3   1 <1>   0.3390 
 10 O       -5.7640     5.1440     0.0490 O.3   1 <1>  -0.6830 
 11 C       -4.2910     3.2920     0.3080 C.3   1 <1>   0.3490 
 12 N       -4.1250     1.8730     0.7720 N.pl3 1 <1>  -0.7670 
 13 C       -4.3940     0.7390     0.1230 C.cat 1 <1>   1.0690 
 14 C       -3.5600     1.5280     1.9920 C.ar  1 <1>   0.3040 
 15 N       -4.9910     0.6740    -1.0440 N.pl3 1 <1>  -0.8390 
 16 N       -3.9950    -0.3310     0.8220 N.pl3 1 <1>  -0.7670 
 17 C       -3.4850     0.1460     2.0280 C.ar  1 <1>   0.3040 
 18 C       -3.1160     2.2920     3.0660 C.ar  1 <1>  -0.1150 
 19 C       -4.1190    -1.7780     0.4880 C.3   1 <1>   0.3490 
 20 C       -2.9730    -0.5060     3.1460 C.ar  1 <1>  -0.1150 
 21 C       -2.6010     1.6450     4.1720 C.ar  1 <1>  -0.1560 
 22 C       -2.7420    -2.3960     0.1310 C.3   1 <1>   0.3380 
 23 C       -2.5300     0.2530     4.2130 C.ar  1 <1>  -0.1560 
 24 N       -2.7370    -3.8940    -0.0270 N.4   1 <1>  -0.9610 
 25 C       -1.3290    -4.3920    -0.1270 C.3   1 <1>   0.3380 
 26 C       -3.5350    -4.3810    -1.1970 C.3   1 <1>   0.3380 
 27 C       -1.3210    -5.9200    -0.0830 C.3   1 <1>  -0.1660 
 28 C       -3.5890    -5.9080    -1.1810 C.3   1 <1>  -0.1660 
 29 C       -2.1840    -6.5230    -1.1970 C.3   1 <1>  -0.1660 
 30 H      -10.2930     0.0340    -4.1480 H     1 <1>   0.0740 
 31 H       -8.7060     0.6930    -4.5230 H     1 <1>   0.0740 
 32 H       -9.9910     1.7520    -3.9170 H     1 <1>   0.0740 
 33 H       -7.6090     2.4740    -3.5640 H     1 <1>   0.1440 
 34 H       -8.9580     0.5210    -0.0230 H     1 <1>   0.1440 
 35 H       -6.1720     3.9160    -2.2400 H     1 <1>   0.1440 
 36 H       -7.5130     1.9680     1.3330 H     1 <1>   0.1440 
 37 H       -6.0060     3.8270     1.5190 H     1 <1>   0.0740 
 38 H       -6.6930     5.4530     0.0170 H     1 <1>   0.3950 
 39 H       -3.6170     3.9290     0.8540 H     1 <1>   0.0740 
 40 H       -4.0200     3.3540    -0.7330 H     1 <1>   0.0740 
 41 H       -5.3130    -0.1790    -1.4840 H     1 <1>   0.4460 
 42 H       -5.4910     1.4980    -1.3950 H     1 <1>   0.4460 
 43 H       -3.1720     3.3660     3.0420 H     1 <1>   0.1440 
 44 H       -4.7970    -1.9050    -0.3370 H     1 <1>   0.0740 
 45 H       -4.5310    -2.2900     1.3420 H     1 <1>   0.0740 
 46 H       -2.9220    -1.5780     3.1930 H     1 <1>   0.1440 
 47 H       -2.2490     2.2160     5.0180 H     1 <1>   0.1440 
 48 H       -2.0520    -2.1360     0.9170 H     1 <1>   0.0740 
 49 H       -2.3850    -1.9450    -0.7800 H     1 <1>   0.0740 
 50 H       -2.1280    -0.2250     5.0930 H     1 <1>   0.1440 
 51 H       -3.1250    -4.3540     0.8090 H     1 <1>   0.4460 
 52 H       -0.7400    -4.0120     0.6930 H     1 <1>   0.0740 
 53 H       -0.8840    -4.0570    -1.0500 H     1 <1>   0.0740 
 54 H       -3.0780    -4.0490    -2.1160 H     1 <1>   0.0740 
 55 H       -4.5410    -3.9960    -1.1550 H     1 <1>   0.0740 
 56 H       -1.6710    -6.2560     0.8770 H     1 <1>   0.0740 
 57 H       -0.3080    -6.2700    -0.1940 H     1 <1>   0.0740 
 58 H       -4.1330    -6.2510    -2.0450 H     1 <1>   0.0740 
 59 H       -4.1260    -6.2430    -0.3110 H     1 <1>   0.0740 
 60 H       -2.2500    -7.5920    -1.0730 H     1 <1>   0.0740 
 61 H       -1.7210    -6.3340    -2.1520 H     1 <1>   0.0740 
@<TRIPOS>BOND
  1   1   2  1   
  2   1   3  1   
  3   2   4  ar  
  4   2   5  ar  
  5   3  30  1   
  6   3  31  1   
  7   3  32  1   
  8   4   6  ar  
  9   4  33  1   
 10   5   7  ar  
 11   5  34  1   
 12   6   8  ar  
 13   6  35  1   
 14   7   8  ar  
 15   7  36  1   
 16   8   9  1   
 17   9  10  1   
 18   9  11  1   
 19   9  37  1   
 20  10  38  1   
 21  11  12  1   
 22  11  39  1   
 23  11  40  1   
 24  12  13  ar  
 25  12  14  1   
 26  13  15  ar  
 27  13  16  ar  
 28  14  17  ar  
 29  14  18  ar  
 30  15  41  1   
 31  15  42  1   
 32  16  17  1   
 33  16  19  1   
 34  17  20  ar  
 35  18  21  ar  
 36  18  43  1   
 37  19  22  1   
 38  19  44  1   
 39  19  45  1   
 40  20  23  ar  
 41  20  46  1   
 42  21  23  ar  
 43  21  47  1   
 44  22  24  1   
 45  22  48  1   
 46  22  49  1   
 47  23  50  1   
 48  24  25  1   
 49  24  26  1   
 50  24  51  1   
 51  25  27  1   
 52  25  52  1   
 53  25  53  1   
 54  26  28  1   
 55  26  54  1   
 56  26  55  1   
 57  27  29  1   
 58  27  56  1   
 59  27  57  1   
 60  28  29  1   
 61  28  58  1   
 62  28  59  1   
 63  29  60  1   
 64  29  61  1   
@<TRIPOS>SUBSTRUCTURE
  1 ****  13 GROUP 4 **** **** 0

# MOE 2024.06 (io_trps.svl 2023.06)
