@<TRIPOS>MOLECULE
NONAME
29 29 1 0 0 
SMALL
USER_CHARGES


@<TRIPOS>ATOM
  1 BR       0.3920     0.1110    -0.2470 Br    1 <1>  -0.1110 
  2 C       -1.3470     0.9370    -0.2040 C.ar  1 <1>   0.1110 
  3 C       -1.4350     2.3100    -0.3280 C.ar  1 <1>  -0.1500 
  4 C       -2.4600     0.1340    -0.0530 C.ar  1 <1>  -0.1500 
  5 C       -2.6860     2.9080    -0.3000 C.ar  1 <1>  -0.1440 
  6 C       -3.7080     0.7320    -0.0210 C.ar  1 <1>  -0.1500 
  7 C       -3.8260     2.1180    -0.1420 C.ar  1 <1>   0.0830 
  8 C       -2.7990     4.4170    -0.4450 C.3   1 <1>   0.2640 
  9 O       -5.0260     2.7580    -0.1060 O.3   1 <1>  -0.3630 
 10 O       -3.2320     4.9300     0.7600 O.3   1 <1>  -0.6800 
 11 C       -6.2410     2.0540     0.0210 C.3   1 <1>   0.1200 
 12 C       -7.3830     3.0700     0.0130 C.3   1 <1>  -0.1600 
 13 C       -8.7440     2.3760     0.1460 C.3   1 <1>  -0.1600 
 14 C       -9.8850     3.3970     0.1380 C.3   1 <1>  -0.2400 
 15 H       -0.5390     2.8930    -0.4400 H     1 <1>   0.1500 
 16 H       -2.3500    -0.9310     0.0400 H     1 <1>   0.1500 
 17 H       -4.5690     0.1040     0.1010 H     1 <1>   0.1500 
 18 H       -3.5210     4.6750    -1.2010 H     1 <1>   0.0800 
 19 H       -1.8530     4.8710    -0.6820 H     1 <1>   0.0800 
 20 H       -4.0010     4.3930     1.0420 H     1 <1>   0.4000 
 21 H       -6.2240     1.5090     0.9490 H     1 <1>   0.0800 
 22 H       -6.3290     1.3760    -0.8110 H     1 <1>   0.0800 
 23 H       -7.3530     3.6240    -0.9090 H     1 <1>   0.0800 
 24 H       -7.2490     3.7550     0.8330 H     1 <1>   0.0800 
 25 H       -8.7790     1.8160     1.0660 H     1 <1>   0.0800 
 26 H       -8.8820     1.6870    -0.6700 H     1 <1>   0.0800 
 27 H       -9.7810     4.0840     0.9600 H     1 <1>   0.0800 
 28 H      -10.8310     2.8940     0.2320 H     1 <1>   0.0800 
 29 H       -9.8850     3.9550    -0.7820 H     1 <1>   0.0800 
@<TRIPOS>BOND
  1   1   2  1   
  2   2   3  ar  
  3   2   4  ar  
  4   3   5  ar  
  5   3  15  1   
  6   4   6  ar  
  7   4  16  1   
  8   5   7  ar  
  9   5   8  1   
 10   6   7  ar  
 11   6  17  1   
 12   7   9  1   
 13   8  10  1   
 14   8  18  1   
 15   8  19  1   
 16   9  11  1   
 17  10  20  1   
 18  11  12  1   
 19  11  21  1   
 20  11  22  1   
 21  12  13  1   
 22  12  23  1   
 23  12  24  1   
 24  13  14  1   
 25  13  25  1   
 26  13  26  1   
 27  14  27  1   
 28  14  28  1   
 29  14  29  1   
@<TRIPOS>SUBSTRUCTURE
  1 ****   7 GROUP 4 **** **** 0

# MOE 2024.06 (io_trps.svl 2023.06)
