@<TRIPOS>MOLECULE
NONAME
36 37 1 0 0 
SMALL
USER_CHARGES


@<TRIPOS>ATOM
  1 S        1.0840     0.7340    -0.6320 S.3   1 <1>  -0.0800 
  2 C       -0.4920     1.2660    -0.1490 C.2   1 <1>   0.4620 
  3 C        1.4160     0.4720     1.0490 C.2   1 <1>   0.1980 
  4 N       -0.6650     1.2220     1.1220 N.2   1 <1>  -0.3380 
  5 N       -1.3740     1.6670    -1.1040 N.pl3 1 <1>  -0.8840 
  6 N        0.4320     0.7650     1.7990 N.2   1 <1>  -0.3380 
  7 C        2.7820    -0.0620     1.4370 C.3   1 <1>   0.1630 
  8 C        3.8950     0.9260     1.1090 C.ar  1 <1>  -0.1430 
  9 C        4.9650     0.5500     0.3140 C.ar  1 <1>  -0.1500 
 10 C        3.8540     2.2160     1.6110 C.ar  1 <1>  -0.1500 
 11 C        5.9900     1.4320     0.0130 C.ar  1 <1>   0.0830 
 12 C        4.8630     3.1160     1.3150 C.ar  1 <1>  -0.1500 
 13 O        6.9760     0.9010    -0.7680 O.3   1 <1>  -0.3630 
 14 C        5.9390     2.7460     0.5110 C.ar  1 <1>   0.0830 
 15 C        8.2830     1.4250    -0.7910 C.3   1 <1>   0.1200 
 16 O        6.9210     3.6400     0.1950 O.3   1 <1>  -0.3630 
 17 C        9.1990     0.3820    -1.4240 C.3   1 <1>  -0.2400 
 18 C        6.7940     5.0180     0.4540 C.3   1 <1>   0.1200 
 19 C        7.9970     5.7240    -0.1640 C.3   1 <1>  -0.2400 
 20 H       -2.3010     2.0030    -0.8370 H     1 <1>   0.4000 
 21 H       -1.1290     1.7080    -2.0940 H     1 <1>   0.4000 
 22 H        2.9450    -0.9940     0.9290 H     1 <1>   0.0800 
 23 H        2.7910    -0.2580     2.4940 H     1 <1>   0.0800 
 24 H        5.0230    -0.4460    -0.0880 H     1 <1>   0.1500 
 25 H        3.0320     2.5280     2.2340 H     1 <1>   0.1500 
 26 H        4.7840     4.1030     1.7270 H     1 <1>   0.1500 
 27 H        8.5860     1.6380     0.2190 H     1 <1>   0.0800 
 28 H        8.2760     2.3280    -1.3770 H     1 <1>   0.0800 
 29 H        9.1860    -0.5220    -0.8410 H     1 <1>   0.0800 
 30 H       10.2050     0.7560    -1.4580 H     1 <1>   0.0800 
 31 H        8.8760     0.1680    -2.4270 H     1 <1>   0.0800 
 32 H        6.7740     5.1660     1.5200 H     1 <1>   0.0800 
 33 H        5.8770     5.3670     0.0080 H     1 <1>   0.0800 
 34 H        8.9070     5.3570     0.2760 H     1 <1>   0.0800 
 35 H        7.9300     6.7820     0.0150 H     1 <1>   0.0800 
 36 H        8.0170     5.5560    -1.2260 H     1 <1>   0.0800 
@<TRIPOS>BOND
  1   1   2  1   
  2   1   3  1   
  3   2   4  2   
  4   2   5  1   
  5   3   6  2   
  6   3   7  1   
  7   4   6  1   
  8   5  20  1   
  9   5  21  1   
 10   7   8  1   
 11   7  22  1   
 12   7  23  1   
 13   8   9  ar  
 14   8  10  ar  
 15   9  11  ar  
 16   9  24  1   
 17  10  12  ar  
 18  10  25  1   
 19  11  13  1   
 20  11  14  ar  
 21  12  14  ar  
 22  12  26  1   
 23  13  15  1   
 24  14  16  1   
 25  15  17  1   
 26  15  27  1   
 27  15  28  1   
 28  16  18  1   
 29  17  29  1   
 30  17  30  1   
 31  17  31  1   
 32  18  19  1   
 33  18  32  1   
 34  18  33  1   
 35  19  34  1   
 36  19  35  1   
 37  19  36  1   
@<TRIPOS>SUBSTRUCTURE
  1 ****   8 GROUP 4 **** **** 0

# MOE 2024.06 (io_trps.svl 2023.06)
