@<TRIPOS>MOLECULE
NONAME
38 39 1 0 0 
SMALL
USER_CHARGES


@<TRIPOS>ATOM
  1 S        0.0630    -0.3130     1.8100 S.3   1 <1>  -0.0800 
  2 C        0.0420    -1.5630     0.5770 C.2   1 <1>  -0.1400 
  3 C       -1.6550    -0.4550     2.0580 C.2   1 <1>  -0.1100 
  4 C       -1.2170    -2.0320     0.3940 C.2   1 <1>  -0.1810 
  5 C        1.4270    -1.8340     0.0130 C.3   1 <1>  -0.0600 
  6 C       -2.1980    -1.3840     1.2410 C.2   1 <1>  -0.0010 
  7 C       -1.7480    -3.1260    -0.5430 C.3   1 <1>   0.0210 
  8 C       -3.6100    -1.6850     1.1950 C.2   1 <1>   0.1870 
  9 C       -0.7560    -3.7520    -1.5220 C.3   1 <1>  -0.2400 
 10 N       -4.1760    -2.7800     1.6250 N.2   1 <1>  -0.3380 
 11 N       -4.5280    -0.8510     0.6720 N.pl3 1 <1>   0.0480 
 12 N       -5.4840    -2.6860     1.3830 N.2   1 <1>  -0.3380 
 13 C       -5.6530    -1.5430     0.8220 C.2   1 <1>   0.2430 
 14 C       -4.3240     0.4770     0.0500 C.3   1 <1>   0.0960 
 15 S       -7.2530    -0.9370     0.2810 S.3   1 <1>  -0.2860 
 16 C       -3.9090     0.3300    -1.4170 C.3   1 <1>  -0.2400 
 17 C       -8.3790    -2.3670     0.6650 C.3   1 <1>   0.1310 
 18 C       -9.8210    -2.0560     0.2930 C.2   1 <1>   0.5690 
 19 O      -10.5700    -2.9610     0.0310 O.2   1 <1>  -0.5700 
 20 N      -10.2710    -0.7860     0.2630 N.am  1 <1>  -0.8000 
 21 H       -2.1000     0.1790     2.8020 H     1 <1>   0.1500 
 22 H        1.8260    -0.9290    -0.4060 H     1 <1>   0.0800 
 23 H        1.4330    -2.5840    -0.7480 H     1 <1>   0.0800 
 24 H        2.0780    -2.1570     0.8060 H     1 <1>   0.0800 
 25 H       -2.5570    -2.7150    -1.1210 H     1 <1>   0.0800 
 26 H       -2.1610    -3.9150     0.0620 H     1 <1>   0.0800 
 27 H       -0.3210    -2.9960    -2.1500 H     1 <1>   0.0800 
 28 H       -1.2670    -4.4600    -2.1490 H     1 <1>   0.0800 
 29 H        0.0130    -4.2780    -0.9850 H     1 <1>   0.0800 
 30 H       -3.5620     1.0060     0.5950 H     1 <1>   0.0800 
 31 H       -5.2360     1.0410     0.1180 H     1 <1>   0.0800 
 32 H       -2.9690    -0.1900    -1.4920 H     1 <1>   0.0800 
 33 H       -3.7910     1.3030    -1.8590 H     1 <1>   0.0800 
 34 H       -4.6610    -0.2060    -1.9700 H     1 <1>   0.0800 
 35 H       -8.2980    -2.5670     1.7170 H     1 <1>   0.0800 
 36 H       -8.0220    -3.2120     0.1060 H     1 <1>   0.0800 
 37 H      -11.2390    -0.5980     0.0010 H     1 <1>   0.3700 
 38 H       -9.6660     0.0210     0.4230 H     1 <1>   0.3700 
@<TRIPOS>BOND
  1   1   2  1   
  2   1   3  1   
  3   2   4  2   
  4   2   5  1   
  5   3   6  2   
  6   3  21  1   
  7   4   6  1   
  8   4   7  1   
  9   5  22  1   
 10   5  23  1   
 11   5  24  1   
 12   6   8  1   
 13   7   9  1   
 14   7  25  1   
 15   7  26  1   
 16   8  10  2   
 17   8  11  1   
 18   9  27  1   
 19   9  28  1   
 20   9  29  1   
 21  10  12  1   
 22  11  13  1   
 23  11  14  1   
 24  12  13  2   
 25  13  15  1   
 26  14  16  1   
 27  14  30  1   
 28  14  31  1   
 29  15  17  1   
 30  16  32  1   
 31  16  33  1   
 32  16  34  1   
 33  17  18  1   
 34  17  35  1   
 35  17  36  1   
 36  18  19  2   
 37  18  20  am  
 38  20  37  1   
 39  20  38  1   
@<TRIPOS>SUBSTRUCTURE
  1 ****  11 GROUP 4 **** **** 0

# MOE 2024.06 (io_trps.svl 2023.06)
