@<TRIPOS>MOLECULE
NONAME
49 51 1 0 0 
SMALL
USER_CHARGES


@<TRIPOS>ATOM
  1 O        1.2800    -0.2500    -1.4700 O.2   1 <1>  -0.5700 
  2 C        2.1860    -1.0400    -1.2840 C.2   1 <1>   0.5440 
  3 N        3.4750    -0.5620    -1.3720 N.am  1 <1>  -0.6600 
  4 C        1.9120    -2.4100    -0.8950 C.ar  1 <1>   0.0860 
  5 C        3.7240     0.7220    -2.0900 C.3   1 <1>   0.1400 
  6 C        4.4110    -0.7730    -0.2310 C.3   1 <1>   0.1400 
  7 C        2.6800    -3.4700    -1.3770 C.ar  1 <1>  -0.1500 
  8 C        0.8820    -2.7050    -0.0060 C.ar  1 <1>  -0.1500 
  9 C        3.5430     1.8960    -1.1130 C.3   1 <1>   0.3430 
 10 C        4.2730     0.3920     0.7740 C.3   1 <1>   0.3430 
 11 C        2.4410    -4.7750    -0.9650 C.ar  1 <1>   0.0820 
 12 C        0.6380    -3.9980     0.4180 C.ar  1 <1>   0.0820 
 13 N        4.4060     1.7370     0.1140 N.4   1 <1>  -0.9590 
 14 O        3.1570    -5.8420    -1.3980 O.3   1 <1>  -0.3630 
 15 C        1.4250    -5.0360    -0.0630 C.ar  1 <1>  -0.1500 
 16 O       -0.3760    -4.1660     1.3020 O.3   1 <1>  -0.3630 
 17 C        4.2140     2.8760     1.0590 C.3   1 <1>   0.4860 
 18 C        4.0740    -5.7330    -2.4650 C.3   1 <1>   0.0400 
 19 C       -0.7570    -5.4520     1.7400 C.3   1 <1>   0.0400 
 20 C        4.9270     4.1060     0.5000 C.ar  1 <1>   0.1670 
 21 N        6.0750     3.8790    -0.1330 N.ar  1 <1>  -0.6200 
 22 C        4.3620     5.3630     0.6610 C.ar  1 <1>  -0.1500 
 23 C        6.6860     4.9540    -0.6120 C.ar  1 <1>   0.1600 
 24 C        5.0080     6.4670     0.1510 C.ar  1 <1>  -0.1500 
 25 C        6.2020     6.2460    -0.5000 C.ar  1 <1>  -0.1500 
 26 H        3.0290     0.8250    -2.9080 H     1 <1>   0.0800 
 27 H        4.7180     0.7270    -2.5010 H     1 <1>   0.0800 
 28 H        5.4210    -0.8270    -0.5990 H     1 <1>   0.0800 
 29 H        4.1930    -1.7020     0.2680 H     1 <1>   0.0800 
 30 H        3.4640    -3.2500    -2.0760 H     1 <1>   0.1500 
 31 H        0.2570    -1.9120     0.3650 H     1 <1>   0.1500 
 32 H        2.5040     1.9340    -0.8270 H     1 <1>   0.0800 
 33 H        3.7860     2.8180    -1.6160 H     1 <1>   0.0800 
 34 H        5.0200     0.2850     1.5440 H     1 <1>   0.0800 
 35 H        3.3040     0.3170     1.2400 H     1 <1>   0.0800 
 36 H        5.3830     1.8780    -0.2030 H     1 <1>   0.4500 
 37 H        1.2690    -6.0530     0.2410 H     1 <1>   0.1500 
 38 H        4.6570     2.6370     2.0110 H     1 <1>   0.0800 
 39 H        3.1660     3.0780     1.2030 H     1 <1>   0.0800 
 40 H        4.4500    -6.7160    -2.6820 H     1 <1>   0.0800 
 41 H        4.8830    -5.0910    -2.1680 H     1 <1>   0.0800 
 42 H        3.5630    -5.3400    -3.3270 H     1 <1>   0.0800 
 43 H       -1.5940    -5.3430     2.4060 H     1 <1>   0.0800 
 44 H        0.0690    -5.9020     2.2620 H     1 <1>   0.0800 
 45 H       -1.0420    -6.0420     0.8880 H     1 <1>   0.0800 
 46 H        3.4280     5.4920     1.1800 H     1 <1>   0.1500 
 47 H        7.6240     4.8030    -1.1210 H     1 <1>   0.1500 
 48 H        4.6030     7.4600     0.2560 H     1 <1>   0.1500 
 49 H        6.7570     7.0680    -0.9170 H     1 <1>   0.1500 
@<TRIPOS>BOND
  1   1   2  2   
  2   2   3  am  
  3   2   4  1   
  4   3   5  1   
  5   3   6  1   
  6   4   7  ar  
  7   4   8  ar  
  8   5   9  1   
  9   5  26  1   
 10   5  27  1   
 11   6  10  1   
 12   6  28  1   
 13   6  29  1   
 14   7  11  ar  
 15   7  30  1   
 16   8  12  ar  
 17   8  31  1   
 18   9  13  1   
 19   9  32  1   
 20   9  33  1   
 21  10  13  1   
 22  10  34  1   
 23  10  35  1   
 24  11  14  1   
 25  11  15  ar  
 26  12  15  ar  
 27  12  16  1   
 28  13  17  1   
 29  13  36  1   
 30  14  18  1   
 31  15  37  1   
 32  16  19  1   
 33  17  20  1   
 34  17  38  1   
 35  17  39  1   
 36  18  40  1   
 37  18  41  1   
 38  18  42  1   
 39  19  43  1   
 40  19  44  1   
 41  19  45  1   
 42  20  21  ar  
 43  20  22  ar  
 44  21  23  ar  
 45  22  24  ar  
 46  22  46  1   
 47  23  25  ar  
 48  23  47  1   
 49  24  25  ar  
 50  24  48  1   
 51  25  49  1   
@<TRIPOS>SUBSTRUCTURE
  1 ****   3 GROUP 4 **** **** 0

# MOE 2024.06 (io_trps.svl 2023.06)
