@<TRIPOS>MOLECULE
NONAME
51 53 1 0 0 
SMALL
USER_CHARGES


@<TRIPOS>ATOM
  1 BR       0.8030    -0.1990    -2.3240 Br    1 <1>  -0.1110 
  2 C       -0.0110    -1.3490    -1.0060 C.ar  1 <1>   0.1110 
  3 C        0.5350    -1.4430     0.2680 C.ar  1 <1>   0.0820 
  4 C       -1.1380    -2.0590    -1.3730 C.ar  1 <1>  -0.1500 
  5 O        1.6330    -0.7420     0.6260 O.3   1 <1>  -0.3630 
  6 C       -0.0820    -2.2650     1.1960 C.ar  1 <1>  -0.1500 
  7 C       -1.7490    -2.8860    -0.4400 C.ar  1 <1>  -0.1440 
  8 C        2.8710    -1.3610     0.3640 C.3   1 <1>   0.0400 
  9 C       -1.2150    -2.9830     0.8400 C.ar  1 <1>  -0.1500 
 10 C       -2.9950    -3.6790    -0.8100 C.3   1 <1>   0.2540 
 11 N       -4.1380    -3.2980     0.0470 N.3   1 <1>  -0.8100 
 12 C       -5.3050    -4.1660    -0.1970 C.3   1 <1>   0.1100 
 13 C       -4.4880    -1.8670    -0.0890 C.3   1 <1>   0.1100 
 14 C       -6.4730    -3.8120     0.7460 C.3   1 <1>   0.3430 
 15 C       -5.6450    -1.4830     0.8550 C.3   1 <1>   0.3430 
 16 N       -6.8500    -2.3580     0.6480 N.4   1 <1>  -0.9590 
 17 C       -7.9480    -1.9950     1.5680 C.3   1 <1>   0.4810 
 18 C       -9.2100    -2.6080     1.0130 C.2   1 <1>  -0.2880 
 19 C      -10.1630    -1.9300     0.3500 C.2   1 <1>  -0.1780 
 20 C      -11.3890    -2.4540    -0.2110 C.ar  1 <1>   0.0280 
 21 C      -12.0800    -1.7230    -1.1750 C.ar  1 <1>  -0.1500 
 22 C      -11.9250    -3.6810     0.1760 C.ar  1 <1>  -0.1500 
 23 C      -13.2500    -2.1990    -1.7370 C.ar  1 <1>  -0.1500 
 24 C      -13.0950    -4.1630    -0.3830 C.ar  1 <1>  -0.1500 
 25 C      -13.7590    -3.4230    -1.3430 C.ar  1 <1>  -0.1500 
 26 H       -1.5220    -1.9590    -2.3720 H     1 <1>   0.1500 
 27 H        0.3240    -2.3390     2.1890 H     1 <1>   0.1500 
 28 H        3.6530    -0.7020     0.6960 H     1 <1>   0.0800 
 29 H        2.9600    -1.5340    -0.6940 H     1 <1>   0.0800 
 30 H        2.9170    -2.2910     0.9030 H     1 <1>   0.0800 
 31 H       -1.6880    -3.6200     1.5680 H     1 <1>   0.1500 
 32 H       -2.7810    -4.7260    -0.6760 H     1 <1>   0.0800 
 33 H       -3.2420    -3.5200    -1.8460 H     1 <1>   0.0800 
 34 H       -5.6270    -4.0770    -1.2210 H     1 <1>   0.0800 
 35 H       -5.0250    -5.1920    -0.0260 H     1 <1>   0.0800 
 36 H       -3.6350    -1.2600     0.1670 H     1 <1>   0.0800 
 37 H       -4.7570    -1.6450    -1.1070 H     1 <1>   0.0800 
 38 H       -6.1720    -4.0410     1.7550 H     1 <1>   0.0800 
 39 H       -7.3210    -4.4300     0.5020 H     1 <1>   0.0800 
 40 H       -5.9050    -0.4500     0.6900 H     1 <1>   0.0800 
 41 H       -5.2950    -1.5800     1.8690 H     1 <1>   0.0800 
 42 H       -7.2040    -2.1980    -0.3030 H     1 <1>   0.4500 
 43 H       -7.7530    -2.3500     2.5680 H     1 <1>   0.0800 
 44 H       -8.0610    -0.9230     1.5970 H     1 <1>   0.0800 
 45 H       -9.2800    -3.6640     1.2010 H     1 <1>   0.1500 
 46 H      -10.0500    -0.8720     0.1840 H     1 <1>   0.1500 
 47 H      -11.7010    -0.7690    -1.4950 H     1 <1>   0.1500 
 48 H      -11.4360    -4.2710     0.9280 H     1 <1>   0.1500 
 49 H      -13.7670    -1.6190    -2.4820 H     1 <1>   0.1500 
 50 H      -13.4930    -5.1130    -0.0710 H     1 <1>   0.1500 
 51 H      -14.6700    -3.7960    -1.7800 H     1 <1>   0.1500 
@<TRIPOS>BOND
  1   1   2  1   
  2   2   3  ar  
  3   2   4  ar  
  4   3   5  1   
  5   3   6  ar  
  6   4   7  ar  
  7   4  26  1   
  8   5   8  1   
  9   6   9  ar  
 10   6  27  1   
 11   7   9  ar  
 12   7  10  1   
 13   8  28  1   
 14   8  29  1   
 15   8  30  1   
 16   9  31  1   
 17  10  11  1   
 18  10  32  1   
 19  10  33  1   
 20  11  12  1   
 21  11  13  1   
 22  12  14  1   
 23  12  34  1   
 24  12  35  1   
 25  13  15  1   
 26  13  36  1   
 27  13  37  1   
 28  14  16  1   
 29  14  38  1   
 30  14  39  1   
 31  15  16  1   
 32  15  40  1   
 33  15  41  1   
 34  16  17  1   
 35  16  42  1   
 36  17  18  1   
 37  17  43  1   
 38  17  44  1   
 39  18  19  2   
 40  18  45  1   
 41  19  20  1   
 42  19  46  1   
 43  20  21  ar  
 44  20  22  ar  
 45  21  23  ar  
 46  21  47  1   
 47  22  24  ar  
 48  22  48  1   
 49  23  25  ar  
 50  23  49  1   
 51  24  25  ar  
 52  24  50  1   
 53  25  51  1   
@<TRIPOS>SUBSTRUCTURE
  1 ****  13 GROUP 4 **** **** 0

# MOE 2024.06 (io_trps.svl 2023.06)
