@<TRIPOS>MOLECULE
NONAME
37 38 1 0 0 
SMALL
USER_CHARGES


@<TRIPOS>ATOM
  1 CL      -0.8710    -0.0550    -1.1410 Cl    1 <1>  -0.1770 
  2 C       -0.3860     1.4460    -0.3780 C.ar  1 <1>   0.1770 
  3 C       -1.3630     2.3860    -0.0420 C.ar  1 <1>   0.1170 
  4 C        0.9570     1.6550    -0.1340 C.ar  1 <1>  -0.1500 
  5 N       -2.7140     2.1050    -0.3240 N.am  1 <1>  -0.5470 
  6 C       -0.9380     3.5760     0.5490 C.ar  1 <1>  -0.1500 
  7 C        1.3380     2.8410     0.4600 C.ar  1 <1>   0.1770 
  8 C       -3.8670     2.6220     0.1810 C.2   1 <1>   0.6900 
  9 C        0.4050     3.8030     0.8020 C.ar  1 <1>  -0.1500 
 10 CL       3.0300     3.1330     0.7810 Cl    1 <1>  -0.1770 
 11 O       -3.8780     3.4430     1.0760 O.2   1 <1>  -0.5700 
 12 N       -5.0400     2.1890    -0.3450 N.am  1 <1>  -0.7300 
 13 C       -6.3510     2.6290     0.1520 C.3   1 <1>   0.2200 
 14 C       -7.3840     1.5250    -0.0570 C.3   1 <1>  -0.1600 
 15 C       -6.7660     3.9050    -0.5770 C.3   1 <1>  -0.1600 
 16 C       -8.7620     2.0020     0.3980 C.3   1 <1>   0.3430 
 17 C       -8.1470     4.3530    -0.1110 C.3   1 <1>   0.3430 
 18 N       -9.1360     3.2530    -0.3290 N.4   1 <1>  -0.9590 
 19 C      -10.5100     3.6990     0.0590 C.3   1 <1>   0.2630 
 20 H        1.6890     0.9150    -0.3990 H     1 <1>   0.1500 
 21 H       -2.8460     1.2720    -0.8940 H     1 <1>   0.3700 
 22 H       -1.6520     4.3350     0.8150 H     1 <1>   0.1500 
 23 H        0.7290     4.7200     1.2620 H     1 <1>   0.1500 
 24 H       -5.0240     1.6300    -1.1950 H     1 <1>   0.3700 
 25 H       -6.2700     2.8370     1.2080 H     1 <1>   0.0800 
 26 H       -7.1050     0.6640     0.5260 H     1 <1>   0.0800 
 27 H       -7.4270     1.2340    -1.0910 H     1 <1>   0.0800 
 28 H       -6.7720     3.7520    -1.6410 H     1 <1>   0.0800 
 29 H       -6.0570     4.6840    -0.3530 H     1 <1>   0.0800 
 30 H       -8.7420     2.1900     1.4600 H     1 <1>   0.0800 
 31 H       -9.4900     1.2300     0.2060 H     1 <1>   0.0800 
 32 H       -8.4420     5.2330    -0.6590 H     1 <1>   0.0800 
 33 H       -8.1050     4.6050     0.9370 H     1 <1>   0.0800 
 34 H       -9.1400     3.0390    -1.3370 H     1 <1>   0.4500 
 35 H      -10.5450     3.9360     1.1100 H     1 <1>   0.0800 
 36 H      -11.2280     2.9200    -0.1430 H     1 <1>   0.0800 
 37 H      -10.7910     4.5760    -0.5010 H     1 <1>   0.0800 
@<TRIPOS>BOND
  1   1   2  1   
  2   2   3  ar  
  3   2   4  ar  
  4   3   5  1   
  5   3   6  ar  
  6   4   7  ar  
  7   4  20  1   
  8   5   8  am  
  9   5  21  1   
 10   6   9  ar  
 11   6  22  1   
 12   7   9  ar  
 13   7  10  1   
 14   8  11  2   
 15   8  12  am  
 16   9  23  1   
 17  12  13  1   
 18  12  24  1   
 19  13  14  1   
 20  13  15  1   
 21  13  25  1   
 22  14  16  1   
 23  14  26  1   
 24  14  27  1   
 25  15  17  1   
 26  15  28  1   
 27  15  29  1   
 28  16  18  1   
 29  16  30  1   
 30  16  31  1   
 31  17  18  1   
 32  17  32  1   
 33  17  33  1   
 34  18  19  1   
 35  18  34  1   
 36  19  35  1   
 37  19  36  1   
 38  19  37  1   
@<TRIPOS>SUBSTRUCTURE
  1 ****   8 GROUP 4 **** **** 0

# MOE 2024.06 (io_trps.svl 2023.06)
