@<TRIPOS>MOLECULE
NONAME
40 41 1 0 0 
SMALL
USER_CHARGES


@<TRIPOS>ATOM
  1 O       -0.8830     0.0220     0.4820 O.3   1 <1>  -0.5600 
  2 C       -2.0210    -0.7840     0.3900 C.3   1 <1>   0.1200 
  3 C       -0.8590     1.1110    -0.3950 C.3   1 <1>   0.1200 
  4 C       -3.2870     0.0440     0.6850 C.3   1 <1>   0.3430 
  5 C       -2.0680     2.0300    -0.1330 C.3   1 <1>   0.3430 
  6 N       -3.3670     1.2710    -0.1890 N.4   1 <1>  -0.9590 
  7 C       -4.5140     2.1540     0.1670 C.3   1 <1>   0.3430 
  8 C       -5.8350     1.4850    -0.2020 C.3   1 <1>  -0.1600 
  9 C       -7.0110     2.4220     0.0700 C.3   1 <1>   0.1200 
 10 O       -8.1810     1.7280    -0.2810 O.3   1 <1>  -0.3630 
 11 C       -9.4040     2.3030    -0.1420 C.ar  1 <1>   0.0820 
 12 C      -10.4970     1.5350    -0.5130 C.ar  1 <1>  -0.1500 
 13 C       -9.6070     3.5920     0.3430 C.ar  1 <1>  -0.1500 
 14 C      -11.7820     2.0370    -0.4050 C.ar  1 <1>  -0.1500 
 15 C      -10.8920     4.0940     0.4510 C.ar  1 <1>  -0.1500 
 16 C      -11.9850     3.3260     0.0800 C.ar  1 <1>   0.0820 
 17 O      -13.2080     3.9000     0.2200 O.3   1 <1>  -0.3620 
 18 C      -14.3820     3.2010    -0.1290 C.3   1 <1>   0.0400 
 19 H       -1.9190    -1.5760     1.1110 H     1 <1>   0.0800 
 20 H       -2.0600    -1.2210    -0.5940 H     1 <1>   0.0800 
 21 H       -0.8570     0.7430    -1.4060 H     1 <1>   0.0800 
 22 H        0.0590     1.6470    -0.2240 H     1 <1>   0.0800 
 23 H       -3.2640     0.3370     1.7220 H     1 <1>   0.0800 
 24 H       -4.1550    -0.5760     0.5360 H     1 <1>   0.0800 
 25 H       -2.0720     2.8250    -0.8610 H     1 <1>   0.0800 
 26 H       -1.9470     2.4740     0.8420 H     1 <1>   0.0800 
 27 H       -3.4950     0.9510    -1.1590 H     1 <1>   0.4500 
 28 H       -4.4330     3.0840    -0.3740 H     1 <1>   0.0800 
 29 H       -4.4950     2.3760     1.2220 H     1 <1>   0.0800 
 30 H       -5.9800     0.5940     0.3830 H     1 <1>   0.0800 
 31 H       -5.8380     1.2340    -1.2480 H     1 <1>   0.0800 
 32 H       -6.9530     3.3110    -0.5340 H     1 <1>   0.0800 
 33 H       -7.0750     2.6780     1.1150 H     1 <1>   0.0800 
 34 H      -10.3360     0.5400    -0.8880 H     1 <1>   0.1500 
 35 H       -8.7910     4.2210     0.6410 H     1 <1>   0.1500 
 36 H      -12.6050     1.4150    -0.7020 H     1 <1>   0.1500 
 37 H      -11.0590     5.0880     0.8240 H     1 <1>   0.1500 
 38 H      -15.2220     3.8440     0.0630 H     1 <1>   0.0800 
 39 H      -14.4530     2.3150     0.4760 H     1 <1>   0.0800 
 40 H      -14.3430     2.9540    -1.1750 H     1 <1>   0.0800 
@<TRIPOS>BOND
  1   1   2  1   
  2   1   3  1   
  3   2   4  1   
  4   2  19  1   
  5   2  20  1   
  6   3   5  1   
  7   3  21  1   
  8   3  22  1   
  9   4   6  1   
 10   4  23  1   
 11   4  24  1   
 12   5   6  1   
 13   5  25  1   
 14   5  26  1   
 15   6   7  1   
 16   6  27  1   
 17   7   8  1   
 18   7  28  1   
 19   7  29  1   
 20   8   9  1   
 21   8  30  1   
 22   8  31  1   
 23   9  10  1   
 24   9  32  1   
 25   9  33  1   
 26  10  11  1   
 27  11  12  ar  
 28  11  13  ar  
 29  12  14  ar  
 30  12  34  1   
 31  13  15  ar  
 32  13  35  1   
 33  14  16  ar  
 34  14  36  1   
 35  15  16  ar  
 36  15  37  1   
 37  16  17  1   
 38  17  18  1   
 39  18  38  1   
 40  18  39  1   
 41  18  40  1   
@<TRIPOS>SUBSTRUCTURE
  1 ****   9 GROUP 4 **** **** 0

# MOE 2024.06 (io_trps.svl 2023.06)
