@<TRIPOS>MOLECULE
NONAME
44 47 1 0 0 
SMALL
USER_CHARGES


@<TRIPOS>ATOM
  1 S        0.1060     0.0200    -0.6840 S.3   1 <1>  -0.0800 
  2 C       -1.6050    -0.1360    -0.3460 C.2   1 <1>   0.1240 
  3 C        0.3450    -1.6790    -0.2830 C.2   1 <1>  -0.1400 
  4 N       -2.5140     0.8610    -0.4530 N.pl3 1 <1>  -0.5340 
  5 C       -1.9480    -1.3850     0.0450 C.2   1 <1>  -0.0860 
  6 C       -0.8070    -2.2640     0.0850 C.2   1 <1>  -0.1810 
  7 C        1.7190    -2.3050    -0.3720 C.3   1 <1>   0.0200 
  8 C       -3.8360     0.6160    -0.1710 C.2   1 <1>   0.4140 
  9 C       -3.3330    -1.5850     0.3360 C.2   1 <1>   0.8670 
 10 C       -0.8630    -3.7280     0.4940 C.3   1 <1>   0.0210 
 11 C        1.5770    -3.8370    -0.3000 C.3   1 <1>  -0.1600 
 12 N       -4.2360    -0.5580     0.2170 N.2   1 <1>  -0.6610 
 13 C       -4.7720     1.7130    -0.3090 C.ar  1 <1>   0.0860 
 14 O       -3.7560    -2.6740     0.7010 O.2   1 <1>  -0.5700 
 15 C        0.5530    -4.2760     0.7690 C.3   1 <1>  -0.1600 
 16 C       -5.8280     1.8760     0.5900 C.ar  1 <1>  -0.1500 
 17 C       -4.6600     2.6540    -1.3370 C.ar  1 <1>  -0.1500 
 18 C       -6.7160     2.9300     0.4880 C.ar  1 <1>  -0.1500 
 19 C       -5.5430     3.7110    -1.4430 C.ar  1 <1>  -0.1500 
 20 C       -6.5760     3.8650    -0.5330 C.ar  1 <1>   0.0820 
 21 O       -7.3880     4.9330    -0.7120 O.3   1 <1>  -0.3630 
 22 C       -8.4580     5.2570     0.1480 C.3   1 <1>   0.2000 
 23 C       -9.3990     6.1710    -0.6340 C.3   1 <1>  -0.2400 
 24 C       -7.9010     5.9680     1.3840 C.3   1 <1>  -0.2400 
 25 H       -2.2130     1.8030    -0.7080 H     1 <1>   0.4000 
 26 H        2.3170    -1.9490     0.4480 H     1 <1>   0.0800 
 27 H        2.1960    -2.0240    -1.2940 H     1 <1>   0.0800 
 28 H       -1.3270    -4.2900    -0.2980 H     1 <1>   0.0800 
 29 H       -1.4630    -3.8410     1.3800 H     1 <1>   0.0800 
 30 H        2.5370    -4.2760    -0.0930 H     1 <1>   0.0800 
 31 H        1.2480    -4.2000    -1.2590 H     1 <1>   0.0800 
 32 H        0.5140    -5.3510     0.8170 H     1 <1>   0.0800 
 33 H        0.8810    -3.9170     1.7290 H     1 <1>   0.0800 
 34 H       -5.9480     1.1570     1.3830 H     1 <1>   0.1500 
 35 H       -3.8800     2.5530    -2.0700 H     1 <1>   0.1500 
 36 H       -7.5070     3.0060     1.2090 H     1 <1>   0.1500 
 37 H       -5.4440     4.4290    -2.2380 H     1 <1>   0.1500 
 38 H       -8.9810     4.3550     0.4110 H     1 <1>   0.0800 
 39 H       -8.8860     7.0660    -0.9380 H     1 <1>   0.0800 
 40 H      -10.2390     6.4450    -0.0220 H     1 <1>   0.0800 
 41 H       -9.7650     5.6580    -1.5050 H     1 <1>   0.0800 
 42 H       -7.3730     6.8580     1.0940 H     1 <1>   0.0800 
 43 H       -7.2340     5.3240     1.9260 H     1 <1>   0.0800 
 44 H       -8.7070     6.2460     2.0390 H     1 <1>   0.0800 
@<TRIPOS>BOND
  1   1   2  1   
  2   1   3  1   
  3   2   4  1   
  4   2   5  2   
  5   3   6  2   
  6   3   7  1   
  7   4   8  1   
  8   4  25  1   
  9   5   6  1   
 10   5   9  1   
 11   6  10  1   
 12   7  11  1   
 13   7  26  1   
 14   7  27  1   
 15   8  12  2   
 16   8  13  1   
 17   9  12  1   
 18   9  14  2   
 19  10  15  1   
 20  10  28  1   
 21  10  29  1   
 22  11  15  1   
 23  11  30  1   
 24  11  31  1   
 25  13  16  ar  
 26  13  17  ar  
 27  15  32  1   
 28  15  33  1   
 29  16  18  ar  
 30  16  34  1   
 31  17  19  ar  
 32  17  35  1   
 33  18  20  ar  
 34  18  36  1   
 35  19  20  ar  
 36  19  37  1   
 37  20  21  1   
 38  21  22  1   
 39  22  23  1   
 40  22  24  1   
 41  22  38  1   
 42  23  39  1   
 43  23  40  1   
 44  23  41  1   
 45  24  42  1   
 46  24  43  1   
 47  24  44  1   
@<TRIPOS>SUBSTRUCTURE
  1 ****   8 GROUP 4 **** **** 0

# MOE 2024.06 (io_trps.svl 2023.06)
