@<TRIPOS>MOLECULE
NONAME
53 54 1 0 0 
SMALL
USER_CHARGES


@<TRIPOS>ATOM
  1 O       -0.8680     2.9340     0.2850 O.2   1 <1>  -0.5700 
  2 C       -0.5900     1.7790     0.0670 C.2   1 <1>   0.5690 
  3 N       -1.5210     0.8000    -0.1360 N.am  1 <1>  -0.5470 
  4 C        0.8870     1.3690     0.0170 C.3   1 <1>  -0.0190 
  5 C       -2.9300     0.7910    -0.1650 C.ar  1 <1>   0.1170 
  6 C        1.5830     1.6020     1.3680 C.3   1 <1>  -0.2400 
  7 C        1.6410     2.1110    -1.0990 C.3   1 <1>  -0.2400 
  8 C       -3.5760    -0.4400    -0.3240 C.ar  1 <1>   0.0820 
  9 C       -3.7080     1.9370    -0.0490 C.ar  1 <1>  -0.1500 
 10 O       -2.7810    -1.5480    -0.4420 O.3   1 <1>  -0.3620 
 11 C       -4.9640    -0.5020    -0.3570 C.ar  1 <1>  -0.1500 
 12 C       -5.0880     1.8650    -0.0850 C.ar  1 <1>  -0.1500 
 13 C       -3.3330    -2.8320    -0.6420 C.3   1 <1>   0.0400 
 14 C       -5.7360     0.6460    -0.2400 C.ar  1 <1>   0.1170 
 15 N       -7.1360     0.5220    -0.2700 N.am  1 <1>  -0.5470 
 16 C       -8.1320     1.4230    -0.5320 C.2   1 <1>   0.5690 
 17 O       -7.9360     2.5810    -0.8140 O.2   1 <1>  -0.5700 
 18 C       -9.5730     0.9350    -0.4740 C.3   1 <1>   0.1810 
 19 O       -9.6320    -0.4590    -0.1950 O.3   1 <1>  -0.3630 
 20 C      -10.8230    -1.1020    -0.0960 C.ar  1 <1>   0.0820 
 21 C      -12.0560    -0.4790    -0.2710 C.ar  1 <1>  -0.1500 
 22 C      -10.7780    -2.4550     0.1970 C.ar  1 <1>  -0.1500 
 23 C      -13.2280    -1.2090    -0.1540 C.ar  1 <1>  -0.1440 
 24 C      -11.9440    -3.1910     0.3190 C.ar  1 <1>  -0.1440 
 25 C      -13.1650    -2.5610     0.1410 C.ar  1 <1>  -0.1500 
 26 C      -14.5780    -0.5400    -0.3430 C.3   1 <1>  -0.0970 
 27 C      -11.8970    -4.6740     0.6400 C.3   1 <1>  -0.0970 
 28 H       -1.1480    -0.1390    -0.2800 H     1 <1>   0.3700 
 29 H        0.9380     0.3170    -0.1990 H     1 <1>   0.0800 
 30 H        1.5690     2.6500     1.6170 H     1 <1>   0.0800 
 31 H        2.6040     1.2690     1.3310 H     1 <1>   0.0800 
 32 H        1.0720     1.0630     2.1460 H     1 <1>   0.0800 
 33 H        1.6300     3.1710    -0.9130 H     1 <1>   0.0800 
 34 H        1.1690     1.9290    -2.0480 H     1 <1>   0.0800 
 35 H        2.6620     1.7780    -1.1520 H     1 <1>   0.0800 
 36 H       -3.2440     2.8980     0.0700 H     1 <1>   0.1500 
 37 H       -5.4720    -1.4380    -0.4780 H     1 <1>   0.1500 
 38 H       -5.6570     2.7720     0.0130 H     1 <1>   0.1500 
 39 H       -2.5250    -3.5360    -0.7210 H     1 <1>   0.0800 
 40 H       -3.9040    -2.8290    -1.5550 H     1 <1>   0.0800 
 41 H       -3.9530    -3.0820     0.2010 H     1 <1>   0.0800 
 42 H       -7.4990    -0.4180    -0.0940 H     1 <1>   0.3700 
 43 H      -10.0440     1.1140    -1.4230 H     1 <1>   0.0800 
 44 H      -10.0940     1.4610     0.3040 H     1 <1>   0.0800 
 45 H      -12.1250     0.5670    -0.4980 H     1 <1>   0.1500 
 46 H       -9.8220    -2.9270     0.3290 H     1 <1>   0.1500 
 47 H      -14.0740    -3.1290     0.2340 H     1 <1>   0.1500 
 48 H      -14.4790     0.3680    -0.9100 H     1 <1>   0.0800 
 49 H      -15.0040    -0.3060     0.6160 H     1 <1>   0.0800 
 50 H      -15.2470    -1.1960    -0.8700 H     1 <1>   0.0800 
 51 H      -10.9190    -4.9620     0.9790 H     1 <1>   0.0800 
 52 H      -12.1410    -5.2440    -0.2380 H     1 <1>   0.0800 
 53 H      -12.6070    -4.9060     1.4140 H     1 <1>   0.0800 
@<TRIPOS>BOND
  1   1   2  2   
  2   2   3  am  
  3   2   4  1   
  4   3   5  1   
  5   3  28  1   
  6   4   6  1   
  7   4   7  1   
  8   4  29  1   
  9   5   8  ar  
 10   5   9  ar  
 11   6  30  1   
 12   6  31  1   
 13   6  32  1   
 14   7  33  1   
 15   7  34  1   
 16   7  35  1   
 17   8  10  1   
 18   8  11  ar  
 19   9  12  ar  
 20   9  36  1   
 21  10  13  1   
 22  11  14  ar  
 23  11  37  1   
 24  12  14  ar  
 25  12  38  1   
 26  13  39  1   
 27  13  40  1   
 28  13  41  1   
 29  14  15  1   
 30  15  16  am  
 31  15  42  1   
 32  16  17  2   
 33  16  18  1   
 34  18  19  1   
 35  18  43  1   
 36  18  44  1   
 37  19  20  1   
 38  20  21  ar  
 39  20  22  ar  
 40  21  23  ar  
 41  21  45  1   
 42  22  24  ar  
 43  22  46  1   
 44  23  25  ar  
 45  23  26  1   
 46  24  25  ar  
 47  24  27  1   
 48  25  47  1   
 49  26  48  1   
 50  26  49  1   
 51  26  50  1   
 52  27  51  1   
 53  27  52  1   
 54  27  53  1   
@<TRIPOS>SUBSTRUCTURE
  1 ****  14 GROUP 4 **** **** 0

# MOE 2024.06 (io_trps.svl 2023.06)
