@<TRIPOS>MOLECULE
NONAME
36 37 1 0 0 
SMALL
USER_CHARGES


@<TRIPOS>ATOM
  1 CL      -1.6160     3.1780     2.8490 Cl    1 <1>  -0.1770 
  2 C       -0.9000     3.0830     1.2570 C.ar  1 <1>   0.1770 
  3 C       -1.5570     2.4460     0.2000 C.ar  1 <1>   0.0860 
  4 C        0.3480     3.6600     1.1080 C.ar  1 <1>  -0.1500 
  5 C       -2.8690     1.8380     0.3050 C.2   1 <1>   0.5440 
  6 C       -0.8790     2.4090    -1.0220 C.ar  1 <1>  -0.1500 
  7 C        0.9880     3.6110    -0.1170 C.ar  1 <1>  -0.1500 
  8 O       -3.1100     0.8060    -0.3040 O.2   1 <1>  -0.5700 
  9 N       -3.8680     2.3970     1.0510 N.am  1 <1>  -0.4300 
 10 C        0.3700     2.9810    -1.1830 C.ar  1 <1>  -0.1500 
 11 N       -5.2830     2.0250     0.9660 N.am  1 <1>  -0.4300 
 12 C       -6.2160     2.6700     0.2160 C.2   1 <1>   0.5690 
 13 O       -6.0110     3.7620    -0.2690 O.2   1 <1>  -0.5700 
 14 C       -7.5720     2.0050    -0.0140 C.3   1 <1>  -0.0190 
 15 C       -8.3460     1.8050     1.3050 C.3   1 <1>  -0.1600 
 16 C       -7.4280     0.6710    -0.7740 C.3   1 <1>  -0.1600 
 17 C       -9.7080     1.1410     1.0600 C.3   1 <1>  -0.1600 
 18 C       -8.7930     0.0100    -1.0120 C.3   1 <1>  -0.1600 
 19 C       -9.5530    -0.1860     0.3060 C.3   1 <1>  -0.1600 
 20 H        0.8180     4.1420     1.9470 H     1 <1>   0.1500 
 21 H       -1.3480     1.9190    -1.8600 H     1 <1>   0.1500 
 22 H        1.9600     4.0580    -0.2420 H     1 <1>   0.1500 
 23 H       -3.6570     3.2190     1.6290 H     1 <1>   0.3700 
 24 H        0.8630     2.9360    -2.1400 H     1 <1>   0.1500 
 25 H       -5.5130     1.0990     1.3390 H     1 <1>   0.3700 
 26 H       -8.1470     2.6720    -0.6320 H     1 <1>   0.0800 
 27 H       -8.4950     2.7590     1.7800 H     1 <1>   0.0800 
 28 H       -7.7740     1.1880     1.9770 H     1 <1>   0.0800 
 29 H       -6.8040    -0.0060    -0.2170 H     1 <1>   0.0800 
 30 H       -6.9480     0.8500    -1.7210 H     1 <1>   0.0800 
 31 H      -10.3310     1.8060     0.4850 H     1 <1>   0.0800 
 32 H      -10.1990     0.9650     2.0020 H     1 <1>   0.0800 
 33 H       -8.6520    -0.9430    -1.4930 H     1 <1>   0.0800 
 34 H       -9.3780     0.6270    -1.6720 H     1 <1>   0.0800 
 35 H      -10.5250    -0.6000     0.1020 H     1 <1>   0.0800 
 36 H       -9.0200    -0.8890     0.9240 H     1 <1>   0.0800 
@<TRIPOS>BOND
  1   1   2  1   
  2   2   3  ar  
  3   2   4  ar  
  4   3   5  1   
  5   3   6  ar  
  6   4   7  ar  
  7   4  20  1   
  8   5   8  2   
  9   5   9  am  
 10   6  10  ar  
 11   6  21  1   
 12   7  10  ar  
 13   7  22  1   
 14   9  11  1   
 15   9  23  1   
 16  10  24  1   
 17  11  12  am  
 18  11  25  1   
 19  12  13  2   
 20  12  14  1   
 21  14  15  1   
 22  14  16  1   
 23  14  26  1   
 24  15  17  1   
 25  15  27  1   
 26  15  28  1   
 27  16  18  1   
 28  16  29  1   
 29  16  30  1   
 30  17  19  1   
 31  17  31  1   
 32  17  32  1   
 33  18  19  1   
 34  18  33  1   
 35  18  34  1   
 36  19  35  1   
 37  19  36  1   
@<TRIPOS>SUBSTRUCTURE
  1 ****   9 GROUP 4 **** **** 0

# MOE 2024.06 (io_trps.svl 2023.06)
