@<TRIPOS>MOLECULE
NONAME
37 38 1 0 0 
SMALL
USER_CHARGES


@<TRIPOS>ATOM
  1 O       -0.0690    -1.7670     2.6040 O.3   1 <1>  -0.6800 
  2 C        0.1090    -2.3370     1.3680 C.3   1 <1>   0.6240 
  3 C        1.5840    -2.4370     1.1830 C.1   1 <1>  -0.2000 
  4 C       -0.4300    -1.4180     0.2560 C.ar  1 <1>  -0.1440 
  5 C       -0.5670    -3.7030     1.4120 C.3   1 <1>  -0.2400 
  6 C        2.7200    -2.2650     0.8780 C.1   1 <1>  -0.2000 
  7 C       -0.3930    -1.8490    -1.0680 C.ar  1 <1>  -0.1500 
  8 C       -0.9230    -0.1410     0.5140 C.ar  1 <1>  -0.1500 
  9 C        4.0040    -1.7530     0.3370 C.3   1 <1>   0.5430 
 10 C       -0.8260    -1.0330    -2.0990 C.ar  1 <1>  -0.1500 
 11 C       -1.3550     0.6770    -0.5150 C.ar  1 <1>  -0.1500 
 12 N        3.7720    -0.3250    -0.0090 N.4   1 <1>  -0.9590 
 13 C       -1.3060     0.2340    -1.8230 C.ar  1 <1>  -0.1500 
 14 C        2.7240    -0.1100    -1.0450 C.3   1 <1>   0.3430 
 15 C        4.9750     0.3990    -0.4710 C.3   1 <1>   0.3430 
 16 C        2.9880     1.2950    -1.5670 C.3   1 <1>  -0.1600 
 17 C        4.4190     1.6450    -1.1470 C.3   1 <1>  -0.1600 
 18 H        0.3220    -2.3590     3.2690 H     1 <1>   0.4000 
 19 H       -0.1780    -4.2960     2.2200 H     1 <1>   0.0800 
 20 H       -0.3960    -4.2350     0.4950 H     1 <1>   0.0800 
 21 H       -1.6270    -3.5770     1.5360 H     1 <1>   0.0800 
 22 H       -0.0230    -2.8300    -1.3120 H     1 <1>   0.1500 
 23 H       -0.9770     0.2330     1.5230 H     1 <1>   0.1500 
 24 H        4.2900    -2.3130    -0.5380 H     1 <1>   0.0800 
 25 H        4.7770    -1.8400     1.0840 H     1 <1>   0.0800 
 26 H       -0.7990    -1.3850    -3.1160 H     1 <1>   0.1500 
 27 H       -1.7380     1.6590    -0.2940 H     1 <1>   0.1500 
 28 H        3.4210     0.1300     0.8430 H     1 <1>   0.4500 
 29 H       -1.6500     0.8690    -2.6220 H     1 <1>   0.1500 
 30 H        1.7300    -0.2000    -0.6330 H     1 <1>   0.0800 
 31 H        2.8430    -0.8230    -1.8450 H     1 <1>   0.0800 
 32 H        5.5070    -0.1960    -1.1960 H     1 <1>   0.0800 
 33 H        5.6340     0.6490     0.3460 H     1 <1>   0.0800 
 34 H        2.2840     1.9830    -1.1300 H     1 <1>   0.0800 
 35 H        2.8660     1.3210    -2.6360 H     1 <1>   0.0800 
 36 H        5.0280     1.9230    -1.9910 H     1 <1>   0.0800 
 37 H        4.4130     2.4630    -0.4480 H     1 <1>   0.0800 
@<TRIPOS>BOND
  1   1   2  1   
  2   1  18  1   
  3   2   3  1   
  4   2   4  1   
  5   2   5  1   
  6   3   6  3   
  7   4   7  ar  
  8   4   8  ar  
  9   5  19  1   
 10   5  20  1   
 11   5  21  1   
 12   6   9  1   
 13   7  10  ar  
 14   7  22  1   
 15   8  11  ar  
 16   8  23  1   
 17   9  12  1   
 18   9  24  1   
 19   9  25  1   
 20  10  13  ar  
 21  10  26  1   
 22  11  13  ar  
 23  11  27  1   
 24  12  14  1   
 25  12  15  1   
 26  12  28  1   
 27  13  29  1   
 28  14  16  1   
 29  14  30  1   
 30  14  31  1   
 31  15  17  1   
 32  15  32  1   
 33  15  33  1   
 34  16  17  1   
 35  16  34  1   
 36  16  35  1   
 37  17  36  1   
 38  17  37  1   
@<TRIPOS>SUBSTRUCTURE
  1 ****   4 GROUP 4 **** **** 0

# MOE 2024.06 (io_trps.svl 2023.06)
