@<TRIPOS>MOLECULE
NONAME
35 38 1 0 0 
SMALL
USER_CHARGES


@<TRIPOS>ATOM
  1 CL       0.0610     0.2950     0.5800 Cl    1 <1>  -0.1770 
  2 C       -1.3130    -0.6710     0.0950 C.ar  1 <1>   0.1770 
  3 C       -1.1320    -1.9850    -0.3130 C.ar  1 <1>  -0.1440 
  4 C       -2.5650    -0.0900     0.1330 C.ar  1 <1>  -0.1500 
  5 C       -2.2490    -2.7150    -0.6870 C.ar  1 <1>  -0.1500 
  6 C        0.2510    -2.6170    -0.3520 C.3   1 <1>  -0.0960 
  7 C       -3.6880    -0.8190    -0.2410 C.ar  1 <1>   0.1170 
  8 C       -3.5070    -2.1380    -0.6500 C.ar  1 <1>  -0.1500 
  9 N       -4.9770    -0.2380    -0.2060 N.am  1 <1>  -0.2370 
 10 C       -6.1550    -0.8870     0.1400 C.2   1 <1>   0.5690 
 11 C       -5.2820     1.0810    -0.5100 C.2   1 <1>   0.5690 
 12 O       -6.2900    -1.9630     0.6610 O.2   1 <1>  -0.5700 
 13 C       -7.2890    -0.0160    -0.3080 C.3   1 <1>  -0.0190 
 14 O       -4.5920     1.9060    -1.0490 O.2   1 <1>  -0.5700 
 15 C       -6.6630     1.3380     0.0030 C.3   1 <1>  -0.0190 
 16 C       -8.7640     0.2880     0.0130 C.3   1 <1>   0.4180 
 17 C       -7.8790     2.2490    -0.1220 C.3   1 <1>   0.3380 
 18 O       -8.6800     1.4790     0.7250 O.3   1 <1>  -0.5600 
 19 C       -9.3040     0.8880    -1.2680 C.2   1 <1>  -0.2880 
 20 C       -9.6160    -0.7410     0.7370 C.3   1 <1>  -0.2400 
 21 C       -8.7090     2.0740    -1.3820 C.2   1 <1>  -0.2880 
 22 H       -2.6520     0.9320     0.4520 H     1 <1>   0.1500 
 23 H       -2.1470    -3.7380    -1.0070 H     1 <1>   0.1500 
 24 H        0.8890    -2.0640    -1.0190 H     1 <1>   0.0800 
 25 H        0.2020    -3.6360    -0.6930 H     1 <1>   0.0800 
 26 H        0.6870    -2.6070     0.6310 H     1 <1>   0.0800 
 27 H       -4.3570    -2.7300    -0.9420 H     1 <1>   0.1500 
 28 H       -7.2720    -0.1990    -1.3710 H     1 <1>   0.0800 
 29 H       -6.4590     1.4040     1.0620 H     1 <1>   0.0800 
 30 H       -7.7870     3.2510     0.2640 H     1 <1>   0.0800 
 31 H       -9.9930     0.3520    -1.8960 H     1 <1>   0.1500 
 32 H       -9.1570    -1.0030     1.6730 H     1 <1>   0.0800 
 33 H       -9.7040    -1.6280     0.1370 H     1 <1>   0.0800 
 34 H      -10.5980    -0.3420     0.9150 H     1 <1>   0.0800 
 35 H       -8.7420     2.8370    -2.1400 H     1 <1>   0.1500 
@<TRIPOS>BOND
  1   1   2  1   
  2   2   3  ar  
  3   2   4  ar  
  4   3   5  ar  
  5   3   6  1   
  6   4   7  ar  
  7   4  22  1   
  8   5   8  ar  
  9   5  23  1   
 10   6  24  1   
 11   6  25  1   
 12   6  26  1   
 13   7   8  ar  
 14   7   9  1   
 15   8  27  1   
 16   9  10  am  
 17   9  11  am  
 18  10  12  2   
 19  10  13  1   
 20  11  14  2   
 21  11  15  1   
 22  13  15  1   
 23  13  16  1   
 24  13  28  1   
 25  15  17  1   
 26  15  29  1   
 27  16  18  1   
 28  16  19  1   
 29  16  20  1   
 30  17  18  1   
 31  17  21  1   
 32  17  30  1   
 33  19  21  2   
 34  19  31  1   
 35  20  32  1   
 36  20  33  1   
 37  20  34  1   
 38  21  35  1   
@<TRIPOS>SUBSTRUCTURE
  1 ****   9 GROUP 4 **** **** 0

# MOE 2024.06 (io_trps.svl 2023.06)
