@<TRIPOS>MOLECULE
NONAME
33 33 1 0 0 
SMALL
USER_CHARGES


@<TRIPOS>ATOM
  1 CL      -0.0710    -0.0500    -0.6040 Cl    1 <1>  -0.1770 
  2 C        0.8470     1.4250    -0.4360 C.ar  1 <1>   0.1770 
  3 C        0.1810     2.6310    -0.3570 C.ar  1 <1>  -0.1500 
  4 C        2.2250     1.3620    -0.3870 C.ar  1 <1>  -0.1500 
  5 C        0.8880     3.8220    -0.2160 C.ar  1 <1>  -0.0090 
  6 C        2.9450     2.5350    -0.2590 C.ar  1 <1>  -0.1500 
  7 S        0.0480     5.4260    -0.1140 S.o2  1 <1>   1.4470 
  8 C        2.2810     3.7600    -0.1790 C.ar  1 <1>   0.0830 
  9 O        0.4070     6.1550     1.0800 O.2   1 <1>  -0.6500 
 10 O        0.0500     6.0820    -1.4030 O.2   1 <1>  -0.6500 
 11 N       -1.5490     5.0240     0.2140 N.am  1 <1>  -0.9140 
 12 O        2.9470     4.9360    -0.0680 O.3   1 <1>  -0.3620 
 13 C       -2.4940     6.0100    -0.2740 C.3   1 <1>   0.1960 
 14 C        4.3550     5.0100    -0.0090 C.3   1 <1>   0.0400 
 15 C       -3.8890     5.6400     0.2280 C.3   1 <1>  -0.1600 
 16 C       -4.9410     6.6400    -0.2700 C.3   1 <1>  -0.1600 
 17 C       -6.3380     6.2660     0.2320 C.3   1 <1>  -0.2400 
 18 H       -0.8940     2.6310    -0.4090 H     1 <1>   0.1500 
 19 H        2.7200     0.4100    -0.4500 H     1 <1>   0.1500 
 20 H        4.0170     2.4760    -0.2260 H     1 <1>   0.1500 
 21 H       -1.5770     5.0760     1.2310 H     1 <1>   0.4200 
 22 H       -2.4850     6.0190    -1.3530 H     1 <1>   0.0800 
 23 H       -2.2210     6.9910     0.0800 H     1 <1>   0.0800 
 24 H        4.6290     6.0460     0.0830 H     1 <1>   0.0800 
 25 H        4.7660     4.6040    -0.9160 H     1 <1>   0.0800 
 26 H        4.6990     4.4650     0.8520 H     1 <1>   0.0800 
 27 H       -3.8920     5.6310     1.3030 H     1 <1>   0.0800 
 28 H       -4.1400     4.6550    -0.1280 H     1 <1>   0.0800 
 29 H       -4.9450     6.6550    -1.3480 H     1 <1>   0.0800 
 30 H       -4.6940     7.6300     0.0750 H     1 <1>   0.0800 
 31 H       -6.6160     5.2880    -0.1200 H     1 <1>   0.0800 
 32 H       -7.0610     6.9770    -0.1290 H     1 <1>   0.0800 
 33 H       -6.3650     6.2680     1.3080 H     1 <1>   0.0800 
@<TRIPOS>BOND
  1   1   2  1   
  2   2   3  ar  
  3   2   4  ar  
  4   3   5  ar  
  5   3  18  1   
  6   4   6  ar  
  7   4  19  1   
  8   5   7  1   
  9   5   8  ar  
 10   6   8  ar  
 11   6  20  1   
 12   7   9  2   
 13   7  10  2   
 14   7  11  am  
 15   8  12  1   
 16  11  13  1   
 17  11  21  1   
 18  12  14  1   
 19  13  15  1   
 20  13  22  1   
 21  13  23  1   
 22  14  24  1   
 23  14  25  1   
 24  14  26  1   
 25  15  16  1   
 26  15  27  1   
 27  15  28  1   
 28  16  17  1   
 29  16  29  1   
 30  16  30  1   
 31  17  31  1   
 32  17  32  1   
 33  17  33  1   
@<TRIPOS>SUBSTRUCTURE
  1 ****   5 GROUP 4 **** **** 0

# MOE 2024.06 (io_trps.svl 2023.06)
