@<TRIPOS>MOLECULE
NONAME
38 40 1 0 0 
SMALL
USER_CHARGES


@<TRIPOS>ATOM
  1 O       -0.5350    -0.1990    -0.2420 O.3   1 <1>  -0.5600 
  2 C       -1.6960     0.4540     0.1900 C.3   1 <1>   0.1200 
  3 C       -0.5390    -1.5750     0.0160 C.3   1 <1>   0.1200 
  4 C       -2.9430    -0.1080    -0.5160 C.3   1 <1>   0.2090 
  5 C       -1.7120    -2.2710    -0.6990 C.3   1 <1>   0.2090 
  6 N       -3.0120    -1.5990    -0.3770 N.pl3 1 <1>  -0.8380 
  7 C       -4.1780    -2.2780    -0.1120 C.ar  1 <1>   0.7200 
  8 N       -5.2440    -1.5780     0.1570 N.ar  1 <1>  -0.6200 
  9 N       -4.1340    -3.5870    -0.1510 N.ar  1 <1>  -0.6200 
 10 C       -6.3270    -2.2670     0.3920 C.ar  1 <1>   0.7200 
 11 C       -5.2700    -4.1880     0.1010 C.ar  1 <1>   0.6930 
 12 N       -6.3930    -3.5760     0.3770 N.ar  1 <1>  -0.6200 
 13 N       -7.4840    -1.5780     0.6790 N.pl3 1 <1>  -0.8380 
 14 C       -5.2830    -5.6330     0.0720 C.1   1 <1>   0.4840 
 15 C       -8.8400    -2.1990     0.6380 C.3   1 <1>   0.2090 
 16 C       -7.5080    -0.1160     0.9720 C.3   1 <1>   0.2090 
 17 N       -5.2900    -6.7780     0.0470 N.1   1 <1>  -0.5570 
 18 C       -9.6860    -1.4990    -0.4310 C.3   1 <1>  -0.1600 
 19 C       -8.3320     0.6030    -0.1000 C.3   1 <1>  -0.1600 
 20 C       -9.7490     0.0200    -0.2100 C.3   1 <1>  -0.1600 
 21 H       -1.5860     1.5000    -0.0310 H     1 <1>   0.0800 
 22 H       -1.7840     0.3320     1.2560 H     1 <1>   0.0800 
 23 H       -0.6080    -1.7260     1.0790 H     1 <1>   0.0800 
 24 H        0.3950    -1.9780    -0.3300 H     1 <1>   0.0800 
 25 H       -2.9000     0.1460    -1.5610 H     1 <1>   0.0800 
 26 H       -3.8130     0.3660    -0.0990 H     1 <1>   0.0800 
 27 H       -1.7230    -3.3050    -0.4040 H     1 <1>   0.0800 
 28 H       -1.5490    -2.2330    -1.7620 H     1 <1>   0.0800 
 29 H       -9.3040    -2.0870     1.6030 H     1 <1>   0.0800 
 30 H       -8.7920    -3.2500     0.4160 H     1 <1>   0.0800 
 31 H       -6.5170     0.3010     1.0060 H     1 <1>   0.0800 
 32 H       -7.9580     0.0370     1.9380 H     1 <1>   0.0800 
 33 H      -10.6810    -1.9070    -0.4190 H     1 <1>   0.0800 
 34 H       -9.2570    -1.7080    -1.3950 H     1 <1>   0.0800 
 35 H       -7.8240     0.5080    -1.0430 H     1 <1>   0.0800 
 36 H       -8.3900     1.6500     0.1390 H     1 <1>   0.0800 
 37 H      -10.2910     0.2260     0.6960 H     1 <1>   0.0800 
 38 H      -10.2730     0.4850    -1.0270 H     1 <1>   0.0800 
@<TRIPOS>BOND
  1   1   2  1   
  2   1   3  1   
  3   2   4  1   
  4   2  21  1   
  5   2  22  1   
  6   3   5  1   
  7   3  23  1   
  8   3  24  1   
  9   4   6  1   
 10   4  25  1   
 11   4  26  1   
 12   5   6  1   
 13   5  27  1   
 14   5  28  1   
 15   6   7  1   
 16   7   8  ar  
 17   7   9  ar  
 18   8  10  ar  
 19   9  11  ar  
 20  10  12  ar  
 21  10  13  1   
 22  11  12  ar  
 23  11  14  1   
 24  13  15  1   
 25  13  16  1   
 26  14  17  3   
 27  15  18  1   
 28  15  29  1   
 29  15  30  1   
 30  16  19  1   
 31  16  31  1   
 32  16  32  1   
 33  18  20  1   
 34  18  33  1   
 35  18  34  1   
 36  19  20  1   
 37  19  35  1   
 38  19  36  1   
 39  20  37  1   
 40  20  38  1   
@<TRIPOS>SUBSTRUCTURE
  1 ****   8 GROUP 4 **** **** 0

# MOE 2024.06 (io_trps.svl 2023.06)
