@<TRIPOS>MOLECULE
NONAME
34 35 1 0 0 
SMALL
USER_CHARGES


@<TRIPOS>ATOM
  1 S        0.1270     0.4720     1.3280 S.o2  1 <1>   1.4470 
  2 O        0.2460    -0.9580     1.1530 O.2   1 <1>  -0.6500 
  3 O        0.5230     1.0700     2.5850 O.2   1 <1>  -0.6500 
  4 N        1.0550     1.2110     0.1160 N.am  1 <1>  -0.8490 
  5 C       -1.5660     0.9710     0.9060 C.ar  1 <1>  -0.0090 
  6 C        1.1350     2.6660     0.2960 C.3   1 <1>   0.1960 
  7 C        2.3950     0.6200     0.0390 C.3   1 <1>   0.1960 
  8 C       -2.3920     1.5850     1.8410 C.ar  1 <1>  -0.1500 
  9 C       -2.0790     0.7490    -0.3690 C.ar  1 <1>  -0.1500 
 10 C        1.8420     3.3090    -0.9010 C.3   1 <1>  -0.1600 
 11 C        3.1620     1.1940    -1.1580 C.3   1 <1>  -0.1600 
 12 C       -3.6750     1.9560     1.4880 C.ar  1 <1>   0.1900 
 13 C       -3.3690     1.1230    -0.7190 C.ar  1 <1>  -0.1500 
 14 C        3.2450     2.7230    -1.0950 C.3   1 <1>  -0.1600 
 15 F       -4.4140     2.5340     2.4010 F     1 <1>  -0.1900 
 16 C       -4.1940     1.7400     0.2160 C.ar  1 <1>   0.0820 
 17 O       -5.4670     2.1360    -0.0530 O.3   1 <1>  -0.3630 
 18 C       -6.0590     1.9200    -1.3150 C.3   1 <1>   0.0400 
 19 H        1.6710     2.8970     1.2030 H     1 <1>   0.0800 
 20 H        0.1430     3.0790     0.3770 H     1 <1>   0.0800 
 21 H        2.3170    -0.4470    -0.0850 H     1 <1>   0.0800 
 22 H        2.9330     0.8140     0.9530 H     1 <1>   0.0800 
 23 H       -2.0410     1.7740     2.8410 H     1 <1>   0.1500 
 24 H       -1.4500     0.2720    -1.1030 H     1 <1>   0.1500 
 25 H        1.9120     4.3710    -0.7460 H     1 <1>   0.0800 
 26 H        1.2510     3.1430    -1.7840 H     1 <1>   0.0800 
 27 H        2.6610     0.8940    -2.0620 H     1 <1>   0.0800 
 28 H        4.1530     0.7770    -1.1790 H     1 <1>   0.0800 
 29 H       -3.7080     0.9250    -1.7190 H     1 <1>   0.1500 
 30 H        3.8720     3.0130    -0.2690 H     1 <1>   0.0800 
 31 H        3.6840     3.1060    -2.0010 H     1 <1>   0.0800 
 32 H       -7.0620     2.3070    -1.2820 H     1 <1>   0.0800 
 33 H       -6.0820     0.8640    -1.5150 H     1 <1>   0.0800 
 34 H       -5.4900     2.4450    -2.0620 H     1 <1>   0.0800 
@<TRIPOS>BOND
  1   1   2  2   
  2   1   3  2   
  3   1   4  am  
  4   1   5  1   
  5   4   6  1   
  6   4   7  1   
  7   5   8  ar  
  8   5   9  ar  
  9   6  10  1   
 10   6  19  1   
 11   6  20  1   
 12   7  11  1   
 13   7  21  1   
 14   7  22  1   
 15   8  12  ar  
 16   8  23  1   
 17   9  13  ar  
 18   9  24  1   
 19  10  14  1   
 20  10  25  1   
 21  10  26  1   
 22  11  14  1   
 23  11  27  1   
 24  11  28  1   
 25  12  15  1   
 26  12  16  ar  
 27  13  16  ar  
 28  13  29  1   
 29  14  30  1   
 30  14  31  1   
 31  16  17  1   
 32  17  18  1   
 33  18  32  1   
 34  18  33  1   
 35  18  34  1   
@<TRIPOS>SUBSTRUCTURE
  1 ****   5 GROUP 4 **** **** 0

# MOE 2024.06 (io_trps.svl 2023.06)
