@<TRIPOS>MOLECULE
NONAME
50 53 1 0 0 
SMALL
USER_CHARGES


@<TRIPOS>ATOM
  1 O       -2.2700     0.8770    -0.0930 O.3   1 <1>  -0.3630 
  2 C       -1.5510     2.0280     0.0360 C.ar  1 <1>   0.0830 
  3 C       -1.6250    -0.3450    -0.3980 C.3   1 <1>   0.0400 
  4 C       -2.2010     3.1300     0.5840 C.ar  1 <1>  -0.1440 
  5 C       -0.2220     2.1430    -0.3620 C.ar  1 <1>  -0.1500 
  6 C       -1.5250     4.3300     0.7230 C.ar  1 <1>  -0.1500 
  7 C       -3.6410     3.0180     1.0260 C.3   1 <1>   0.4870 
  8 C        0.4480     3.3450    -0.2190 C.ar  1 <1>  -0.1500 
  9 C       -0.2050     4.4470     0.3250 C.ar  1 <1>   0.0830 
 10 N       -4.4310     2.7220    -0.1840 N.4   1 <1>  -0.9060 
 11 O        0.3720     5.6620     0.4980 O.3   1 <1>  -0.3620 
 12 C       -5.8510     2.4030    -0.0110 C.3   1 <1>   0.5030 
 13 C        1.7280     5.8820     0.1710 C.3   1 <1>   0.0400 
 14 C       -6.6020     3.5840     0.6370 C.3   1 <1>  -0.1600 
 15 C       -6.4340     2.1390    -1.4100 C.3   1 <1>  -0.1600 
 16 C       -6.0240     1.1390     0.8550 C.3   1 <1>  -0.1600 
 17 C       -8.1000     3.2440     0.7570 C.3   1 <1>  -0.0800 
 18 C       -7.9310     1.7950    -1.3050 C.3   1 <1>  -0.0800 
 19 C       -7.5200     0.7910     0.9760 C.3   1 <1>  -0.0800 
 20 C       -8.6740     2.9730    -0.6460 C.3   1 <1>  -0.1600 
 21 C       -8.2640     1.9780     1.6200 C.3   1 <1>  -0.1600 
 22 C       -8.0980     0.5390    -0.4290 C.3   1 <1>  -0.1600 
 23 H       -0.8470    -0.5230     0.3250 H     1 <1>   0.0800 
 24 H       -1.2170    -0.2920    -1.3920 H     1 <1>   0.0800 
 25 H       -2.3520    -1.1360    -0.3470 H     1 <1>   0.0800 
 26 H        0.3110     1.3130    -0.7890 H     1 <1>   0.1500 
 27 H       -2.0000     5.1990     1.1450 H     1 <1>   0.1500 
 28 H       -3.9690     3.9390     1.4800 H     1 <1>   0.0800 
 29 H       -3.7300     2.2180     1.7420 H     1 <1>   0.0800 
 30 H        1.4730     3.4070    -0.5350 H     1 <1>   0.1500 
 31 H       -3.9580     1.9100    -0.6050 H     1 <1>   0.4500 
 32 H       -4.3200     3.4920    -0.8460 H     1 <1>   0.4500 
 33 H        1.9670     6.9030     0.4070 H     1 <1>   0.0800 
 34 H        1.8670     5.7100    -0.8820 H     1 <1>   0.0800 
 35 H        2.3410     5.2200     0.7560 H     1 <1>   0.0800 
 36 H       -6.4910     4.4720     0.0390 H     1 <1>   0.0800 
 37 H       -6.2220     3.7860     1.6220 H     1 <1>   0.0800 
 38 H       -6.3220     3.0090    -2.0330 H     1 <1>   0.0800 
 39 H       -5.9210     1.3180    -1.8800 H     1 <1>   0.0800 
 40 H       -5.6350     1.2940     1.8450 H     1 <1>   0.0800 
 41 H       -5.5040     0.3080     0.4110 H     1 <1>   0.0800 
 42 H       -8.6300     4.0650     1.2130 H     1 <1>   0.0800 
 43 H       -8.3390     1.6110    -2.2850 H     1 <1>   0.0800 
 44 H       -7.6470    -0.0900     1.5830 H     1 <1>   0.0800 
 45 H       -8.5850     3.8540    -1.2580 H     1 <1>   0.0800 
 46 H       -9.7230     2.7410    -0.5700 H     1 <1>   0.0800 
 47 H       -9.3100     1.7390     1.7150 H     1 <1>   0.0800 
 48 H       -7.8880     2.1550     2.6130 H     1 <1>   0.0800 
 49 H       -7.6030    -0.3000    -0.8870 H     1 <1>   0.0800 
 50 H       -9.1430     0.2890    -0.3510 H     1 <1>   0.0800 
@<TRIPOS>BOND
  1   1   2  1   
  2   1   3  1   
  3   2   4  ar  
  4   2   5  ar  
  5   3  23  1   
  6   3  24  1   
  7   3  25  1   
  8   4   6  ar  
  9   4   7  1   
 10   5   8  ar  
 11   5  26  1   
 12   6   9  ar  
 13   6  27  1   
 14   7  10  1   
 15   7  28  1   
 16   7  29  1   
 17   8   9  ar  
 18   8  30  1   
 19   9  11  1   
 20  10  12  1   
 21  10  31  1   
 22  10  32  1   
 23  11  13  1   
 24  12  14  1   
 25  12  15  1   
 26  12  16  1   
 27  13  33  1   
 28  13  34  1   
 29  13  35  1   
 30  14  17  1   
 31  14  36  1   
 32  14  37  1   
 33  15  18  1   
 34  15  38  1   
 35  15  39  1   
 36  16  19  1   
 37  16  40  1   
 38  16  41  1   
 39  17  20  1   
 40  17  21  1   
 41  17  42  1   
 42  18  20  1   
 43  18  22  1   
 44  18  43  1   
 45  19  21  1   
 46  19  22  1   
 47  19  44  1   
 48  20  45  1   
 49  20  46  1   
 50  21  47  1   
 51  21  48  1   
 52  22  49  1   
 53  22  50  1   
@<TRIPOS>SUBSTRUCTURE
  1 ****  10 GROUP 4 **** **** 0

# MOE 2024.06 (io_trps.svl 2023.06)
