@<TRIPOS>MOLECULE
NONAME
37 39 1 0 0 
SMALL
USER_CHARGES


@<TRIPOS>ATOM
  1 S       -0.4390     0.2110     1.0680 S.3   1 <1>  -0.0800 
  2 C        1.1150     0.6680     0.4810 C.2   1 <1>   0.4340 
  3 C       -1.0660     1.5350     0.1350 C.2   1 <1>   0.4420 
  4 S        2.4990    -0.3130     1.0390 S.3   1 <1>  -0.2860 
  5 N        1.1120     1.6690    -0.3000 N.2   1 <1>  -0.3380 
  6 N       -0.1460     2.1700    -0.5010 N.2   1 <1>  -0.3380 
  7 N       -2.4340     1.7200     0.1850 N.am  1 <1>  -0.4940 
  8 C        3.9600     0.4980     0.2510 C.3   1 <1>   0.1500 
  9 C       -3.2030     2.7340    -0.3330 C.2   1 <1>   0.5440 
 10 C        5.0570    -0.5710     0.1350 C.3   1 <1>  -0.1600 
 11 C        4.3480     1.6900     1.1300 C.3   1 <1>  -0.2400 
 12 O       -2.6750     3.7320    -0.7730 O.2   1 <1>  -0.5700 
 13 C       -4.6470     2.6160    -0.3110 C.ar  1 <1>   0.0860 
 14 C        6.2990    -0.0780    -0.6210 C.3   1 <1>  -0.2400 
 15 C       -5.4460     3.7490    -0.1110 C.ar  1 <1>  -0.1500 
 16 C       -5.2910     1.3770    -0.4860 C.ar  1 <1>  -0.1500 
 17 C       -6.8170     3.6100    -0.0730 C.ar  1 <1>   0.0830 
 18 C       -6.6730     1.2540    -0.4450 C.ar  1 <1>  -0.1500 
 19 O       -7.7420     4.5580     0.1120 O.3   1 <1>  -0.3630 
 20 C       -7.4170     2.3970    -0.2330 C.ar  1 <1>   0.0830 
 21 C       -9.0110     3.9080     0.0600 C.3   1 <1>   0.4000 
 22 O       -8.7420     2.5240    -0.1560 O.3   1 <1>  -0.3630 
 23 H       -2.9410     1.0210     0.7190 H     1 <1>   0.3700 
 24 H        3.6470     0.8250    -0.7260 H     1 <1>   0.0800 
 25 H        4.6530    -1.4190    -0.3910 H     1 <1>   0.0800 
 26 H        5.3440    -0.9000     1.1180 H     1 <1>   0.0800 
 27 H        4.6450     1.3560     2.1080 H     1 <1>   0.0800 
 28 H        3.5140     2.3630     1.2290 H     1 <1>   0.0800 
 29 H        5.1610     2.2340     0.6860 H     1 <1>   0.0800 
 30 H        6.0260     0.2850    -1.5970 H     1 <1>   0.0800 
 31 H        6.9980    -0.8870    -0.7410 H     1 <1>   0.0800 
 32 H        6.7900     0.7120    -0.0800 H     1 <1>   0.0800 
 33 H       -4.9980     4.7190     0.0120 H     1 <1>   0.1500 
 34 H       -4.7050     0.4940    -0.6700 H     1 <1>   0.1500 
 35 H       -7.1660     0.3080    -0.5790 H     1 <1>   0.1500 
 36 H       -9.5830     4.2970    -0.7640 H     1 <1>   0.0800 
 37 H       -9.5230     4.0360     0.9970 H     1 <1>   0.0800 
@<TRIPOS>BOND
  1   1   2  1   
  2   1   3  1   
  3   2   4  1   
  4   2   5  2   
  5   3   6  2   
  6   3   7  1   
  7   4   8  1   
  8   5   6  1   
  9   7   9  am  
 10   7  23  1   
 11   8  10  1   
 12   8  11  1   
 13   8  24  1   
 14   9  12  2   
 15   9  13  1   
 16  10  14  1   
 17  10  25  1   
 18  10  26  1   
 19  11  27  1   
 20  11  28  1   
 21  11  29  1   
 22  13  15  ar  
 23  13  16  ar  
 24  14  30  1   
 25  14  31  1   
 26  14  32  1   
 27  15  17  ar  
 28  15  33  1   
 29  16  18  ar  
 30  16  34  1   
 31  17  19  1   
 32  17  20  ar  
 33  18  20  ar  
 34  18  35  1   
 35  19  21  1   
 36  20  22  1   
 37  21  22  1   
 38  21  36  1   
 39  21  37  1   
@<TRIPOS>SUBSTRUCTURE
  1 ****   7 GROUP 4 **** **** 0

# MOE 2024.06 (io_trps.svl 2023.06)
