@<TRIPOS>MOLECULE
NONAME
30 30 1 0 0 
SMALL
USER_CHARGES


@<TRIPOS>ATOM
  1 P       -0.0370    -0.0240    -0.5150 P.3   1 <1>   0.8390 
  2 O       -1.1370     0.7510    -1.0680 O.2   1 <1>  -0.7000 
  3 C        1.5380     0.8140    -0.5450 C.ar  1 <1>  -0.1390 
  4 C       -0.3050    -0.4780     1.1710 C.3   1 <1>  -0.2400 
  5 C        0.2170    -1.5470    -1.3750 C.3   1 <1>  -0.2400 
  6 C        2.7040     0.2330    -0.0610 C.ar  1 <1>  -0.1500 
  7 C        1.6470     2.0970    -1.0630 C.ar  1 <1>  -0.1500 
  8 C        3.9470     0.8690    -0.0750 C.ar  1 <1>   0.0860 
  9 C        2.8570     2.7660    -1.0970 C.ar  1 <1>  -0.1500 
 10 C        5.1280     0.2040     0.4470 C.2   1 <1>   0.6340 
 11 C        3.9940     2.1570    -0.6080 C.ar  1 <1>  -0.1500 
 12 O        5.1040    -0.9160     0.9140 O.2   1 <1>  -0.5700 
 13 O        6.2900     0.8620     0.4090 O.3   1 <1>  -0.4300 
 14 C        7.4820     0.2890     0.8950 C.3   1 <1>   0.1200 
 15 C        8.6070     1.3010     0.6990 C.3   1 <1>  -0.2400 
 16 H       -0.3960     0.3930     1.7920 H     1 <1>   0.0800 
 17 H        0.4960    -1.0740     1.5660 H     1 <1>   0.0800 
 18 H       -1.2130    -1.0400     1.2810 H     1 <1>   0.0800 
 19 H        0.4650    -1.3670    -2.4040 H     1 <1>   0.0800 
 20 H       -0.6710    -2.1490    -1.3630 H     1 <1>   0.0800 
 21 H        1.0110    -2.1280    -0.9470 H     1 <1>   0.0800 
 22 H        2.6590    -0.7610     0.3480 H     1 <1>   0.1500 
 23 H        0.7650     2.5840    -1.4490 H     1 <1>   0.1500 
 24 H        2.9070     3.7610    -1.5060 H     1 <1>   0.1500 
 25 H        4.9300     2.6890    -0.6400 H     1 <1>   0.1500 
 26 H        7.6750    -0.6160     0.3430 H     1 <1>   0.0800 
 27 H        7.3480     0.0550     1.9380 H     1 <1>   0.0800 
 28 H        8.7210     1.5310    -0.3440 H     1 <1>   0.0800 
 29 H        9.5310     0.8890     1.0620 H     1 <1>   0.0800 
 30 H        8.3950     2.2010     1.2470 H     1 <1>   0.0800 
@<TRIPOS>BOND
  1   1   2  2   
  2   1   3  1   
  3   1   4  1   
  4   1   5  1   
  5   3   6  ar  
  6   3   7  ar  
  7   4  16  1   
  8   4  17  1   
  9   4  18  1   
 10   5  19  1   
 11   5  20  1   
 12   5  21  1   
 13   6   8  ar  
 14   6  22  1   
 15   7   9  ar  
 16   7  23  1   
 17   8  10  1   
 18   8  11  ar  
 19   9  11  ar  
 20   9  24  1   
 21  10  12  2   
 22  10  13  1   
 23  11  25  1   
 24  13  14  1   
 25  14  15  1   
 26  14  26  1   
 27  14  27  1   
 28  15  28  1   
 29  15  29  1   
 30  15  30  1   
@<TRIPOS>SUBSTRUCTURE
  1 ****   6 GROUP 4 **** **** 0

# MOE 2024.06 (io_trps.svl 2023.06)
