@<TRIPOS>MOLECULE
NONAME
47 49 1 0 0 
SMALL
USER_CHARGES


@<TRIPOS>ATOM
  1 O       -0.3330    -3.1730    -0.9620 O.2   1 <1>  -0.5700 
  2 C       -1.4250    -3.0050    -0.4900 C.2   1 <1>   0.6590 
  3 O       -1.9430    -3.7390     0.4780 O.3   1 <1>  -0.4300 
  4 C       -2.4590    -1.9460    -0.8600 C.3   1 <1>   0.0610 
  5 C       -3.2520    -3.2500     0.7660 C.3   1 <1>   0.3410 
  6 C       -3.0540    -1.7220     0.5440 C.3   1 <1>   0.0000 
  7 C       -3.5600    -2.7420    -1.5930 C.3   1 <1>  -0.1600 
  8 C       -1.9450    -0.7190    -1.6340 C.3   1 <1>  -0.2400 
  9 C       -3.7570    -3.7210     2.1550 C.2   1 <1>   0.6590 
 10 C       -4.0980    -3.6600    -0.4710 C.3   1 <1>  -0.1600 
 11 C       -2.0630    -1.0580     1.5410 C.3   1 <1>  -0.2400 
 12 C       -4.3390    -0.8470     0.5700 C.3   1 <1>  -0.2400 
 13 O       -4.2340    -2.9520     2.9530 O.2   1 <1>  -0.5700 
 14 O       -3.6290    -5.0030     2.4940 O.3   1 <1>  -0.2330 
 15 C       -3.9360    -6.0190     1.6530 C.ar  1 <1>   0.0820 
 16 C       -2.9200    -6.8140     1.1290 C.ar  1 <1>  -0.1430 
 17 C       -5.2700    -6.2590     1.3240 C.ar  1 <1>  -0.1430 
 18 C       -3.2480    -7.8120     0.2270 C.ar  1 <1>  -0.1500 
 19 C       -1.4530    -6.6350     1.5010 C.3   1 <1>  -0.0970 
 20 C       -5.5690    -7.2630     0.4190 C.ar  1 <1>  -0.1500 
 21 C       -6.4120    -5.4620     1.9450 C.3   1 <1>  -0.0970 
 22 C       -4.5640    -8.0350    -0.1390 C.ar  1 <1>  -0.1430 
 23 C       -4.9020    -9.1320    -1.1330 C.3   1 <1>  -0.0970 
 24 H       -3.1470    -3.3160    -2.4070 H     1 <1>   0.0800 
 25 H       -4.3300    -2.0970    -1.9800 H     1 <1>   0.0800 
 26 H       -1.5490    -1.0280    -2.5850 H     1 <1>   0.0800 
 27 H       -1.1580    -0.2330    -1.0870 H     1 <1>   0.0800 
 28 H       -2.7390    -0.0150    -1.8030 H     1 <1>   0.0800 
 29 H       -5.1440    -3.4810    -0.2990 H     1 <1>   0.0800 
 30 H       -3.9600    -4.6990    -0.7150 H     1 <1>   0.0800 
 31 H       -1.1290    -1.5840     1.6320 H     1 <1>   0.0800 
 32 H       -2.4980    -1.0100     2.5240 H     1 <1>   0.0800 
 33 H       -1.8420    -0.0500     1.2360 H     1 <1>   0.0800 
 34 H       -5.1280    -1.2080    -0.0600 H     1 <1>   0.0800 
 35 H       -4.1070     0.1560     0.2580 H     1 <1>   0.0800 
 36 H       -4.7300    -0.7920     1.5710 H     1 <1>   0.0800 
 37 H       -2.4690    -8.4230    -0.1940 H     1 <1>   0.1500 
 38 H       -0.9150    -6.2130     0.6720 H     1 <1>   0.0800 
 39 H       -1.0190    -7.5880     1.7420 H     1 <1>   0.0800 
 40 H       -1.3330    -5.9900     2.3520 H     1 <1>   0.0800 
 41 H       -6.5920    -7.4520     0.1480 H     1 <1>   0.1500 
 42 H       -6.5270    -4.5180     1.4470 H     1 <1>   0.0800 
 43 H       -6.2200    -5.2840     2.9890 H     1 <1>   0.0800 
 44 H       -7.3380    -6.0040     1.8700 H     1 <1>   0.0800 
 45 H       -4.1160    -9.2350    -1.8590 H     1 <1>   0.0800 
 46 H       -5.8150    -8.9030    -1.6530 H     1 <1>   0.0800 
 47 H       -5.0220   -10.0660    -0.6150 H     1 <1>   0.0800 
@<TRIPOS>BOND
  1   1   2  2   
  2   2   3  1   
  3   2   4  1   
  4   3   5  1   
  5   4   6  1   
  6   4   7  1   
  7   4   8  1   
  8   5   6  1   
  9   5   9  1   
 10   5  10  1   
 11   6  11  1   
 12   6  12  1   
 13   7  10  1   
 14   7  24  1   
 15   7  25  1   
 16   8  26  1   
 17   8  27  1   
 18   8  28  1   
 19   9  13  2   
 20   9  14  1   
 21  10  29  1   
 22  10  30  1   
 23  11  31  1   
 24  11  32  1   
 25  11  33  1   
 26  12  34  1   
 27  12  35  1   
 28  12  36  1   
 29  14  15  1   
 30  15  16  ar  
 31  15  17  ar  
 32  16  18  ar  
 33  16  19  1   
 34  17  20  ar  
 35  17  21  1   
 36  18  22  ar  
 37  18  37  1   
 38  19  38  1   
 39  19  39  1   
 40  19  40  1   
 41  20  22  ar  
 42  20  41  1   
 43  21  42  1   
 44  21  43  1   
 45  21  44  1   
 46  22  23  1   
 47  23  45  1   
 48  23  46  1   
 49  23  47  1   
@<TRIPOS>SUBSTRUCTURE
  1 ****   5 GROUP 4 **** **** 0

# MOE 2024.06 (io_trps.svl 2023.06)
