@<TRIPOS>MOLECULE
NONAME
56 60 1 0 0 
SMALL
USER_CHARGES


@<TRIPOS>ATOM
  1 O       -2.0430    -3.0770    -1.2050 O.2   1 <1>  -0.5700 
  2 C       -1.2410    -2.5510    -0.4600 C.2   1 <1>   0.5440 
  3 N       -1.5960    -1.7060     0.5580 N.am  1 <1>  -0.4200 
  4 C        0.1860    -2.7030    -0.4560 C.ar  1 <1>   0.0860 
  5 C       -0.4600    -1.3080     1.2140 C.2   1 <1>   0.5440 
  6 C       -2.9230    -1.0600     0.6750 C.3   1 <1>   0.1400 
  7 C        0.6720    -1.9330     0.5910 C.ar  1 <1>   0.0860 
  8 C        1.0600    -3.4260    -1.2580 C.ar  1 <1>  -0.1500 
  9 O       -0.4500    -0.5470     2.1610 O.2   1 <1>  -0.5700 
 10 C       -3.1290     0.0850    -0.3390 C.3   1 <1>   0.3640 
 11 C        2.0360    -1.8830     0.8510 C.ar  1 <1>  -0.1500 
 12 C        2.4190    -3.3750    -0.9990 C.ar  1 <1>  -0.1500 
 13 N       -2.1160     1.1970    -0.1690 N.am  1 <1>  -0.6600 
 14 C       -4.5600     0.5970    -0.1890 C.ar  1 <1>  -0.1430 
 15 C        2.9060    -2.6070     0.0520 C.ar  1 <1>  -0.1500 
 16 C       -0.9450     1.1440    -0.8960 C.2   1 <1>   0.5690 
 17 C       -2.5100     2.3610     0.6920 C.3   1 <1>   0.1400 
 18 C       -4.8540     1.5500     0.7740 C.ar  1 <1>  -0.1440 
 19 C       -5.5770     0.0980    -0.9890 C.ar  1 <1>  -0.1500 
 20 O       -0.7420     0.2240    -1.6560 O.2   1 <1>  -0.5700 
 21 C        0.2010     2.1710    -0.8050 C.3   1 <1>  -0.0190 
 22 C       -3.7090     2.0920     1.6050 C.3   1 <1>  -0.0170 
 23 C       -6.1550     1.9920     0.9430 C.ar  1 <1>  -0.1500 
 24 C       -6.8770     0.5430    -0.8230 C.ar  1 <1>  -0.1500 
 25 C        1.0020     2.0800     0.5100 C.3   1 <1>  -0.1600 
 26 C       -0.1710     3.6300    -1.1490 C.3   1 <1>  -0.1600 
 27 C       -7.1670     1.4880     0.1450 C.ar  1 <1>  -0.1500 
 28 C        2.2280     3.0040     0.4870 C.3   1 <1>  -0.1600 
 29 C        1.0770     4.5230    -1.1820 C.3   1 <1>  -0.1600 
 30 C        1.8400     4.4490     0.1480 C.3   1 <1>  -0.1600 
 31 H       -3.0480    -0.6910     1.6750 H     1 <1>   0.0800 
 32 H       -3.6780    -1.8070     0.5060 H     1 <1>   0.0800 
 33 H        0.6680    -4.0140    -2.0710 H     1 <1>   0.1500 
 34 H       -3.0380    -0.3280    -1.3290 H     1 <1>   0.0800 
 35 H        2.3990    -1.2820     1.6670 H     1 <1>   0.1500 
 36 H        3.1050    -3.9320    -1.6160 H     1 <1>   0.1500 
 37 H        3.9650    -2.5740     0.2440 H     1 <1>   0.1500 
 38 H       -2.7810     3.1740     0.0410 H     1 <1>   0.0800 
 39 H       -1.6830     2.6710     1.3000 H     1 <1>   0.0800 
 40 H       -5.3620    -0.6410    -1.7430 H     1 <1>   0.1500 
 41 H        0.8920     1.8740    -1.5760 H     1 <1>   0.0800 
 42 H       -3.9980     3.0110     2.0820 H     1 <1>   0.0800 
 43 H       -3.4360     1.3950     2.3760 H     1 <1>   0.0800 
 44 H       -6.3870     2.7300     1.6910 H     1 <1>   0.1500 
 45 H       -7.6630     0.1520    -1.4460 H     1 <1>   0.1500 
 46 H        1.3310     1.0660     0.6530 H     1 <1>   0.0800 
 47 H        0.3860     2.3360     1.3510 H     1 <1>   0.0800 
 48 H       -0.8410     4.0380    -0.4190 H     1 <1>   0.0800 
 49 H       -0.6610     3.6590    -2.1070 H     1 <1>   0.0800 
 50 H       -8.1780     1.8320     0.2750 H     1 <1>   0.1500 
 51 H        2.9290     2.6450    -0.2470 H     1 <1>   0.0800 
 52 H        2.7160     2.9770     1.4470 H     1 <1>   0.0800 
 53 H        0.7870     5.5420    -1.3740 H     1 <1>   0.0800 
 54 H        1.7240     4.2090    -1.9840 H     1 <1>   0.0800 
 55 H        2.7280     5.0540     0.0860 H     1 <1>   0.0800 
 56 H        1.2250     4.8470     0.9360 H     1 <1>   0.0800 
@<TRIPOS>BOND
  1   1   2  2   
  2   2   3  am  
  3   2   4  1   
  4   3   5  am  
  5   3   6  1   
  6   4   7  ar  
  7   4   8  ar  
  8   5   7  1   
  9   5   9  2   
 10   6  10  1   
 11   6  31  1   
 12   6  32  1   
 13   7  11  ar  
 14   8  12  ar  
 15   8  33  1   
 16  10  13  1   
 17  10  14  1   
 18  10  34  1   
 19  11  15  ar  
 20  11  35  1   
 21  12  15  ar  
 22  12  36  1   
 23  13  16  am  
 24  13  17  1   
 25  14  18  ar  
 26  14  19  ar  
 27  15  37  1   
 28  16  20  2   
 29  16  21  1   
 30  17  22  1   
 31  17  38  1   
 32  17  39  1   
 33  18  22  1   
 34  18  23  ar  
 35  19  24  ar  
 36  19  40  1   
 37  21  25  1   
 38  21  26  1   
 39  21  41  1   
 40  22  42  1   
 41  22  43  1   
 42  23  27  ar  
 43  23  44  1   
 44  24  27  ar  
 45  24  45  1   
 46  25  28  1   
 47  25  46  1   
 48  25  47  1   
 49  26  29  1   
 50  26  48  1   
 51  26  49  1   
 52  27  50  1   
 53  28  30  1   
 54  28  51  1   
 55  28  52  1   
 56  29  30  1   
 57  29  53  1   
 58  29  54  1   
 59  30  55  1   
 60  30  56  1   
@<TRIPOS>SUBSTRUCTURE
  1 ****  13 GROUP 4 **** **** 0

# MOE 2024.06 (io_trps.svl 2023.06)
