@<TRIPOS>MOLECULE
NONAME
34 34 1 0 0 
SMALL
USER_CHARGES


@<TRIPOS>ATOM
  1 O       -0.0590    -0.9430    -1.8690 O.3   1 <1>  -0.3370 
  2 N       -1.2040    -1.5880    -1.7150 N.2   1 <1>  -0.5130 
  3 C       -1.3780    -2.4010    -0.7610 C.2   1 <1>   0.3280 
  4 C       -2.6870    -3.1750    -0.6330 C.3   1 <1>  -0.0990 
  5 C       -0.3210    -2.7320     0.3000 C.3   1 <1>  -0.0990 
  6 C       -3.8540    -2.4700     0.1130 C.3   1 <1>   0.1430 
  7 C        0.6050    -3.8680    -0.1550 C.3   1 <1>  -0.2400 
  8 C       -5.1020    -3.3830     0.2310 C.ar  1 <1>  -0.1440 
  9 C       -3.3940    -2.0650     1.5270 C.3   1 <1>  -0.2400 
 10 C       -4.2580    -1.1990    -0.6560 C.3   1 <1>  -0.2400 
 11 C       -6.2230    -2.9290     0.9230 C.ar  1 <1>  -0.1500 
 12 C       -5.1760    -4.6570    -0.3330 C.ar  1 <1>  -0.1500 
 13 C       -7.3590    -3.7080     1.0590 C.ar  1 <1>  -0.1500 
 14 C       -6.3100    -5.4400    -0.2010 C.ar  1 <1>  -0.1500 
 15 C       -7.4040    -4.9680     0.4970 C.ar  1 <1>  -0.1500 
 16 H        0.6810    -1.2420    -1.3070 H     1 <1>   0.4000 
 17 H       -3.0160    -3.3950    -1.6330 H     1 <1>   0.0800 
 18 H       -2.4750    -4.1120    -0.1550 H     1 <1>   0.0800 
 19 H        0.2640    -1.8570     0.5180 H     1 <1>   0.0800 
 20 H       -0.7990    -3.0200     1.2170 H     1 <1>   0.0800 
 21 H        1.1040    -3.6050    -1.0710 H     1 <1>   0.0800 
 22 H        0.0410    -4.7690    -0.3220 H     1 <1>   0.0800 
 23 H        1.3480    -4.0650     0.5980 H     1 <1>   0.0800 
 24 H       -3.1200    -2.9380     2.0910 H     1 <1>   0.0800 
 25 H       -4.1740    -1.5560     2.0620 H     1 <1>   0.0800 
 26 H       -2.5560    -1.3940     1.4830 H     1 <1>   0.0800 
 27 H       -3.4390    -0.5080    -0.7250 H     1 <1>   0.0800 
 28 H       -5.0720    -0.6910    -0.1720 H     1 <1>   0.0800 
 29 H       -4.5690    -1.4550    -1.6530 H     1 <1>   0.0800 
 30 H       -6.2310    -1.9520     1.3690 H     1 <1>   0.1500 
 31 H       -4.3640    -5.0780    -0.8930 H     1 <1>   0.1500 
 32 H       -8.2070    -3.3300     1.6010 H     1 <1>   0.1500 
 33 H       -6.3410    -6.4190    -0.6440 H     1 <1>   0.1500 
 34 H       -8.2850    -5.5760     0.6010 H     1 <1>   0.1500 
@<TRIPOS>BOND
  1   1   2  1   
  2   1  16  1   
  3   2   3  2   
  4   3   4  1   
  5   3   5  1   
  6   4   6  1   
  7   4  17  1   
  8   4  18  1   
  9   5   7  1   
 10   5  19  1   
 11   5  20  1   
 12   6   8  1   
 13   6   9  1   
 14   6  10  1   
 15   7  21  1   
 16   7  22  1   
 17   7  23  1   
 18   8  11  ar  
 19   8  12  ar  
 20   9  24  1   
 21   9  25  1   
 22   9  26  1   
 23  10  27  1   
 24  10  28  1   
 25  10  29  1   
 26  11  13  ar  
 27  11  30  1   
 28  12  14  ar  
 29  12  31  1   
 30  13  15  ar  
 31  13  32  1   
 32  14  15  ar  
 33  14  33  1   
 34  15  34  1   
@<TRIPOS>SUBSTRUCTURE
  1 ****   6 GROUP 4 **** **** 0

# MOE 2024.06 (io_trps.svl 2023.06)
