@<TRIPOS>MOLECULE
NONAME
49 51 1 0 0 
SMALL
USER_CHARGES


@<TRIPOS>ATOM
  1 F        2.2040     0.4410     3.0620 F     1 <1>  -0.3400 
  2 C        3.0420    -0.4610     2.5660 C.3   1 <1>   1.1640 
  3 F        2.3710    -1.6040     2.5100 F     1 <1>  -0.3400 
  4 F        3.9890    -0.6290     3.4830 F     1 <1>  -0.3400 
  5 C        3.6030    -0.0540     1.1950 C.ar  1 <1>  -0.1440 
  6 C        4.9270    -0.3100     0.8490 C.ar  1 <1>  -0.1500 
  7 C        2.7840     0.5750     0.2630 C.ar  1 <1>  -0.1500 
  8 C        5.4400     0.0460    -0.3920 C.ar  1 <1>   0.1170 
  9 C        3.2800     0.9390    -0.9760 C.ar  1 <1>  -0.1500 
 10 N        6.7860    -0.2300    -0.6730 N.am  1 <1>  -0.5470 
 11 C        4.5980     0.6790    -1.2990 C.ar  1 <1>  -0.1500 
 12 C        7.4230    -0.4350    -1.8710 C.2   1 <1>   0.5690 
 13 O        6.8440    -0.4480    -2.9310 O.2   1 <1>  -0.5700 
 14 C        8.9290    -0.7290    -1.8470 C.3   1 <1>   0.1710 
 15 N        9.8370     0.4510    -1.7600 N.3   1 <1>  -0.8100 
 16 C        9.6300     1.2780    -0.5470 C.3   1 <1>   0.1100 
 17 C       11.2490     0.0140    -1.8740 C.3   1 <1>   0.1100 
 18 C       10.6030     2.4690    -0.4810 C.3   1 <1>   0.1400 
 19 C       12.2230     1.2010    -1.8330 C.3   1 <1>   0.1400 
 20 N       12.0070     1.9810    -0.5800 N.am  1 <1>  -0.6600 
 21 C       12.8590     2.0020     0.5000 C.2   1 <1>   0.5690 
 22 O       12.5510     2.5960     1.5120 O.2   1 <1>  -0.5700 
 23 C       14.2340     1.2920     0.4490 C.3   1 <1>   0.2610 
 24 O       14.1300    -0.0910     0.1860 O.3   1 <1>  -0.5600 
 25 C       15.0830     1.3830     1.7180 C.3   1 <1>  -0.1600 
 26 C       15.1110    -0.8250     0.8540 C.3   1 <1>   0.1200 
 27 C       15.9900     0.1780     1.5900 C.3   1 <1>  -0.1600 
 28 H        5.5780    -0.8030     1.5500 H     1 <1>   0.1500 
 29 H        1.7520     0.7840     0.4940 H     1 <1>   0.1500 
 30 H        2.6410     1.4260    -1.6930 H     1 <1>   0.1500 
 31 H        7.3860    -0.3120     0.1440 H     1 <1>   0.3700 
 32 H        4.9700     0.9720    -2.2640 H     1 <1>   0.1500 
 33 H        9.1540    -1.2600    -2.7550 H     1 <1>   0.0800 
 34 H        9.1340    -1.3950    -1.0280 H     1 <1>   0.0800 
 35 H        9.7640     0.6770     0.3360 H     1 <1>   0.0800 
 36 H        8.6290     1.6720    -0.5460 H     1 <1>   0.0800 
 37 H       11.3850    -0.5100    -2.8050 H     1 <1>   0.0800 
 38 H       11.4940    -0.6600    -1.0700 H     1 <1>   0.0800 
 39 H       10.4500     3.0080     0.4370 H     1 <1>   0.0800 
 40 H       10.4000     3.1410    -1.2960 H     1 <1>   0.0800 
 41 H       12.0390     1.8360    -2.6820 H     1 <1>   0.0800 
 42 H       13.2330     0.8440    -1.9060 H     1 <1>   0.0800 
 43 H       14.7940     1.7160    -0.3640 H     1 <1>   0.0800 
 44 H       14.4550     1.2810     2.5860 H     1 <1>   0.0800 
 45 H       15.6210     2.3130     1.7760 H     1 <1>   0.0800 
 46 H       15.6680    -1.4060     0.1390 H     1 <1>   0.0800 
 47 H       14.6100    -1.4790     1.5480 H     1 <1>   0.0800 
 48 H       16.3180    -0.1970     2.5440 H     1 <1>   0.0800 
 49 H       16.8480     0.4130     0.9850 H     1 <1>   0.0800 
@<TRIPOS>BOND
  1   1   2  1   
  2   2   3  1   
  3   2   4  1   
  4   2   5  1   
  5   5   6  ar  
  6   5   7  ar  
  7   6   8  ar  
  8   6  28  1   
  9   7   9  ar  
 10   7  29  1   
 11   8  10  1   
 12   8  11  ar  
 13   9  11  ar  
 14   9  30  1   
 15  10  12  am  
 16  10  31  1   
 17  11  32  1   
 18  12  13  2   
 19  12  14  1   
 20  14  15  1   
 21  14  33  1   
 22  14  34  1   
 23  15  16  1   
 24  15  17  1   
 25  16  18  1   
 26  16  35  1   
 27  16  36  1   
 28  17  19  1   
 29  17  37  1   
 30  17  38  1   
 31  18  20  1   
 32  18  39  1   
 33  18  40  1   
 34  19  20  1   
 35  19  41  1   
 36  19  42  1   
 37  20  21  am  
 38  21  22  2   
 39  21  23  1   
 40  23  24  1   
 41  23  25  1   
 42  23  43  1   
 43  24  26  1   
 44  25  27  1   
 45  25  44  1   
 46  25  45  1   
 47  26  27  1   
 48  26  46  1   
 49  26  47  1   
 50  27  48  1   
 51  27  49  1   
@<TRIPOS>SUBSTRUCTURE
  1 ****  16 GROUP 4 **** **** 0

# MOE 2024.06 (io_trps.svl 2023.06)
