@<TRIPOS>MOLECULE
NONAME
31 31 1 0 0 
SMALL
USER_CHARGES


@<TRIPOS>ATOM
  1 F       -3.7930     2.7340    -2.0040 F     1 <1>  -0.3400 
  2 C       -2.9290     3.1630    -1.0970 C.3   1 <1>   1.1640 
  3 F       -1.7400     3.2070    -1.6940 F     1 <1>  -0.3400 
  4 F       -2.8320     2.2160    -0.1760 F     1 <1>  -0.3400 
  5 C       -3.2630     4.5310    -0.4720 C.ar  1 <1>  -0.1440 
  6 C       -2.4420     5.1190     0.5020 C.ar  1 <1>  -0.1440 
  7 C       -4.4050     5.2150    -0.8820 C.ar  1 <1>  -0.1500 
  8 C       -2.7810     6.3550     1.0350 C.ar  1 <1>  -0.1500 
  9 C       -1.1700     4.4640     1.0200 C.3   1 <1>   0.4870 
 10 C       -4.7290     6.4470    -0.3460 C.ar  1 <1>  -0.1500 
 11 C       -3.9170     7.0180     0.6120 C.ar  1 <1>  -0.1500 
 12 N       -0.0900     4.7800     0.0610 N.4   1 <1>  -0.9060 
 13 C        1.2480     4.2920     0.5130 C.3   1 <1>   0.3430 
 14 C        2.3730     4.6140    -0.4920 C.3   1 <1>   0.2000 
 15 O        3.5520     4.2340     0.1030 O.3   1 <1>  -0.6800 
 16 C        2.5050     6.1010    -0.8320 C.3   1 <1>  -0.2400 
 17 H       -5.0650     4.8000    -1.6280 H     1 <1>   0.1500 
 18 H       -2.1710     6.8250     1.7900 H     1 <1>   0.1500 
 19 H       -1.2970     3.3970     1.1130 H     1 <1>   0.0800 
 20 H       -0.9310     4.8620     1.9930 H     1 <1>   0.0800 
 21 H       -5.6170     6.9630    -0.6750 H     1 <1>   0.1500 
 22 H       -4.1750     7.9770     1.0300 H     1 <1>   0.1500 
 23 H       -0.0700     5.7970    -0.0770 H     1 <1>   0.4500 
 24 H       -0.3280     4.3630    -0.8510 H     1 <1>   0.4500 
 25 H        1.2180     3.2250     0.6570 H     1 <1>   0.0800 
 26 H        1.4990     4.7550     1.4530 H     1 <1>   0.0800 
 27 H        2.2560     4.0250    -1.3870 H     1 <1>   0.0800 
 28 H        4.3190     4.4200    -0.4790 H     1 <1>   0.4000 
 29 H        2.6330     6.6860     0.0620 H     1 <1>   0.0800 
 30 H        1.6340     6.4530    -1.3540 H     1 <1>   0.0800 
 31 H        3.3520     6.2600    -1.4760 H     1 <1>   0.0800 
@<TRIPOS>BOND
  1   1   2  1   
  2   2   3  1   
  3   2   4  1   
  4   2   5  1   
  5   5   6  ar  
  6   5   7  ar  
  7   6   8  ar  
  8   6   9  1   
  9   7  10  ar  
 10   7  17  1   
 11   8  11  ar  
 12   8  18  1   
 13   9  12  1   
 14   9  19  1   
 15   9  20  1   
 16  10  11  ar  
 17  10  21  1   
 18  11  22  1   
 19  12  13  1   
 20  12  23  1   
 21  12  24  1   
 22  13  14  1   
 23  13  25  1   
 24  13  26  1   
 25  14  15  1   
 26  14  16  1   
 27  14  27  1   
 28  15  28  1   
 29  16  29  1   
 30  16  30  1   
 31  16  31  1   
@<TRIPOS>SUBSTRUCTURE
  1 ****   6 GROUP 4 **** **** 0

# MOE 2024.06 (io_trps.svl 2023.06)
