@<TRIPOS>MOLECULE
NONAME
38 39 1 0 0 
SMALL
USER_CHARGES


@<TRIPOS>ATOM
  1 S        0.6280    -0.3320     0.4360 S.3   1 <1>  -0.2860 
  2 C       -0.9500    -1.1550     0.6570 C.2   1 <1>   0.2420 
  3 C        1.5450    -1.4460    -0.7420 C.3   1 <1>   0.2110 
  4 N       -1.2940    -2.2560     0.0890 N.2   1 <1>  -0.3380 
  5 N       -1.8890    -0.6570     1.4490 N.pl3 1 <1>   0.0330 
  6 C        3.0550    -1.2700    -0.5680 C.2   1 <1>   0.5690 
  7 C        1.0670    -1.1040    -2.1600 C.3   1 <1>  -0.2400 
  8 N       -2.5350    -2.5150     0.5210 N.2   1 <1>  -0.3380 
  9 C       -2.8660    -1.5580     1.3230 C.2   1 <1>   0.0360 
 10 O        3.7720    -2.2170    -0.7900 O.2   1 <1>  -0.5700 
 11 N        3.5360    -0.0450    -0.1940 N.am  1 <1>  -0.5470 
 12 C        4.8670     0.3760    -0.0570 C.ar  1 <1>   0.1170 
 13 C        5.3700     1.3400    -0.9330 C.ar  1 <1>  -0.1430 
 14 C        5.6890    -0.1240     0.9570 C.ar  1 <1>  -0.1430 
 15 C        6.6730     1.7880    -0.7920 C.ar  1 <1>  -0.1500 
 16 C        4.5130     1.9070    -2.0570 C.3   1 <1>  -0.0970 
 17 C        6.9900     0.3350     1.0760 C.ar  1 <1>  -0.1500 
 18 C        5.1930    -1.1690     1.9490 C.3   1 <1>  -0.0970 
 19 C        7.4890     1.2890     0.2070 C.ar  1 <1>  -0.1430 
 20 C        8.9170     1.7830     0.3520 C.3   1 <1>  -0.0970 
 21 H        1.2820    -2.4570    -0.4870 H     1 <1>   0.0800 
 22 H       -1.8500     0.1990     2.0030 H     1 <1>   0.2700 
 23 H        1.2890    -0.0790    -2.3970 H     1 <1>   0.0800 
 24 H        0.0080    -1.2680    -2.2470 H     1 <1>   0.0800 
 25 H        1.5680    -1.7380    -2.8700 H     1 <1>   0.0800 
 26 H       -3.8100    -1.4830     1.8340 H     1 <1>   0.1500 
 27 H        2.8360     0.6810    -0.0520 H     1 <1>   0.3700 
 28 H        7.0620     2.5300    -1.4660 H     1 <1>   0.1500 
 29 H        3.6780     2.4460    -1.6490 H     1 <1>   0.0800 
 30 H        4.1480     1.1060    -2.6760 H     1 <1>   0.0800 
 31 H        5.0810     2.5770    -2.6760 H     1 <1>   0.0800 
 32 H        7.6240    -0.0530     1.8520 H     1 <1>   0.1500 
 33 H        5.1630    -2.1330     1.4730 H     1 <1>   0.0800 
 34 H        4.2070    -0.9210     2.2960 H     1 <1>   0.0800 
 35 H        5.8430    -1.2300     2.8020 H     1 <1>   0.0800 
 36 H        9.3080     2.0900    -0.6020 H     1 <1>   0.0800 
 37 H        9.5460     1.0030     0.7400 H     1 <1>   0.0800 
 38 H        8.9450     2.6210     1.0250 H     1 <1>   0.0800 
@<TRIPOS>BOND
  1   1   2  1   
  2   1   3  1   
  3   2   4  2   
  4   2   5  1   
  5   3   6  1   
  6   3   7  1   
  7   3  21  1   
  8   4   8  1   
  9   5   9  1   
 10   5  22  1   
 11   6  10  2   
 12   6  11  am  
 13   7  23  1   
 14   7  24  1   
 15   7  25  1   
 16   8   9  2   
 17   9  26  1   
 18  11  12  1   
 19  11  27  1   
 20  12  13  ar  
 21  12  14  ar  
 22  13  15  ar  
 23  13  16  1   
 24  14  17  ar  
 25  14  18  1   
 26  15  19  ar  
 27  15  28  1   
 28  16  29  1   
 29  16  30  1   
 30  16  31  1   
 31  17  19  ar  
 32  17  32  1   
 33  18  33  1   
 34  18  34  1   
 35  18  35  1   
 36  19  20  1   
 37  20  36  1   
 38  20  37  1   
 39  20  38  1   
@<TRIPOS>SUBSTRUCTURE
  1 ****  11 GROUP 4 **** **** 0

# MOE 2024.06 (io_trps.svl 2023.06)
