@<TRIPOS>MOLECULE
NONAME
38 39 1 0 0 
SMALL
USER_CHARGES


@<TRIPOS>ATOM
  1 O        0.1980     0.5440    -1.6400 O.2   1 <1>  -0.5700 
  2 C        0.1490     1.5700    -0.9910 C.2   1 <1>   0.5440 
  3 N       -0.9820     1.8390    -0.2730 N.am  1 <1>  -0.7300 
  4 C        1.2820     2.4820    -0.9660 C.ar  1 <1>   0.0860 
  5 C       -2.1960     1.0070    -0.2370 C.3   1 <1>   0.2200 
  6 C        2.5710     2.0240    -1.2370 C.ar  1 <1>  -0.1500 
  7 C        1.1350     3.8420    -0.6750 C.ar  1 <1>  -0.1500 
  8 C       -3.3980     1.8700    -0.6320 C.3   1 <1>  -0.1600 
  9 C       -2.3620     0.4340     1.1740 C.3   1 <1>  -0.1600 
 10 C        3.6610     2.8750    -1.1990 C.ar  1 <1>   0.0820 
 11 C        2.2200     4.7000    -0.6450 C.ar  1 <1>  -0.1500 
 12 C       -4.7120     1.0830    -0.5070 C.3   1 <1>  -0.1600 
 13 C       -3.6730    -0.3560     1.3020 C.3   1 <1>  -0.1600 
 14 O        4.8910     2.3760    -1.4650 O.3   1 <1>  -0.2320 
 15 C        3.4890     4.2200    -0.9100 C.ar  1 <1>  -0.1500 
 16 C       -4.8800     0.5050     0.9050 C.3   1 <1>  -0.1600 
 17 C        5.9450     2.5050    -0.6650 C.2   1 <1>   0.6590 
 18 O        7.0600     2.5010    -1.1100 O.2   1 <1>  -0.5700 
 19 C        5.7170     2.6060     0.8300 C.3   1 <1>  -0.1790 
 20 H       -0.9960     2.6370     0.3590 H     1 <1>   0.3700 
 21 H       -2.1050     0.1920    -0.9380 H     1 <1>   0.0800 
 22 H        2.7200     0.9870    -1.4810 H     1 <1>   0.1500 
 23 H        0.1550     4.2400    -0.4810 H     1 <1>   0.1500 
 24 H       -3.2780     2.2000    -1.6490 H     1 <1>   0.0800 
 25 H       -3.4480     2.7350     0.0060 H     1 <1>   0.0800 
 26 H       -2.3650     1.2340     1.8920 H     1 <1>   0.0800 
 27 H       -1.5340    -0.2180     1.3900 H     1 <1>   0.0800 
 28 H        2.0760     5.7450    -0.4240 H     1 <1>   0.1500 
 29 H       -4.7130     0.2790    -1.2230 H     1 <1>   0.0800 
 30 H       -5.5430     1.7290    -0.7350 H     1 <1>   0.0800 
 31 H       -3.7920    -0.6980     2.3160 H     1 <1>   0.0800 
 32 H       -3.6290    -1.2230     0.6650 H     1 <1>   0.0800 
 33 H        4.3330     4.8880    -0.9020 H     1 <1>   0.1500 
 34 H       -5.7760    -0.0910     0.9450 H     1 <1>   0.0800 
 35 H       -4.9910     1.3120     1.6090 H     1 <1>   0.0800 
 36 H        4.9910     1.8780     1.1400 H     1 <1>   0.0800 
 37 H        5.3750     3.5900     1.0870 H     1 <1>   0.0800 
 38 H        6.6410     2.4160     1.3450 H     1 <1>   0.0800 
@<TRIPOS>BOND
  1   1   2  2   
  2   2   3  am  
  3   2   4  1   
  4   3   5  1   
  5   3  20  1   
  6   4   6  ar  
  7   4   7  ar  
  8   5   8  1   
  9   5   9  1   
 10   5  21  1   
 11   6  10  ar  
 12   6  22  1   
 13   7  11  ar  
 14   7  23  1   
 15   8  12  1   
 16   8  24  1   
 17   8  25  1   
 18   9  13  1   
 19   9  26  1   
 20   9  27  1   
 21  10  14  1   
 22  10  15  ar  
 23  11  15  ar  
 24  11  28  1   
 25  12  16  1   
 26  12  29  1   
 27  12  30  1   
 28  13  16  1   
 29  13  31  1   
 30  13  32  1   
 31  14  17  1   
 32  15  33  1   
 33  16  34  1   
 34  16  35  1   
 35  17  18  2   
 36  17  19  1   
 37  19  36  1   
 38  19  37  1   
 39  19  38  1   
@<TRIPOS>SUBSTRUCTURE
  1 ****   4 GROUP 4 **** **** 0

# MOE 2024.06 (io_trps.svl 2023.06)
