@<TRIPOS>MOLECULE
NONAME
36 36 1 0 0 
SMALL
USER_CHARGES


@<TRIPOS>ATOM
  1 P       -0.0090    -0.1650     0.7950 P.3   1 <1>   1.2420 
  2 O       -0.4730     0.6330     1.9320 O.2   1 <1>  -0.7000 
  3 O       -0.3230    -1.7260     1.0160 O.3   1 <1>  -0.5510 
  4 O       -0.8460     0.1560    -0.5450 O.3   1 <1>  -0.5510 
  5 C        1.7470    -0.0590     0.3350 C.3   1 <1>   0.4000 
  6 C       -1.6120    -2.1220     1.3130 C.3   1 <1>   0.1200 
  7 C       -1.3650     1.4190    -0.7790 C.3   1 <1>   0.1200 
  8 N        2.2420     1.3110    -0.1030 N.am  1 <1>  -0.6600 
  9 C        2.1820    -1.0880    -0.7150 C.2   1 <1>  -0.0400 
 10 C       -1.6110    -3.6390     1.4520 C.3   1 <1>  -0.2400 
 11 C       -2.7880     1.4760    -0.2300 C.3   1 <1>  -0.2400 
 12 C        2.7360     2.1740     0.8280 C.2   1 <1>   0.5700 
 13 C        2.2020     1.6560    -1.5510 C.3   1 <1>   0.0600 
 14 O        3.4750    -1.3160    -0.8700 O.3   1 <1>  -0.2800 
 15 C        1.4720    -1.8560    -1.5750 C.2   1 <1>  -0.1500 
 16 O        2.7890     1.9150     2.0040 O.2   1 <1>  -0.5700 
 17 C        3.6170    -2.2210    -1.8160 C.2   1 <1>  -0.0100 
 18 C        2.4150    -2.5990    -2.2960 C.2   1 <1>  -0.1500 
 19 H        2.3050    -0.3240     1.2140 H     1 <1>   0.0800 
 20 H       -2.2640    -1.8100     0.5140 H     1 <1>   0.0800 
 21 H       -1.9130    -1.6500     2.2340 H     1 <1>   0.0800 
 22 H       -1.3780     1.5740    -1.8440 H     1 <1>   0.0800 
 23 H       -0.7330     2.1620    -0.3190 H     1 <1>   0.0800 
 24 H       -1.2960    -4.0960     0.5310 H     1 <1>   0.0800 
 25 H       -2.6020    -3.9830     1.6840 H     1 <1>   0.0800 
 26 H       -0.9500    -3.9370     2.2460 H     1 <1>   0.0800 
 27 H       -3.3930     0.7130    -0.6850 H     1 <1>   0.0800 
 28 H       -3.2220     2.4340    -0.4500 H     1 <1>   0.0800 
 29 H       -2.7880     1.3470     0.8380 H     1 <1>   0.0800 
 30 H        3.0960     3.1330     0.4970 H     1 <1>   0.0600 
 31 H        2.9890     1.1360    -2.0700 H     1 <1>   0.0800 
 32 H        2.3380     2.7140    -1.6890 H     1 <1>   0.0800 
 33 H        1.2560     1.3680    -1.9770 H     1 <1>   0.0800 
 34 H        0.4060    -1.9210    -1.7140 H     1 <1>   0.1500 
 35 H        4.6090    -2.5410    -2.0840 H     1 <1>   0.1500 
 36 H        2.1900    -3.3160    -3.0660 H     1 <1>   0.1500 
@<TRIPOS>BOND
  1   1   2  2   
  2   1   3  1   
  3   1   4  1   
  4   1   5  1   
  5   3   6  1   
  6   4   7  1   
  7   5   8  1   
  8   5   9  1   
  9   5  19  1   
 10   6  10  1   
 11   6  20  1   
 12   6  21  1   
 13   7  11  1   
 14   7  22  1   
 15   7  23  1   
 16   8  12  am  
 17   8  13  1   
 18   9  14  1   
 19   9  15  2   
 20  10  24  1   
 21  10  25  1   
 22  10  26  1   
 23  11  27  1   
 24  11  28  1   
 25  11  29  1   
 26  12  16  2   
 27  12  30  1   
 28  13  31  1   
 29  13  32  1   
 30  13  33  1   
 31  14  17  1   
 32  15  18  1   
 33  15  34  1   
 34  17  18  2   
 35  17  35  1   
 36  18  36  1   
@<TRIPOS>SUBSTRUCTURE
  1 ****   5 GROUP 4 **** **** 0

# MOE 2024.06 (io_trps.svl 2023.06)
