@<TRIPOS>MOLECULE
NONAME
38 39 1 0 0 
SMALL
USER_CHARGES


@<TRIPOS>ATOM
  1 CL      -0.2650     0.0950    -1.0600 Cl    1 <1>  -0.1770 
  2 C       -0.9340    -1.4630    -0.6460 C.ar  1 <1>   0.1770 
  3 C       -0.0860    -2.5190    -0.3850 C.ar  1 <1>  -0.1500 
  4 C       -2.3050    -1.6100    -0.5840 C.ar  1 <1>  -0.1500 
  5 C       -0.6070    -3.7660    -0.0530 C.ar  1 <1>   0.1170 
  6 C       -2.8330    -2.8450    -0.2520 C.ar  1 <1>  -0.1500 
  7 N        0.2260    -4.8610     0.2350 N.am  1 <1>  -0.5470 
  8 C       -1.9960    -3.9210     0.0130 C.ar  1 <1>  -0.1430 
  9 C        1.5120    -5.1400    -0.1320 C.2   1 <1>   0.5690 
 10 C       -2.6260    -5.2630     0.3680 C.3   1 <1>  -0.0960 
 11 O        2.1850    -4.4270    -0.8320 O.2   1 <1>  -0.5700 
 12 C        2.1140    -6.4390     0.3710 C.3   1 <1>  -0.0990 
 13 C        1.5510    -7.6630    -0.3730 C.3   1 <1>  -0.1600 
 14 C        2.1120    -8.9870     0.1700 C.3   1 <1>  -0.0800 
 15 C        3.6190    -9.1540    -0.0210 C.3   1 <1>  -0.1600 
 16 C        1.5280   -10.2040    -0.5430 C.3   1 <1>  -0.1600 
 17 C        3.8680   -10.6650     0.0070 C.3   1 <1>  -0.1600 
 18 C        2.5130   -11.3350    -0.2480 C.3   1 <1>  -0.1600 
 19 H        0.9740    -2.3590    -0.4390 H     1 <1>   0.1500 
 20 H       -2.9430    -0.7710    -0.7930 H     1 <1>   0.1500 
 21 H       -3.9020    -2.9590    -0.2040 H     1 <1>   0.1500 
 22 H       -0.2330    -5.6020     0.7580 H     1 <1>   0.3700 
 23 H       -2.2780    -6.0240    -0.3080 H     1 <1>   0.0800 
 24 H       -3.6980    -5.2180     0.2940 H     1 <1>   0.0800 
 25 H       -2.3700    -5.5370     1.3760 H     1 <1>   0.0800 
 26 H        1.9240    -6.5250     1.4240 H     1 <1>   0.0800 
 27 H        3.1790    -6.3880     0.2330 H     1 <1>   0.0800 
 28 H        1.7850    -7.5740    -1.4210 H     1 <1>   0.0800 
 29 H        0.4790    -7.6790    -0.2800 H     1 <1>   0.0800 
 30 H        1.8870    -9.0740     1.2210 H     1 <1>   0.0800 
 31 H        4.1820    -8.6460     0.7420 H     1 <1>   0.0800 
 32 H        3.9080    -8.7700    -0.9850 H     1 <1>   0.0800 
 33 H        1.5040   -10.0280    -1.6050 H     1 <1>   0.0800 
 34 H        0.5350   -10.4370    -0.2010 H     1 <1>   0.0800 
 35 H        4.2440   -10.9620     0.9710 H     1 <1>   0.0800 
 36 H        4.5860   -10.9420    -0.7460 H     1 <1>   0.0800 
 37 H        2.5620   -12.0320    -1.0670 H     1 <1>   0.0800 
 38 H        2.2030   -11.8610     0.6380 H     1 <1>   0.0800 
@<TRIPOS>BOND
  1   1   2  1   
  2   2   3  ar  
  3   2   4  ar  
  4   3   5  ar  
  5   3  19  1   
  6   4   6  ar  
  7   4  20  1   
  8   5   7  1   
  9   5   8  ar  
 10   6   8  ar  
 11   6  21  1   
 12   7   9  am  
 13   7  22  1   
 14   8  10  1   
 15   9  11  2   
 16   9  12  1   
 17  10  23  1   
 18  10  24  1   
 19  10  25  1   
 20  12  13  1   
 21  12  26  1   
 22  12  27  1   
 23  13  14  1   
 24  13  28  1   
 25  13  29  1   
 26  14  15  1   
 27  14  16  1   
 28  14  30  1   
 29  15  17  1   
 30  15  31  1   
 31  15  32  1   
 32  16  18  1   
 33  16  33  1   
 34  16  34  1   
 35  17  18  1   
 36  17  35  1   
 37  17  36  1   
 38  18  37  1   
 39  18  38  1   
@<TRIPOS>SUBSTRUCTURE
  1 ****   7 GROUP 4 **** **** 0

# MOE 2024.06 (io_trps.svl 2023.06)
