@<TRIPOS>MOLECULE
NONAME
54 56 1 0 0 
SMALL
USER_CHARGES


@<TRIPOS>ATOM
  1 O        1.3730     0.4740     1.4160 O.2   1 <1>  -0.5700 
  2 C        0.8930     1.2220     0.5950 C.2   1 <1>   0.5690 
  3 N       -0.4450     1.4540     0.5440 N.am  1 <1>  -0.7300 
  4 C        1.8010     1.9260    -0.4320 C.3   1 <1>   0.1710 
  5 C       -1.4430     0.8720     1.4590 C.3   1 <1>   0.2200 
  6 N        3.0270     1.1790    -0.8440 N.3   1 <1>  -0.8100 
  7 C       -2.5050     0.1560     0.6340 C.3   1 <1>  -0.1600 
  8 C       -2.2190     2.0040     2.1200 C.3   1 <1>  -0.1600 
  9 C        2.7400    -0.1660    -1.3950 C.3   1 <1>   0.1100 
 10 C        3.9090     1.9500    -1.7470 C.3   1 <1>   0.1100 
 11 C       -3.4620     1.2490     0.1440 C.3   1 <1>  -0.1600 
 12 C       -3.2820     2.4340     1.1020 C.3   1 <1>  -0.1600 
 13 C        4.0380    -0.9750    -1.6300 C.3   1 <1>   0.3430 
 14 C        5.1910     1.1610    -2.1210 C.3   1 <1>   0.3430 
 15 N        5.2600    -0.1410    -1.3760 N.4   1 <1>  -0.9590 
 16 C        6.5240    -0.8920    -1.5160 C.3   1 <1>   0.4810 
 17 C        7.6380    -0.0480    -0.9450 C.2   1 <1>  -0.2880 
 18 C        8.1950    -0.2300     0.2650 C.2   1 <1>  -0.1780 
 19 C        9.2660     0.5320     0.8690 C.ar  1 <1>   0.0280 
 20 C       10.1150     1.3490     0.1240 C.ar  1 <1>  -0.1500 
 21 C        9.4810     0.4620     2.2440 C.ar  1 <1>  -0.1500 
 22 C       11.1300     2.0710     0.7270 C.ar  1 <1>  -0.1500 
 23 C       10.4940     1.1800     2.8520 C.ar  1 <1>  -0.1500 
 24 C       11.3210     1.9880     2.0940 C.ar  1 <1>  -0.1500 
 25 H       -0.8480     2.0990    -0.1340 H     1 <1>   0.3700 
 26 H        2.1010     2.8600     0.0070 H     1 <1>   0.0800 
 27 H        1.2140     2.1470    -1.3050 H     1 <1>   0.0800 
 28 H       -0.9740     0.2200     2.1800 H     1 <1>   0.0800 
 29 H       -2.0790    -0.4190    -0.1700 H     1 <1>   0.0800 
 30 H       -3.0430    -0.5130     1.2830 H     1 <1>   0.0800 
 31 H       -2.7110     1.6110     2.9930 H     1 <1>   0.0800 
 32 H       -1.5780     2.8130     2.4260 H     1 <1>   0.0800 
 33 H        2.1200    -0.7220    -0.7130 H     1 <1>   0.0800 
 34 H        2.1990    -0.0750    -2.3220 H     1 <1>   0.0800 
 35 H        3.3790     2.2140    -2.6460 H     1 <1>   0.0800 
 36 H        4.1990     2.8660    -1.2590 H     1 <1>   0.0800 
 37 H       -3.1990     1.5470    -0.8560 H     1 <1>   0.0800 
 38 H       -4.4790     0.8950     0.1440 H     1 <1>   0.0800 
 39 H       -4.2050     2.6820     1.5980 H     1 <1>   0.0800 
 40 H       -2.9410     3.2970     0.5560 H     1 <1>   0.0800 
 41 H        4.0440    -1.3480    -2.6400 H     1 <1>   0.0800 
 42 H        4.0350    -1.8240    -0.9660 H     1 <1>   0.0800 
 43 H        6.0490     1.7690    -1.8860 H     1 <1>   0.0800 
 44 H        5.1980     0.9780    -3.1830 H     1 <1>   0.0800 
 45 H        5.1610     0.1450    -0.3880 H     1 <1>   0.4500 
 46 H        6.4580    -1.8120    -0.9580 H     1 <1>   0.0800 
 47 H        6.7200    -1.1290    -2.5490 H     1 <1>   0.0800 
 48 H        7.9560     0.7300    -1.6140 H     1 <1>   0.1500 
 49 H        7.8370    -1.0210     0.9030 H     1 <1>   0.1500 
 50 H        9.9950     1.4230    -0.9390 H     1 <1>   0.1500 
 51 H        8.8480    -0.1600     2.8510 H     1 <1>   0.1500 
 52 H       11.7740     2.6960     0.1340 H     1 <1>   0.1500 
 53 H       10.6410     1.1110     3.9160 H     1 <1>   0.1500 
 54 H       12.1100     2.5480     2.5650 H     1 <1>   0.1500 
@<TRIPOS>BOND
  1   1   2  2   
  2   2   3  am  
  3   2   4  1   
  4   3   5  1   
  5   3  25  1   
  6   4   6  1   
  7   4  26  1   
  8   4  27  1   
  9   5   7  1   
 10   5   8  1   
 11   5  28  1   
 12   6   9  1   
 13   6  10  1   
 14   7  11  1   
 15   7  29  1   
 16   7  30  1   
 17   8  12  1   
 18   8  31  1   
 19   8  32  1   
 20   9  13  1   
 21   9  33  1   
 22   9  34  1   
 23  10  14  1   
 24  10  35  1   
 25  10  36  1   
 26  11  12  1   
 27  11  37  1   
 28  11  38  1   
 29  12  39  1   
 30  12  40  1   
 31  13  15  1   
 32  13  41  1   
 33  13  42  1   
 34  14  15  1   
 35  14  43  1   
 36  14  44  1   
 37  15  16  1   
 38  15  45  1   
 39  16  17  1   
 40  16  46  1   
 41  16  47  1   
 42  17  18  2   
 43  17  48  1   
 44  18  19  1   
 45  18  49  1   
 46  19  20  ar  
 47  19  21  ar  
 48  20  22  ar  
 49  20  50  1   
 50  21  23  ar  
 51  21  51  1   
 52  22  24  ar  
 53  22  52  1   
 54  23  24  ar  
 55  23  53  1   
 56  24  54  1   
@<TRIPOS>SUBSTRUCTURE
  1 ****   6 GROUP 4 **** **** 0

# MOE 2024.06 (io_trps.svl 2023.06)
