@<TRIPOS>MOLECULE
NONAME
42 44 1 0 0 
SMALL
USER_CHARGES


@<TRIPOS>ATOM
  1 CL      -1.7580     0.8840     3.4080 Cl    1 <1>  -0.1770 
  2 C       -2.6010     1.2370     1.9220 C.ar  1 <1>   0.1770 
  3 C       -3.8210     0.6450     1.6760 C.ar  1 <1>  -0.1500 
  4 C       -2.0230     2.1090     1.0140 C.ar  1 <1>  -0.1500 
  5 C       -4.5090     0.9160     0.4900 C.ar  1 <1>   0.0860 
  6 C       -2.6870     2.3900    -0.1640 C.ar  1 <1>  -0.1500 
  7 C       -5.7860     0.3310     0.1700 C.2   1 <1>   0.4690 
  8 C       -3.9180     1.8000    -0.4250 C.ar  1 <1>   0.0830 
  9 O       -6.3170    -0.4790     0.9110 O.2   1 <1>  -0.5700 
 10 C       -6.3810     0.7300    -1.0680 C.2   1 <1>  -0.1240 
 11 O       -4.5400     2.0990    -1.5870 O.3   1 <1>  -0.1590 
 12 C       -5.7330     1.5830    -1.8920 C.2   1 <1>  -0.0730 
 13 C       -7.7450     0.1580    -1.4110 C.3   1 <1>   0.2480 
 14 N       -8.7840     0.8690    -0.6440 N.3   1 <1>  -0.8100 
 15 C       -9.9460     0.0150    -0.3450 C.3   1 <1>   0.1100 
 16 C       -9.1660     2.1720    -1.2180 C.3   1 <1>   0.1100 
 17 C      -10.9370     0.7410     0.5860 C.3   1 <1>   0.3430 
 18 C      -10.1590     2.9090    -0.2950 C.3   1 <1>   0.3430 
 19 N      -11.3700     2.0690     0.0170 N.4   1 <1>  -0.9590 
 20 C      -12.2860     2.8140     0.9410 C.3   1 <1>   0.3430 
 21 C      -13.6510     2.1300     1.1110 C.3   1 <1>   0.1200 
 22 O      -14.4390     2.9550     1.8940 O.3   1 <1>  -0.6800 
 23 H       -4.2440    -0.0310     2.3990 H     1 <1>   0.1500 
 24 H       -1.0690     2.5550     1.2360 H     1 <1>   0.1500 
 25 H       -2.2580     3.0640    -0.8850 H     1 <1>   0.1500 
 26 H       -6.1120     1.9170    -2.8420 H     1 <1>   0.1500 
 27 H       -7.7460    -0.8900    -1.1590 H     1 <1>   0.0800 
 28 H       -7.9400     0.2430    -2.4670 H     1 <1>   0.0800 
 29 H       -9.6060    -0.8790     0.1520 H     1 <1>   0.0800 
 30 H      -10.4390    -0.2760    -1.2570 H     1 <1>   0.0800 
 31 H       -9.6040     2.0340    -2.1920 H     1 <1>   0.0800 
 32 H       -8.2870     2.7830    -1.3310 H     1 <1>   0.0800 
 33 H      -10.4530     0.8940     1.5370 H     1 <1>   0.0800 
 34 H      -11.7940     0.1080     0.7480 H     1 <1>   0.0800 
 35 H      -10.4600     3.8310    -0.7640 H     1 <1>   0.0800 
 36 H       -9.6450     3.1550     0.6200 H     1 <1>   0.0800 
 37 H      -11.8530     1.8930    -0.8710 H     1 <1>   0.4500 
 38 H      -12.4590     3.8030     0.5480 H     1 <1>   0.0800 
 39 H      -11.8230     2.9130     1.9090 H     1 <1>   0.0800 
 40 H      -13.5580     1.1850     1.6170 H     1 <1>   0.0800 
 41 H      -14.1440     2.0060     0.1620 H     1 <1>   0.0800 
 42 H      -15.3350     2.5800     2.0360 H     1 <1>   0.4000 
@<TRIPOS>BOND
  1   1   2  1   
  2   2   3  ar  
  3   2   4  ar  
  4   3   5  ar  
  5   3  23  1   
  6   4   6  ar  
  7   4  24  1   
  8   5   7  1   
  9   5   8  ar  
 10   6   8  ar  
 11   6  25  1   
 12   7   9  2   
 13   7  10  1   
 14   8  11  1   
 15  10  12  2   
 16  10  13  1   
 17  11  12  1   
 18  12  26  1   
 19  13  14  1   
 20  13  27  1   
 21  13  28  1   
 22  14  15  1   
 23  14  16  1   
 24  15  17  1   
 25  15  29  1   
 26  15  30  1   
 27  16  18  1   
 28  16  31  1   
 29  16  32  1   
 30  17  19  1   
 31  17  33  1   
 32  17  34  1   
 33  18  19  1   
 34  18  35  1   
 35  18  36  1   
 36  19  20  1   
 37  19  37  1   
 38  20  21  1   
 39  20  38  1   
 40  20  39  1   
 41  21  22  1   
 42  21  40  1   
 43  21  41  1   
 44  22  42  1   
@<TRIPOS>SUBSTRUCTURE
  1 ****  10 GROUP 4 **** **** 0

# MOE 2024.06 (io_trps.svl 2023.06)
