@<TRIPOS>MOLECULE
NONAME
40 41 1 0 0 
SMALL
USER_CHARGES


@<TRIPOS>ATOM
  1 S       -0.0390    -0.0700     0.5100 S.3   1 <1>  -0.3320 
  2 C        1.4790     0.8370     0.1600 C.ar  1 <1>   0.1020 
  3 C       -1.4390     1.0240     0.0220 C.3   1 <1>   0.0700 
  4 C        2.6710     0.2000     0.4550 C.ar  1 <1>  -0.1500 
  5 C        1.4720     2.1140    -0.3810 C.ar  1 <1>  -0.1500 
  6 C       -2.7310     0.2560     0.3160 C.3   1 <1>  -0.1600 
  7 C        3.8720     0.8430     0.2090 C.ar  1 <1>  -0.1500 
  8 C        2.6770     2.7530    -0.6250 C.ar  1 <1>  -0.1500 
  9 C       -3.9800     1.0720    -0.0450 C.3   1 <1>  -0.1600 
 10 C        3.8730     2.1190    -0.3300 C.ar  1 <1>  -0.1500 
 11 C       -5.2450     0.2650     0.2570 C.3   1 <1>   0.3430 
 12 N       -6.4600     1.0070    -0.1760 N.4   1 <1>  -0.9590 
 13 C       -6.7490     2.2020     0.7000 C.3   1 <1>   0.3430 
 14 C       -7.6540     0.0890    -0.2070 C.3   1 <1>   0.3430 
 15 C       -8.0480     2.9220     0.2790 C.3   1 <1>   0.1100 
 16 C       -8.9420     0.8340    -0.6200 C.3   1 <1>   0.1100 
 17 N       -9.1870     1.9940     0.2500 N.3   1 <1>  -0.9000 
 18 H       -1.3270     1.2390    -1.0270 H     1 <1>   0.0800 
 19 H       -1.3620     1.9230     0.6080 H     1 <1>   0.0800 
 20 H        2.6560    -0.7910     0.8740 H     1 <1>   0.1500 
 21 H        0.5570     2.6190    -0.6150 H     1 <1>   0.1500 
 22 H       -2.7480     0.0050     1.3640 H     1 <1>   0.0800 
 23 H       -2.7170    -0.6620    -0.2480 H     1 <1>   0.0800 
 24 H        4.8020     0.3520     0.4380 H     1 <1>   0.1500 
 25 H        2.6860     3.7440    -1.0440 H     1 <1>   0.1500 
 26 H       -3.9460     1.3150    -1.0930 H     1 <1>   0.0800 
 27 H       -3.9720     1.9820     0.5280 H     1 <1>   0.0800 
 28 H        4.8070     2.6190    -0.5210 H     1 <1>   0.1500 
 29 H       -5.3000     0.0490     1.3120 H     1 <1>   0.0800 
 30 H       -5.1890    -0.6730    -0.2730 H     1 <1>   0.0800 
 31 H       -6.3160     1.3510    -1.1330 H     1 <1>   0.4500 
 32 H       -5.9310     2.9010     0.6560 H     1 <1>   0.0800 
 33 H       -6.8580     1.8820     1.7230 H     1 <1>   0.0800 
 34 H       -7.8110    -0.3340     0.7710 H     1 <1>   0.0800 
 35 H       -7.4790    -0.7210    -0.8960 H     1 <1>   0.0800 
 36 H       -7.9170     3.3750    -0.6890 H     1 <1>   0.0800 
 37 H       -8.2570     3.7090     0.9850 H     1 <1>   0.0800 
 38 H       -9.7780     0.1590    -0.5450 H     1 <1>   0.0800 
 39 H       -8.8680     1.1530    -1.6460 H     1 <1>   0.0800 
 40 H      -10.0390     2.4920    -0.0590 H     1 <1>   0.3600 
@<TRIPOS>BOND
  1   1   2  1   
  2   1   3  1   
  3   2   4  ar  
  4   2   5  ar  
  5   3   6  1   
  6   3  18  1   
  7   3  19  1   
  8   4   7  ar  
  9   4  20  1   
 10   5   8  ar  
 11   5  21  1   
 12   6   9  1   
 13   6  22  1   
 14   6  23  1   
 15   7  10  ar  
 16   7  24  1   
 17   8  10  ar  
 18   8  25  1   
 19   9  11  1   
 20   9  26  1   
 21   9  27  1   
 22  10  28  1   
 23  11  12  1   
 24  11  29  1   
 25  11  30  1   
 26  12  13  1   
 27  12  14  1   
 28  12  31  1   
 29  13  15  1   
 30  13  32  1   
 31  13  33  1   
 32  14  16  1   
 33  14  34  1   
 34  14  35  1   
 35  15  17  1   
 36  15  36  1   
 37  15  37  1   
 38  16  17  1   
 39  16  38  1   
 40  16  39  1   
 41  17  40  1   
@<TRIPOS>SUBSTRUCTURE
  1 ****   6 GROUP 4 **** **** 0

# MOE 2024.06 (io_trps.svl 2023.06)
