@<TRIPOS>MOLECULE
NONAME
46 48 1 0 0 
SMALL
USER_CHARGES


@<TRIPOS>ATOM
  1 O       -7.5100     3.2030     1.0030 O.2   1 <1>  -0.5700 
  2 C       -6.5010     3.5380     0.4380 C.2   1 <1>   0.4230 
  3 C       -5.3780     2.6450     0.2200 C.ar  1 <1>   0.0860 
  4 C       -6.4480     4.9770    -0.0510 C.3   1 <1>  -0.0990 
  5 C       -5.4750     1.2990     0.5770 C.ar  1 <1>  -0.1500 
  6 C       -4.1650     3.0600    -0.3420 C.ar  1 <1>  -0.1500 
  7 C       -7.8120     5.6480     0.1410 C.3   1 <1>   0.3430 
  8 C       -4.4310     0.4150     0.3830 C.ar  1 <1>  -0.1500 
  9 C       -3.1180     2.1780    -0.5380 C.ar  1 <1>  -0.1500 
 10 N       -7.8020     7.0660    -0.3270 N.4   1 <1>  -0.9590 
 11 C       -3.2440     0.8480    -0.1780 C.ar  1 <1>  -0.1430 
 12 C       -6.9760     7.9870     0.5160 C.3   1 <1>   0.3430 
 13 C       -9.1640     7.6510    -0.3610 C.3   1 <1>   0.3430 
 14 C       -2.0950    -0.1210    -0.3910 C.3   1 <1>  -0.0970 
 15 C       -7.7180     9.3280     0.5840 C.3   1 <1>   0.0630 
 16 C       -8.9050     9.1450    -0.3680 C.3   1 <1>  -0.1600 
 17 C       -6.7930    10.5120     0.2890 C.ar  1 <1>  -0.1430 
 18 C       -7.1520    11.5470    -0.5680 C.ar  1 <1>  -0.1500 
 19 C       -5.5530    10.5730     0.9160 C.ar  1 <1>  -0.1500 
 20 C       -6.2820    12.5950    -0.8150 C.ar  1 <1>  -0.1500 
 21 C       -4.6830    11.6200     0.6700 C.ar  1 <1>  -0.1500 
 22 C       -5.0450    12.6310    -0.2000 C.ar  1 <1>  -0.1500 
 23 H       -6.1930     4.9790    -1.0950 H     1 <1>   0.0800 
 24 H       -5.6950     5.4950     0.5120 H     1 <1>   0.0800 
 25 H       -6.3890     0.9360     1.0170 H     1 <1>   0.1500 
 26 H       -4.0140     4.0820    -0.6350 H     1 <1>   0.1500 
 27 H       -8.0870     5.6040     1.1830 H     1 <1>   0.0800 
 28 H       -8.5500     5.0860    -0.4120 H     1 <1>   0.0800 
 29 H       -4.5460    -0.6160     0.6730 H     1 <1>   0.1500 
 30 H       -2.1960     2.5280    -0.9720 H     1 <1>   0.1500 
 31 H       -7.4350     7.1070    -1.2880 H     1 <1>   0.4500 
 32 H       -6.0020     8.1220     0.0740 H     1 <1>   0.0800 
 33 H       -6.8590     7.5930     1.5120 H     1 <1>   0.0800 
 34 H       -9.7060     7.3790     0.5320 H     1 <1>   0.0800 
 35 H       -9.7170     7.3330    -1.2310 H     1 <1>   0.0800 
 36 H       -2.4680    -1.1130    -0.5740 H     1 <1>   0.0800 
 37 H       -1.4690    -0.1420     0.4830 H     1 <1>   0.0800 
 38 H       -1.5000     0.1770    -1.2360 H     1 <1>   0.0800 
 39 H       -8.0930     9.4450     1.5870 H     1 <1>   0.0800 
 40 H       -9.7690     9.7040    -0.0530 H     1 <1>   0.0800 
 41 H       -8.6470     9.4300    -1.3730 H     1 <1>   0.0800 
 42 H       -8.1090    11.5740    -1.0550 H     1 <1>   0.1500 
 43 H       -5.2410     9.8150     1.6130 H     1 <1>   0.1500 
 44 H       -6.5680    13.3880    -1.4840 H     1 <1>   0.1500 
 45 H       -3.7240    11.6560     1.1580 H     1 <1>   0.1500 
 46 H       -4.3690    13.4460    -0.3930 H     1 <1>   0.1500 
@<TRIPOS>BOND
  1   1   2  2   
  2   2   3  1   
  3   2   4  1   
  4   3   5  ar  
  5   3   6  ar  
  6   4   7  1   
  7   4  23  1   
  8   4  24  1   
  9   5   8  ar  
 10   5  25  1   
 11   6   9  ar  
 12   6  26  1   
 13   7  10  1   
 14   7  27  1   
 15   7  28  1   
 16   8  11  ar  
 17   8  29  1   
 18   9  11  ar  
 19   9  30  1   
 20  10  12  1   
 21  10  13  1   
 22  10  31  1   
 23  11  14  1   
 24  12  15  1   
 25  12  32  1   
 26  12  33  1   
 27  13  16  1   
 28  13  34  1   
 29  13  35  1   
 30  14  36  1   
 31  14  37  1   
 32  14  38  1   
 33  15  16  1   
 34  15  17  1   
 35  15  39  1   
 36  16  40  1   
 37  16  41  1   
 38  17  18  ar  
 39  17  19  ar  
 40  18  20  ar  
 41  18  42  1   
 42  19  21  ar  
 43  19  43  1   
 44  20  22  ar  
 45  20  44  1   
 46  21  22  ar  
 47  21  45  1   
 48  22  46  1   
@<TRIPOS>SUBSTRUCTURE
  1 ****   4 GROUP 4 **** **** 0

# MOE 2024.06 (io_trps.svl 2023.06)
