@<TRIPOS>MOLECULE
NONAME
44 45 1 0 0 
SMALL
USER_CHARGES


@<TRIPOS>ATOM
  1 S       -0.3020    -0.2650    -1.3280 S.o2  1 <1>   1.3330 
  2 O        0.9300    -0.9500    -1.0370 O.2   1 <1>  -0.6500 
  3 O       -0.8700    -0.2590    -2.6520 O.2   1 <1>  -0.6500 
  4 N       -1.4320    -0.9860    -0.2570 N.am  1 <1>  -0.7570 
  5 C       -0.1930     1.3960    -0.6990 C.3   1 <1>  -0.1350 
  6 C       -2.8070    -0.8540    -0.1800 C.ar  1 <1>   0.1990 
  7 C       -3.4950    -1.5700     0.7930 C.ar  1 <1>  -0.1500 
  8 C       -3.5490    -0.0330    -1.0230 C.ar  1 <1>  -0.1500 
  9 C       -4.8650    -1.4620     0.9290 C.ar  1 <1>  -0.1500 
 10 C       -4.9190     0.0760    -0.8850 C.ar  1 <1>  -0.1500 
 11 C       -5.6170    -0.6250     0.1000 C.ar  1 <1>   0.0860 
 12 C       -7.0540    -0.4810     0.2400 C.2   1 <1>   0.5440 
 13 O       -7.7440    -0.1030    -0.6880 O.2   1 <1>  -0.5700 
 14 N       -7.6890    -0.7400     1.4260 N.am  1 <1>  -0.7300 
 15 C       -9.1630    -0.7500     1.6250 C.3   1 <1>   0.1400 
 16 C       -9.7780     0.6430     1.3680 C.3   1 <1>   0.3430 
 17 N      -10.9690     0.6070     0.4540 N.4   1 <1>  -0.9590 
 18 C      -10.5490     0.3160    -0.9670 C.3   1 <1>   0.3430 
 19 C      -11.7160     1.9100     0.4920 C.3   1 <1>   0.3430 
 20 C      -11.7370     0.4100    -1.9430 C.3   1 <1>   0.1200 
 21 C      -12.8690     1.9280    -0.5300 C.3   1 <1>   0.1200 
 22 O      -12.3870     1.6430    -1.8110 O.3   1 <1>  -0.5600 
 23 H       -0.9760    -1.7310     0.2610 H     1 <1>   0.4200 
 24 H        0.5260     1.9550    -1.2640 H     1 <1>   0.0800 
 25 H        0.1120     1.3840     0.3290 H     1 <1>   0.0800 
 26 H       -1.1440     1.8850    -0.7720 H     1 <1>   0.0800 
 27 H       -2.9450    -2.2210     1.4490 H     1 <1>   0.1500 
 28 H       -3.0630     0.5230    -1.8040 H     1 <1>   0.1500 
 29 H       -5.3540    -2.0450     1.6880 H     1 <1>   0.1500 
 30 H       -5.4640     0.7170    -1.5570 H     1 <1>   0.1500 
 31 H       -7.1230    -1.0420     2.2240 H     1 <1>   0.3700 
 32 H       -9.3760    -1.0530     2.6360 H     1 <1>   0.0800 
 33 H       -9.5890    -1.4800     0.9580 H     1 <1>   0.0800 
 34 H       -9.0220     1.2790     0.9350 H     1 <1>   0.0800 
 35 H      -10.0650     1.0670     2.3160 H     1 <1>   0.0800 
 36 H      -11.6120    -0.1370     0.7510 H     1 <1>   0.4500 
 37 H      -10.1070    -0.6640    -1.0330 H     1 <1>   0.0800 
 38 H       -9.7980     1.0250    -1.2760 H     1 <1>   0.0800 
 39 H      -11.0460     2.7210     0.2590 H     1 <1>   0.0800 
 40 H      -12.1140     2.0800     1.4790 H     1 <1>   0.0800 
 41 H      -12.4480    -0.3780    -1.7680 H     1 <1>   0.0800 
 42 H      -11.3850     0.3340    -2.9580 H     1 <1>   0.0800 
 43 H      -13.3200     2.9040    -0.5630 H     1 <1>   0.0800 
 44 H      -13.6280     1.2080    -0.2770 H     1 <1>   0.0800 
@<TRIPOS>BOND
  1   1   2  2   
  2   1   3  2   
  3   1   4  am  
  4   1   5  1   
  5   4   6  1   
  6   4  23  1   
  7   5  24  1   
  8   5  25  1   
  9   5  26  1   
 10   6   7  ar  
 11   6   8  ar  
 12   7   9  ar  
 13   7  27  1   
 14   8  10  ar  
 15   8  28  1   
 16   9  11  ar  
 17   9  29  1   
 18  10  11  ar  
 19  10  30  1   
 20  11  12  1   
 21  12  13  2   
 22  12  14  am  
 23  14  15  1   
 24  14  31  1   
 25  15  16  1   
 26  15  32  1   
 27  15  33  1   
 28  16  17  1   
 29  16  34  1   
 30  16  35  1   
 31  17  18  1   
 32  17  19  1   
 33  17  36  1   
 34  18  20  1   
 35  18  37  1   
 36  18  38  1   
 37  19  21  1   
 38  19  39  1   
 39  19  40  1   
 40  20  22  1   
 41  20  41  1   
 42  20  42  1   
 43  21  22  1   
 44  21  43  1   
 45  21  44  1   
@<TRIPOS>SUBSTRUCTURE
  1 ****  11 GROUP 4 **** **** 0

# MOE 2024.06 (io_trps.svl 2023.06)
