@<TRIPOS>MOLECULE
NONAME
32 32 1 0 0 
SMALL
USER_CHARGES


@<TRIPOS>ATOM
  1 CL      -0.2500     2.0330    -0.6650 Cl    1 <1>  -0.1770 
  2 C        1.4060     1.6720    -0.2450 C.ar  1 <1>   0.1770 
  3 C        1.8820     0.3590    -0.2590 C.ar  1 <1>   0.0860 
  4 C        2.2140     2.7460     0.0730 C.ar  1 <1>  -0.1500 
  5 C        1.0630    -0.7880    -0.5760 C.2   1 <1>   0.6340 
  6 C        3.2320     0.1890     0.0500 C.ar  1 <1>  -0.1500 
  7 C        3.5640     2.5760     0.3820 C.ar  1 <1>   0.0860 
  8 O        1.4720    -1.7030    -1.2570 O.2   1 <1>  -0.5700 
  9 O       -0.1660    -0.8580    -0.0600 O.3   1 <1>  -0.4300 
 10 C        4.0400     1.2630     0.3680 C.ar  1 <1>   0.1770 
 11 C        4.3850     3.7200     0.6980 C.2   1 <1>   0.6340 
 12 C       -1.0550    -1.9290    -0.3290 C.3   1 <1>   0.1200 
 13 CL       5.6960     0.9050     0.7900 Cl    1 <1>  -0.1770 
 14 O        3.9910     4.6240     1.4030 O.2   1 <1>  -0.5700 
 15 O        5.6020     3.8020     0.1560 O.3   1 <1>  -0.4300 
 16 C       -0.6940    -3.1360     0.5420 C.3   1 <1>   0.1200 
 17 C        6.4900     4.8740     0.4230 C.3   1 <1>   0.1200 
 18 O       -1.7030    -4.0860     0.4550 O.3   1 <1>  -0.6800 
 19 C        6.0960     6.0980    -0.4100 C.3   1 <1>   0.1200 
 20 O        6.9660     7.1410    -0.1270 O.3   1 <1>  -0.6800 
 21 H        1.7940     3.7380     0.0780 H     1 <1>   0.1500 
 22 H        3.6530    -0.8030     0.0460 H     1 <1>   0.1500 
 23 H       -0.9980    -2.1780    -1.3750 H     1 <1>   0.0800 
 24 H       -2.0450    -1.5820    -0.0950 H     1 <1>   0.0800 
 25 H       -0.5920    -2.8520     1.5750 H     1 <1>   0.0800 
 26 H        0.2170    -3.5930     0.1940 H     1 <1>   0.0800 
 27 H        7.4780     4.5480     0.1510 H     1 <1>   0.0800 
 28 H        6.4580     5.0910     1.4760 H     1 <1>   0.0800 
 29 H       -2.5240    -3.7680     0.8790 H     1 <1>   0.4000 
 30 H        5.0970     6.4240    -0.1790 H     1 <1>   0.0800 
 31 H        6.1790     5.8780    -1.4600 H     1 <1>   0.0800 
 32 H        6.8080     7.4850     0.7750 H     1 <1>   0.4000 
@<TRIPOS>BOND
  1   1   2  1   
  2   2   3  ar  
  3   2   4  ar  
  4   3   5  1   
  5   3   6  ar  
  6   4   7  ar  
  7   4  21  1   
  8   5   8  2   
  9   5   9  1   
 10   6  10  ar  
 11   6  22  1   
 12   7  10  ar  
 13   7  11  1   
 14   9  12  1   
 15  10  13  1   
 16  11  14  2   
 17  11  15  1   
 18  12  16  1   
 19  12  23  1   
 20  12  24  1   
 21  15  17  1   
 22  16  18  1   
 23  16  25  1   
 24  16  26  1   
 25  17  19  1   
 26  17  27  1   
 27  17  28  1   
 28  18  29  1   
 29  19  20  1   
 30  19  30  1   
 31  19  31  1   
 32  20  32  1   
@<TRIPOS>SUBSTRUCTURE
  1 ****   2 GROUP 4 **** **** 0

# MOE 2024.06 (io_trps.svl 2023.06)
