@<TRIPOS>MOLECULE
NONAME
43 44 1 0 0 
SMALL
USER_CHARGES


@<TRIPOS>ATOM
  1 S       -0.1820    -1.1540     0.0200 S.3   1 <1>  -0.3320 
  2 C       -1.9120    -1.3970     0.4620 C.ar  1 <1>   0.1020 
  3 C        0.1020    -2.0990    -1.5410 C.3   1 <1>  -0.0100 
  4 C       -2.3640    -0.7660     1.6060 C.ar  1 <1>  -0.1500 
  5 C       -2.7660    -2.1780    -0.3000 C.ar  1 <1>  -0.1500 
  6 C       -3.6840    -0.9150     1.9960 C.ar  1 <1>  -0.1500 
  7 C       -4.0850    -2.3220     0.0960 C.ar  1 <1>  -0.1500 
  8 C       -4.5510    -1.6940     1.2430 C.ar  1 <1>  -0.1430 
  9 C       -6.0040    -1.8660     1.6680 C.3   1 <1>   0.2530 
 10 N       -6.9360    -1.5360     0.5670 N.3   1 <1>  -0.8100 
 11 C       -8.3520    -1.8720     0.9290 C.3   1 <1>   0.2510 
 12 C       -6.8000    -0.1200     0.1750 C.3   1 <1>   0.1100 
 13 C       -8.5720    -3.3140     1.4370 C.2   1 <1>   0.6590 
 14 C       -9.2720    -1.5850    -0.2730 C.3   1 <1>  -0.1600 
 15 C       -7.6800     0.1860    -1.0390 C.3   1 <1>  -0.1600 
 16 O       -8.8470    -3.5340     2.5910 O.2   1 <1>  -0.5700 
 17 O       -8.4360    -4.3020     0.5550 O.3   1 <1>  -0.4300 
 18 C       -9.1490    -0.1370    -0.7580 C.3   1 <1>  -0.1600 
 19 C       -8.5870    -5.6510     0.9260 C.3   1 <1>   0.1200 
 20 C       -8.3500    -6.5090    -0.3120 C.3   1 <1>  -0.2400 
 21 H        1.1300    -1.9590    -1.8210 H     1 <1>   0.0800 
 22 H       -0.5560    -1.7030    -2.2930 H     1 <1>   0.0800 
 23 H       -0.1020    -3.1350    -1.3430 H     1 <1>   0.0800 
 24 H       -1.6850    -0.1650     2.1840 H     1 <1>   0.1500 
 25 H       -2.4310    -2.6710    -1.1900 H     1 <1>   0.1500 
 26 H       -4.0300    -0.4220     2.8880 H     1 <1>   0.1500 
 27 H       -4.7620    -2.9200    -0.4900 H     1 <1>   0.1500 
 28 H       -6.2190    -1.2480     2.5230 H     1 <1>   0.0800 
 29 H       -6.1290    -2.8940     1.9610 H     1 <1>   0.0800 
 30 H       -8.6500    -1.2210     1.7330 H     1 <1>   0.0800 
 31 H       -5.7770     0.0910    -0.0890 H     1 <1>   0.0800 
 32 H       -7.0740     0.5180     0.9980 H     1 <1>   0.0800 
 33 H      -10.2920    -1.7830     0.0030 H     1 <1>   0.0800 
 34 H       -9.0140    -2.2540    -1.0760 H     1 <1>   0.0800 
 35 H       -7.3290    -0.3960    -1.8740 H     1 <1>   0.0800 
 36 H       -7.5800     1.2250    -1.2970 H     1 <1>   0.0800 
 37 H       -9.5270     0.5310    -0.0030 H     1 <1>   0.0800 
 38 H       -9.7330     0.0020    -1.6520 H     1 <1>   0.0800 
 39 H       -9.5830    -5.7900     1.3100 H     1 <1>   0.0800 
 40 H       -7.8670    -5.8750     1.6960 H     1 <1>   0.0800 
 41 H       -9.0690    -6.2660    -1.0740 H     1 <1>   0.0800 
 42 H       -8.4560    -7.5480    -0.0590 H     1 <1>   0.0800 
 43 H       -7.3560    -6.3460    -0.6890 H     1 <1>   0.0800 
@<TRIPOS>BOND
  1   1   2  1   
  2   1   3  1   
  3   2   4  ar  
  4   2   5  ar  
  5   3  21  1   
  6   3  22  1   
  7   3  23  1   
  8   4   6  ar  
  9   4  24  1   
 10   5   7  ar  
 11   5  25  1   
 12   6   8  ar  
 13   6  26  1   
 14   7   8  ar  
 15   7  27  1   
 16   8   9  1   
 17   9  10  1   
 18   9  28  1   
 19   9  29  1   
 20  10  11  1   
 21  10  12  1   
 22  11  13  1   
 23  11  14  1   
 24  11  30  1   
 25  12  15  1   
 26  12  31  1   
 27  12  32  1   
 28  13  16  2   
 29  13  17  1   
 30  14  18  1   
 31  14  33  1   
 32  14  34  1   
 33  15  18  1   
 34  15  35  1   
 35  15  36  1   
 36  17  19  1   
 37  18  37  1   
 38  18  38  1   
 39  19  20  1   
 40  19  39  1   
 41  19  40  1   
 42  20  41  1   
 43  20  42  1   
 44  20  43  1   
@<TRIPOS>SUBSTRUCTURE
  1 ****   9 GROUP 4 **** **** 0

# MOE 2024.06 (io_trps.svl 2023.06)
