@<TRIPOS>MOLECULE
NONAME
41 42 1 0 0 
SMALL
USER_CHARGES


@<TRIPOS>ATOM
  1 O        2.7870     1.4560     1.6340 O.co2 1 <1>  -0.9000 
  2 C        3.3930     0.3810     1.6590 C.2   1 <1>   0.9060 
  3 O        4.5420     0.3030     2.1180 O.co2 1 <1>  -0.9000 
  4 C        2.7180    -0.8840     1.1190 C.3   1 <1>  -0.1860 
  5 C        3.7160    -1.9520     0.5910 C.3   1 <1>  -0.0190 
  6 C        1.6330    -0.5800     0.0540 C.3   1 <1>  -0.1600 
  7 C        4.5710    -1.4310    -0.5780 C.2   1 <1>   0.5690 
  8 C        2.9760    -3.2860     0.2920 C.3   1 <1>  -0.1600 
  9 C        1.1960    -1.8110    -0.7630 C.3   1 <1>  -0.1600 
 10 O        4.3970    -1.8080    -1.7160 O.2   1 <1>  -0.5700 
 11 N        5.5360    -0.5340    -0.2840 N.am  1 <1>  -0.7300 
 12 C        1.4750    -3.1230    -0.0220 C.3   1 <1>  -0.1600 
 13 C        6.2720     0.2820    -1.2510 C.3   1 <1>   0.2840 
 14 C        7.6010     0.7180    -0.6510 C.ar  1 <1>  -0.1430 
 15 C        7.6300     1.4260     0.5420 C.ar  1 <1>  -0.1500 
 16 C        8.7950     0.4200    -1.2910 C.ar  1 <1>  -0.1500 
 17 C        8.8360     1.8350     1.0820 C.ar  1 <1>  -0.1500 
 18 C       10.0040     0.8280    -0.7520 C.ar  1 <1>  -0.1500 
 19 C       10.0300     1.5430     0.4420 C.ar  1 <1>   0.0830 
 20 O       11.1700     1.9800     1.0350 O.3   1 <1>  -0.3630 
 21 C       12.4360     1.6930     0.4870 C.3   1 <1>   0.0400 
 22 H        2.2240    -1.3070     1.9720 H     1 <1>   0.0800 
 23 H        4.4120    -2.1620     1.3840 H     1 <1>   0.0800 
 24 H        2.0030     0.1700    -0.6260 H     1 <1>   0.0800 
 25 H        0.7820    -0.1540     0.5560 H     1 <1>   0.0800 
 26 H        3.0670    -3.9300     1.1490 H     1 <1>   0.0800 
 27 H        3.4590    -3.7910    -0.5260 H     1 <1>   0.0800 
 28 H        1.7370    -1.8230    -1.6940 H     1 <1>   0.0800 
 29 H        0.1490    -1.7330    -0.9980 H     1 <1>   0.0800 
 30 H        5.5000    -0.1370     0.6790 H     1 <1>   0.3700 
 31 H        0.9170    -3.1220     0.8980 H     1 <1>   0.0800 
 32 H        1.1380    -3.9570    -0.6110 H     1 <1>   0.0800 
 33 H        5.6830     1.1510    -1.4890 H     1 <1>   0.0800 
 34 H        6.4270    -0.2840    -2.1530 H     1 <1>   0.0800 
 35 H        6.7080     1.6560     1.0580 H     1 <1>   0.1500 
 36 H        8.7850    -0.1350    -2.2120 H     1 <1>   0.1500 
 37 H        8.8520     2.3800     2.0080 H     1 <1>   0.1500 
 38 H       10.9070     0.5800    -1.2740 H     1 <1>   0.1500 
 39 H       13.1830     2.1210     1.1310 H     1 <1>   0.0800 
 40 H       12.5000     2.1350    -0.4920 H     1 <1>   0.0800 
 41 H       12.5610     0.6260     0.4400 H     1 <1>   0.0800 
@<TRIPOS>BOND
  1   1   2  ar  
  2   2   3  ar  
  3   2   4  1   
  4   4   5  1   
  5   4   6  1   
  6   4  22  1   
  7   5   7  1   
  8   5   8  1   
  9   5  23  1   
 10   6   9  1   
 11   6  24  1   
 12   6  25  1   
 13   7  10  2   
 14   7  11  am  
 15   8  12  1   
 16   8  26  1   
 17   8  27  1   
 18   9  12  1   
 19   9  28  1   
 20   9  29  1   
 21  11  13  1   
 22  11  30  1   
 23  12  31  1   
 24  12  32  1   
 25  13  14  1   
 26  13  33  1   
 27  13  34  1   
 28  14  15  ar  
 29  14  16  ar  
 30  15  17  ar  
 31  15  35  1   
 32  16  18  ar  
 33  16  36  1   
 34  17  19  ar  
 35  17  37  1   
 36  18  19  ar  
 37  18  38  1   
 38  19  20  1   
 39  20  21  1   
 40  21  39  1   
 41  21  40  1   
 42  21  41  1   
@<TRIPOS>SUBSTRUCTURE
  1 ****  11 GROUP 4 **** **** 0

# MOE 2024.06 (io_trps.svl 2023.06)
