@<TRIPOS>MOLECULE
NONAME
39 40 1 0 0 
SMALL
USER_CHARGES


@<TRIPOS>ATOM
  1 S        0.1620    -0.0470    -0.2380 S.3   1 <1>  -0.0800 
  2 C        0.7800     1.4090     0.5330 C.2   1 <1>   0.4340 
  3 C       -1.4550     0.6100    -0.0790 C.ar  1 <1>   0.0400 
  4 S        2.5500     1.5290     0.7680 S.3   1 <1>  -0.2860 
  5 N       -0.0810     2.2780     0.8710 N.2   1 <1>  -0.5650 
  6 C       -1.3620     1.8490     0.5340 C.ar  1 <1>   0.2270 
  7 C       -2.6530     0.0430    -0.4740 C.ar  1 <1>  -0.1500 
  8 C        3.2680    -0.0240     0.0810 C.3   1 <1>   0.0700 
  9 C       -2.5340     2.5560     0.7620 C.ar  1 <1>  -0.1500 
 10 C       -3.8110     0.7640    -0.2380 C.ar  1 <1>  -0.1500 
 11 C        4.7840     0.0590     0.2730 C.3   1 <1>  -0.1600 
 12 C       -3.7500     2.0130     0.3770 C.ar  1 <1>  -0.1500 
 13 C        5.4750    -1.1900    -0.2740 C.3   1 <1>   0.3430 
 14 N        6.9370    -1.1550     0.0170 N.4   1 <1>  -0.9590 
 15 C        7.6490    -0.1150    -0.7790 C.3   1 <1>   0.3430 
 16 C        7.5290    -2.5070    -0.1840 C.3   1 <1>   0.3430 
 17 C        8.2270     0.9150     0.1810 C.3   1 <1>  -0.2400 
 18 C        8.8850    -2.5880     0.5070 C.3   1 <1>  -0.2400 
 19 H       -2.6770    -0.9230    -0.9470 H     1 <1>   0.1500 
 20 H        2.9930    -0.0700    -0.9590 H     1 <1>   0.0800 
 21 H        2.8340    -0.8450     0.6270 H     1 <1>   0.0800 
 22 H       -2.4760     3.5180     1.2370 H     1 <1>   0.1500 
 23 H       -4.7650     0.3600    -0.5300 H     1 <1>   0.1500 
 24 H        4.9890     0.1560     1.3250 H     1 <1>   0.0800 
 25 H        5.1390     0.9360    -0.2370 H     1 <1>   0.0800 
 26 H       -4.6590     2.5620     0.5540 H     1 <1>   0.1500 
 27 H        5.3110    -1.2650    -1.3380 H     1 <1>   0.0800 
 28 H        5.0380    -2.0580     0.1940 H     1 <1>   0.0800 
 29 H        7.0580    -0.9140     1.0100 H     1 <1>   0.4500 
 30 H        6.9700     0.3660    -1.4650 H     1 <1>   0.0800 
 31 H        8.4460    -0.5610    -1.3530 H     1 <1>   0.0800 
 32 H        7.6350    -2.7160    -1.2370 H     1 <1>   0.0800 
 33 H        6.8800    -3.2540     0.2440 H     1 <1>   0.0800 
 34 H        7.4500     1.3980     0.7460 H     1 <1>   0.0800 
 35 H        8.7440     1.6720    -0.3820 H     1 <1>   0.0800 
 36 H        8.9360     0.4620     0.8520 H     1 <1>   0.0800 
 37 H        9.5990    -1.9230     0.0560 H     1 <1>   0.0800 
 38 H        9.2680    -3.5890     0.4110 H     1 <1>   0.0800 
 39 H        8.7960    -2.3680     1.5560 H     1 <1>   0.0800 
@<TRIPOS>BOND
  1   1   2  1   
  2   1   3  1   
  3   2   4  1   
  4   2   5  2   
  5   3   6  ar  
  6   3   7  ar  
  7   4   8  1   
  8   5   6  1   
  9   6   9  ar  
 10   7  10  ar  
 11   7  19  1   
 12   8  11  1   
 13   8  20  1   
 14   8  21  1   
 15   9  12  ar  
 16   9  22  1   
 17  10  12  ar  
 18  10  23  1   
 19  11  13  1   
 20  11  24  1   
 21  11  25  1   
 22  12  26  1   
 23  13  14  1   
 24  13  27  1   
 25  13  28  1   
 26  14  15  1   
 27  14  16  1   
 28  14  29  1   
 29  15  17  1   
 30  15  30  1   
 31  15  31  1   
 32  16  18  1   
 33  16  32  1   
 34  16  33  1   
 35  17  34  1   
 36  17  35  1   
 37  17  36  1   
 38  18  37  1   
 39  18  38  1   
 40  18  39  1   
@<TRIPOS>SUBSTRUCTURE
  1 ****   8 GROUP 4 **** **** 0

# MOE 2024.06 (io_trps.svl 2023.06)
