@<TRIPOS>MOLECULE
NONAME
32 33 1 0 0 
SMALL
USER_CHARGES


@<TRIPOS>ATOM
  1 O        0.2910    -0.7400     1.3930 O.3   1 <1>  -0.3630 
  2 C       -0.7560    -1.0690     0.5960 C.ar  1 <1>   0.0820 
  3 C        1.5900    -1.0700     0.9430 C.3   1 <1>   0.1200 
  4 C       -1.1660    -2.3980     0.4730 C.ar  1 <1>  -0.1440 
  5 C       -1.4250    -0.0560    -0.0900 C.ar  1 <1>  -0.1440 
  6 C        2.0010    -0.1330    -0.1910 C.3   1 <1>   0.0960 
  7 C       -2.2060    -2.7040    -0.3900 C.ar  1 <1>  -0.1500 
  8 C       -0.5370    -3.5330     1.2710 C.3   1 <1>  -0.0960 
  9 C       -2.4620    -0.3880    -0.9450 C.ar  1 <1>  -0.1500 
 10 C       -1.0590     1.4140     0.0760 C.3   1 <1>  -0.0960 
 11 N        3.3720    -0.4490    -0.6220 N.pl3 1 <1>   0.0480 
 12 C       -2.8470    -1.7070    -1.1010 C.ar  1 <1>  -0.1500 
 13 C        4.5280     0.1030    -0.1900 C.2   1 <1>   0.0360 
 14 C        3.7520    -1.3740    -1.5220 C.2   1 <1>  -0.3020 
 15 N        5.5870    -0.3950    -0.7390 N.2   1 <1>  -0.5650 
 16 C        5.1010    -1.3260    -1.5810 C.2   1 <1>   0.0770 
 17 H        1.6000    -2.0910     0.6110 H     1 <1>   0.0800 
 18 H        2.2560    -0.9590     1.7810 H     1 <1>   0.0800 
 19 H        1.9690     0.8870     0.1450 H     1 <1>   0.0800 
 20 H        1.3420    -0.2560    -1.0310 H     1 <1>   0.0800 
 21 H       -2.5280    -3.7240    -0.5080 H     1 <1>   0.1500 
 22 H       -0.1390    -3.1690     2.2020 H     1 <1>   0.0800 
 23 H        0.2520    -3.9910     0.7030 H     1 <1>   0.0800 
 24 H       -1.2750    -4.2810     1.4990 H     1 <1>   0.0800 
 25 H       -2.9800     0.3800    -1.4920 H     1 <1>   0.1500 
 26 H       -0.3320     1.6990    -0.6620 H     1 <1>   0.0800 
 27 H       -0.6590     1.5990     1.0560 H     1 <1>   0.0800 
 28 H       -1.9310     2.0300    -0.0450 H     1 <1>   0.0800 
 29 H       -3.6520    -1.9560    -1.7700 H     1 <1>   0.1500 
 30 H        4.5460     0.8860     0.5480 H     1 <1>   0.1500 
 31 H        3.0640    -2.0000    -2.0610 H     1 <1>   0.1500 
 32 H        5.7580    -1.9210    -2.1930 H     1 <1>   0.1500 
@<TRIPOS>BOND
  1   1   2  1   
  2   1   3  1   
  3   2   4  ar  
  4   2   5  ar  
  5   3   6  1   
  6   3  17  1   
  7   3  18  1   
  8   4   7  ar  
  9   4   8  1   
 10   5   9  ar  
 11   5  10  1   
 12   6  11  1   
 13   6  19  1   
 14   6  20  1   
 15   7  12  ar  
 16   7  21  1   
 17   8  22  1   
 18   8  23  1   
 19   8  24  1   
 20   9  12  ar  
 21   9  25  1   
 22  10  26  1   
 23  10  27  1   
 24  10  28  1   
 25  11  13  1   
 26  11  14  1   
 27  12  29  1   
 28  13  15  2   
 29  13  30  1   
 30  14  16  2   
 31  14  31  1   
 32  15  16  1   
 33  16  32  1   
@<TRIPOS>SUBSTRUCTURE
  1 ****   3 GROUP 4 **** **** 0

# MOE 2024.06 (io_trps.svl 2023.06)
