@<TRIPOS>MOLECULE
NONAME
46 47 1 0 0 
SMALL
USER_CHARGES


@<TRIPOS>ATOM
  1 BR       7.1190    -6.3970    -1.2120 Br    1 <1>  -0.1110 
  2 C        6.5820    -4.5550    -1.0630 C.ar  1 <1>   0.1110 
  3 C        6.7610    -3.7200    -2.1500 C.ar  1 <1>  -0.1500 
  4 C        6.0340    -4.1160     0.1260 C.ar  1 <1>  -0.1500 
  5 C        6.3930    -2.3900    -2.0350 C.ar  1 <1>  -0.1500 
  6 C        5.6710    -2.7840     0.2320 C.ar  1 <1>  -0.1500 
  7 C        5.8670    -1.9130    -0.8330 C.ar  1 <1>   0.0830 
  8 O        5.5430    -0.6150    -0.6060 O.3   1 <1>  -0.3630 
  9 C        5.8120     0.4280    -1.5430 C.3   1 <1>   0.2610 
 10 C        7.3210     0.5800    -1.8370 C.2   1 <1>   0.5690 
 11 C        5.1850     1.7360    -1.0260 C.3   1 <1>  -0.1600 
 12 O        7.6360     0.6150    -3.0030 O.2   1 <1>  -0.5700 
 13 N        8.3000     0.6210    -0.8620 N.am  1 <1>  -0.6600 
 14 C        3.6740     1.6240    -0.7720 C.3   1 <1>  -0.2400 
 15 C        8.0920     0.3850     0.5970 C.3   1 <1>   0.1400 
 16 C        9.7410     0.5180    -1.2430 C.3   1 <1>   0.1400 
 17 C        8.5930    -1.0270     0.9670 C.3   1 <1>   0.3430 
 18 C       10.2450    -0.9010    -0.9210 C.3   1 <1>   0.3430 
 19 N       10.0130    -1.2790     0.5260 N.4   1 <1>  -0.9590 
 20 C       10.3810    -2.6960     0.7540 C.3   1 <1>   0.4810 
 21 C       11.8660    -2.8350     0.5070 C.2   1 <1>  -0.2880 
 22 C       12.4210    -3.5180    -0.5000 C.2   1 <1>  -0.3000 
 23 H        7.1690    -4.1060    -3.0680 H     1 <1>   0.1500 
 24 H        5.8870    -4.8030     0.9420 H     1 <1>   0.1500 
 25 H        6.5200    -1.7530    -2.8920 H     1 <1>   0.1500 
 26 H        5.2290    -2.4150     1.1410 H     1 <1>   0.1500 
 27 H        5.3150     0.1600    -2.4580 H     1 <1>   0.0800 
 28 H        5.3520     2.5020    -1.7640 H     1 <1>   0.0800 
 29 H        5.6810     2.0500    -0.1250 H     1 <1>   0.0800 
 30 H        3.1610     1.3240    -1.6690 H     1 <1>   0.0800 
 31 H        3.2820     2.5750    -0.4580 H     1 <1>   0.0800 
 32 H        3.4690     0.9020     0.0000 H     1 <1>   0.0800 
 33 H        7.0590     0.4880     0.8690 H     1 <1>   0.0800 
 34 H        8.6400     1.1230     1.1570 H     1 <1>   0.0800 
 35 H       10.3140     1.2500    -0.7010 H     1 <1>   0.0800 
 36 H        9.8800     0.7150    -2.2930 H     1 <1>   0.0800 
 37 H        7.9440    -1.7440     0.4950 H     1 <1>   0.0800 
 38 H        8.5090    -1.1630     2.0330 H     1 <1>   0.0800 
 39 H       11.2950    -0.9640    -1.1540 H     1 <1>   0.0800 
 40 H        9.7250    -1.5920    -1.5640 H     1 <1>   0.0800 
 41 H       10.6420    -0.7040     1.0980 H     1 <1>   0.4500 
 42 H        9.8320    -3.3340     0.0790 H     1 <1>   0.0800 
 43 H       10.1520    -2.9900     1.7660 H     1 <1>   0.0800 
 44 H       12.4620    -2.3260     1.2460 H     1 <1>   0.1500 
 45 H       13.4860    -3.6060    -0.6480 H     1 <1>   0.1500 
 46 H       11.8770    -4.0540    -1.2620 H     1 <1>   0.1500 
@<TRIPOS>BOND
  1   1   2  1   
  2   2   3  ar  
  3   2   4  ar  
  4   3   5  ar  
  5   3  23  1   
  6   4   6  ar  
  7   4  24  1   
  8   5   7  ar  
  9   5  25  1   
 10   6   7  ar  
 11   6  26  1   
 12   7   8  1   
 13   8   9  1   
 14   9  10  1   
 15   9  11  1   
 16   9  27  1   
 17  10  12  2   
 18  10  13  am  
 19  11  14  1   
 20  11  28  1   
 21  11  29  1   
 22  13  15  1   
 23  13  16  1   
 24  14  30  1   
 25  14  31  1   
 26  14  32  1   
 27  15  17  1   
 28  15  33  1   
 29  15  34  1   
 30  16  18  1   
 31  16  35  1   
 32  16  36  1   
 33  17  19  1   
 34  17  37  1   
 35  17  38  1   
 36  18  19  1   
 37  18  39  1   
 38  18  40  1   
 39  19  20  1   
 40  19  41  1   
 41  20  21  1   
 42  20  42  1   
 43  20  43  1   
 44  21  22  2   
 45  21  44  1   
 46  22  45  1   
 47  22  46  1   
@<TRIPOS>SUBSTRUCTURE
  1 ****   7 GROUP 4 **** **** 0

# MOE 2024.06 (io_trps.svl 2023.06)
