@<TRIPOS>MOLECULE
NONAME
39 40 1 0 0 
SMALL
USER_CHARGES


@<TRIPOS>ATOM
  1 S       -0.5890    -0.2870     1.9130 S.3   1 <1>  -0.0800 
  2 C        0.5710     0.8370     1.2200 C.2   1 <1>   0.1040 
  3 C       -1.9430     0.5560     1.1800 C.2   1 <1>  -0.1400 
  4 N        1.9290     0.6910     1.4570 N.am  1 <1>  -0.4940 
  5 C       -0.0720     1.7910     0.4790 C.2   1 <1>  -0.0860 
  6 C       -1.5020     1.6080     0.4720 C.2   1 <1>  -0.1500 
  7 C       -3.3250    -0.0020     1.4450 C.3   1 <1>  -0.0600 
  8 C        2.6730    -0.2360     2.1460 C.2   1 <1>   0.5690 
  9 C        0.5810     2.8610    -0.2190 C.2   1 <1>   0.8060 
 10 O        2.2050    -1.1990     2.6990 O.2   1 <1>  -0.5700 
 11 C        4.1780    -0.0320     2.2300 C.3   1 <1>   0.1310 
 12 O        1.7900     3.0250    -0.2100 O.2   1 <1>  -0.5700 
 13 O       -0.1770     3.7200    -0.9100 O.3   1 <1>  -0.4300 
 14 S        4.8000     1.0120     0.8230 S.3   1 <1>  -0.2860 
 15 C        0.3880     4.7990    -1.6200 C.3   1 <1>   0.1200 
 16 C        6.5130     1.2950     1.2690 C.2   1 <1>   0.2420 
 17 C       -0.7450     5.5700    -2.2890 C.3   1 <1>  -0.2400 
 18 N        7.0440     0.8060     2.3400 N.2   1 <1>  -0.5650 
 19 N        7.3290     2.0420     0.4950 N.pl3 1 <1>   0.0480 
 20 C        8.3100     1.2650     2.2690 C.2   1 <1>   0.0770 
 21 C        8.5030     2.0160     1.1580 C.2   1 <1>  -0.3020 
 22 C        7.0170     2.7280    -0.7710 C.3   1 <1>   0.0160 
 23 H        2.5050     1.4100     1.0000 H     1 <1>   0.3700 
 24 H       -2.1390     2.2840    -0.0730 H     1 <1>   0.1500 
 25 H       -3.3860    -1.0120     1.0820 H     1 <1>   0.0800 
 26 H       -4.0680     0.5930     0.9470 H     1 <1>   0.0800 
 27 H       -3.5250     0.0010     2.5010 H     1 <1>   0.0800 
 28 H        4.6920    -0.9730     2.1780 H     1 <1>   0.0800 
 29 H        4.4350     0.4730     3.1420 H     1 <1>   0.0800 
 30 H        1.0720     4.4050    -2.3540 H     1 <1>   0.0800 
 31 H        0.9230     5.4240    -0.9240 H     1 <1>   0.0800 
 32 H       -1.2760     4.9320    -2.9720 H     1 <1>   0.0800 
 33 H       -0.3430     6.4010    -2.8390 H     1 <1>   0.0800 
 34 H       -1.4250     5.9490    -1.5470 H     1 <1>   0.0800 
 35 H        9.0310     1.0280     3.0340 H     1 <1>   0.1500 
 36 H        9.3890     2.5190     0.8160 H     1 <1>   0.1500 
 37 H        6.7360     1.9990    -1.5080 H     1 <1>   0.0800 
 38 H        7.8800     3.2700    -1.1110 H     1 <1>   0.0800 
 39 H        6.2020     3.4110    -0.6120 H     1 <1>   0.0800 
@<TRIPOS>BOND
  1   1   2  1   
  2   1   3  1   
  3   2   4  1   
  4   2   5  2   
  5   3   6  2   
  6   3   7  1   
  7   4   8  am  
  8   4  23  1   
  9   5   6  1   
 10   5   9  1   
 11   6  24  1   
 12   7  25  1   
 13   7  26  1   
 14   7  27  1   
 15   8  10  2   
 16   8  11  1   
 17   9  12  2   
 18   9  13  1   
 19  11  14  1   
 20  11  28  1   
 21  11  29  1   
 22  13  15  1   
 23  14  16  1   
 24  15  17  1   
 25  15  30  1   
 26  15  31  1   
 27  16  18  2   
 28  16  19  1   
 29  17  32  1   
 30  17  33  1   
 31  17  34  1   
 32  18  20  1   
 33  19  21  1   
 34  19  22  1   
 35  20  21  2   
 36  20  35  1   
 37  21  36  1   
 38  22  37  1   
 39  22  38  1   
 40  22  39  1   
@<TRIPOS>SUBSTRUCTURE
  1 ****   4 GROUP 4 **** **** 0

# MOE 2024.06 (io_trps.svl 2023.06)
