@<TRIPOS>MOLECULE
NONAME
36 37 1 0 0 
SMALL
USER_CHARGES


@<TRIPOS>ATOM
  1 O       -1.4830     1.6730     1.8160 O.2   1 <1>  -0.5700 
  2 C       -1.5610     1.3680     0.6560 C.2   1 <1>   0.6590 
  3 O       -1.6050     0.0790     0.3240 O.3   1 <1>  -0.4300 
  4 C       -1.5820     2.4280    -0.4360 C.3   1 <1>   0.0420 
  5 C       -1.2220    -0.4700    -0.9230 C.3   1 <1>   0.0400 
  6 C       -0.1400     2.7020    -0.8000 C.2   1 <1>   0.5690 
  7 C       -2.3860     3.7290    -0.1590 C.3   1 <1>  -0.0800 
  8 O        0.1590     2.5930    -1.9620 O.2   1 <1>  -0.5700 
  9 N        0.7330     3.0400     0.1930 N.am  1 <1>  -0.5470 
 10 C       -1.8670     4.6870     0.9180 C.3   1 <1>  -0.1600 
 11 C       -3.8400     3.4890     0.2490 C.3   1 <1>  -0.1600 
 12 C        2.0600     3.3430     0.1980 C.ar  1 <1>   0.7370 
 13 C       -3.0580     5.5900     1.2450 C.3   1 <1>  -0.1600 
 14 C       -4.3160     4.8320     0.8050 C.3   1 <1>  -0.1600 
 15 N        2.7990     3.1180    -0.8810 N.ar  1 <1>  -0.6200 
 16 N        2.4770     3.8380     1.3560 N.ar  1 <1>  -0.6200 
 17 C        4.0680     3.4320    -0.7880 C.ar  1 <1>   0.1600 
 18 C        3.7520     4.1430     1.4240 C.ar  1 <1>   0.1600 
 19 C        4.6040     3.9570     0.3620 C.ar  1 <1>  -0.1500 
 20 H       -2.0520     1.9920    -1.2950 H     1 <1>   0.0800 
 21 H       -1.1700    -1.5390    -0.8140 H     1 <1>   0.0800 
 22 H       -0.2530    -0.0900    -1.2000 H     1 <1>   0.0800 
 23 H       -1.9580    -0.2200    -1.6660 H     1 <1>   0.0800 
 24 H       -2.4050     4.2880    -1.0820 H     1 <1>   0.0800 
 25 H        0.3500     3.1070     1.1340 H     1 <1>   0.3700 
 26 H       -1.0230     5.2630     0.5790 H     1 <1>   0.0800 
 27 H       -1.5930     4.1530     1.8100 H     1 <1>   0.0800 
 28 H       -3.8920     2.7550     1.0360 H     1 <1>   0.0800 
 29 H       -4.4470     3.1630    -0.5780 H     1 <1>   0.0800 
 30 H       -2.9820     6.5120     0.6930 H     1 <1>   0.0800 
 31 H       -3.0860     5.8180     2.2970 H     1 <1>   0.0800 
 32 H       -4.9950     4.6870     1.6280 H     1 <1>   0.0800 
 33 H       -4.8190     5.3890     0.0340 H     1 <1>   0.0800 
 34 H        4.6920     3.2650    -1.6500 H     1 <1>   0.1500 
 35 H        4.1260     4.5500     2.3480 H     1 <1>   0.1500 
 36 H        5.6460     4.2110     0.4280 H     1 <1>   0.1500 
@<TRIPOS>BOND
  1   1   2  2   
  2   2   3  1   
  3   2   4  1   
  4   3   5  1   
  5   4   6  1   
  6   4   7  1   
  7   4  20  1   
  8   5  21  1   
  9   5  22  1   
 10   5  23  1   
 11   6   8  2   
 12   6   9  am  
 13   7  10  1   
 14   7  11  1   
 15   7  24  1   
 16   9  12  1   
 17   9  25  1   
 18  10  13  1   
 19  10  26  1   
 20  10  27  1   
 21  11  14  1   
 22  11  28  1   
 23  11  29  1   
 24  12  15  ar  
 25  12  16  ar  
 26  13  14  1   
 27  13  30  1   
 28  13  31  1   
 29  14  32  1   
 30  14  33  1   
 31  15  17  ar  
 32  16  18  ar  
 33  17  19  ar  
 34  17  34  1   
 35  18  19  ar  
 36  18  35  1   
 37  19  36  1   
@<TRIPOS>SUBSTRUCTURE
  1 ****   9 GROUP 4 **** **** 0

# MOE 2024.06 (io_trps.svl 2023.06)
