@<TRIPOS>MOLECULE
NONAME
43 45 1 0 0 
SMALL
USER_CHARGES


@<TRIPOS>ATOM
  1 O        0.7930     0.6810     2.4620 O.2   1 <1>  -0.5700 
  2 C        1.0420    -0.3540     1.8890 C.2   1 <1>   0.5690 
  3 N        2.2380    -0.7560     1.3820 N.am  1 <1>  -0.2370 
  4 C        0.0350    -1.4390     1.5980 C.3   1 <1>   0.1470 
  5 C        3.4570    -0.0420     1.4780 C.ar  1 <1>   0.1170 
  6 C        2.0250    -2.0040     0.8050 C.2   1 <1>   0.5600 
  7 N        0.8300    -2.4380     0.8740 N.2   1 <1>  -0.6960 
  8 C        4.2450     0.2530     0.3570 C.ar  1 <1>   0.0820 
  9 C        3.9050     0.3920     2.7210 C.ar  1 <1>  -0.1500 
 10 N        3.0630    -2.6440     0.1810 N.pl3 1 <1>  -0.5500 
 11 O        3.8780    -0.1420    -0.8840 O.3   1 <1>  -0.3620 
 12 C        5.4430     0.9340     0.4890 C.ar  1 <1>  -0.1500 
 13 C        5.0980     1.0820     2.8520 C.ar  1 <1>  -0.1500 
 14 C        3.1540    -3.9080    -0.2990 C.ar  1 <1>   0.7200 
 15 C        2.8900     0.6290    -1.5270 C.3   1 <1>   0.1200 
 16 C        5.8700     1.3520     1.7360 C.ar  1 <1>  -0.1500 
 17 N        2.6300    -4.9050     0.4040 N.ar  1 <1>  -0.6200 
 18 N        3.8260    -4.0020    -1.4390 N.ar  1 <1>  -0.6200 
 19 C        2.3210    -0.2050    -2.6700 C.3   1 <1>  -0.2400 
 20 C        2.7630    -6.1010    -0.1080 C.ar  1 <1>   0.1670 
 21 C        3.9500    -5.2080    -1.9330 C.ar  1 <1>   0.1670 
 22 C        3.4250    -6.3080    -1.2960 C.ar  1 <1>  -0.1500 
 23 C        2.1530    -7.2490     0.6670 C.3   1 <1>  -0.0970 
 24 C        4.7010    -5.3410    -3.2410 C.3   1 <1>  -0.0970 
 25 H       -0.7610    -1.0670     0.9780 H     1 <1>   0.0800 
 26 H       -0.3550    -1.8550     2.5090 H     1 <1>   0.0800 
 27 H        3.3130     0.1900     3.5970 H     1 <1>   0.1500 
 28 H        3.7110    -2.0170    -0.2910 H     1 <1>   0.4000 
 29 H        6.0370     1.1350    -0.3850 H     1 <1>   0.1500 
 30 H        5.4250     1.4090     3.8250 H     1 <1>   0.1500 
 31 H        3.3520     1.5300    -1.8930 H     1 <1>   0.0800 
 32 H        2.1180     0.8810    -0.8200 H     1 <1>   0.0800 
 33 H        6.8000     1.8850     1.8390 H     1 <1>   0.1500 
 34 H        3.1010    -0.4650    -3.3640 H     1 <1>   0.0800 
 35 H        1.5700     0.3570    -3.1930 H     1 <1>   0.0800 
 36 H        1.8700    -1.1040    -2.2860 H     1 <1>   0.0800 
 37 H        3.5290    -7.2930    -1.7090 H     1 <1>   0.1500 
 38 H        2.5990    -7.2970     1.6440 H     1 <1>   0.0800 
 39 H        2.3090    -8.1850     0.1640 H     1 <1>   0.0800 
 40 H        1.0970    -7.0830     0.7780 H     1 <1>   0.0800 
 41 H        5.7050    -4.9780    -3.1170 H     1 <1>   0.0800 
 42 H        4.2120    -4.7540    -3.9960 H     1 <1>   0.0800 
 43 H        4.7380    -6.3650    -3.5640 H     1 <1>   0.0800 
@<TRIPOS>BOND
  1   1   2  2   
  2   2   3  am  
  3   2   4  1   
  4   3   5  1   
  5   3   6  1   
  6   4   7  1   
  7   4  25  1   
  8   4  26  1   
  9   5   8  ar  
 10   5   9  ar  
 11   6   7  2   
 12   6  10  1   
 13   8  11  1   
 14   8  12  ar  
 15   9  13  ar  
 16   9  27  1   
 17  10  14  1   
 18  10  28  1   
 19  11  15  1   
 20  12  16  ar  
 21  12  29  1   
 22  13  16  ar  
 23  13  30  1   
 24  14  17  ar  
 25  14  18  ar  
 26  15  19  1   
 27  15  31  1   
 28  15  32  1   
 29  16  33  1   
 30  17  20  ar  
 31  18  21  ar  
 32  19  34  1   
 33  19  35  1   
 34  19  36  1   
 35  20  22  ar  
 36  20  23  1   
 37  21  22  ar  
 38  21  24  1   
 39  22  37  1   
 40  23  38  1   
 41  23  39  1   
 42  23  40  1   
 43  24  41  1   
 44  24  42  1   
 45  24  43  1   
@<TRIPOS>SUBSTRUCTURE
  1 ****  10 GROUP 4 **** **** 0

# MOE 2024.06 (io_trps.svl 2023.06)
