@<TRIPOS>MOLECULE
NONAME
39 40 1 0 0 
SMALL
USER_CHARGES


@<TRIPOS>ATOM
  1 N        0.4080    -0.0790     0.1890 N.ar  1 <1>  -0.6200 
  2 C        0.8070     0.7950    -0.7140 C.ar  1 <1>   0.1600 
  3 C        1.2030    -0.2300     1.2330 C.ar  1 <1>   0.1600 
  4 C        1.9690     1.5440    -0.6210 C.ar  1 <1>  -0.1500 
  5 C        2.3830     0.4680     1.4220 C.ar  1 <1>  -0.1500 
  6 C        2.7980     1.3950     0.4820 C.ar  1 <1>  -0.1430 
  7 C        4.0940     2.1680     0.7100 C.3   1 <1>   0.7100 
  8 N        3.9630     3.5220     0.1540 N.4   1 <1>  -0.9060 
  9 C        5.3100     1.5060     0.0770 C.ar  1 <1>  -0.1430 
 10 C        5.0690     4.4260     0.5420 C.3   1 <1>   0.3430 
 11 C        5.3040     1.0630    -1.2410 C.ar  1 <1>  -0.1500 
 12 C        6.4650     1.3530     0.8340 C.ar  1 <1>  -0.1500 
 13 C        4.8510     5.7840    -0.1180 C.3   1 <1>  -0.1600 
 14 C        6.4380     0.4930    -1.7930 C.ar  1 <1>  -0.1500 
 15 C        7.5970     0.7820     0.2800 C.ar  1 <1>  -0.1500 
 16 C        5.9830     6.7530     0.2460 C.3   1 <1>  -0.1600 
 17 C        7.5840     0.3540    -1.0340 C.ar  1 <1>  -0.1500 
 18 C        5.7700     8.1160    -0.4180 C.3   1 <1>  -0.2400 
 19 H        0.1710     0.9190    -1.5760 H     1 <1>   0.1500 
 20 H        0.8950    -0.9480     1.9750 H     1 <1>   0.1500 
 21 H        2.1900     2.2210    -1.4250 H     1 <1>   0.1500 
 22 H        2.9600     0.2670     2.3080 H     1 <1>   0.1500 
 23 H        4.2550     2.2380     1.7730 H     1 <1>   0.0800 
 24 H        3.0550     3.9000     0.4420 H     1 <1>   0.4500 
 25 H        3.9630     3.4170    -0.8620 H     1 <1>   0.4500 
 26 H        6.0140     4.0180     0.2170 H     1 <1>   0.0800 
 27 H        5.0980     4.5460     1.6140 H     1 <1>   0.0800 
 28 H        4.4280     1.1420    -1.8610 H     1 <1>   0.1500 
 29 H        6.5070     1.6690     1.8630 H     1 <1>   0.1500 
 30 H        3.9160     6.2050     0.2090 H     1 <1>   0.0800 
 31 H        4.8270     5.6690    -1.1890 H     1 <1>   0.0800 
 32 H        6.4310     0.1490    -2.8140 H     1 <1>   0.1500 
 33 H        8.4920     0.6640     0.8700 H     1 <1>   0.1500 
 34 H        6.9310     6.3540    -0.0770 H     1 <1>   0.0800 
 35 H        6.0260     6.8900     1.3140 H     1 <1>   0.0800 
 36 H        8.4660    -0.0910    -1.4650 H     1 <1>   0.1500 
 37 H        5.7530     8.0210    -1.4900 H     1 <1>   0.0800 
 38 H        6.5720     8.7830    -0.1530 H     1 <1>   0.0800 
 39 H        4.8440     8.5590    -0.0950 H     1 <1>   0.0800 
@<TRIPOS>BOND
  1   1   2  ar  
  2   1   3  ar  
  3   2   4  ar  
  4   2  19  1   
  5   3   5  ar  
  6   3  20  1   
  7   4   6  ar  
  8   4  21  1   
  9   5   6  ar  
 10   5  22  1   
 11   6   7  1   
 12   7   8  1   
 13   7   9  1   
 14   7  23  1   
 15   8  10  1   
 16   8  24  1   
 17   8  25  1   
 18   9  11  ar  
 19   9  12  ar  
 20  10  13  1   
 21  10  26  1   
 22  10  27  1   
 23  11  14  ar  
 24  11  28  1   
 25  12  15  ar  
 26  12  29  1   
 27  13  16  1   
 28  13  30  1   
 29  13  31  1   
 30  14  17  ar  
 31  14  32  1   
 32  15  17  ar  
 33  15  33  1   
 34  16  18  1   
 35  16  34  1   
 36  16  35  1   
 37  17  36  1   
 38  18  37  1   
 39  18  38  1   
 40  18  39  1   
@<TRIPOS>SUBSTRUCTURE
  1 ****   7 GROUP 4 **** **** 0

# MOE 2024.06 (io_trps.svl 2023.06)
