@<TRIPOS>MOLECULE
NONAME
45 46 1 0 0 
SMALL
USER_CHARGES


@<TRIPOS>ATOM
  1 O        0.5430    -1.0380    -0.3390 O.3   1 <1>  -0.3630 
  2 C       -0.7360    -1.0590     0.1210 C.ar  1 <1>   0.0830 
  3 C        1.5980    -0.5040     0.4290 C.3   1 <1>   0.1200 
  4 C       -1.7110    -1.6070    -0.7080 C.ar  1 <1>  -0.1440 
  5 C       -1.0980    -0.5580     1.3710 C.ar  1 <1>  -0.1500 
  6 C        2.8830    -0.6410    -0.3800 C.3   1 <1>   0.1200 
  7 C       -3.0290    -1.6500    -0.2820 C.ar  1 <1>  -0.1500 
  8 C       -1.3430    -2.1600    -2.0780 C.3   1 <1>  -0.0960 
  9 C       -2.4170    -0.6060     1.7850 C.ar  1 <1>  -0.1500 
 10 O        3.9430    -0.1150     0.3640 O.3   1 <1>  -0.5600 
 11 C       -3.3830    -1.1520     0.9590 C.ar  1 <1>  -0.1500 
 12 C        5.1750    -0.1840    -0.2710 C.3   1 <1>   0.1200 
 13 C        6.2150     0.4130     0.6850 C.3   1 <1>   0.3430 
 14 N        7.6140     0.3490     0.1470 N.4   1 <1>  -0.9590 
 15 C        8.5890     0.6780     1.2290 C.3   1 <1>   0.3430 
 16 C        7.8070     1.2350    -1.0410 C.3   1 <1>   0.3430 
 17 C       10.0160     0.4740     0.7180 C.3   1 <1>  -0.1600 
 18 C        9.2170     1.0440    -1.6040 C.3   1 <1>  -0.1600 
 19 C       10.2920     1.3050    -0.5420 C.3   1 <1>  -0.1600 
 20 H        1.6660    -1.0640     1.3450 H     1 <1>   0.0800 
 21 H        1.3830     0.5320     0.6240 H     1 <1>   0.0800 
 22 H       -0.3730    -0.1290     2.0350 H     1 <1>   0.1500 
 23 H        2.7960    -0.0900    -1.3010 H     1 <1>   0.0800 
 24 H        3.0800    -1.6810    -0.5790 H     1 <1>   0.0800 
 25 H       -3.7900    -2.0720    -0.9150 H     1 <1>   0.1500 
 26 H       -2.2070    -2.5440    -2.5880 H     1 <1>   0.0800 
 27 H       -0.9070    -1.3820    -2.6780 H     1 <1>   0.0800 
 28 H       -0.6270    -2.9550    -1.9670 H     1 <1>   0.0800 
 29 H       -2.6930    -0.2190     2.7510 H     1 <1>   0.1500 
 30 H       -4.4080    -1.1890     1.2820 H     1 <1>   0.1500 
 31 H        5.1140     0.3800    -1.1850 H     1 <1>   0.0800 
 32 H        5.3940    -1.2190    -0.4750 H     1 <1>   0.0800 
 33 H        6.1640    -0.1360     1.6110 H     1 <1>   0.0800 
 34 H        5.9520     1.4380     0.8880 H     1 <1>   0.0800 
 35 H        7.8140    -0.6170    -0.1470 H     1 <1>   0.4500 
 36 H        8.4210     0.0440     2.0850 H     1 <1>   0.0800 
 37 H        8.4600     1.7040     1.5360 H     1 <1>   0.0800 
 38 H        7.6720     2.2660    -0.7540 H     1 <1>   0.0800 
 39 H        7.0850     0.9990    -1.8070 H     1 <1>   0.0800 
 40 H       10.1780    -0.5700     0.5130 H     1 <1>   0.0800 
 41 H       10.7100     0.7590     1.4900 H     1 <1>   0.0800 
 42 H        9.3610     1.7220    -2.4280 H     1 <1>   0.0800 
 43 H        9.3160     0.0450    -1.9910 H     1 <1>   0.0800 
 44 H       11.2650     1.0600    -0.9370 H     1 <1>   0.0800 
 45 H       10.2990     2.3520    -0.2870 H     1 <1>   0.0800 
@<TRIPOS>BOND
  1   1   2  1   
  2   1   3  1   
  3   2   4  ar  
  4   2   5  ar  
  5   3   6  1   
  6   3  20  1   
  7   3  21  1   
  8   4   7  ar  
  9   4   8  1   
 10   5   9  ar  
 11   5  22  1   
 12   6  10  1   
 13   6  23  1   
 14   6  24  1   
 15   7  11  ar  
 16   7  25  1   
 17   8  26  1   
 18   8  27  1   
 19   8  28  1   
 20   9  11  ar  
 21   9  29  1   
 22  10  12  1   
 23  11  30  1   
 24  12  13  1   
 25  12  31  1   
 26  12  32  1   
 27  13  14  1   
 28  13  33  1   
 29  13  34  1   
 30  14  15  1   
 31  14  16  1   
 32  14  35  1   
 33  15  17  1   
 34  15  36  1   
 35  15  37  1   
 36  16  18  1   
 37  16  38  1   
 38  16  39  1   
 39  17  19  1   
 40  17  40  1   
 41  17  41  1   
 42  18  19  1   
 43  18  42  1   
 44  18  43  1   
 45  19  44  1   
 46  19  45  1   
@<TRIPOS>SUBSTRUCTURE
  1 ****   6 GROUP 4 **** **** 0

# MOE 2024.06 (io_trps.svl 2023.06)
