@<TRIPOS>MOLECULE
NONAME
48 49 1 0 0 
SMALL
USER_CHARGES


@<TRIPOS>ATOM
  1 O       -1.3250    -1.2760     0.9130 O.3   1 <1>  -0.5600 
  2 C       -1.9600    -0.3300     1.7310 C.3   1 <1>   0.1200 
  3 C       -1.2020    -0.8840    -0.4280 C.3   1 <1>   0.1200 
  4 C       -3.3910    -0.0280     1.2260 C.3   1 <1>   0.3430 
  5 C       -2.5790    -0.5390    -1.0440 C.3   1 <1>   0.3430 
  6 N       -3.6910    -0.7540    -0.0580 N.4   1 <1>  -0.9590 
  7 C       -5.0290    -0.4570    -0.6350 C.3   1 <1>   0.3430 
  8 C       -6.1340    -1.0150     0.2640 C.3   1 <1>  -0.1600 
  9 C       -7.5140    -0.8270    -0.3820 C.3   1 <1>  -0.1600 
 10 C       -8.6200    -1.3910     0.5200 C.3   1 <1>  -0.1600 
 11 C      -10.0030    -1.2160    -0.1080 C.3   1 <1>   0.1200 
 12 O      -10.9500    -1.7540     0.7820 O.3   1 <1>  -0.3630 
 13 C      -12.2810    -1.7460     0.5010 C.ar  1 <1>   0.0820 
 14 C      -13.1410    -2.2990     1.4460 C.ar  1 <1>  -0.1430 
 15 C      -12.8040    -1.2140    -0.6770 C.ar  1 <1>  -0.1500 
 16 C      -14.5050    -2.3130     1.2030 C.ar  1 <1>  -0.1500 
 17 C      -12.5970    -2.8870     2.7400 C.3   1 <1>  -0.0970 
 18 C      -14.1680    -1.2330    -0.9140 C.ar  1 <1>  -0.1430 
 19 C      -15.0150    -1.7830     0.0320 C.ar  1 <1>  -0.1500 
 20 C      -14.7340    -0.6510    -2.1980 C.3   1 <1>  -0.0970 
 21 H       -1.3640     0.5670     1.7480 H     1 <1>   0.0800 
 22 H       -1.9950    -0.7290     2.7300 H     1 <1>   0.0800 
 23 H       -0.7500    -1.7000    -0.9650 H     1 <1>   0.0800 
 24 H       -0.5370    -0.0390    -0.4810 H     1 <1>   0.0800 
 25 H       -3.4940     1.0350     1.0840 H     1 <1>   0.0800 
 26 H       -4.0940    -0.3220     1.9880 H     1 <1>   0.0800 
 27 H       -2.7340    -1.1520    -1.9170 H     1 <1>   0.0800 
 28 H       -2.5670     0.4880    -1.3680 H     1 <1>   0.0800 
 29 H       -3.6370    -1.7550     0.1840 H     1 <1>   0.4500 
 30 H       -5.1100    -0.9160    -1.6070 H     1 <1>   0.0800 
 31 H       -5.1550     0.6070    -0.7540 H     1 <1>   0.0800 
 32 H       -6.1300    -0.5110     1.2140 H     1 <1>   0.0800 
 33 H       -5.9690    -2.0670     0.4270 H     1 <1>   0.0800 
 34 H       -7.5440    -1.3330    -1.3340 H     1 <1>   0.0800 
 35 H       -7.6980     0.2210    -0.5530 H     1 <1>   0.0800 
 36 H       -8.6090    -0.8830     1.4690 H     1 <1>   0.0800 
 37 H       -8.4510    -2.4400     0.6900 H     1 <1>   0.0800 
 38 H      -10.0730    -1.7520    -1.0390 H     1 <1>   0.0800 
 39 H      -10.2310    -0.1750    -0.2550 H     1 <1>   0.0800 
 40 H      -12.1630    -0.7820    -1.4180 H     1 <1>   0.1500 
 41 H      -15.1790    -2.7370     1.9260 H     1 <1>   0.1500 
 42 H      -12.0700    -2.1280     3.2890 H     1 <1>   0.0800 
 43 H      -11.9150    -3.6870     2.5160 H     1 <1>   0.0800 
 44 H      -13.3880    -3.2720     3.3560 H     1 <1>   0.0800 
 45 H      -16.0770    -1.8020    -0.1380 H     1 <1>   0.1500 
 46 H      -14.0160    -0.7240    -2.9940 H     1 <1>   0.0800 
 47 H      -14.9840     0.3830    -2.0470 H     1 <1>   0.0800 
 48 H      -15.6200    -1.1840    -2.4920 H     1 <1>   0.0800 
@<TRIPOS>BOND
  1   1   2  1   
  2   1   3  1   
  3   2   4  1   
  4   2  21  1   
  5   2  22  1   
  6   3   5  1   
  7   3  23  1   
  8   3  24  1   
  9   4   6  1   
 10   4  25  1   
 11   4  26  1   
 12   5   6  1   
 13   5  27  1   
 14   5  28  1   
 15   6   7  1   
 16   6  29  1   
 17   7   8  1   
 18   7  30  1   
 19   7  31  1   
 20   8   9  1   
 21   8  32  1   
 22   8  33  1   
 23   9  10  1   
 24   9  34  1   
 25   9  35  1   
 26  10  11  1   
 27  10  36  1   
 28  10  37  1   
 29  11  12  1   
 30  11  38  1   
 31  11  39  1   
 32  12  13  1   
 33  13  14  ar  
 34  13  15  ar  
 35  14  16  ar  
 36  14  17  1   
 37  15  18  ar  
 38  15  40  1   
 39  16  19  ar  
 40  16  41  1   
 41  17  42  1   
 42  17  43  1   
 43  17  44  1   
 44  18  19  ar  
 45  18  20  1   
 46  19  45  1   
 47  20  46  1   
 48  20  47  1   
 49  20  48  1   
@<TRIPOS>SUBSTRUCTURE
  1 ****  10 GROUP 4 **** **** 0

# MOE 2024.06 (io_trps.svl 2023.06)
