@<TRIPOS>MOLECULE
NONAME
38 38 1 0 0 
SMALL
USER_CHARGES


@<TRIPOS>ATOM
  1 F        1.2470     0.2620     1.5290 F     1 <1>  -0.3400 
  2 C        2.2160     0.1680     0.6100 C.3   1 <1>   0.7410 
  3 F        3.2180    -0.3950     1.2970 F     1 <1>  -0.3400 
  4 C        1.8010    -0.7350    -0.5900 C.2   1 <1>   0.5690 
  5 C        2.6240     1.5900     0.1850 C.3   1 <1>   0.6000 
  6 O        2.6640    -1.1340    -1.3380 O.2   1 <1>  -0.5700 
  7 N        0.5260    -1.1290    -0.9010 N.am  1 <1>  -0.7300 
  8 F        1.6360     2.2130    -0.4590 F     1 <1>  -0.3400 
  9 F        3.6420     1.6060    -0.6740 F     1 <1>  -0.3400 
 10 C       -0.7670    -0.9630    -0.2140 C.3   1 <1>   0.2200 
 11 C       -1.6470    -2.1720    -0.5520 C.3   1 <1>  -0.1600 
 12 C       -1.4230     0.3440    -0.6780 C.3   1 <1>  -0.1600 
 13 C       -3.0600    -2.0180     0.0350 C.3   1 <1>  -0.1600 
 14 C       -2.8390     0.4980    -0.0970 C.3   1 <1>  -0.1600 
 15 C       -3.7120    -0.7140    -0.4350 C.3   1 <1>   0.2200 
 16 N       -5.0150    -0.5660     0.2320 N.am  1 <1>  -0.7300 
 17 C       -6.2390    -0.6270    -0.3890 C.2   1 <1>   0.5690 
 18 O       -6.2930    -0.8040    -1.5870 O.2   1 <1>  -0.5700 
 19 C       -7.5460    -0.4660     0.4280 C.3   1 <1>   0.7410 
 20 F       -8.2440     0.5950     0.0050 F     1 <1>  -0.3400 
 21 F       -7.2520    -0.1490     1.6990 F     1 <1>  -0.3400 
 22 C       -8.4410    -1.7190     0.4260 C.3   1 <1>   0.6000 
 23 F       -7.7800    -2.7900     0.8700 F     1 <1>  -0.3400 
 24 F       -8.8570    -2.0620    -0.7910 F     1 <1>  -0.3400 
 25 H        2.9000     2.1970     1.0270 H     1 <1>   0.0800 
 26 H        0.4670    -1.6830    -1.7580 H     1 <1>   0.3700 
 27 H       -0.6270    -0.9410     0.8530 H     1 <1>   0.0800 
 28 H       -1.1960    -3.0660    -0.1580 H     1 <1>   0.0800 
 29 H       -1.7270    -2.2730    -1.6210 H     1 <1>   0.0800 
 30 H       -1.4830     0.3530    -1.7530 H     1 <1>   0.0800 
 31 H       -0.8260     1.1810    -0.3660 H     1 <1>   0.0800 
 32 H       -2.9980    -2.0260     1.1100 H     1 <1>   0.0800 
 33 H       -3.6660    -2.8500    -0.2780 H     1 <1>   0.0800 
 34 H       -3.2920     1.3860    -0.5020 H     1 <1>   0.0800 
 35 H       -2.7690     0.6080     0.9710 H     1 <1>   0.0800 
 36 H       -3.8520    -0.7580    -1.5040 H     1 <1>   0.0800 
 37 H       -4.9730    -0.3940     1.2400 H     1 <1>   0.3700 
 38 H       -9.3100    -1.5930     1.0430 H     1 <1>   0.0800 
@<TRIPOS>BOND
  1   1   2  1   
  2   2   3  1   
  3   2   4  1   
  4   2   5  1   
  5   4   6  2   
  6   4   7  am  
  7   5   8  1   
  8   5   9  1   
  9   5  25  1   
 10   7  10  1   
 11   7  26  1   
 12  10  11  1   
 13  10  12  1   
 14  10  27  1   
 15  11  13  1   
 16  11  28  1   
 17  11  29  1   
 18  12  14  1   
 19  12  30  1   
 20  12  31  1   
 21  13  15  1   
 22  13  32  1   
 23  13  33  1   
 24  14  15  1   
 25  14  34  1   
 26  14  35  1   
 27  15  16  1   
 28  15  36  1   
 29  16  17  am  
 30  16  37  1   
 31  17  18  2   
 32  17  19  1   
 33  19  20  1   
 34  19  21  1   
 35  19  22  1   
 36  22  23  1   
 37  22  24  1   
 38  22  38  1   
@<TRIPOS>SUBSTRUCTURE
  1 ****  14 GROUP 4 **** **** 0

# MOE 2024.06 (io_trps.svl 2023.06)
