@<TRIPOS>MOLECULE
NONAME
41 42 1 0 0 
SMALL
USER_CHARGES


@<TRIPOS>ATOM
  1 BR      -0.3630     1.4780     2.5410 Br    1 <1>  -0.1110 
  2 C       -1.3750     1.4660     0.8950 C.ar  1 <1>   0.1110 
  3 C       -0.8710     2.0970    -0.2360 C.ar  1 <1>   0.0830 
  4 C       -2.5970     0.8210     0.8880 C.ar  1 <1>  -0.1500 
  5 O        0.3240     2.7280    -0.2270 O.3   1 <1>  -0.3630 
  6 C       -1.6270     2.0910    -1.3970 C.ar  1 <1>  -0.1500 
  7 C       -3.3390     0.8120    -0.2830 C.ar  1 <1>  -0.1500 
  8 C        1.4560     1.9130    -0.4040 C.3   1 <1>   0.1200 
  9 C       -2.8550     1.4470    -1.4190 C.ar  1 <1>  -0.1500 
 10 C        2.6850     2.7500    -0.0480 C.3   1 <1>  -0.1600 
 11 C        3.9810     1.9340    -0.1550 C.3   1 <1>  -0.1600 
 12 C        5.1840     2.7920     0.2420 C.3   1 <1>   0.3430 
 13 N        6.4280     1.9750     0.2650 N.4   1 <1>  -0.9590 
 14 C        7.5020     2.6870     1.0190 C.3   1 <1>   0.3430 
 15 C        6.8890     1.5980    -1.1070 C.3   1 <1>   0.3430 
 16 C        8.7230     1.7760     1.1660 C.3   1 <1>  -0.1600 
 17 C        8.0960     0.6640    -1.0080 C.3   1 <1>  -0.1600 
 18 C        9.2370     1.2920    -0.1960 C.3   1 <1>  -0.1600 
 19 H       -2.9610     0.3390     1.7780 H     1 <1>   0.1500 
 20 H       -1.2560     2.5890    -2.2750 H     1 <1>   0.1500 
 21 H       -4.2930     0.3150    -0.3100 H     1 <1>   0.1500 
 22 H        1.4790     1.5910    -1.4310 H     1 <1>   0.0800 
 23 H        1.3710     1.0580     0.2440 H     1 <1>   0.0800 
 24 H       -3.4390     1.4410    -2.3230 H     1 <1>   0.1500 
 25 H        2.5670     3.1110     0.9610 H     1 <1>   0.0800 
 26 H        2.7280     3.5970    -0.7120 H     1 <1>   0.0800 
 27 H        4.0860     1.5870    -1.1680 H     1 <1>   0.0800 
 28 H        3.9110     1.0850     0.5020 H     1 <1>   0.0800 
 29 H        5.0040     3.1990     1.2250 H     1 <1>   0.0800 
 30 H        5.2930     3.6170    -0.4450 H     1 <1>   0.0800 
 31 H        6.2320     1.1040     0.7740 H     1 <1>   0.4500 
 32 H        7.1460     2.9660     1.9980 H     1 <1>   0.0800 
 33 H        7.7850     3.5840     0.4920 H     1 <1>   0.0800 
 34 H        7.1640     2.4850    -1.6550 H     1 <1>   0.0800 
 35 H        6.0990     1.0990    -1.6430 H     1 <1>   0.0800 
 36 H        8.4670     0.9320     1.7840 H     1 <1>   0.0800 
 37 H        9.5060     2.3160     1.6690 H     1 <1>   0.0800 
 38 H        8.4490     0.4400    -2.0000 H     1 <1>   0.0800 
 39 H        7.7930    -0.2660    -0.5580 H     1 <1>   0.0800 
 40 H       10.0260     0.5710    -0.0550 H     1 <1>   0.0800 
 41 H        9.6490     2.1250    -0.7410 H     1 <1>   0.0800 
@<TRIPOS>BOND
  1   1   2  1   
  2   2   3  ar  
  3   2   4  ar  
  4   3   5  1   
  5   3   6  ar  
  6   4   7  ar  
  7   4  19  1   
  8   5   8  1   
  9   6   9  ar  
 10   6  20  1   
 11   7   9  ar  
 12   7  21  1   
 13   8  10  1   
 14   8  22  1   
 15   8  23  1   
 16   9  24  1   
 17  10  11  1   
 18  10  25  1   
 19  10  26  1   
 20  11  12  1   
 21  11  27  1   
 22  11  28  1   
 23  12  13  1   
 24  12  29  1   
 25  12  30  1   
 26  13  14  1   
 27  13  15  1   
 28  13  31  1   
 29  14  16  1   
 30  14  32  1   
 31  14  33  1   
 32  15  17  1   
 33  15  34  1   
 34  15  35  1   
 35  16  18  1   
 36  16  36  1   
 37  16  37  1   
 38  17  18  1   
 39  17  38  1   
 40  17  39  1   
 41  18  40  1   
 42  18  41  1   
@<TRIPOS>SUBSTRUCTURE
  1 ****  10 GROUP 4 **** **** 0

# MOE 2024.06 (io_trps.svl 2023.06)
