@<TRIPOS>MOLECULE
NONAME
37 37 1 0 0 
SMALL
USER_CHARGES


@<TRIPOS>ATOM
  1 O       -1.9370     4.0260     1.0360 O.3   1 <1>  -0.6800 
  2 C       -3.3080     3.8260     0.9110 C.3   1 <1>   0.1200 
  3 C       -3.6270     2.5450     0.0860 C.3   1 <1>   0.5030 
  4 N       -5.0960     2.4020    -0.0010 N.4   1 <1>  -0.9060 
  5 C       -3.0650     2.6660    -1.3360 C.3   1 <1>  -0.2400 
  6 C       -3.0590     1.3010     0.7810 C.3   1 <1>  -0.2400 
  7 C       -5.6350     1.2440    -0.7470 C.3   1 <1>   0.4860 
  8 C       -7.1350     1.3710    -0.6610 C.ar  1 <1>  -0.1430 
  9 C       -7.8320     2.0880    -1.6220 C.ar  1 <1>  -0.1500 
 10 C       -7.8260     0.7880     0.3910 C.ar  1 <1>  -0.1500 
 11 C       -9.2040     2.2290    -1.5240 C.ar  1 <1>  -0.1500 
 12 C       -9.1980     0.9330     0.4850 C.ar  1 <1>  -0.1500 
 13 C       -9.8950     1.6540    -0.4700 C.ar  1 <1>  -0.1430 
 14 C      -11.4030     1.8130    -0.3630 C.3   1 <1>  -0.0170 
 15 C      -11.7560     3.0630     0.4450 C.3   1 <1>  -0.2400 
 16 H       -1.7280     4.8320     1.5550 H     1 <1>   0.4000 
 17 H       -3.7150     4.6970     0.4280 H     1 <1>   0.0800 
 18 H       -3.7110     3.7440     1.9060 H     1 <1>   0.0800 
 19 H       -5.4960     3.2410    -0.4320 H     1 <1>   0.4500 
 20 H       -5.4920     2.3550     0.9420 H     1 <1>   0.4500 
 21 H       -3.2230     1.7730    -1.9120 H     1 <1>   0.0800 
 22 H       -3.4930     3.5090    -1.8500 H     1 <1>   0.0800 
 23 H       -2.0010     2.8230    -1.2900 H     1 <1>   0.0800 
 24 H       -1.9940     1.4100     0.9000 H     1 <1>   0.0800 
 25 H       -3.4820     1.1790     1.7620 H     1 <1>   0.0800 
 26 H       -3.2170     0.4080     0.2060 H     1 <1>   0.0800 
 27 H       -5.3170     0.3160    -0.3010 H     1 <1>   0.0800 
 28 H       -5.3210     1.2680    -1.7780 H     1 <1>   0.0800 
 29 H       -7.3260     2.5420    -2.4580 H     1 <1>   0.1500 
 30 H       -7.3160     0.2150     1.1480 H     1 <1>   0.1500 
 31 H       -9.7400     2.7880    -2.2720 H     1 <1>   0.1500 
 32 H       -9.7290     0.4800     1.3060 H     1 <1>   0.1500 
 33 H      -11.8290     0.9450     0.1120 H     1 <1>   0.0800 
 34 H      -11.8330     1.8860    -1.3470 H     1 <1>   0.0800 
 35 H      -11.3500     2.9920     1.4390 H     1 <1>   0.0800 
 36 H      -12.8240     3.1680     0.5160 H     1 <1>   0.0800 
 37 H      -11.3550     3.9400    -0.0310 H     1 <1>   0.0800 
@<TRIPOS>BOND
  1   1   2  1   
  2   1  16  1   
  3   2   3  1   
  4   2  17  1   
  5   2  18  1   
  6   3   4  1   
  7   3   5  1   
  8   3   6  1   
  9   4   7  1   
 10   4  19  1   
 11   4  20  1   
 12   5  21  1   
 13   5  22  1   
 14   5  23  1   
 15   6  24  1   
 16   6  25  1   
 17   6  26  1   
 18   7   8  1   
 19   7  27  1   
 20   7  28  1   
 21   8   9  ar  
 22   8  10  ar  
 23   9  11  ar  
 24   9  29  1   
 25  10  12  ar  
 26  10  30  1   
 27  11  13  ar  
 28  11  31  1   
 29  12  13  ar  
 30  12  32  1   
 31  13  14  1   
 32  14  15  1   
 33  14  33  1   
 34  14  34  1   
 35  15  35  1   
 36  15  36  1   
 37  15  37  1   
@<TRIPOS>SUBSTRUCTURE
  1 ****   8 GROUP 4 **** **** 0

# MOE 2024.06 (io_trps.svl 2023.06)
