@<TRIPOS>MOLECULE
NONAME
32 33 1 0 0 
SMALL
USER_CHARGES


@<TRIPOS>ATOM
  1 I       -0.2140    -0.1260     0.1350 I     1 <1>  -0.0810 
  2 C        1.9030     0.0890     0.1210 C.ar  1 <1>   0.0810 
  3 C        2.5000     0.7110    -0.9590 C.ar  1 <1>  -0.1500 
  4 C        2.6270    -0.3980     1.1910 C.ar  1 <1>  -0.1500 
  5 C        3.8780     0.8470    -0.9600 C.ar  1 <1>  -0.1500 
  6 C        4.0040    -0.2540     1.1740 C.ar  1 <1>  -0.1500 
  7 C        4.6380     0.3690     0.1020 C.ar  1 <1>  -0.1430 
  8 C        6.1550     0.5300     0.0650 C.3   1 <1>   0.3640 
  9 N        6.7510    -0.8060    -0.0060 N.am  1 <1>  -0.7300 
 10 C        6.6930     1.2490     1.2990 C.3   1 <1>  -0.2400 
 11 C        7.9040    -1.1020    -0.6550 C.2   1 <1>   0.5770 
 12 O        8.5660    -0.2430    -1.1870 O.2   1 <1>  -0.5700 
 13 C        8.3560    -2.5550    -0.7280 C.3   1 <1>   0.0530 
 14 C        8.2060    -3.3650     0.5900 C.3   1 <1>   0.0000 
 15 C        9.8880    -2.7820    -0.5920 C.3   1 <1>   0.0000 
 16 C        9.5460    -4.0550     0.2250 C.3   1 <1>   0.0000 
 17 H        1.9080     1.0790    -1.7780 H     1 <1>   0.1500 
 18 H        2.1300    -0.8760     2.0170 H     1 <1>   0.1500 
 19 H        4.3570     1.3260    -1.7970 H     1 <1>   0.1500 
 20 H        4.5770    -0.6300     2.0040 H     1 <1>   0.1500 
 21 H        6.4380     1.0890    -0.8120 H     1 <1>   0.0800 
 22 H        6.1600    -1.5460     0.3680 H     1 <1>   0.3700 
 23 H        6.5060     0.6840     2.1930 H     1 <1>   0.0800 
 24 H        6.2180     2.2090     1.3910 H     1 <1>   0.0800 
 25 H        7.7520     1.4030     1.1930 H     1 <1>   0.0800 
 26 H        7.9450    -3.0800    -1.5730 H     1 <1>   0.0000 
 27 H        7.3610    -4.0310     0.5980 H     1 <1>   0.0000 
 28 H        8.2860    -2.7580     1.4760 H     1 <1>   0.0000 
 29 H       10.3790    -2.0320     0.0050 H     1 <1>   0.0000 
 30 H       10.3830    -2.9830    -1.5250 H     1 <1>   0.0000 
 31 H        9.4110    -4.9240    -0.3960 H     1 <1>   0.0000 
 32 H       10.1950    -4.2200     1.0660 H     1 <1>   0.0000 
@<TRIPOS>BOND
  1   1   2  1   
  2   2   3  ar  
  3   2   4  ar  
  4   3   5  ar  
  5   3  17  1   
  6   4   6  ar  
  7   4  18  1   
  8   5   7  ar  
  9   5  19  1   
 10   6   7  ar  
 11   6  20  1   
 12   7   8  1   
 13   8   9  1   
 14   8  10  1   
 15   8  21  1   
 16   9  11  am  
 17   9  22  1   
 18  10  23  1   
 19  10  24  1   
 20  10  25  1   
 21  11  12  2   
 22  11  13  1   
 23  13  14  1   
 24  13  15  1   
 25  13  26  1   
 26  14  16  1   
 27  14  27  1   
 28  14  28  1   
 29  15  16  1   
 30  15  29  1   
 31  15  30  1   
 32  16  31  1   
 33  16  32  1   
@<TRIPOS>SUBSTRUCTURE
  1 ****   9 GROUP 4 **** **** 0

# MOE 2024.06 (io_trps.svl 2023.06)
