@<TRIPOS>MOLECULE
NONAME
35 36 1 0 0 
SMALL
USER_CHARGES


@<TRIPOS>ATOM
  1 O        0.6860     0.2210    -1.7490 O.2   1 <1>  -0.5700 
  2 C        1.7390     0.2810    -1.1620 C.2   1 <1>   0.4950 
  3 C        2.8050     1.1260    -1.5600 C.2   1 <1>  -0.1360 
  4 C        1.9260    -0.5730     0.0790 C.3   1 <1>  -0.0990 
  5 C        4.0070     1.2100    -0.9390 C.2   1 <1>  -0.0380 
  6 C        3.4060    -0.9410     0.3270 C.3   1 <1>   0.0000 
  7 N        5.0090     2.0610    -1.3590 N.pl3 1 <1>  -0.6000 
  8 C        4.2880     0.3300     0.2810 C.3   1 <1>  -0.0220 
  9 C        3.8810    -1.9470    -0.7410 C.3   1 <1>  -0.2400 
 10 C        3.5400    -1.6100     1.7040 C.3   1 <1>  -0.2400 
 11 C        6.2390     2.3400    -0.7580 C.ar  1 <1>   0.1000 
 12 C        7.4180     2.1580    -1.4680 C.ar  1 <1>  -0.1500 
 13 C        6.3220     2.8220     0.5410 C.ar  1 <1>  -0.1500 
 14 C        8.6410     2.4400    -0.8920 C.ar  1 <1>  -0.1500 
 15 C        7.5470     3.1030     1.1150 C.ar  1 <1>  -0.1500 
 16 C        8.7440     2.9200     0.4170 C.ar  1 <1>  -0.1790 
 17 C       10.0360     3.2180     1.0220 C.2   1 <1>   0.9790 
 18 O       10.1100     3.6450     2.1890 O.co2 1 <1>  -0.9000 
 19 O       11.0920     3.0510     0.3830 O.co2 1 <1>  -0.9000 
 20 H        2.5940     1.7280    -2.4230 H     1 <1>   0.1500 
 21 H        1.3350    -1.4660    -0.0200 H     1 <1>   0.0800 
 22 H        1.5420    -0.0170     0.9140 H     1 <1>   0.0800 
 23 H        4.8750     2.5360    -2.2560 H     1 <1>   0.4000 
 24 H        4.1200     0.9210     1.1630 H     1 <1>   0.0800 
 25 H        5.3230     0.0330     0.2840 H     1 <1>   0.0800 
 26 H        3.8230    -1.5260    -1.7290 H     1 <1>   0.0800 
 27 H        3.2770    -2.8370    -0.7200 H     1 <1>   0.0800 
 28 H        4.9030    -2.2300    -0.5620 H     1 <1>   0.0800 
 29 H        3.2150    -0.9450     2.4840 H     1 <1>   0.0800 
 30 H        4.5650    -1.8770     1.8950 H     1 <1>   0.0800 
 31 H        2.9430    -2.5050     1.7510 H     1 <1>   0.0800 
 32 H        7.3770     1.7860    -2.4750 H     1 <1>   0.1500 
 33 H        5.4210     2.9850     1.1010 H     1 <1>   0.1500 
 34 H        9.5500     2.2920    -1.4510 H     1 <1>   0.1500 
 35 H        7.6000     3.4760     2.1250 H     1 <1>   0.1500 
@<TRIPOS>BOND
  1   1   2  2   
  2   2   3  1   
  3   2   4  1   
  4   3   5  2   
  5   3  20  1   
  6   4   6  1   
  7   4  21  1   
  8   4  22  1   
  9   5   7  1   
 10   5   8  1   
 11   6   8  1   
 12   6   9  1   
 13   6  10  1   
 14   7  11  1   
 15   7  23  1   
 16   8  24  1   
 17   8  25  1   
 18   9  26  1   
 19   9  27  1   
 20   9  28  1   
 21  10  29  1   
 22  10  30  1   
 23  10  31  1   
 24  11  12  ar  
 25  11  13  ar  
 26  12  14  ar  
 27  12  32  1   
 28  13  15  ar  
 29  13  33  1   
 30  14  16  ar  
 31  14  34  1   
 32  15  16  ar  
 33  15  35  1   
 34  16  17  1   
 35  17  18  ar  
 36  17  19  ar  
@<TRIPOS>SUBSTRUCTURE
  1 ****  11 GROUP 4 **** **** 0

# MOE 2024.06 (io_trps.svl 2023.06)
