@<TRIPOS>MOLECULE
NONAME
52 55 1 0 0 
SMALL
USER_CHARGES


@<TRIPOS>ATOM
  1 CL      -0.1820     0.7150     0.3660 Cl    1 <1>  -0.1840 
  2 C       -1.8700     0.3730     0.1120 C.ar  1 <1>   0.1700 
  3 C       -2.3590     0.2610    -1.1740 C.ar  1 <1>  -0.1570 
  4 C       -2.7040     0.2140     1.2020 C.ar  1 <1>  -0.1570 
  5 C       -3.7020    -0.0070    -1.3690 C.ar  1 <1>  -0.1570 
  6 C       -4.0470    -0.0550     1.0000 C.ar  1 <1>  -0.1570 
  7 C       -4.5820    -0.1640    -0.2910 C.ar  1 <1>   0.0790 
  8 C       -5.9930    -0.4240    -0.5230 C.2   1 <1>   0.8240 
  9 O       -6.3800    -1.0090    -1.5050 O.2   1 <1>  -0.5740 
 10 N       -6.9380     0.0130     0.3660 N.pl3 1 <1>  -0.7330 
 11 C       -8.2540     0.0190     0.1790 C.cat 1 <1>   1.0690 
 12 N       -8.9550     1.1250     0.3520 N.pl3 1 <1>  -0.7040 
 13 N       -9.0620    -1.0020    -0.1530 N.pl3 1 <1>  -0.7670 
 14 C      -10.2740     0.8650     0.0500 C.ar  1 <1>   0.3030 
 15 C      -10.3460    -0.4730    -0.2930 C.ar  1 <1>   0.3030 
 16 C       -8.7170    -2.4320    -0.4370 C.3   1 <1>   0.3480 
 17 C      -11.3990     1.6800     0.0330 C.ar  1 <1>  -0.1160 
 18 C      -11.5600    -1.0240    -0.6990 C.ar  1 <1>  -0.1160 
 19 C       -9.4750    -3.4270     0.4790 C.3   1 <1>   0.3370 
 20 C      -12.6040     1.1260    -0.3520 C.ar  1 <1>  -0.1570 
 21 C      -12.6820    -0.2190    -0.7190 C.ar  1 <1>  -0.1570 
 22 N       -9.3430    -4.8740     0.0800 N.4   1 <1>  -0.9610 
 23 C      -10.2530    -5.7230     0.9090 C.3   1 <1>   0.3370 
 24 C       -7.9400    -5.3920     0.1580 C.3   1 <1>   0.3370 
 25 C      -10.2610    -7.1510     0.3630 C.3   1 <1>  -0.1670 
 26 C       -7.8870    -6.8110    -0.4080 C.3   1 <1>  -0.1670 
 27 C       -8.8500    -7.7500     0.3260 C.3   1 <1>  -0.1670 
 28 H       -1.6890     0.3830    -2.0090 H     1 <1>   0.1430 
 29 H       -2.2930     0.2980     2.1940 H     1 <1>   0.1430 
 30 H       -4.0710    -0.0950    -2.3780 H     1 <1>   0.1430 
 31 H       -4.6660    -0.1910     1.8690 H     1 <1>   0.1430 
 32 H       -6.5850     0.6900     1.0320 H     1 <1>   0.4450 
 33 H       -8.6040     2.0560     0.5740 H     1 <1>   0.4450 
 34 H       -7.6660    -2.5930    -0.2890 H     1 <1>   0.0720 
 35 H       -8.9510    -2.6380    -1.4680 H     1 <1>   0.0720 
 36 H      -11.3320     2.7190     0.3090 H     1 <1>   0.1430 
 37 H      -11.6350    -2.0510    -1.0010 H     1 <1>   0.1430 
 38 H      -10.5190    -3.1680     0.4680 H     1 <1>   0.0720 
 39 H       -9.1170    -3.3090     1.4880 H     1 <1>   0.0720 
 40 H      -13.4960     1.7320    -0.3760 H     1 <1>   0.1430 
 41 H      -13.6360    -0.6200    -1.0260 H     1 <1>   0.1430 
 42 H       -9.6520    -5.0120    -0.8940 H     1 <1>   0.4450 
 43 H      -11.2570    -5.3290     0.8830 H     1 <1>   0.0720 
 44 H       -9.9160    -5.7320     1.9330 H     1 <1>   0.0720 
 45 H       -7.6110    -5.4040     1.1850 H     1 <1>   0.0720 
 46 H       -7.2740    -4.7640    -0.4100 H     1 <1>   0.0720 
 47 H      -10.6900    -7.1570    -0.6240 H     1 <1>   0.0720 
 48 H      -10.8880    -7.7630     0.9890 H     1 <1>   0.0720 
 49 H       -6.8840    -7.1900    -0.3140 H     1 <1>   0.0720 
 50 H       -8.1230    -6.7900    -1.4580 H     1 <1>   0.0720 
 51 H       -8.8720    -8.7100    -0.1630 H     1 <1>   0.0720 
 52 H       -8.5010    -7.9060     1.3340 H     1 <1>   0.0720 
@<TRIPOS>BOND
  1   1   2  1   
  2   2   3  ar  
  3   2   4  ar  
  4   3   5  ar  
  5   3  28  1   
  6   4   6  ar  
  7   4  29  1   
  8   5   7  ar  
  9   5  30  1   
 10   6   7  ar  
 11   6  31  1   
 12   7   8  1   
 13   8   9  2   
 14   8  10  1   
 15  10  11  ar  
 16  10  32  1   
 17  11  12  ar  
 18  11  13  ar  
 19  12  14  1   
 20  12  33  1   
 21  13  15  1   
 22  13  16  1   
 23  14  15  ar  
 24  14  17  ar  
 25  15  18  ar  
 26  16  19  1   
 27  16  34  1   
 28  16  35  1   
 29  17  20  ar  
 30  17  36  1   
 31  18  21  ar  
 32  18  37  1   
 33  19  22  1   
 34  19  38  1   
 35  19  39  1   
 36  20  21  ar  
 37  20  40  1   
 38  21  41  1   
 39  22  23  1   
 40  22  24  1   
 41  22  42  1   
 42  23  25  1   
 43  23  43  1   
 44  23  44  1   
 45  24  26  1   
 46  24  45  1   
 47  24  46  1   
 48  25  27  1   
 49  25  47  1   
 50  25  48  1   
 51  26  27  1   
 52  26  49  1   
 53  26  50  1   
 54  27  51  1   
 55  27  52  1   
@<TRIPOS>SUBSTRUCTURE
  1 ****  16 GROUP 4 **** **** 0

# MOE 2024.06 (io_trps.svl 2023.06)
