@<TRIPOS>MOLECULE
NONAME
55 57 1 0 0 
SMALL
USER_CHARGES


@<TRIPOS>ATOM
  1 O       -0.1030    -1.3090     0.8060 O.3   1 <1>  -0.3630 
  2 C       -1.1320    -1.4580    -0.0880 C.ar  1 <1>   0.0830 
  3 C       -0.0860    -0.2340     1.7200 C.3   1 <1>   0.1200 
  4 C       -1.0780    -2.5280    -1.0000 C.ar  1 <1>   0.1000 
  5 C       -2.2170    -0.5860    -0.1180 C.ar  1 <1>  -0.1500 
  6 C        1.1940    -0.3330     2.5450 C.3   1 <1>  -0.2400 
  7 N       -0.0370    -3.4650    -1.0560 N.pl3 1 <1>  -0.8380 
  8 C       -2.1150    -2.6840    -1.9090 C.ar  1 <1>  -0.1500 
  9 C       -3.2390    -0.7640    -1.0350 C.ar  1 <1>  -0.1500 
 10 C        1.2690    -2.9920    -1.6070 C.3   1 <1>   0.2090 
 11 C        0.0260    -4.4690     0.0470 C.3   1 <1>   0.2090 
 12 C       -3.1880    -1.8130    -1.9310 C.ar  1 <1>  -0.1500 
 13 C        2.3000    -2.6790    -0.5020 C.3   1 <1>   0.3430 
 14 C        1.0870    -4.1120     1.1100 C.3   1 <1>   0.3430 
 15 N        2.4300    -3.7900     0.5110 N.4   1 <1>  -0.9590 
 16 C        3.4300    -3.4580     1.5570 C.3   1 <1>   0.4860 
 17 C        4.7900    -3.3330     0.8990 C.ar  1 <1>  -0.1430 
 18 C        5.4250    -4.4580     0.3990 C.ar  1 <1>  -0.1500 
 19 C        5.4110    -2.1000     0.7820 C.ar  1 <1>  -0.1500 
 20 C        6.6580    -4.3750    -0.2260 C.ar  1 <1>   0.0830 
 21 C        6.6430    -1.9970     0.1610 C.ar  1 <1>  -0.1500 
 22 O        7.1340    -5.5760    -0.6620 O.3   1 <1>  -0.3630 
 23 C        7.2830    -3.1220    -0.3580 C.ar  1 <1>   0.0830 
 24 C        8.4940    -5.7960    -0.9670 C.3   1 <1>   0.0400 
 25 O        8.4860    -3.0170    -0.9940 O.3   1 <1>  -0.3630 
 26 C        9.1990    -1.8020    -1.0820 C.3   1 <1>   0.0400 
 27 H       -0.9540    -0.3090     2.3530 H     1 <1>   0.0800 
 28 H       -0.1090     0.6890     1.1650 H     1 <1>   0.0800 
 29 H       -2.3000     0.2420     0.5590 H     1 <1>   0.1500 
 30 H        1.2130    -1.2570     3.0930 H     1 <1>   0.0800 
 31 H        1.2240     0.4780     3.2510 H     1 <1>   0.0800 
 32 H        2.0550    -0.2580     1.9070 H     1 <1>   0.0800 
 33 H       -2.0740    -3.5010    -2.6060 H     1 <1>   0.1500 
 34 H       -4.0750    -0.0850    -1.0510 H     1 <1>   0.1500 
 35 H        1.1060    -2.1050    -2.1960 H     1 <1>   0.0800 
 36 H        1.6640    -3.7460    -2.2650 H     1 <1>   0.0800 
 37 H        0.2450    -5.4340    -0.3740 H     1 <1>   0.0800 
 38 H       -0.9390    -4.5350     0.5210 H     1 <1>   0.0800 
 39 H       -3.9810    -1.9540    -2.6460 H     1 <1>   0.1500 
 40 H        1.9940    -1.7740    -0.0070 H     1 <1>   0.0800 
 41 H        3.2550    -2.4910    -0.9650 H     1 <1>   0.0800 
 42 H        1.1780    -4.9370     1.7970 H     1 <1>   0.0800 
 43 H        0.7270    -3.2630     1.6650 H     1 <1>   0.0800 
 44 H        2.7730    -4.6140     0.0040 H     1 <1>   0.4500 
 45 H        3.4660    -4.2390     2.2990 H     1 <1>   0.0800 
 46 H        3.1660    -2.5330     2.0430 H     1 <1>   0.0800 
 47 H        4.9800    -5.4330     0.4880 H     1 <1>   0.1500 
 48 H        4.9490    -1.2080     1.1710 H     1 <1>   0.1500 
 49 H        7.0890    -1.0230     0.0890 H     1 <1>   0.1500 
 50 H        8.6510    -6.8540    -1.0650 H     1 <1>   0.0800 
 51 H        9.1010    -5.4070    -0.1680 H     1 <1>   0.0800 
 52 H        8.7270    -5.3070    -1.8960 H     1 <1>   0.0800 
 53 H       10.1240    -1.9950    -1.5950 H     1 <1>   0.0800 
 54 H        9.4020    -1.4410    -0.0890 H     1 <1>   0.0800 
 55 H        8.6160    -1.0920    -1.6420 H     1 <1>   0.0800 
@<TRIPOS>BOND
  1   1   2  1   
  2   1   3  1   
  3   2   4  ar  
  4   2   5  ar  
  5   3   6  1   
  6   3  27  1   
  7   3  28  1   
  8   4   7  1   
  9   4   8  ar  
 10   5   9  ar  
 11   5  29  1   
 12   6  30  1   
 13   6  31  1   
 14   6  32  1   
 15   7  10  1   
 16   7  11  1   
 17   8  12  ar  
 18   8  33  1   
 19   9  12  ar  
 20   9  34  1   
 21  10  13  1   
 22  10  35  1   
 23  10  36  1   
 24  11  14  1   
 25  11  37  1   
 26  11  38  1   
 27  12  39  1   
 28  13  15  1   
 29  13  40  1   
 30  13  41  1   
 31  14  15  1   
 32  14  42  1   
 33  14  43  1   
 34  15  16  1   
 35  15  44  1   
 36  16  17  1   
 37  16  45  1   
 38  16  46  1   
 39  17  18  ar  
 40  17  19  ar  
 41  18  20  ar  
 42  18  47  1   
 43  19  21  ar  
 44  19  48  1   
 45  20  22  1   
 46  20  23  ar  
 47  21  23  ar  
 48  21  49  1   
 49  22  24  1   
 50  23  25  1   
 51  24  50  1   
 52  24  51  1   
 53  24  52  1   
 54  25  26  1   
 55  26  53  1   
 56  26  54  1   
 57  26  55  1   
@<TRIPOS>SUBSTRUCTURE
  1 ****  13 GROUP 4 **** **** 0

# MOE 2024.06 (io_trps.svl 2023.06)
