@<TRIPOS>MOLECULE
NONAME
38 39 1 0 0 
SMALL
USER_CHARGES


@<TRIPOS>ATOM
  1 O        0.2430    -0.4380    -0.2050 O.2   1 <1>  -0.5700 
  2 C       -0.1170    -1.5610     0.1020 C.2   1 <1>   0.7160 
  3 N        0.7920    -2.4160     0.6970 N.am  1 <1>  -0.6600 
  4 C       -1.4820    -1.9580    -0.1550 C.2   1 <1>  -0.0860 
  5 C        0.3640    -3.5010     1.6280 C.3   1 <1>   0.1400 
  6 C        2.2430    -2.0870     0.6800 C.3   1 <1>   0.1400 
  7 C       -2.6430    -1.2920     0.0980 C.2   1 <1>  -0.0400 
  8 C       -1.9050    -3.1590    -0.7640 C.2   1 <1>  -0.1500 
  9 C        1.2240    -4.7780     1.5760 C.3   1 <1>  -0.1600 
 10 C        2.8440    -2.3520    -0.7050 C.3   1 <1>  -0.1600 
 11 O       -3.6840    -1.9920    -0.2850 O.3   1 <1>  -0.2800 
 12 C       -2.8830     0.0660     0.7230 C.3   1 <1>  -0.0600 
 13 C       -3.2510    -3.1170    -0.8080 C.2   1 <1>  -0.0400 
 14 C        1.4020    -5.4290     0.1930 C.3   1 <1>  -0.1600 
 15 C        2.3840    -3.6410    -1.4110 C.3   1 <1>  -0.1600 
 16 C       -4.2620    -4.1050    -1.3420 C.3   1 <1>  -0.0600 
 17 C        2.6180    -4.9370    -0.6170 C.3   1 <1>  -0.1600 
 18 H       -0.6560    -3.7760     1.4290 H     1 <1>   0.0800 
 19 H        0.3910    -3.1100     2.6310 H     1 <1>   0.0800 
 20 H        2.7710    -2.6600     1.4190 H     1 <1>   0.0800 
 21 H        2.3790    -1.0490     0.9340 H     1 <1>   0.0800 
 22 H       -1.2450    -3.9300    -1.1160 H     1 <1>   0.1500 
 23 H        0.7250    -5.4950     2.2040 H     1 <1>   0.0800 
 24 H        2.1810    -4.6110     2.0350 H     1 <1>   0.0800 
 25 H        3.9150    -2.3610    -0.6120 H     1 <1>   0.0800 
 26 H        2.5960    -1.5160    -1.3370 H     1 <1>   0.0800 
 27 H       -1.9530     0.5260     1.0000 H     1 <1>   0.0800 
 28 H       -3.4960    -0.0420     1.6000 H     1 <1>   0.0800 
 29 H       -3.3880     0.7010     0.0190 H     1 <1>   0.0800 
 30 H        0.5000    -5.3380    -0.3850 H     1 <1>   0.0800 
 31 H        1.5520    -6.4820     0.3620 H     1 <1>   0.0800 
 32 H        2.9370    -3.7100    -2.3320 H     1 <1>   0.0800 
 33 H        1.3470    -3.5580    -1.6870 H     1 <1>   0.0800 
 34 H       -3.7640    -4.9700    -1.7390 H     1 <1>   0.0800 
 35 H       -4.8410    -3.6430    -2.1210 H     1 <1>   0.0800 
 36 H       -4.9230    -4.4100    -0.5510 H     1 <1>   0.0800 
 37 H        2.8400    -5.7060    -1.3370 H     1 <1>   0.0800 
 38 H        3.4860    -4.8460     0.0120 H     1 <1>   0.0800 
@<TRIPOS>BOND
  1   1   2  2   
  2   2   3  am  
  3   2   4  1   
  4   3   5  1   
  5   3   6  1   
  6   4   7  2   
  7   4   8  1   
  8   5   9  1   
  9   5  18  1   
 10   5  19  1   
 11   6  10  1   
 12   6  20  1   
 13   6  21  1   
 14   7  11  1   
 15   7  12  1   
 16   8  13  2   
 17   8  22  1   
 18   9  14  1   
 19   9  23  1   
 20   9  24  1   
 21  10  15  1   
 22  10  25  1   
 23  10  26  1   
 24  11  13  1   
 25  12  27  1   
 26  12  28  1   
 27  12  29  1   
 28  13  16  1   
 29  14  17  1   
 30  14  30  1   
 31  14  31  1   
 32  15  17  1   
 33  15  32  1   
 34  15  33  1   
 35  16  34  1   
 36  16  35  1   
 37  16  36  1   
 38  17  37  1   
 39  17  38  1   
@<TRIPOS>SUBSTRUCTURE
  1 ****   2 GROUP 4 **** **** 0

# MOE 2024.06 (io_trps.svl 2023.06)
