@<TRIPOS>MOLECULE
NONAME
46 47 1 0 0 
SMALL
USER_CHARGES


@<TRIPOS>ATOM
  1 S        0.0300    -0.0380    -0.7650 S.o2  1 <1>   1.4470 
  2 O       -0.2410     1.2010    -0.0690 O.2   1 <1>  -0.6500 
  3 O       -0.3860    -0.1830    -2.1440 O.2   1 <1>  -0.6500 
  4 N       -0.7190    -1.2830     0.1090 N.am  1 <1>  -0.8490 
  5 C        1.7960    -0.4270    -0.5990 C.ar  1 <1>  -0.0090 
  6 C       -0.6150    -2.5750    -0.5800 C.3   1 <1>   0.1960 
  7 C       -2.1180    -0.9580     0.4030 C.3   1 <1>   0.1960 
  8 C        2.6290    -0.5150    -1.7080 C.ar  1 <1>  -0.1500 
  9 C        2.3630    -0.6510     0.6500 C.ar  1 <1>  -0.1500 
 10 C       -1.1590    -3.6950     0.3120 C.3   1 <1>  -0.1600 
 11 C       -2.7280    -2.0220     1.3220 C.3   1 <1>  -0.1600 
 12 C        3.9730    -0.8140    -1.5730 C.ar  1 <1>  -0.1500 
 13 C        3.7070    -0.9500     0.7860 C.ar  1 <1>  -0.1500 
 14 C       -2.6130    -3.4260     0.7160 C.3   1 <1>  -0.1600 
 15 C        4.5460    -1.0280    -0.3230 C.ar  1 <1>   0.0860 
 16 C        5.9580    -1.3340    -0.1950 C.2   1 <1>   0.5440 
 17 O        6.3760    -2.3640    -0.6890 O.2   1 <1>  -0.5700 
 18 N        6.8380    -0.4900     0.4590 N.am  1 <1>  -0.6600 
 19 C        8.2300    -0.9290     0.7640 C.3   1 <1>   0.1400 
 20 C        6.4720     0.8740     0.9290 C.3   1 <1>   0.1400 
 21 C        9.2070    -0.3260    -0.2410 C.3   1 <1>  -0.2400 
 22 C        6.3470     1.8330    -0.2540 C.3   1 <1>  -0.2400 
 23 H        0.4160    -2.7850    -0.8110 H     1 <1>   0.0800 
 24 H       -1.1670    -2.5460    -1.5060 H     1 <1>   0.0800 
 25 H       -2.6800    -0.8930    -0.5150 H     1 <1>   0.0800 
 26 H       -2.1740    -0.0040     0.9000 H     1 <1>   0.0800 
 27 H        2.2180    -0.3500    -2.6910 H     1 <1>   0.1500 
 28 H        1.7360    -0.5930     1.5250 H     1 <1>   0.1500 
 29 H       -0.5430    -3.7690     1.1910 H     1 <1>   0.0800 
 30 H       -1.0970    -4.6320    -0.2130 H     1 <1>   0.0800 
 31 H       -3.7630    -1.7880     1.4990 H     1 <1>   0.0800 
 32 H       -2.2190    -1.9920     2.2700 H     1 <1>   0.0800 
 33 H        4.6000    -0.8860    -2.4460 H     1 <1>   0.1500 
 34 H        4.1200    -1.1300     1.7640 H     1 <1>   0.1500 
 35 H       -2.9410    -4.1630     1.4280 H     1 <1>   0.0800 
 36 H       -3.2440    -3.4930    -0.1530 H     1 <1>   0.0800 
 37 H        8.2940    -2.0040     0.7190 H     1 <1>   0.0800 
 38 H        8.4940    -0.6330     1.7650 H     1 <1>   0.0800 
 39 H        7.2270     1.2400     1.6040 H     1 <1>   0.0800 
 40 H        5.5430     0.8410     1.4710 H     1 <1>   0.0800 
 41 H        8.9130    -0.5910    -1.2410 H     1 <1>   0.0800 
 42 H       10.1920    -0.7140    -0.0610 H     1 <1>   0.0800 
 43 H        9.2420     0.7430    -0.1440 H     1 <1>   0.0800 
 44 H        7.2620     1.8630    -0.8160 H     1 <1>   0.0800 
 45 H        6.1380     2.8240     0.1060 H     1 <1>   0.0800 
 46 H        5.5450     1.5370    -0.9030 H     1 <1>   0.0800 
@<TRIPOS>BOND
  1   1   2  2   
  2   1   3  2   
  3   1   4  am  
  4   1   5  1   
  5   4   6  1   
  6   4   7  1   
  7   5   8  ar  
  8   5   9  ar  
  9   6  10  1   
 10   6  23  1   
 11   6  24  1   
 12   7  11  1   
 13   7  25  1   
 14   7  26  1   
 15   8  12  ar  
 16   8  27  1   
 17   9  13  ar  
 18   9  28  1   
 19  10  14  1   
 20  10  29  1   
 21  10  30  1   
 22  11  14  1   
 23  11  31  1   
 24  11  32  1   
 25  12  15  ar  
 26  12  33  1   
 27  13  15  ar  
 28  13  34  1   
 29  14  35  1   
 30  14  36  1   
 31  15  16  1   
 32  16  17  2   
 33  16  18  am  
 34  18  19  1   
 35  18  20  1   
 36  19  21  1   
 37  19  37  1   
 38  19  38  1   
 39  20  22  1   
 40  20  39  1   
 41  20  40  1   
 42  21  41  1   
 43  21  42  1   
 44  21  43  1   
 45  22  44  1   
 46  22  45  1   
 47  22  46  1   
@<TRIPOS>SUBSTRUCTURE
  1 ****   9 GROUP 4 **** **** 0

# MOE 2024.06 (io_trps.svl 2023.06)
