@<TRIPOS>MOLECULE
NONAME
32 34 1 0 0 
SMALL
USER_CHARGES


@<TRIPOS>ATOM
  1 CL       7.3390     3.2720    -2.1980 Cl    1 <1>  -0.1770 
  2 C        6.4610     2.0590    -1.2910 C.ar  1 <1>   0.1770 
  3 C        5.0630     2.1190    -1.2140 C.ar  1 <1>   0.1770 
  4 C        7.1620     1.0570    -0.6630 C.ar  1 <1>  -0.1500 
  5 CL       4.1910     3.4030    -2.0210 Cl    1 <1>  -0.1770 
  6 C        4.3510     1.1770    -0.5070 C.ar  1 <1>  -0.1500 
  7 C        6.4470     0.0970     0.0520 C.ar  1 <1>   0.2270 
  8 C        5.0640     0.1520     0.1270 C.ar  1 <1>  -0.1520 
  9 N        6.9190    -0.9740     0.7400 N.2   1 <1>  -0.5650 
 10 N        4.6980    -0.9220     0.8890 N.pl3 1 <1>   0.0480 
 11 C        5.8640    -1.5400     1.2110 C.2   1 <1>   0.0360 
 12 C        3.3510    -1.4740     1.1630 C.3   1 <1>   0.4560 
 13 O        2.4370    -0.4270     1.3760 O.3   1 <1>  -0.5600 
 14 C        2.8280    -2.2990    -0.0260 C.3   1 <1>   0.2000 
 15 C        1.2180    -0.7540     0.7840 C.3   1 <1>   0.2000 
 16 O        2.4310    -3.5630     0.4130 O.3   1 <1>  -0.6800 
 17 C        1.6120    -1.5020    -0.4890 C.3   1 <1>   0.2000 
 18 C        0.3830     0.5070     0.5350 C.3   1 <1>   0.1200 
 19 O        0.5630    -2.3110    -0.9480 O.3   1 <1>  -0.6800 
 20 O       -0.8320     0.1490    -0.0370 O.3   1 <1>  -0.6800 
 21 H        8.2320     0.9960    -0.7090 H     1 <1>   0.1500 
 22 H        3.2820     1.2400    -0.4400 H     1 <1>   0.1500 
 23 H        5.8810    -2.4360     1.8080 H     1 <1>   0.1500 
 24 H        3.3830    -2.0760     2.0540 H     1 <1>   0.0800 
 25 H        3.5670    -2.4190    -0.7990 H     1 <1>   0.0800 
 26 H        0.7030    -1.4100     1.4670 H     1 <1>   0.0800 
 27 H        1.4950    -3.7050     0.1390 H     1 <1>   0.4000 
 28 H        1.8770    -0.7990    -1.2610 H     1 <1>   0.0800 
 29 H        0.8840     1.1730    -0.1440 H     1 <1>   0.0800 
 30 H        0.1740     1.0170     1.4590 H     1 <1>   0.0800 
 31 H        0.7840    -2.7060    -1.8190 H     1 <1>   0.4000 
 32 H       -0.7340    -0.6730    -0.5680 H     1 <1>   0.4000 
@<TRIPOS>BOND
  1   1   2  1   
  2   2   3  ar  
  3   2   4  ar  
  4   3   5  1   
  5   3   6  ar  
  6   4   7  ar  
  7   4  21  1   
  8   6   8  ar  
  9   6  22  1   
 10   7   8  ar  
 11   7   9  1   
 12   8  10  1   
 13   9  11  2   
 14  10  11  1   
 15  10  12  1   
 16  11  23  1   
 17  12  13  1   
 18  12  14  1   
 19  12  24  1   
 20  13  15  1   
 21  14  16  1   
 22  14  17  1   
 23  14  25  1   
 24  15  17  1   
 25  15  18  1   
 26  15  26  1   
 27  16  27  1   
 28  17  19  1   
 29  17  28  1   
 30  18  20  1   
 31  18  29  1   
 32  18  30  1   
 33  19  31  1   
 34  20  32  1   
@<TRIPOS>SUBSTRUCTURE
  1 ****   8 GROUP 4 **** **** 0

# MOE 2024.06 (io_trps.svl 2023.06)
