@<TRIPOS>MOLECULE
NONAME
44 47 1 0 0 
SMALL
USER_CHARGES


@<TRIPOS>ATOM
  1 O        0.0050    -0.7480     1.3630 O.2   1 <1>  -0.5700 
  2 C        0.5850    -1.5410     0.6630 C.2   1 <1>   0.4230 
  3 C        1.9090    -1.2810     0.1460 C.ar  1 <1>   0.0860 
  4 C       -0.0490    -2.8950     0.3260 C.3   1 <1>  -0.0190 
  5 C        2.7410    -2.3210    -0.2860 C.ar  1 <1>  -0.1440 
  6 C        2.4060     0.0200     0.0740 C.ar  1 <1>  -0.1500 
  7 C       -1.4480    -3.1420     0.9760 C.3   1 <1>   0.4850 
  8 C        1.0170    -3.9770     0.6210 C.3   1 <1>  -0.1600 
  9 C        4.0080    -2.0510    -0.7740 C.ar  1 <1>  -0.1500 
 10 C        2.2750    -3.7700    -0.2340 C.3   1 <1>  -0.0160 
 11 C        3.6690     0.2940    -0.4140 C.ar  1 <1>   0.0830 
 12 O       -1.4370    -2.7710     2.3200 O.3   1 <1>  -0.6800 
 13 C       -1.9800    -4.5920     0.7930 C.2   1 <1>   0.5690 
 14 C       -2.5720    -2.3760     0.2580 C.ar  1 <1>  -0.1440 
 15 C        4.4770    -0.7520    -0.8420 C.ar  1 <1>  -0.1500 
 16 O        4.0440     1.5970    -0.4430 O.3   1 <1>  -0.3630 
 17 O       -1.5000    -5.5980     1.2730 O.2   1 <1>  -0.5700 
 18 N       -3.0930    -4.5880    -0.0020 N.am  1 <1>  -0.4770 
 19 C       -3.4590    -3.2820    -0.2990 C.ar  1 <1>   0.1170 
 20 C       -2.8040    -1.0160     0.1050 C.ar  1 <1>  -0.1500 
 21 C        5.3200     1.9860    -0.9000 C.3   1 <1>   0.0400 
 22 C       -3.9100    -5.7830    -0.3180 C.3   1 <1>   0.0600 
 23 C       -4.5580    -2.8540    -1.0300 C.ar  1 <1>  -0.1500 
 24 C       -3.9020    -0.5830    -0.6230 C.ar  1 <1>  -0.1500 
 25 C       -4.7740    -1.4980    -1.1920 C.ar  1 <1>  -0.1500 
 26 H       -0.2150    -2.9070    -0.7370 H     1 <1>   0.0800 
 27 H        1.7940     0.8390     0.4080 H     1 <1>   0.1500 
 28 H        0.6540    -4.9640     0.4030 H     1 <1>   0.0800 
 29 H        1.2750    -3.9450     1.6660 H     1 <1>   0.0800 
 30 H        4.6420    -2.8550    -1.1070 H     1 <1>   0.1500 
 31 H        3.0660    -4.3920     0.1510 H     1 <1>   0.0800 
 32 H        2.0710    -4.0930    -1.2410 H     1 <1>   0.0800 
 33 H       -1.0940    -1.8480     2.3560 H     1 <1>   0.4000 
 34 H        5.4640    -0.5760    -1.2270 H     1 <1>   0.1500 
 35 H       -2.1570    -0.2790     0.5420 H     1 <1>   0.1500 
 36 H        5.3900     3.0560    -0.8220 H     1 <1>   0.0800 
 37 H        5.4290     1.6880    -1.9280 H     1 <1>   0.0800 
 38 H        6.0690     1.5250    -0.2820 H     1 <1>   0.0800 
 39 H       -3.4230    -6.6720     0.0440 H     1 <1>   0.0800 
 40 H       -4.0390    -5.8630    -1.3820 H     1 <1>   0.0800 
 41 H       -4.8720    -5.6950     0.1550 H     1 <1>   0.0800 
 42 H       -5.2350    -3.5680    -1.4610 H     1 <1>   0.1500 
 43 H       -4.0780     0.4720    -0.7430 H     1 <1>   0.1500 
 44 H       -5.6220    -1.1500    -1.7560 H     1 <1>   0.1500 
@<TRIPOS>BOND
  1   1   2  2   
  2   2   3  1   
  3   2   4  1   
  4   3   5  ar  
  5   3   6  ar  
  6   4   7  1   
  7   4   8  1   
  8   4  26  1   
  9   5   9  ar  
 10   5  10  1   
 11   6  11  ar  
 12   6  27  1   
 13   7  12  1   
 14   7  13  1   
 15   7  14  1   
 16   8  10  1   
 17   8  28  1   
 18   8  29  1   
 19   9  15  ar  
 20   9  30  1   
 21  10  31  1   
 22  10  32  1   
 23  11  15  ar  
 24  11  16  1   
 25  12  33  1   
 26  13  17  2   
 27  13  18  am  
 28  14  19  ar  
 29  14  20  ar  
 30  15  34  1   
 31  16  21  1   
 32  18  19  1   
 33  18  22  1   
 34  19  23  ar  
 35  20  24  ar  
 36  20  35  1   
 37  21  36  1   
 38  21  37  1   
 39  21  38  1   
 40  22  39  1   
 41  22  40  1   
 42  22  41  1   
 43  23  25  ar  
 44  23  42  1   
 45  24  25  ar  
 46  24  43  1   
 47  25  44  1   
@<TRIPOS>SUBSTRUCTURE
  1 ****   4 GROUP 4 **** **** 0

# MOE 2024.06 (io_trps.svl 2023.06)
