@<TRIPOS>MOLECULE
NONAME
56 61 1 0 0 
SMALL
USER_CHARGES


@<TRIPOS>ATOM
  1 N       -7.1600    -0.4130     1.1830 N.pl3 1 <1>  -0.7030 
  2 C       -8.2990     0.0950     0.7160 C.cat 1 <1>   1.0690 
  3 C       -6.1250     0.1130     0.4060 C.2   1 <1>   0.1760 
  4 N       -8.0570     0.9130    -0.3010 N.pl3 1 <1>  -0.6400 
  5 N       -9.6050    -0.0160     1.0080 N.pl3 1 <1>  -0.5790 
  6 C       -6.6890     0.9410    -0.5030 C.2   1 <1>   0.1940 
  7 C       -4.6290    -0.1990     0.6060 C.3   1 <1>   0.5070 
  8 C       -9.2950     1.3920    -0.7210 C.ar  1 <1>   0.3820 
  9 C      -10.2570     0.8100     0.0960 C.ar  1 <1>   0.3060 
 10 C      -10.2740    -0.8280     2.0570 C.3   1 <1>   0.0810 
 11 N       -4.0110    -1.2410    -0.3020 N.4   1 <1>  -0.9600 
 12 C       -9.6480     2.2710    -1.7340 C.ar  1 <1>  -0.1560 
 13 C      -11.6050     1.1030    -0.0880 C.ar  1 <1>  -0.1560 
 14 C       -4.4990    -2.6710    -0.1830 C.3   1 <1>   0.4990 
 15 C       -2.5210    -1.1190    -0.1280 C.3   1 <1>   0.2570 
 16 C      -10.9880     2.5600    -1.9150 C.ar  1 <1>  -0.1560 
 17 C      -11.9590     1.9790    -1.0970 C.ar  1 <1>  -0.1560 
 18 C       -3.4890    -3.6670    -0.8150 C.3   1 <1>  -0.1660 
 19 C       -5.8190    -2.8140    -0.9770 C.3   1 <1>  -0.1660 
 20 C       -4.7190    -3.0800     1.2920 C.3   1 <1>  -0.1660 
 21 C       -4.0140    -5.1130    -0.7380 C.3   1 <1>  -0.0870 
 22 C       -6.3680    -4.2470    -0.8810 C.3   1 <1>  -0.0870 
 23 C       -5.2600    -4.5200     1.3740 C.3   1 <1>  -0.0870 
 24 C       -5.3460    -5.2150    -1.4960 C.3   1 <1>  -0.1660 
 25 C       -4.2430    -5.4830     0.7380 C.3   1 <1>  -0.1660 
 26 C       -6.5880    -4.6110     0.5990 C.3   1 <1>  -0.1660 
 27 H       -7.1330    -1.0630     1.9730 H     1 <1>   0.4450 
 28 H       -6.2400     1.5480    -1.2750 H     1 <1>   0.1440 
 29 H       -4.4700    -0.4840     1.6330 H     1 <1>   0.0730 
 30 H       -4.0950     0.7250     0.4590 H     1 <1>   0.0730 
 31 H       -9.5530    -1.3920     2.6230 H     1 <1>   0.0730 
 32 H      -10.9700    -1.5130     1.6010 H     1 <1>   0.0730 
 33 H      -10.8150    -0.1820     2.7290 H     1 <1>   0.0730 
 34 H       -4.2010    -0.9930    -1.2800 H     1 <1>   0.4450 
 35 H       -8.8970     2.7170    -2.3610 H     1 <1>   0.1440 
 36 H      -12.3530     0.6550     0.5420 H     1 <1>   0.1440 
 37 H       -2.2230    -1.4980     0.8360 H     1 <1>   0.0730 
 38 H       -2.2110    -0.0900    -0.2080 H     1 <1>   0.0730 
 39 H       -2.0040    -1.6790    -0.8900 H     1 <1>   0.0730 
 40 H      -11.2960     3.2400    -2.6940 H     1 <1>   0.1440 
 41 H      -12.9970     2.2230    -1.2610 H     1 <1>   0.1440 
 42 H       -2.5500    -3.6600    -0.2920 H     1 <1>   0.0730 
 43 H       -3.3110    -3.4190    -1.8460 H     1 <1>   0.0730 
 44 H       -5.6520    -2.5810    -2.0140 H     1 <1>   0.0730 
 45 H       -6.5860    -2.1690    -0.6130 H     1 <1>   0.0730 
 46 H       -3.7890    -3.0310     1.8320 H     1 <1>   0.0730 
 47 H       -5.4290    -2.4450     1.7790 H     1 <1>   0.0730 
 48 H       -3.2980    -5.7890    -1.1740 H     1 <1>   0.0730 
 49 H       -7.3000    -4.3260    -1.4180 H     1 <1>   0.0730 
 50 H       -5.4200    -4.7980     2.4030 H     1 <1>   0.0730 
 51 H       -5.7190    -6.2240    -1.4400 H     1 <1>   0.0730 
 52 H       -5.1960    -4.9860    -2.5380 H     1 <1>   0.0730 
 53 H       -3.3110    -5.4470     1.2770 H     1 <1>   0.0730 
 54 H       -4.6100    -6.4940     0.8040 H     1 <1>   0.0730 
 55 H       -6.9730    -5.6160     0.6660 H     1 <1>   0.0730 
 56 H       -7.3230    -3.9600     1.0380 H     1 <1>   0.0730 
@<TRIPOS>BOND
  1   1   2  ar  
  2   1   3  1   
  3   1  27  1   
  4   2   4  ar  
  5   2   5  ar  
  6   3   6  2   
  7   3   7  1   
  8   4   6  1   
  9   4   8  1   
 10   5   9  1   
 11   5  10  1   
 12   6  28  1   
 13   7  11  1   
 14   7  29  1   
 15   7  30  1   
 16   8   9  ar  
 17   8  12  ar  
 18   9  13  ar  
 19  10  31  1   
 20  10  32  1   
 21  10  33  1   
 22  11  14  1   
 23  11  15  1   
 24  11  34  1   
 25  12  16  ar  
 26  12  35  1   
 27  13  17  ar  
 28  13  36  1   
 29  14  18  1   
 30  14  19  1   
 31  14  20  1   
 32  15  37  1   
 33  15  38  1   
 34  15  39  1   
 35  16  17  ar  
 36  16  40  1   
 37  17  41  1   
 38  18  21  1   
 39  18  42  1   
 40  18  43  1   
 41  19  22  1   
 42  19  44  1   
 43  19  45  1   
 44  20  23  1   
 45  20  46  1   
 46  20  47  1   
 47  21  24  1   
 48  21  25  1   
 49  21  48  1   
 50  22  24  1   
 51  22  26  1   
 52  22  49  1   
 53  23  25  1   
 54  23  26  1   
 55  23  50  1   
 56  24  51  1   
 57  24  52  1   
 58  25  53  1   
 59  25  54  1   
 60  26  55  1   
 61  26  56  1   
@<TRIPOS>SUBSTRUCTURE
  1 ****   1 GROUP 4 **** **** 0

# MOE 2024.06 (io_trps.svl 2023.06)
