@<TRIPOS>MOLECULE
NONAME
46 47 1 0 0 
SMALL
USER_CHARGES


@<TRIPOS>ATOM
  1 O        3.3330    -6.5160     0.1640 O.3   1 <1>  -0.3630 
  2 C        4.5810    -6.0090     0.0010 C.ar  1 <1>   0.0830 
  3 C        2.1890    -5.7560    -0.1360 C.3   1 <1>   0.1200 
  4 C        5.6390    -6.8390     0.3330 C.ar  1 <1>  -0.1500 
  5 C        4.8440    -4.7290    -0.4720 C.ar  1 <1>  -0.1500 
  6 C        0.9690    -6.6290     0.1630 C.3   1 <1>  -0.1600 
  7 C        6.9520    -6.4140     0.2020 C.ar  1 <1>  -0.1440 
  8 C        6.1520    -4.3000    -0.6050 C.ar  1 <1>  -0.1500 
  9 C       -0.3490    -5.8960    -0.1240 C.3   1 <1>  -0.1600 
 10 C        7.2110    -5.1310    -0.2720 C.ar  1 <1>  -0.1430 
 11 C        8.0770    -7.3660     0.5810 C.3   1 <1>  -0.0970 
 12 C       -1.5400    -6.8080     0.1800 C.3   1 <1>   0.3430 
 13 C        8.6340    -4.6180    -0.4340 C.3   1 <1>  -0.0970 
 14 N       -2.8200    -6.1450    -0.1860 N.4   1 <1>  -0.9590 
 15 C       -3.1710    -5.0130     0.7480 C.3   1 <1>   0.3430 
 16 C       -3.9420    -7.1500    -0.2230 C.3   1 <1>   0.3430 
 17 C       -4.5340    -4.3770     0.3950 C.3   1 <1>   0.1100 
 18 C       -5.2950    -6.4900    -0.5670 C.3   1 <1>   0.1100 
 19 N       -5.6010    -5.3880     0.3570 N.3   1 <1>  -0.9000 
 20 H        2.2280    -5.4860    -1.1780 H     1 <1>   0.0800 
 21 H        2.1980    -4.8750     0.4820 H     1 <1>   0.0800 
 22 H        5.4170    -7.8250     0.6970 H     1 <1>   0.1500 
 23 H        4.0550    -4.0550    -0.7410 H     1 <1>   0.1500 
 24 H        1.0050    -6.9190     1.2000 H     1 <1>   0.0800 
 25 H        1.0310    -7.5180    -0.4430 H     1 <1>   0.0800 
 26 H        6.3420    -3.3070    -0.9720 H     1 <1>   0.1500 
 27 H       -0.3680    -5.6080    -1.1620 H     1 <1>   0.0800 
 28 H       -0.3900    -5.0120     0.4870 H     1 <1>   0.0800 
 29 H        7.6860    -8.3060     0.9240 H     1 <1>   0.0800 
 30 H        8.6700    -6.9390     1.3700 H     1 <1>   0.0800 
 31 H        8.7040    -7.5520    -0.2710 H     1 <1>   0.0800 
 32 H       -1.5440    -7.0700     1.2260 H     1 <1>   0.0800 
 33 H       -1.4300    -7.7170    -0.3900 H     1 <1>   0.0800 
 34 H        9.1730    -5.2390    -1.1250 H     1 <1>   0.0800 
 35 H        9.1390    -4.6270     0.5150 H     1 <1>   0.0800 
 36 H        8.6410    -3.6110    -0.8090 H     1 <1>   0.0800 
 37 H       -2.7330    -5.7530    -1.1310 H     1 <1>   0.4500 
 38 H       -2.4100    -4.2520     0.7110 H     1 <1>   0.0800 
 39 H       -3.2240    -5.3820     1.7590 H     1 <1>   0.0800 
 40 H       -4.0360    -7.6230     0.7410 H     1 <1>   0.0800 
 41 H       -3.7280    -7.9160    -0.9500 H     1 <1>   0.0800 
 42 H       -4.4680    -3.8770    -0.5560 H     1 <1>   0.0800 
 43 H       -4.7800    -3.6380     1.1400 H     1 <1>   0.0800 
 44 H       -6.0750    -7.2300    -0.4980 H     1 <1>   0.0800 
 45 H       -5.2770    -6.1250    -1.5810 H     1 <1>   0.0800 
 46 H       -6.4970    -4.9450     0.0930 H     1 <1>   0.3600 
@<TRIPOS>BOND
  1   1   2  1   
  2   1   3  1   
  3   2   4  ar  
  4   2   5  ar  
  5   3   6  1   
  6   3  20  1   
  7   3  21  1   
  8   4   7  ar  
  9   4  22  1   
 10   5   8  ar  
 11   5  23  1   
 12   6   9  1   
 13   6  24  1   
 14   6  25  1   
 15   7  10  ar  
 16   7  11  1   
 17   8  10  ar  
 18   8  26  1   
 19   9  12  1   
 20   9  27  1   
 21   9  28  1   
 22  10  13  1   
 23  11  29  1   
 24  11  30  1   
 25  11  31  1   
 26  12  14  1   
 27  12  32  1   
 28  12  33  1   
 29  13  34  1   
 30  13  35  1   
 31  13  36  1   
 32  14  15  1   
 33  14  16  1   
 34  14  37  1   
 35  15  17  1   
 36  15  38  1   
 37  15  39  1   
 38  16  18  1   
 39  16  40  1   
 40  16  41  1   
 41  17  19  1   
 42  17  42  1   
 43  17  43  1   
 44  18  19  1   
 45  18  44  1   
 46  18  45  1   
 47  19  46  1   
@<TRIPOS>SUBSTRUCTURE
  1 ****   3 GROUP 4 **** **** 0

# MOE 2024.06 (io_trps.svl 2023.06)
