@<TRIPOS>MOLECULE
NONAME
47 49 1 0 0 
SMALL
USER_CHARGES


@<TRIPOS>ATOM
  1 O        0.4720     0.7290     1.1960 O.2   1 <1>  -0.5700 
  2 C        1.0250     1.3940     0.3440 C.2   1 <1>   0.5440 
  3 N        0.3550     2.4360    -0.2520 N.am  1 <1>  -0.5390 
  4 C        2.3920     1.0990    -0.0490 C.ar  1 <1>   0.0860 
  5 C       -0.9350     2.9950    -0.1060 C.2   1 <1>   0.1230 
  6 C        3.2490     2.0760    -0.5660 C.ar  1 <1>  -0.1500 
  7 C        2.9050    -0.1940     0.0770 C.ar  1 <1>  -0.1500 
  8 C       -1.0170     4.3670    -0.5820 C.2   1 <1>   0.6160 
  9 C       -1.9770     2.2920     0.4270 C.2   1 <1>  -0.1050 
 10 C        4.5440     1.7730    -0.9480 C.ar  1 <1>  -0.1500 
 11 C        4.1990    -0.5030    -0.3020 C.ar  1 <1>  -0.1500 
 12 O       -0.2740     4.7400    -1.4750 O.2   1 <1>  -0.5700 
 13 N       -1.8570     5.2770    -0.0070 N.am  1 <1>  -0.7300 
 14 C       -3.3630     2.6270     0.5130 C.2   1 <1>   0.0950 
 15 C        5.0210     0.4820    -0.8180 C.ar  1 <1>  -0.1500 
 16 C       -1.9770     6.7010    -0.3530 C.3   1 <1>   0.2200 
 17 O       -4.0820     2.1300     1.5110 O.3   1 <1>  -0.2800 
 18 C       -4.1820     3.3850    -0.2710 C.2   1 <1>  -0.1500 
 19 C       -1.6610     7.5370     0.8920 C.3   1 <1>  -0.1600 
 20 C       -3.3990     6.9690    -0.8570 C.3   1 <1>  -0.1600 
 21 C       -5.3220     2.5560     1.3940 C.2   1 <1>  -0.0100 
 22 C       -5.4500     3.3430     0.3060 C.2   1 <1>  -0.1500 
 23 C       -1.8800     9.0340     0.6270 C.3   1 <1>  -0.1600 
 24 C       -3.6220     8.4650    -1.1230 C.3   1 <1>  -0.1600 
 25 C       -3.3040     9.3040     0.1210 C.3   1 <1>  -0.1600 
 26 H        0.9140     2.9740    -0.9210 H     1 <1>   0.3700 
 27 H        2.9110     3.0920    -0.6660 H     1 <1>   0.1500 
 28 H        2.2730    -0.9670     0.4810 H     1 <1>   0.1500 
 29 H       -1.7830     1.3240     0.8470 H     1 <1>   0.1500 
 30 H        5.1850     2.5420    -1.3450 H     1 <1>   0.1500 
 31 H        4.5660    -1.5090    -0.1940 H     1 <1>   0.1500 
 32 H       -2.4700     4.9590     0.7470 H     1 <1>   0.3700 
 33 H        6.0290     0.2440    -1.1150 H     1 <1>   0.1500 
 34 H       -1.2740     6.9510    -1.1320 H     1 <1>   0.0800 
 35 H       -3.9280     3.9120    -1.1730 H     1 <1>   0.1500 
 36 H       -2.2970     7.2300     1.7040 H     1 <1>   0.0800 
 37 H       -0.6370     7.3730     1.1790 H     1 <1>   0.0800 
 38 H       -3.5610     6.4200    -1.7670 H     1 <1>   0.0800 
 39 H       -4.1110     6.6350    -0.1220 H     1 <1>   0.0800 
 40 H       -6.0490     2.2500     2.1270 H     1 <1>   0.1500 
 41 H       -6.3290     3.8410    -0.0640 H     1 <1>   0.1500 
 42 H       -1.7070     9.5900     1.5320 H     1 <1>   0.0800 
 43 H       -1.1700     9.3730    -0.1090 H     1 <1>   0.0800 
 44 H       -2.9890     8.7800    -1.9360 H     1 <1>   0.0800 
 45 H       -4.6440     8.6310    -1.4190 H     1 <1>   0.0800 
 46 H       -3.4100    10.3490    -0.1130 H     1 <1>   0.0800 
 47 H       -4.0090     9.0690     0.9000 H     1 <1>   0.0800 
@<TRIPOS>BOND
  1   1   2  2   
  2   2   3  am  
  3   2   4  1   
  4   3   5  1   
  5   3  26  1   
  6   4   6  ar  
  7   4   7  ar  
  8   5   8  1   
  9   5   9  2   
 10   6  10  ar  
 11   6  27  1   
 12   7  11  ar  
 13   7  28  1   
 14   8  12  2   
 15   8  13  am  
 16   9  14  1   
 17   9  29  1   
 18  10  15  ar  
 19  10  30  1   
 20  11  15  ar  
 21  11  31  1   
 22  13  16  1   
 23  13  32  1   
 24  14  17  1   
 25  14  18  2   
 26  15  33  1   
 27  16  19  1   
 28  16  20  1   
 29  16  34  1   
 30  17  21  1   
 31  18  22  1   
 32  18  35  1   
 33  19  23  1   
 34  19  36  1   
 35  19  37  1   
 36  20  24  1   
 37  20  38  1   
 38  20  39  1   
 39  21  22  2   
 40  21  40  1   
 41  22  41  1   
 42  23  25  1   
 43  23  42  1   
 44  23  43  1   
 45  24  25  1   
 46  24  44  1   
 47  24  45  1   
 48  25  46  1   
 49  25  47  1   
@<TRIPOS>SUBSTRUCTURE
  1 ****   5 GROUP 4 **** **** 0

# MOE 2024.06 (io_trps.svl 2023.06)
