@<TRIPOS>MOLECULE
NONAME
47 48 1 0 0 
SMALL
USER_CHARGES


@<TRIPOS>ATOM
  1 O        0.3840     0.6360    -0.9280 O.2   1 <1>  -0.5700 
  2 C        0.3010     1.6040    -0.2170 C.2   1 <1>   0.6590 
  3 O       -0.8010     1.9090     0.4480 O.3   1 <1>  -0.4300 
  4 C        1.4690     2.5580    -0.0350 C.3   1 <1>  -0.0190 
  5 C       -1.9580     1.1070     0.3710 C.3   1 <1>   0.1200 
  6 C        2.5390     2.2680    -1.1050 C.3   1 <1>   0.3430 
  7 C        2.0570     2.4950     1.3900 C.3   1 <1>  -0.1600 
  8 C       -3.0300     1.7370     1.2540 C.3   1 <1>  -0.2400 
  9 N        3.9220     2.6080    -0.6410 N.4   1 <1>  -0.9590 
 10 C        3.2300     3.4840     1.5530 C.3   1 <1>  -0.1600 
 11 C        3.9840     3.7950     0.2520 C.3   1 <1>   0.3430 
 12 C        4.9060     2.6500    -1.7500 C.3   1 <1>   0.4860 
 13 C        6.3000     2.6520    -1.1520 C.ar  1 <1>  -0.1430 
 14 C        6.7090     1.6080    -0.3240 C.ar  1 <1>   0.0830 
 15 C        7.1660     3.7000    -1.4260 C.ar  1 <1>  -0.1500 
 16 O        5.8110     0.6100    -0.0880 O.3   1 <1>  -0.3630 
 17 C        7.9890     1.6330     0.2250 C.ar  1 <1>  -0.1500 
 18 C        8.4350     3.7160    -0.8760 C.ar  1 <1>  -0.1500 
 19 C        6.0830    -0.4950     0.7520 C.3   1 <1>   0.1200 
 20 C        8.8440     2.6840    -0.0520 C.ar  1 <1>  -0.1500 
 21 C        5.8470    -0.0890     2.2080 C.3   1 <1>  -0.2400 
 22 H        1.0870     3.5480    -0.2050 H     1 <1>   0.0800 
 23 H       -1.7110     0.1150     0.7120 H     1 <1>   0.0800 
 24 H       -2.2790     1.0650    -0.6570 H     1 <1>   0.0800 
 25 H        2.2960     2.8260    -1.9950 H     1 <1>   0.0800 
 26 H        2.5150     1.2200    -1.3610 H     1 <1>   0.0800 
 27 H        2.4050     1.4930     1.5780 H     1 <1>   0.0800 
 28 H        1.2950     2.7130     2.1200 H     1 <1>   0.0800 
 29 H       -2.6940     1.7800     2.2750 H     1 <1>   0.0800 
 30 H       -3.9250     1.1430     1.2150 H     1 <1>   0.0800 
 31 H       -3.2630     2.7280     0.9080 H     1 <1>   0.0800 
 32 H        4.2670     1.8140    -0.0710 H     1 <1>   0.4500 
 33 H        3.9240     3.0920     2.2770 H     1 <1>   0.0800 
 34 H        2.8630     4.4140     1.9500 H     1 <1>   0.0800 
 35 H        3.5280     4.6380    -0.2410 H     1 <1>   0.0800 
 36 H        5.0080     4.0470     0.4820 H     1 <1>   0.0800 
 37 H        4.7550     3.5290    -2.3550 H     1 <1>   0.0800 
 38 H        4.7970     1.7770    -2.3730 H     1 <1>   0.0800 
 39 H        6.8700     4.5120    -2.0690 H     1 <1>   0.1500 
 40 H        8.3440     0.8510     0.8680 H     1 <1>   0.1500 
 41 H        9.1080     4.5290    -1.0900 H     1 <1>   0.1500 
 42 H        7.0860    -0.8460     0.5780 H     1 <1>   0.0800 
 43 H        5.4020    -1.2820     0.4790 H     1 <1>   0.0800 
 44 H        9.8340     2.6990     0.3730 H     1 <1>   0.1500 
 45 H        6.5060     0.7090     2.4980 H     1 <1>   0.0800 
 46 H        6.0380    -0.9310     2.8490 H     1 <1>   0.0800 
 47 H        4.8270     0.2170     2.3500 H     1 <1>   0.0800 
@<TRIPOS>BOND
  1   1   2  2   
  2   2   3  1   
  3   2   4  1   
  4   3   5  1   
  5   4   6  1   
  6   4   7  1   
  7   4  22  1   
  8   5   8  1   
  9   5  23  1   
 10   5  24  1   
 11   6   9  1   
 12   6  25  1   
 13   6  26  1   
 14   7  10  1   
 15   7  27  1   
 16   7  28  1   
 17   8  29  1   
 18   8  30  1   
 19   8  31  1   
 20   9  11  1   
 21   9  12  1   
 22   9  32  1   
 23  10  11  1   
 24  10  33  1   
 25  10  34  1   
 26  11  35  1   
 27  11  36  1   
 28  12  13  1   
 29  12  37  1   
 30  12  38  1   
 31  13  14  ar  
 32  13  15  ar  
 33  14  16  1   
 34  14  17  ar  
 35  15  18  ar  
 36  15  39  1   
 37  16  19  1   
 38  17  20  ar  
 39  17  40  1   
 40  18  20  ar  
 41  18  41  1   
 42  19  21  1   
 43  19  42  1   
 44  19  43  1   
 45  20  44  1   
 46  21  45  1   
 47  21  46  1   
 48  21  47  1   
@<TRIPOS>SUBSTRUCTURE
  1 ****   9 GROUP 4 **** **** 0

# MOE 2024.06 (io_trps.svl 2023.06)
