@<TRIPOS>MOLECULE
NONAME
46 47 1 0 0 
SMALL
USER_CHARGES


@<TRIPOS>ATOM
  1 BR      -0.9420    -0.2090    -0.2240 Br    1 <1>  -0.1110 
  2 C       -0.5640    -2.0980    -0.2230 C.ar  1 <1>   0.1110 
  3 C       -1.4750    -2.9770     0.3320 C.ar  1 <1>   0.1600 
  4 C        0.6120    -2.5480    -0.7790 C.ar  1 <1>  -0.1500 
  5 N       -1.2950    -4.2900     0.3740 N.ar  1 <1>  -0.6200 
  6 C        0.8020    -3.9120    -0.7350 C.ar  1 <1>  -0.1500 
  7 C       -0.1620    -4.7420    -0.1510 C.ar  1 <1>   0.4270 
  8 N       -0.0590    -6.1130    -0.0660 N.am  1 <1>  -0.5470 
  9 C        0.9630    -7.0020    -0.2860 C.2   1 <1>   0.5440 
 10 O        2.0710    -6.5920    -0.5650 O.2   1 <1>  -0.5700 
 11 C        0.7210    -8.4270    -0.1540 C.ar  1 <1>   0.0860 
 12 C        1.7600    -9.2970     0.1750 C.ar  1 <1>  -0.1500 
 13 C       -0.5430    -8.9860    -0.3460 C.ar  1 <1>  -0.1500 
 14 C        1.5590   -10.6660     0.3130 C.ar  1 <1>   0.0830 
 15 C       -0.7770   -10.3400    -0.2010 C.ar  1 <1>   0.0830 
 16 O        2.5720   -11.5210     0.6410 O.3   1 <1>  -0.3630 
 17 C        0.2830   -11.1990     0.1150 C.ar  1 <1>   0.0830 
 18 O       -2.0660   -10.7320    -0.3970 O.3   1 <1>  -0.3630 
 19 C        3.8750   -11.0630     0.9150 C.3   1 <1>   0.1200 
 20 O        0.0860   -12.5380     0.2260 O.3   1 <1>  -0.3630 
 21 C       -2.6300   -11.7420     0.4080 C.3   1 <1>   0.1200 
 22 C        4.7340   -12.2740     1.2650 C.3   1 <1>  -0.2400 
 23 C        0.5290   -13.3260    -0.8520 C.3   1 <1>   0.1200 
 24 C       -4.1450   -11.5570     0.4060 C.3   1 <1>  -0.2400 
 25 C        0.1190   -14.7700    -0.5830 C.3   1 <1>  -0.2400 
 26 H       -2.3830    -2.5830     0.7540 H     1 <1>   0.1500 
 27 H        1.3280    -1.8740    -1.2160 H     1 <1>   0.1500 
 28 H        1.6950    -4.3300    -1.1570 H     1 <1>   0.1500 
 29 H       -0.9110    -6.5050     0.3260 H     1 <1>   0.3700 
 30 H        2.7330    -8.8660     0.3180 H     1 <1>   0.1500 
 31 H       -1.3750    -8.3630    -0.6190 H     1 <1>   0.1500 
 32 H        3.8300   -10.3770     1.7430 H     1 <1>   0.0800 
 33 H        4.2560   -10.5680     0.0380 H     1 <1>   0.0800 
 34 H       -2.3660   -12.6970    -0.0100 H     1 <1>   0.0800 
 35 H       -2.2340   -11.6540     1.4060 H     1 <1>   0.0800 
 36 H        4.3330   -12.7720     2.1300 H     1 <1>   0.0800 
 37 H        5.7370   -11.9590     1.4830 H     1 <1>   0.0800 
 38 H        4.7600   -12.9600     0.4370 H     1 <1>   0.0800 
 39 H        0.0700   -12.9560    -1.7530 H     1 <1>   0.0800 
 40 H        1.6000   -13.2400    -0.9270 H     1 <1>   0.0800 
 41 H       -4.6040   -12.3190     1.0080 H     1 <1>   0.0800 
 42 H       -4.5240   -11.6360    -0.5970 H     1 <1>   0.0800 
 43 H       -4.4000   -10.5950     0.8140 H     1 <1>   0.0800 
 44 H        0.4500   -15.3980    -1.3910 H     1 <1>   0.0800 
 45 H       -0.9500   -14.8440    -0.5050 H     1 <1>   0.0800 
 46 H        0.5730   -15.1160     0.3290 H     1 <1>   0.0800 
@<TRIPOS>BOND
  1   1   2  1   
  2   2   3  ar  
  3   2   4  ar  
  4   3   5  ar  
  5   3  26  1   
  6   4   6  ar  
  7   4  27  1   
  8   5   7  ar  
  9   6   7  ar  
 10   6  28  1   
 11   7   8  1   
 12   8   9  am  
 13   8  29  1   
 14   9  10  2   
 15   9  11  1   
 16  11  12  ar  
 17  11  13  ar  
 18  12  14  ar  
 19  12  30  1   
 20  13  15  ar  
 21  13  31  1   
 22  14  16  1   
 23  14  17  ar  
 24  15  17  ar  
 25  15  18  1   
 26  16  19  1   
 27  17  20  1   
 28  18  21  1   
 29  19  22  1   
 30  19  32  1   
 31  19  33  1   
 32  20  23  1   
 33  21  24  1   
 34  21  34  1   
 35  21  35  1   
 36  22  36  1   
 37  22  37  1   
 38  22  38  1   
 39  23  25  1   
 40  23  39  1   
 41  23  40  1   
 42  24  41  1   
 43  24  42  1   
 44  24  43  1   
 45  25  44  1   
 46  25  45  1   
 47  25  46  1   
@<TRIPOS>SUBSTRUCTURE
  1 ****  11 GROUP 4 **** **** 0

# MOE 2024.06 (io_trps.svl 2023.06)
