@<TRIPOS>MOLECULE
NONAME
50 52 1 0 0 
SMALL
USER_CHARGES


@<TRIPOS>ATOM
  1 O        0.2170    -1.7330    -1.6800 O.2   1 <1>  -0.5700 
  2 C        0.3820    -2.3890    -0.6640 C.2   1 <1>   0.7060 
  3 O       -0.6620    -2.5530     0.1550 O.3   1 <1>  -0.4300 
  4 C        1.6470    -2.9550    -0.3030 C.2   1 <1>  -0.1240 
  5 C       -1.9130    -1.9710    -0.1230 C.3   1 <1>   0.1200 
  6 C        1.8940    -4.0590     0.4540 C.2   1 <1>  -0.0380 
  7 C        2.8310    -2.1560    -0.8640 C.3   1 <1>   0.3760 
  8 C       -3.2610    -1.3800    -0.5360 C.3   1 <1>  -0.2400 
  9 N        3.1790    -4.4710     0.7190 N.pl3 1 <1>  -0.6000 
 10 C        0.8430    -4.9690     1.0710 C.3   1 <1>  -0.1020 
 11 C        4.2110    -2.7590    -0.5810 C.2   1 <1>  -0.1240 
 12 C        2.7820    -0.7170    -0.3310 C.2   1 <1>   0.0060 
 13 C        4.3010    -3.8740     0.1940 C.2   1 <1>  -0.0380 
 14 C        5.2630    -2.0060    -1.1940 C.2   1 <1>   0.7060 
 15 N        3.2680    -0.3180     0.7970 N.2   1 <1>  -0.5650 
 16 N        2.1950     0.2770    -1.0480 N.pl3 1 <1>   0.0330 
 17 C        5.5880    -4.5950     0.5620 C.3   1 <1>  -0.1020 
 18 O        5.1090    -1.3730    -2.2250 O.2   1 <1>  -0.5700 
 19 O        6.4690    -1.9830    -0.6150 O.3   1 <1>  -0.4300 
 20 C        2.9910     1.0150     0.8370 C.ar  1 <1>   0.2270 
 21 C        2.3190     1.4040    -0.3050 C.ar  1 <1>  -0.1520 
 22 C        7.5130    -1.1830    -1.1200 C.3   1 <1>   0.1200 
 23 C        3.2830     1.9530     1.8250 C.ar  1 <1>  -0.1500 
 24 C        1.9160     2.7270    -0.4960 C.ar  1 <1>  -0.1500 
 25 C        8.7320    -1.3810    -0.2260 C.3   1 <1>  -0.2400 
 26 C        2.8920     3.2630     1.6460 C.ar  1 <1>  -0.1500 
 27 C        2.2080     3.6490     0.4860 C.ar  1 <1>  -0.1500 
 28 H       -2.3810    -2.4930     0.6930 H     1 <1>   0.0800 
 29 H       -1.5920    -1.0060     0.2330 H     1 <1>   0.0800 
 30 H        2.7180    -2.1320    -1.9350 H     1 <1>   0.0800 
 31 H       -3.7280    -0.8700     0.2900 H     1 <1>   0.0800 
 32 H       -3.9210    -2.1580    -0.8760 H     1 <1>   0.0800 
 33 H       -3.1260    -0.6780    -1.3400 H     1 <1>   0.0800 
 34 H        3.3110    -5.2730     1.3440 H     1 <1>   0.4000 
 35 H        0.7020    -4.7090     2.1040 H     1 <1>   0.0800 
 36 H       -0.0990    -4.8960     0.5610 H     1 <1>   0.0800 
 37 H        1.1570    -5.9950     1.0100 H     1 <1>   0.0800 
 38 H        1.6810     0.1700    -1.9280 H     1 <1>   0.2700 
 39 H        5.4370    -5.6590     0.5450 H     1 <1>   0.0800 
 40 H        5.8960    -4.3030     1.5500 H     1 <1>   0.0800 
 41 H        6.3810    -4.3760    -0.1270 H     1 <1>   0.0800 
 42 H        7.1880    -0.1560    -1.1090 H     1 <1>   0.0800 
 43 H        7.7200    -1.4880    -2.1320 H     1 <1>   0.0800 
 44 H        3.8070     1.6270     2.7030 H     1 <1>   0.1500 
 45 H        1.3930     3.0100    -1.3920 H     1 <1>   0.1500 
 46 H        8.5020    -1.0860     0.7820 H     1 <1>   0.0800 
 47 H        9.5460    -0.7770    -0.5830 H     1 <1>   0.0800 
 48 H        9.0380    -2.4120    -0.2390 H     1 <1>   0.0800 
 49 H        3.1090     4.0000     2.3990 H     1 <1>   0.1500 
 50 H        1.9130     4.6770     0.3690 H     1 <1>   0.1500 
@<TRIPOS>BOND
  1   1   2  2   
  2   2   3  1   
  3   2   4  1   
  4   3   5  1   
  5   4   6  2   
  6   4   7  1   
  7   5   8  1   
  8   5  28  1   
  9   5  29  1   
 10   6   9  1   
 11   6  10  1   
 12   7  11  1   
 13   7  12  1   
 14   7  30  1   
 15   8  31  1   
 16   8  32  1   
 17   8  33  1   
 18   9  13  1   
 19   9  34  1   
 20  10  35  1   
 21  10  36  1   
 22  10  37  1   
 23  11  13  2   
 24  11  14  1   
 25  12  15  2   
 26  12  16  1   
 27  13  17  1   
 28  14  18  2   
 29  14  19  1   
 30  15  20  1   
 31  16  21  1   
 32  16  38  1   
 33  17  39  1   
 34  17  40  1   
 35  17  41  1   
 36  19  22  1   
 37  20  21  ar  
 38  20  23  ar  
 39  21  24  ar  
 40  22  25  1   
 41  22  42  1   
 42  22  43  1   
 43  23  26  ar  
 44  23  44  1   
 45  24  27  ar  
 46  24  45  1   
 47  25  46  1   
 48  25  47  1   
 49  25  48  1   
 50  26  27  ar  
 51  26  49  1   
 52  27  50  1   
@<TRIPOS>SUBSTRUCTURE
  1 ****  12 GROUP 4 **** **** 0

# MOE 2024.06 (io_trps.svl 2023.06)
