@<TRIPOS>MOLECULE
NONAME
45 46 1 0 0 
SMALL
USER_CHARGES


@<TRIPOS>ATOM
  1 F       -0.2610    -0.1140    -0.9240 F     1 <1>  -0.3400 
  2 C       -1.3780    -0.7990    -0.7200 C.3   1 <1>   1.0200 
  3 F       -2.2150     0.0290    -0.1090 F     1 <1>  -0.3400 
  4 F       -1.8920    -0.9980    -1.9280 F     1 <1>  -0.3400 
  5 C       -1.1610    -2.1190     0.0080 C.3   1 <1>   0.2000 
  6 O       -2.4070    -2.8280     0.1440 O.3   1 <1>  -0.3630 
  7 C       -0.4930    -1.8590     1.3570 C.3   1 <1>   1.0200 
  8 C       -2.4900    -4.1670     0.1400 C.ar  1 <1>   0.7020 
  9 F        0.7190    -1.3330     1.2430 F     1 <1>  -0.3400 
 10 F       -0.3210    -2.9690     2.0620 F     1 <1>  -0.3400 
 11 F       -1.1760    -1.0430     2.1490 F     1 <1>  -0.3400 
 12 N       -1.3870    -4.8470     0.0010 N.ar  1 <1>  -0.6200 
 13 N       -3.6920    -4.6380     0.2760 N.ar  1 <1>  -0.6200 
 14 C       -1.5650    -6.1470     0.0100 C.ar  1 <1>   0.7200 
 15 C       -3.7340    -5.9400     0.2570 C.ar  1 <1>   0.7200 
 16 N       -2.7200    -6.7490     0.1300 N.ar  1 <1>  -0.6200 
 17 N       -0.4450    -6.9310    -0.1180 N.pl3 1 <1>  -0.8380 
 18 N       -4.9720    -6.4630     0.3910 N.pl3 1 <1>  -0.8690 
 19 C       -0.5080    -8.3280    -0.6290 C.3   1 <1>   0.2090 
 20 C        0.8820    -6.5270     0.4220 C.3   1 <1>   0.2090 
 21 C       -5.2860    -7.8790     0.6590 C.3   1 <1>   0.2090 
 22 C        0.5610    -8.5270    -1.7100 C.3   1 <1>  -0.1600 
 23 C        1.9490    -6.7030    -0.6610 C.3   1 <1>  -0.1600 
 24 C       -6.7130    -8.1630     0.1920 C.3   1 <1>  -0.1600 
 25 C        1.9610    -8.1360    -1.2150 C.3   1 <1>  -0.1600 
 26 C       -7.1030    -9.6260     0.4340 C.3   1 <1>  -0.2400 
 27 H       -0.4930    -2.6970    -0.6000 H     1 <1>   0.0800 
 28 H       -5.6940    -5.7780     0.6070 H     1 <1>   0.4000 
 29 H       -1.4760    -8.5390    -1.0510 H     1 <1>   0.0800 
 30 H       -0.3410    -9.0090     0.1870 H     1 <1>   0.0800 
 31 H        1.1170    -7.1510     1.2670 H     1 <1>   0.0800 
 32 H        0.8720    -5.5060     0.7610 H     1 <1>   0.0800 
 33 H       -5.1930    -8.0710     1.7150 H     1 <1>   0.0800 
 34 H       -4.5950    -8.5150     0.1310 H     1 <1>   0.0800 
 35 H        0.2980    -7.9260    -2.5620 H     1 <1>   0.0800 
 36 H        0.5610    -9.5560    -2.0220 H     1 <1>   0.0800 
 37 H        2.9140    -6.4660    -0.2510 H     1 <1>   0.0800 
 38 H        1.7490    -6.0070    -1.4570 H     1 <1>   0.0800 
 39 H       -6.7870    -7.9480    -0.8600 H     1 <1>   0.0800 
 40 H       -7.3970    -7.5240     0.7220 H     1 <1>   0.0800 
 41 H        2.6670    -8.2090    -2.0240 H     1 <1>   0.0800 
 42 H        2.2690    -8.8160    -0.4390 H     1 <1>   0.0800 
 43 H       -6.4420   -10.2850    -0.1020 H     1 <1>   0.0800 
 44 H       -8.1080    -9.7990     0.0930 H     1 <1>   0.0800 
 45 H       -7.0520    -9.8610     1.4830 H     1 <1>   0.0800 
@<TRIPOS>BOND
  1   1   2  1   
  2   2   3  1   
  3   2   4  1   
  4   2   5  1   
  5   5   6  1   
  6   5   7  1   
  7   5  27  1   
  8   6   8  1   
  9   7   9  1   
 10   7  10  1   
 11   7  11  1   
 12   8  12  ar  
 13   8  13  ar  
 14  12  14  ar  
 15  13  15  ar  
 16  14  16  ar  
 17  14  17  1   
 18  15  16  ar  
 19  15  18  1   
 20  17  19  1   
 21  17  20  1   
 22  18  21  1   
 23  18  28  1   
 24  19  22  1   
 25  19  29  1   
 26  19  30  1   
 27  20  23  1   
 28  20  31  1   
 29  20  32  1   
 30  21  24  1   
 31  21  33  1   
 32  21  34  1   
 33  22  25  1   
 34  22  35  1   
 35  22  36  1   
 36  23  25  1   
 37  23  37  1   
 38  23  38  1   
 39  24  26  1   
 40  24  39  1   
 41  24  40  1   
 42  25  41  1   
 43  25  42  1   
 44  26  43  1   
 45  26  44  1   
 46  26  45  1   
@<TRIPOS>SUBSTRUCTURE
  1 ****  12 GROUP 4 **** **** 0

# MOE 2024.06 (io_trps.svl 2023.06)
