@<TRIPOS>MOLECULE
NONAME
38 39 1 0 0 
SMALL
USER_CHARGES


@<TRIPOS>ATOM
  1 O        0.3320    -0.4490    -0.8220 O.3   1 <1>  -0.3630 
  2 C        0.3300    -1.7340    -0.3810 C.ar  1 <1>   0.0830 
  3 C        0.8650     0.6220    -0.0740 C.3   1 <1>   0.1200 
  4 C        0.8660    -2.1480     0.8350 C.ar  1 <1>  -0.1500 
  5 C       -0.2550    -2.6720    -1.2150 C.ar  1 <1>  -0.1500 
  6 C        2.3800     0.6800    -0.2780 C.3   1 <1>  -0.2400 
  7 C        0.8140    -3.4830     1.1980 C.ar  1 <1>  -0.1500 
  8 C       -0.3070    -4.0050    -0.8500 C.ar  1 <1>  -0.1500 
  9 C        0.2320    -4.4210     0.3570 C.ar  1 <1>  -0.1430 
 10 C        0.1830    -5.8900     0.7510 C.3   1 <1>  -0.0170 
 11 C        1.1930    -6.7310    -0.0540 C.3   1 <1>  -0.0800 
 12 C        1.0920    -8.2180     0.3260 C.3   1 <1>  -0.1600 
 13 C        2.6400    -6.2370     0.1410 C.3   1 <1>  -0.1600 
 14 C        2.1260    -9.0660    -0.4170 C.3   1 <1>   0.3430 
 15 C        3.6470    -7.1180    -0.5970 C.3   1 <1>   0.3430 
 16 N        3.4900    -8.5310    -0.1560 N.4   1 <1>  -0.9060 
 17 H        0.5910     0.5100     0.9600 H     1 <1>   0.0800 
 18 H        0.4130     1.5240    -0.4480 H     1 <1>   0.0800 
 19 H        1.3230    -1.4500     1.5080 H     1 <1>   0.1500 
 20 H       -0.6720    -2.3460    -2.1510 H     1 <1>   0.1500 
 21 H        2.8490    -0.2200     0.0760 H     1 <1>   0.0800 
 22 H        2.7870     1.5130     0.2640 H     1 <1>   0.0800 
 23 H        2.6030     0.8090    -1.3220 H     1 <1>   0.0800 
 24 H        1.2300    -3.7840     2.1430 H     1 <1>   0.1500 
 25 H       -0.7730    -4.7120    -1.5130 H     1 <1>   0.1500 
 26 H       -0.8140    -6.2550     0.5760 H     1 <1>   0.0800 
 27 H        0.3780    -5.9870     1.8050 H     1 <1>   0.0800 
 28 H        0.9420    -6.6320    -1.0980 H     1 <1>   0.0800 
 29 H        0.1090    -8.5820     0.0820 H     1 <1>   0.0800 
 30 H        1.2250    -8.3420     1.3870 H     1 <1>   0.0800 
 31 H        2.8860    -6.2050     1.1880 H     1 <1>   0.0800 
 32 H        2.7320    -5.2330    -0.2390 H     1 <1>   0.0800 
 33 H        1.9200    -9.0380    -1.4750 H     1 <1>   0.0800 
 34 H        2.0590   -10.0910    -0.0860 H     1 <1>   0.0800 
 35 H        4.6480    -6.7720    -0.3930 H     1 <1>   0.0800 
 36 H        3.4740    -7.0450    -1.6600 H     1 <1>   0.0800 
 37 H        4.1910    -9.1210    -0.6240 H     1 <1>   0.4500 
 38 H        3.6780    -8.5820     0.8520 H     1 <1>   0.4500 
@<TRIPOS>BOND
  1   1   2  1   
  2   1   3  1   
  3   2   4  ar  
  4   2   5  ar  
  5   3   6  1   
  6   3  17  1   
  7   3  18  1   
  8   4   7  ar  
  9   4  19  1   
 10   5   8  ar  
 11   5  20  1   
 12   6  21  1   
 13   6  22  1   
 14   6  23  1   
 15   7   9  ar  
 16   7  24  1   
 17   8   9  ar  
 18   8  25  1   
 19   9  10  1   
 20  10  11  1   
 21  10  26  1   
 22  10  27  1   
 23  11  12  1   
 24  11  13  1   
 25  11  28  1   
 26  12  14  1   
 27  12  29  1   
 28  12  30  1   
 29  13  15  1   
 30  13  31  1   
 31  13  32  1   
 32  14  16  1   
 33  14  33  1   
 34  14  34  1   
 35  15  16  1   
 36  15  35  1   
 37  15  36  1   
 38  16  37  1   
 39  16  38  1   
@<TRIPOS>SUBSTRUCTURE
  1 ****   9 GROUP 4 **** **** 0

# MOE 2024.06 (io_trps.svl 2023.06)
