@<TRIPOS>MOLECULE
NONAME
37 38 1 0 0 
SMALL
USER_CHARGES


@<TRIPOS>ATOM
  1 CL      -0.5400    -0.3330    -0.9250 Cl    1 <1>  -0.1770 
  2 C       -0.2450    -1.8750    -0.1640 C.ar  1 <1>   0.1770 
  3 C        1.0450    -2.3630    -0.0980 C.ar  1 <1>  -0.1500 
  4 C       -1.3120    -2.5780     0.3630 C.ar  1 <1>  -0.1500 
  5 C        1.2930    -3.5910     0.5080 C.ar  1 <1>   0.1170 
  6 C       -1.0750    -3.7990     0.9710 C.ar  1 <1>  -0.1500 
  7 N        2.5790    -4.1410     0.6210 N.am  1 <1>  -0.5470 
  8 C        0.2160    -4.2950     1.0410 C.ar  1 <1>  -0.1500 
  9 C        3.7120    -3.9190    -0.1150 C.2   1 <1>   0.5690 
 10 O        3.7540    -3.1810    -1.0690 O.2   1 <1>  -0.5700 
 11 C        4.9780    -4.6600     0.2880 C.3   1 <1>  -0.0190 
 12 C        6.1730    -3.6980     0.2680 C.3   1 <1>   0.1960 
 13 C        5.2380    -5.8690    -0.6310 C.3   1 <1>  -0.1600 
 14 N        7.4060    -4.4050     0.6350 N.am  1 <1>  -0.8490 
 15 C        6.5740    -6.5320    -0.2680 C.3   1 <1>  -0.1600 
 16 S        8.7130    -3.3880     0.9950 S.o2  1 <1>   1.3330 
 17 C        7.7270    -5.5220    -0.2560 C.3   1 <1>   0.1960 
 18 O        9.8470    -4.2210     1.3220 O.2   1 <1>  -0.6500 
 19 O        8.2450    -2.3830     1.9210 O.2   1 <1>  -0.6500 
 20 C        9.0740    -2.5710    -0.5480 C.3   1 <1>  -0.1350 
 21 H        1.8430    -1.7790    -0.5160 H     1 <1>   0.1500 
 22 H       -2.3060    -2.1740     0.2970 H     1 <1>   0.1500 
 23 H       -1.8950    -4.3600     1.3870 H     1 <1>   0.1500 
 24 H        2.6720    -4.8460     1.3500 H     1 <1>   0.3700 
 25 H        0.3840    -5.2460     1.5140 H     1 <1>   0.1500 
 26 H        4.8660    -5.0070     1.2990 H     1 <1>   0.0800 
 27 H        5.9860    -2.9020     0.9720 H     1 <1>   0.0800 
 28 H        6.2780    -3.2640    -0.7120 H     1 <1>   0.0800 
 29 H        5.2700    -5.5380    -1.6550 H     1 <1>   0.0800 
 30 H        4.4380    -6.5830    -0.5370 H     1 <1>   0.0800 
 31 H        6.7950    -7.3140    -0.9720 H     1 <1>   0.0800 
 32 H        6.5050    -6.9820     0.7080 H     1 <1>   0.0800 
 33 H        8.6190    -6.0190     0.0900 H     1 <1>   0.0800 
 34 H        7.9050    -5.1580    -1.2540 H     1 <1>   0.0800 
 35 H        9.3350    -3.2870    -1.3010 H     1 <1>   0.0800 
 36 H        9.9030    -1.9030    -0.4150 H     1 <1>   0.0800 
 37 H        8.2300    -2.0000    -0.8790 H     1 <1>   0.0800 
@<TRIPOS>BOND
  1   1   2  1   
  2   2   3  ar  
  3   2   4  ar  
  4   3   5  ar  
  5   3  21  1   
  6   4   6  ar  
  7   4  22  1   
  8   5   7  1   
  9   5   8  ar  
 10   6   8  ar  
 11   6  23  1   
 12   7   9  am  
 13   7  24  1   
 14   8  25  1   
 15   9  10  2   
 16   9  11  1   
 17  11  12  1   
 18  11  13  1   
 19  11  26  1   
 20  12  14  1   
 21  12  27  1   
 22  12  28  1   
 23  13  15  1   
 24  13  29  1   
 25  13  30  1   
 26  14  16  am  
 27  14  17  1   
 28  15  17  1   
 29  15  31  1   
 30  15  32  1   
 31  16  18  2   
 32  16  19  2   
 33  16  20  1   
 34  17  33  1   
 35  17  34  1   
 36  20  35  1   
 37  20  36  1   
 38  20  37  1   
@<TRIPOS>SUBSTRUCTURE
  1 ****   9 GROUP 4 **** **** 0

# MOE 2024.06 (io_trps.svl 2023.06)
