@<TRIPOS>MOLECULE
NONAME
49 50 1 0 0 
SMALL
USER_CHARGES


@<TRIPOS>ATOM
  1 O        2.7280    -6.3570     0.4750 O.2   1 <1>  -0.5700 
  2 C        2.3960    -5.2300     0.2070 C.2   1 <1>   0.5690 
  3 N        3.2610    -4.1960     0.0070 N.am  1 <1>  -0.5470 
  4 C        0.9170    -4.9400     0.0850 C.3   1 <1>  -0.0990 
  5 C        4.6650    -4.0950     0.0290 C.ar  1 <1>   0.1170 
  6 C        0.1450    -6.2590     0.0040 C.3   1 <1>   0.3430 
  7 C        5.2250    -2.8440    -0.2540 C.ar  1 <1>   0.0820 
  8 C        5.5120    -5.1590     0.3130 C.ar  1 <1>  -0.1500 
  9 N       -1.3240    -6.0430    -0.1720 N.4   1 <1>  -0.9590 
 10 O        4.3550    -1.8210    -0.5290 O.3   1 <1>  -0.3630 
 11 C        6.6070    -2.6800    -0.2480 C.ar  1 <1>  -0.1500 
 12 C        6.8870    -4.9980     0.3200 C.ar  1 <1>   0.0830 
 13 C       -1.9700    -5.5010     1.0630 C.3   1 <1>   0.3430 
 14 C       -1.9710    -7.3190    -0.5970 C.3   1 <1>   0.3430 
 15 C        4.8300    -0.5260    -0.8290 C.3   1 <1>   0.0400 
 16 C        7.4350    -3.7510     0.0370 C.ar  1 <1>  -0.1500 
 17 O        7.6300    -6.0990     0.6100 O.3   1 <1>  -0.3620 
 18 C       -3.4470    -5.2140     0.7890 C.3   1 <1>  -0.1600 
 19 C       -3.4470    -7.0710    -0.9090 C.3   1 <1>  -0.1600 
 20 C        9.0380    -6.0440     0.6450 C.3   1 <1>   0.0400 
 21 C       -4.1850    -6.4660     0.2930 C.3   1 <1>  -0.0800 
 22 C       -5.6340    -6.1290    -0.0750 C.3   1 <1>  -0.2400 
 23 H        2.8510    -3.2840    -0.2090 H     1 <1>   0.3700 
 24 H        0.7510    -4.3610    -0.8050 H     1 <1>   0.0800 
 25 H        0.6200    -4.3760     0.9490 H     1 <1>   0.0800 
 26 H        0.3310    -6.8370     0.8960 H     1 <1>   0.0800 
 27 H        0.5310    -6.8230    -0.8310 H     1 <1>   0.0800 
 28 H        5.1200    -6.1320     0.5360 H     1 <1>   0.1500 
 29 H       -1.4760    -5.3650    -0.9300 H     1 <1>   0.4500 
 30 H        7.0620    -1.7310    -0.4610 H     1 <1>   0.1500 
 31 H       -1.4840    -4.5910     1.3720 H     1 <1>   0.0800 
 32 H       -1.8860    -6.2190     1.8630 H     1 <1>   0.0800 
 33 H       -1.8870    -8.0510     0.1900 H     1 <1>   0.0800 
 34 H       -1.4800    -7.7080    -1.4750 H     1 <1>   0.0800 
 35 H        3.9820     0.1100    -1.0100 H     1 <1>   0.0800 
 36 H        5.4440    -0.5730    -1.7100 H     1 <1>   0.0800 
 37 H        5.3890    -0.1540     0.0120 H     1 <1>   0.0800 
 38 H        8.4970    -3.5970     0.0350 H     1 <1>   0.1500 
 39 H       -3.5270    -4.4220     0.0640 H     1 <1>   0.0800 
 40 H       -3.9070    -4.8660     1.6970 H     1 <1>   0.0800 
 41 H       -3.9070    -8.0080    -1.1750 H     1 <1>   0.0800 
 42 H       -3.5260    -6.4210    -1.7630 H     1 <1>   0.0800 
 43 H        9.4030    -7.0240     0.8930 H     1 <1>   0.0800 
 44 H        9.3410    -5.3390     1.3980 H     1 <1>   0.0800 
 45 H        9.4000    -5.7540    -0.3260 H     1 <1>   0.0800 
 46 H       -4.2020    -7.1940     1.0890 H     1 <1>   0.0800 
 47 H       -5.6740    -5.4030    -0.8690 H     1 <1>   0.0800 
 48 H       -6.1550    -5.7290     0.7780 H     1 <1>   0.0800 
 49 H       -6.1550    -7.0140    -0.3970 H     1 <1>   0.0800 
@<TRIPOS>BOND
  1   1   2  2   
  2   2   3  am  
  3   2   4  1   
  4   3   5  1   
  5   3  23  1   
  6   4   6  1   
  7   4  24  1   
  8   4  25  1   
  9   5   7  ar  
 10   5   8  ar  
 11   6   9  1   
 12   6  26  1   
 13   6  27  1   
 14   7  10  1   
 15   7  11  ar  
 16   8  12  ar  
 17   8  28  1   
 18   9  13  1   
 19   9  14  1   
 20   9  29  1   
 21  10  15  1   
 22  11  16  ar  
 23  11  30  1   
 24  12  16  ar  
 25  12  17  1   
 26  13  18  1   
 27  13  31  1   
 28  13  32  1   
 29  14  19  1   
 30  14  33  1   
 31  14  34  1   
 32  15  35  1   
 33  15  36  1   
 34  15  37  1   
 35  16  38  1   
 36  17  20  1   
 37  18  21  1   
 38  18  39  1   
 39  18  40  1   
 40  19  21  1   
 41  19  41  1   
 42  19  42  1   
 43  20  43  1   
 44  20  44  1   
 45  20  45  1   
 46  21  22  1   
 47  21  46  1   
 48  22  47  1   
 49  22  48  1   
 50  22  49  1   
@<TRIPOS>SUBSTRUCTURE
  1 ****   2 GROUP 4 **** **** 0

# MOE 2024.06 (io_trps.svl 2023.06)
