@<TRIPOS>MOLECULE
NONAME
43 45 1 0 0 
SMALL
USER_CHARGES


@<TRIPOS>ATOM
  1 O       -0.3000    -1.2020    -1.2520 O.3   1 <1>  -0.6800 
  2 C       -0.4500    -2.2360    -0.3590 C.3   1 <1>   0.7670 
  3 C        0.7500    -2.1670     0.5340 C.1   1 <1>  -0.2000 
  4 C       -0.3250    -3.5680    -1.1010 C.ar  1 <1>  -0.1440 
  5 C       -1.8050    -2.0250     0.3370 C.ar  1 <1>  -0.1440 
  6 C        1.8020    -2.3060     1.0730 C.1   1 <1>  -0.2000 
  7 C        0.6410    -3.7080    -2.0890 C.ar  1 <1>   0.1600 
  8 C       -1.0920    -4.6760    -0.7780 C.ar  1 <1>  -0.1500 
  9 C       -1.9370    -1.9210     1.7200 C.ar  1 <1>  -0.1500 
 10 C       -2.9540    -1.9370    -0.4430 C.ar  1 <1>  -0.1500 
 11 C        3.1680    -2.6740     1.5270 C.3   1 <1>   0.5430 
 12 N        0.9350    -4.8340    -2.7200 N.ar  1 <1>  -0.6200 
 13 C       -0.8310    -5.8460    -1.4580 C.ar  1 <1>  -0.1500 
 14 C       -3.1790    -1.7350     2.3000 C.ar  1 <1>  -0.1500 
 15 C       -4.1970    -1.7500     0.1360 C.ar  1 <1>  -0.1500 
 16 N        3.7800    -3.4630     0.4260 N.4   1 <1>  -0.9590 
 17 C        0.1790    -5.8730    -2.4030 C.ar  1 <1>   0.1600 
 18 C       -4.3100    -1.6490     1.5100 C.ar  1 <1>  -0.1500 
 19 C        3.1190    -4.7700     0.1690 C.3   1 <1>   0.3430 
 20 C        5.2190    -3.7550     0.5990 C.3   1 <1>   0.3430 
 21 C        4.1280    -5.5320    -0.6740 C.3   1 <1>  -0.1600 
 22 C        5.4900    -4.8950    -0.3760 C.3   1 <1>  -0.1600 
 23 H       -0.6910    -0.4140    -0.8340 H     1 <1>   0.4000 
 24 H        1.2230    -2.8450    -2.3700 H     1 <1>   0.1500 
 25 H       -1.8630    -4.6440    -0.0250 H     1 <1>   0.1500 
 26 H       -1.0830    -1.9840     2.3710 H     1 <1>   0.1500 
 27 H       -2.8880    -2.0170    -1.5160 H     1 <1>   0.1500 
 28 H        3.1190    -3.2580     2.4320 H     1 <1>   0.0800 
 29 H        3.7410    -1.7800     1.7130 H     1 <1>   0.0800 
 30 H       -1.4050    -6.7340    -1.2580 H     1 <1>   0.1500 
 31 H       -3.2690    -1.6560     3.3700 H     1 <1>   0.1500 
 32 H       -5.0760    -1.6840    -0.4820 H     1 <1>   0.1500 
 33 H        3.6650    -2.9130    -0.4340 H     1 <1>   0.4500 
 34 H        0.3730    -6.7950    -2.9260 H     1 <1>   0.1500 
 35 H       -5.2760    -1.5030     1.9620 H     1 <1>   0.1500 
 36 H        2.1780    -4.6550    -0.3460 H     1 <1>   0.0800 
 37 H        2.9560    -5.2900     1.0990 H     1 <1>   0.0800 
 38 H        5.4070    -4.0930     1.6060 H     1 <1>   0.0800 
 39 H        5.8330    -2.8940     0.3860 H     1 <1>   0.0800 
 40 H        3.8790    -5.4220    -1.7170 H     1 <1>   0.0800 
 41 H        4.1100    -6.5810    -0.4310 H     1 <1>   0.0800 
 42 H        6.1750    -5.6040     0.0580 H     1 <1>   0.0800 
 43 H        5.9280    -4.5080    -1.2800 H     1 <1>   0.0800 
@<TRIPOS>BOND
  1   1   2  1   
  2   1  23  1   
  3   2   3  1   
  4   2   4  1   
  5   2   5  1   
  6   3   6  3   
  7   4   7  ar  
  8   4   8  ar  
  9   5   9  ar  
 10   5  10  ar  
 11   6  11  1   
 12   7  12  ar  
 13   7  24  1   
 14   8  13  ar  
 15   8  25  1   
 16   9  14  ar  
 17   9  26  1   
 18  10  15  ar  
 19  10  27  1   
 20  11  16  1   
 21  11  28  1   
 22  11  29  1   
 23  12  17  ar  
 24  13  17  ar  
 25  13  30  1   
 26  14  18  ar  
 27  14  31  1   
 28  15  18  ar  
 29  15  32  1   
 30  16  19  1   
 31  16  20  1   
 32  16  33  1   
 33  17  34  1   
 34  18  35  1   
 35  19  21  1   
 36  19  36  1   
 37  19  37  1   
 38  20  22  1   
 39  20  38  1   
 40  20  39  1   
 41  21  22  1   
 42  21  40  1   
 43  21  41  1   
 44  22  42  1   
 45  22  43  1   
@<TRIPOS>SUBSTRUCTURE
  1 ****   4 GROUP 4 **** **** 0

# MOE 2024.06 (io_trps.svl 2023.06)
