@<TRIPOS>MOLECULE
NONAME
33 35 1 0 0 
SMALL
USER_CHARGES


@<TRIPOS>ATOM
  1 O       -0.1120    -0.2910    -0.3470 O.2   1 <1>  -0.5700 
  2 C       -0.4640    -1.3980    -0.0290 C.2   1 <1>   0.5690 
  3 N        0.3390    -2.5000     0.1080 N.am  1 <1>  -0.2370 
  4 C       -1.9140    -1.7200     0.2870 C.3   1 <1>  -0.0190 
  5 C        1.7360    -2.5220    -0.1140 C.ar  1 <1>   0.1170 
  6 C       -0.4080    -3.5760     0.5070 C.2   1 <1>   0.5690 
  7 C       -1.8750    -3.2160     0.6610 C.3   1 <1>  -0.0190 
  8 C       -2.8630    -1.4050    -0.8870 C.3   1 <1>  -0.1600 
  9 C        2.5640    -1.5570     0.4480 C.ar  1 <1>  -0.1500 
 10 C        2.3150    -3.5150    -0.9000 C.ar  1 <1>  -0.1500 
 11 O        0.0020    -4.6880     0.7280 O.2   1 <1>  -0.5700 
 12 C       -2.7990    -4.0910    -0.2080 C.3   1 <1>  -0.1600 
 13 C       -4.2540    -2.0140    -0.6540 C.3   1 <1>  -0.1600 
 14 C        3.9290    -1.5910     0.2310 C.ar  1 <1>   0.0830 
 15 C        3.6810    -3.5470    -1.1200 C.ar  1 <1>  -0.1500 
 16 C       -4.2180    -3.5060    -0.2660 C.3   1 <1>  -0.1600 
 17 O        4.7050    -0.6510     0.7900 O.3   1 <1>  -0.5320 
 18 C        4.4960    -2.5830    -0.5530 C.ar  1 <1>  -0.1500 
 19 H       -2.2100    -1.1430     1.1460 H     1 <1>   0.0800 
 20 H       -2.1450    -3.3330     1.6950 H     1 <1>   0.0800 
 21 H       -2.4520    -1.8010    -1.8010 H     1 <1>   0.0800 
 22 H       -2.9460    -0.3380    -1.0090 H     1 <1>   0.0800 
 23 H        2.1520    -0.7720     1.0550 H     1 <1>   0.1500 
 24 H        1.6920    -4.2750    -1.3390 H     1 <1>   0.1500 
 25 H       -2.8300    -5.0910     0.1920 H     1 <1>   0.0800 
 26 H       -2.4020    -4.1580    -1.2080 H     1 <1>   0.0800 
 27 H       -4.8440    -1.8900    -1.5460 H     1 <1>   0.0800 
 28 H       -4.7470    -1.4640     0.1300 H     1 <1>   0.0800 
 29 H        4.1090    -4.3250    -1.7290 H     1 <1>   0.1500 
 30 H       -4.6830    -3.6260     0.6990 H     1 <1>   0.0800 
 31 H       -4.8030    -4.0740    -0.9710 H     1 <1>   0.0800 
 32 H        5.6460    -0.7480     0.5660 H     1 <1>   0.4500 
 33 H        5.5560    -2.6090    -0.7230 H     1 <1>   0.1500 
@<TRIPOS>BOND
  1   1   2  2   
  2   2   3  am  
  3   2   4  1   
  4   3   5  1   
  5   3   6  am  
  6   4   7  1   
  7   4   8  1   
  8   4  19  1   
  9   5   9  ar  
 10   5  10  ar  
 11   6   7  1   
 12   6  11  2   
 13   7  12  1   
 14   7  20  1   
 15   8  13  1   
 16   8  21  1   
 17   8  22  1   
 18   9  14  ar  
 19   9  23  1   
 20  10  15  ar  
 21  10  24  1   
 22  12  16  1   
 23  12  25  1   
 24  12  26  1   
 25  13  16  1   
 26  13  27  1   
 27  13  28  1   
 28  14  17  1   
 29  14  18  ar  
 30  15  18  ar  
 31  15  29  1   
 32  16  30  1   
 33  16  31  1   
 34  17  32  1   
 35  18  33  1   
@<TRIPOS>SUBSTRUCTURE
  1 ****   3 GROUP 4 **** **** 0

# MOE 2024.06 (io_trps.svl 2023.06)
