@<TRIPOS>MOLECULE
NONAME
61 64 1 0 0 
SMALL
USER_CHARGES


@<TRIPOS>ATOM
  1 S       -0.1150     0.3670     0.7980 S.3   1 <1>  -0.3710 
  2 C       -1.4670    -0.7310     0.4820 C.2   1 <1>   0.6410 
  3 C        1.1270    -0.7280     1.6590 C.3   1 <1>   0.1310 
  4 N       -2.5210    -0.1590    -0.1290 N.pl3 1 <1>  -0.5500 
  5 N       -1.3830    -1.9500     0.8360 N.2   1 <1>  -0.6610 
  6 C        2.3950     0.0270     2.0320 C.2   1 <1>   0.5690 
  7 C       -3.6370    -0.8880    -0.4550 C.2   1 <1>   0.0720 
  8 C       -2.4670    -2.7290     0.5550 C.2   1 <1>   0.7670 
  9 O        3.2600    -0.5430     2.6440 O.2   1 <1>  -0.5700 
 10 N        2.5610     1.3190     1.6860 N.am  1 <1>  -0.8000 
 11 C       -4.7820    -0.2110    -1.0200 C.ar  1 <1>   0.0280 
 12 C       -3.5950    -2.2280    -0.1810 C.2   1 <1>  -0.1240 
 13 O       -2.4150    -3.8670     0.9980 O.2   1 <1>  -0.5700 
 14 C       -5.7600    -0.9720    -1.6520 C.ar  1 <1>  -0.1430 
 15 C       -4.9850     1.1680    -0.9290 C.ar  1 <1>  -0.1500 
 16 C       -4.7640    -3.1570    -0.6200 C.3   1 <1>   0.1380 
 17 C       -6.8960    -0.3800    -2.1760 C.ar  1 <1>  -0.1500 
 18 C       -5.5450    -2.4690    -1.7830 C.3   1 <1>  -0.0170 
 19 C       -6.1170     1.7620    -1.4540 C.ar  1 <1>  -0.1500 
 20 C       -5.6590    -3.4280     0.6490 C.3   1 <1>  -0.0800 
 21 C       -4.1770    -4.4990    -1.1860 C.3   1 <1>  -0.1600 
 22 C       -7.0770     0.9870    -2.0790 C.ar  1 <1>  -0.1500 
 23 C       -6.7820    -4.4760     0.4600 C.3   1 <1>  -0.1600 
 24 C       -6.2600    -2.1490     1.2840 C.3   1 <1>  -0.1600 
 25 C       -4.9670    -5.2750    -2.2720 C.3   1 <1>  -0.1600 
 26 C       -7.5510    -4.7540     1.7600 C.3   1 <1>  -0.1600 
 27 C       -7.0110    -2.4420     2.5880 C.3   1 <1>  -0.1600 
 28 C       -4.4050    -6.6830    -2.5200 C.3   1 <1>  -0.1600 
 29 C       -8.1230    -3.4680     2.3610 C.3   1 <1>  -0.1600 
 30 C       -4.7230    -7.6640    -1.3850 C.3   1 <1>  -0.2400 
 31 H        1.3600    -1.5360     0.9910 H     1 <1>   0.0800 
 32 H        0.6540    -1.1160     2.5420 H     1 <1>   0.0800 
 33 H       -2.4520     0.8300    -0.3640 H     1 <1>   0.4000 
 34 H        3.4160     1.8110     1.9450 H     1 <1>   0.3700 
 35 H        1.8510     1.8450     1.1740 H     1 <1>   0.3700 
 36 H       -4.2660     1.7910    -0.4320 H     1 <1>   0.1500 
 37 H       -7.6450    -0.9770    -2.6660 H     1 <1>   0.1500 
 38 H       -4.9760    -2.5810    -2.6880 H     1 <1>   0.0800 
 39 H       -6.4890    -2.9550    -1.9370 H     1 <1>   0.0800 
 40 H       -6.2580     2.8260    -1.3750 H     1 <1>   0.1500 
 41 H       -5.0020    -3.8450     1.3940 H     1 <1>   0.0800 
 42 H       -4.0040    -5.1600    -0.3580 H     1 <1>   0.0800 
 43 H       -3.2100    -4.2930    -1.6120 H     1 <1>   0.0800 
 44 H       -7.9600     1.4460    -2.4880 H     1 <1>   0.1500 
 45 H       -6.3640    -5.4130     0.1440 H     1 <1>   0.0800 
 46 H       -7.4790    -4.1440    -0.2880 H     1 <1>   0.0800 
 47 H       -6.9480    -1.6880     0.5990 H     1 <1>   0.0800 
 48 H       -5.4860    -1.4370     1.5070 H     1 <1>   0.0800 
 49 H       -4.9020    -4.7420    -3.2040 H     1 <1>   0.0800 
 50 H       -6.0090    -5.3550    -2.0270 H     1 <1>   0.0800 
 51 H       -6.8860    -5.2120     2.4730 H     1 <1>   0.0800 
 52 H       -8.3510    -5.4460     1.5640 H     1 <1>   0.0800 
 53 H       -7.4360    -1.5300     2.9710 H     1 <1>   0.0800 
 54 H       -6.3190    -2.8190     3.3230 H     1 <1>   0.0800 
 55 H       -3.3390    -6.6310    -2.6660 H     1 <1>   0.0800 
 56 H       -4.8370    -7.0680    -3.4280 H     1 <1>   0.0800 
 57 H       -8.6080    -3.6900     3.2960 H     1 <1>   0.0800 
 58 H       -8.8610    -3.0560     1.6930 H     1 <1>   0.0800 
 59 H       -4.2330    -7.3770    -0.4720 H     1 <1>   0.0800 
 60 H       -4.3810    -8.6490    -1.6500 H     1 <1>   0.0800 
 61 H       -5.7830    -7.7090    -1.2110 H     1 <1>   0.0800 
@<TRIPOS>BOND
  1   1   2  1   
  2   1   3  1   
  3   2   4  1   
  4   2   5  2   
  5   3   6  1   
  6   3  31  1   
  7   3  32  1   
  8   4   7  1   
  9   4  33  1   
 10   5   8  1   
 11   6   9  2   
 12   6  10  am  
 13   7  11  1   
 14   7  12  2   
 15   8  12  1   
 16   8  13  2   
 17  10  34  1   
 18  10  35  1   
 19  11  14  ar  
 20  11  15  ar  
 21  12  16  1   
 22  14  17  ar  
 23  14  18  1   
 24  15  19  ar  
 25  15  36  1   
 26  16  18  1   
 27  16  20  1   
 28  16  21  1   
 29  17  22  ar  
 30  17  37  1   
 31  18  38  1   
 32  18  39  1   
 33  19  22  ar  
 34  19  40  1   
 35  20  23  1   
 36  20  24  1   
 37  20  41  1   
 38  21  25  1   
 39  21  42  1   
 40  21  43  1   
 41  22  44  1   
 42  23  26  1   
 43  23  45  1   
 44  23  46  1   
 45  24  27  1   
 46  24  47  1   
 47  24  48  1   
 48  25  28  1   
 49  25  49  1   
 50  25  50  1   
 51  26  29  1   
 52  26  51  1   
 53  26  52  1   
 54  27  29  1   
 55  27  53  1   
 56  27  54  1   
 57  28  30  1   
 58  28  55  1   
 59  28  56  1   
 60  29  57  1   
 61  29  58  1   
 62  30  59  1   
 63  30  60  1   
 64  30  61  1   
@<TRIPOS>SUBSTRUCTURE
  1 ****  12 GROUP 4 **** **** 0

# MOE 2024.06 (io_trps.svl 2023.06)
