@<TRIPOS>MOLECULE
NONAME
45 46 1 0 0 
SMALL
USER_CHARGES


@<TRIPOS>ATOM
  1 S       -0.0220    -0.0470     1.0470 S.o2  1 <1>   1.4470 
  2 O       -0.1490    -0.3990     2.4440 O.2   1 <1>  -0.6500 
  3 O        0.6440    -0.9470     0.1340 O.2   1 <1>  -0.6500 
  4 N       -1.6230     0.0540     0.4870 N.am  1 <1>  -0.8490 
  5 C        0.5870     1.6480     0.8450 C.ar  1 <1>  -0.0090 
  6 C       -2.1890    -1.2990     0.2930 C.3   1 <1>   0.1960 
  7 C       -2.4880     0.8470     1.3860 C.3   1 <1>   0.1960 
  8 C        0.7760     2.1890    -0.4200 C.ar  1 <1>  -0.1500 
  9 C        0.8480     2.4570     1.9420 C.ar  1 <1>  -0.1500 
 10 C       -3.6850    -1.2790    -0.1120 C.3   1 <1>   0.3430 
 11 C       -3.9290     0.9960     0.8330 C.3   1 <1>   0.3430 
 12 C        1.2000     3.4970    -0.5990 C.ar  1 <1>  -0.1440 
 13 C        1.2710     3.7630     1.7790 C.ar  1 <1>  -0.1500 
 14 N       -4.1790     0.1190    -0.3690 N.4   1 <1>  -0.9590 
 15 C        1.4470     4.2930     0.5120 C.ar  1 <1>  -0.1430 
 16 C        1.3910     4.0260    -2.0140 C.3   1 <1>  -0.0970 
 17 C       -5.5820     0.1450    -0.8630 C.3   1 <1>   0.3430 
 18 C        1.9160     5.7350     0.3710 C.3   1 <1>  -0.0970 
 19 C       -5.9240     1.5210    -1.4380 C.3   1 <1>  -0.1600 
 20 C       -7.3280     1.5230    -2.0550 C.3   1 <1>  -0.2400 
 21 H       -2.0780    -1.8780     1.1950 H     1 <1>   0.0800 
 22 H       -1.6340    -1.8080    -0.4790 H     1 <1>   0.0800 
 23 H       -2.0710     1.8310     1.5240 H     1 <1>   0.0800 
 24 H       -2.5350     0.3810     2.3570 H     1 <1>   0.0800 
 25 H        0.5880     1.5670    -1.2780 H     1 <1>   0.1500 
 26 H        0.7230     2.0640     2.9380 H     1 <1>   0.1500 
 27 H       -4.2640    -1.7290     0.6770 H     1 <1>   0.0800 
 28 H       -3.8130    -1.8840    -0.9950 H     1 <1>   0.0800 
 29 H       -4.0870     2.0270     0.5650 H     1 <1>   0.0800 
 30 H       -4.6280     0.7560     1.6170 H     1 <1>   0.0800 
 31 H        1.4670     4.3650     2.6500 H     1 <1>   0.1500 
 32 H       -3.5540     0.4860    -1.1030 H     1 <1>   0.4500 
 33 H        1.1680     3.2710    -2.7460 H     1 <1>   0.0800 
 34 H        2.4110     4.3360    -2.1560 H     1 <1>   0.0800 
 35 H        0.7430     4.8660    -2.1860 H     1 <1>   0.0800 
 36 H       -6.2630    -0.0970    -0.0630 H     1 <1>   0.0800 
 37 H       -5.7030    -0.5930    -1.6410 H     1 <1>   0.0800 
 38 H        2.8610     5.7660    -0.1410 H     1 <1>   0.0800 
 39 H        2.0410     6.1970     1.3340 H     1 <1>   0.0800 
 40 H        1.1960     6.3060    -0.1850 H     1 <1>   0.0800 
 41 H       -5.2140     1.7830    -2.2040 H     1 <1>   0.0800 
 42 H       -5.8940     2.2690    -0.6660 H     1 <1>   0.0800 
 43 H       -7.3970     0.8080    -2.8560 H     1 <1>   0.0800 
 44 H       -7.5520     2.4970    -2.4560 H     1 <1>   0.0800 
 45 H       -8.0740     1.2880    -1.3150 H     1 <1>   0.0800 
@<TRIPOS>BOND
  1   1   2  2   
  2   1   3  2   
  3   1   4  am  
  4   1   5  1   
  5   4   6  1   
  6   4   7  1   
  7   5   8  ar  
  8   5   9  ar  
  9   6  10  1   
 10   6  21  1   
 11   6  22  1   
 12   7  11  1   
 13   7  23  1   
 14   7  24  1   
 15   8  12  ar  
 16   8  25  1   
 17   9  13  ar  
 18   9  26  1   
 19  10  14  1   
 20  10  27  1   
 21  10  28  1   
 22  11  14  1   
 23  11  29  1   
 24  11  30  1   
 25  12  15  ar  
 26  12  16  1   
 27  13  15  ar  
 28  13  31  1   
 29  14  17  1   
 30  14  32  1   
 31  15  18  1   
 32  16  33  1   
 33  16  34  1   
 34  16  35  1   
 35  17  19  1   
 36  17  36  1   
 37  17  37  1   
 38  18  38  1   
 39  18  39  1   
 40  18  40  1   
 41  19  20  1   
 42  19  41  1   
 43  19  42  1   
 44  20  43  1   
 45  20  44  1   
 46  20  45  1   
@<TRIPOS>SUBSTRUCTURE
  1 ****   4 GROUP 4 **** **** 0

# MOE 2024.06 (io_trps.svl 2023.06)
