@<TRIPOS>MOLECULE
NONAME
50 53 1 0 0 
SMALL
USER_CHARGES


@<TRIPOS>ATOM
  1 O        0.0130     1.4220     0.5560 O.2   1 <1>  -0.5700 
  2 C        1.0710     1.5290    -0.0150 C.2   1 <1>   0.4950 
  3 C        2.0620     0.5060    -0.1130 C.2   1 <1>  -0.1240 
  4 C        1.3630     2.8790    -0.6400 C.3   1 <1>  -0.0990 
  5 C        3.2410     0.6440    -0.7840 C.2   1 <1>  -0.0380 
  6 C        1.7330    -0.8070     0.6000 C.3   1 <1>   0.3400 
  7 C        2.2680     2.7420    -1.8680 C.3   1 <1>  -0.1600 
  8 N        4.2160    -0.3550    -0.7710 N.pl3 1 <1>  -0.5690 
  9 C        3.5380     1.9490    -1.5370 C.3   1 <1>  -0.0220 
 10 C        2.9910    -1.6340     0.8660 C.2   1 <1>  -0.1240 
 11 C        0.7550    -1.6220    -0.2600 C.ar  1 <1>  -0.1440 
 12 C        4.1360    -1.3760     0.1760 C.2   1 <1>  -0.0380 
 13 C        5.3260    -0.3350    -1.7770 C.3   1 <1>   0.1290 
 14 C        2.8610    -2.6650     1.8450 C.2   1 <1>   0.4950 
 15 C       -0.5060    -1.9910     0.2050 C.ar  1 <1>   0.0820 
 16 C        1.1290    -2.0060    -1.5420 C.ar  1 <1>  -0.1500 
 17 C        5.3940    -2.2100     0.4490 C.3   1 <1>  -0.0220 
 18 O        1.9030    -2.8340     2.5580 O.2   1 <1>  -0.5700 
 19 C        4.0210    -3.6240     2.0290 C.3   1 <1>  -0.0990 
 20 O       -0.8970    -1.6340     1.4490 O.3   1 <1>  -0.3630 
 21 C       -1.3590    -2.7400    -0.5960 C.ar  1 <1>  -0.1500 
 22 C        0.2740    -2.7410    -2.3440 C.ar  1 <1>  -0.1500 
 23 C        5.3610    -2.9120     1.8120 C.3   1 <1>  -0.1600 
 24 C       -2.0720    -0.8650     1.5740 C.3   1 <1>   0.3200 
 25 C       -0.9720    -3.1100    -1.8710 C.ar  1 <1>  -0.1500 
 26 C       -2.2680    -0.5190     3.0120 C.1   1 <1>  -0.2000 
 27 C       -2.4190    -0.2430     4.1590 C.1   1 <1>  -0.1770 
 28 H        1.8350     3.4990     0.1000 H     1 <1>   0.0800 
 29 H        0.4360     3.3440    -0.9250 H     1 <1>   0.0800 
 30 H        1.2970    -0.5630     1.5530 H     1 <1>   0.0800 
 31 H        2.5290     3.7160    -2.2440 H     1 <1>   0.0800 
 32 H        1.7260     2.2220    -2.6390 H     1 <1>   0.0800 
 33 H        4.0330     1.7680    -2.4710 H     1 <1>   0.0800 
 34 H        4.1930     2.5480    -0.9280 H     1 <1>   0.0800 
 35 H        4.9270    -0.1400    -2.7560 H     1 <1>   0.0800 
 36 H        5.8300    -1.2800    -1.8340 H     1 <1>   0.0800 
 37 H        6.0370     0.4290    -1.5170 H     1 <1>   0.0800 
 38 H        2.0980    -1.7320    -1.9220 H     1 <1>   0.1500 
 39 H        6.2630    -1.5760     0.4320 H     1 <1>   0.0800 
 40 H        5.4940    -2.9490    -0.3270 H     1 <1>   0.0800 
 41 H        3.9090    -4.4310     1.3280 H     1 <1>   0.0800 
 42 H        3.9860    -4.0350     3.0220 H     1 <1>   0.0800 
 43 H       -2.3180    -3.0450    -0.2230 H     1 <1>   0.1500 
 44 H        0.5810    -3.0270    -3.3340 H     1 <1>   0.1500 
 45 H        5.4900    -2.1750     2.5860 H     1 <1>   0.0800 
 46 H        6.1710    -3.6170     1.8840 H     1 <1>   0.0800 
 47 H       -2.9050    -1.4420     1.2200 H     1 <1>   0.0800 
 48 H       -1.9650     0.0240     0.9800 H     1 <1>   0.0800 
 49 H       -1.6350    -3.6890    -2.4900 H     1 <1>   0.1500 
 50 H       -2.5380     0.0030     5.1990 H     1 <1>   0.1770 
@<TRIPOS>BOND
  1   1   2  2   
  2   2   3  1   
  3   2   4  1   
  4   3   5  2   
  5   3   6  1   
  6   4   7  1   
  7   4  28  1   
  8   4  29  1   
  9   5   8  1   
 10   5   9  1   
 11   6  10  1   
 12   6  11  1   
 13   6  30  1   
 14   7   9  1   
 15   7  31  1   
 16   7  32  1   
 17   8  12  1   
 18   8  13  1   
 19   9  33  1   
 20   9  34  1   
 21  10  12  2   
 22  10  14  1   
 23  11  15  ar  
 24  11  16  ar  
 25  12  17  1   
 26  13  35  1   
 27  13  36  1   
 28  13  37  1   
 29  14  18  2   
 30  14  19  1   
 31  15  20  1   
 32  15  21  ar  
 33  16  22  ar  
 34  16  38  1   
 35  17  23  1   
 36  17  39  1   
 37  17  40  1   
 38  19  23  1   
 39  19  41  1   
 40  19  42  1   
 41  20  24  1   
 42  21  25  ar  
 43  21  43  1   
 44  22  25  ar  
 45  22  44  1   
 46  23  45  1   
 47  23  46  1   
 48  24  26  1   
 49  24  47  1   
 50  24  48  1   
 51  25  49  1   
 52  26  27  3   
 53  27  50  1   
@<TRIPOS>SUBSTRUCTURE
  1 ****   6 GROUP 4 **** **** 0

# MOE 2024.06 (io_trps.svl 2023.06)
