@<TRIPOS>MOLECULE
NONAME
47 48 1 0 0 
SMALL
USER_CHARGES


@<TRIPOS>ATOM
  1 O       -1.3400    -6.3150    -0.1290 O.3   1 <1>  -0.3630 
  2 C       -2.5340    -6.9520    -0.0010 C.ar  1 <1>   0.0830 
  3 C       -0.1190    -6.9760     0.1210 C.3   1 <1>   0.1200 
  4 C       -3.6880    -6.2200    -0.2730 C.ar  1 <1>  -0.1440 
  5 C       -2.6410    -8.2870     0.3850 C.ar  1 <1>  -0.1500 
  6 C        1.0170    -5.9880    -0.1170 C.3   1 <1>   0.1200 
  7 C       -4.9280    -6.8280    -0.1560 C.ar  1 <1>  -0.1500 
  8 C       -3.5980    -4.7610    -0.6960 C.3   1 <1>  -0.0960 
  9 C       -3.8840    -8.8830     0.4980 C.ar  1 <1>  -0.1500 
 10 O        2.2260    -6.6340     0.1350 O.3   1 <1>  -0.5600 
 11 C       -5.0280    -8.1530     0.2280 C.ar  1 <1>  -0.1500 
 12 C        3.3450    -5.8310    -0.0580 C.3   1 <1>   0.1200 
 13 C        4.5880    -6.6860     0.1940 C.3   1 <1>   0.1100 
 14 N        5.8380    -5.9190    -0.0090 N.3   1 <1>  -0.8100 
 15 C        6.1110    -4.9840     1.1140 C.3   1 <1>   0.1100 
 16 C        6.9870    -6.8380    -0.1970 C.3   1 <1>   0.1100 
 17 C        7.4570    -4.2320     0.9500 C.3   1 <1>   0.3430 
 18 C        8.3210    -6.0850    -0.4250 C.3   1 <1>   0.3430 
 19 N        8.1270    -4.5990    -0.3400 N.4   1 <1>  -0.9590 
 20 C        9.3700    -3.8210    -0.6110 C.3   1 <1>   0.2630 
 21 H       -0.0380    -7.8080    -0.5560 H     1 <1>   0.0800 
 22 H       -0.1160    -7.3090     1.1440 H     1 <1>   0.0800 
 23 H       -1.7730    -8.8780     0.6010 H     1 <1>   0.1500 
 24 H        0.9250    -5.1510     0.5540 H     1 <1>   0.0800 
 25 H        1.0080    -5.6550    -1.1410 H     1 <1>   0.0800 
 26 H       -5.8250    -6.2710    -0.3630 H     1 <1>   0.1500 
 27 H       -3.1120    -4.1900     0.0740 H     1 <1>   0.0800 
 28 H       -4.5730    -4.3450    -0.8690 H     1 <1>   0.0800 
 29 H       -3.0240    -4.6810    -1.6010 H     1 <1>   0.0800 
 30 H       -3.9630    -9.9130     0.7960 H     1 <1>   0.1500 
 31 H       -5.9950    -8.6160     0.3150 H     1 <1>   0.1500 
 32 H        3.2920    -5.0090     0.6340 H     1 <1>   0.0800 
 33 H        3.3420    -5.4720    -1.0730 H     1 <1>   0.0800 
 34 H        4.5580    -7.5070    -0.5030 H     1 <1>   0.0800 
 35 H        4.5550    -7.0880     1.1930 H     1 <1>   0.0800 
 36 H        6.1250    -5.5240     2.0460 H     1 <1>   0.0800 
 37 H        5.3210    -4.2560     1.1770 H     1 <1>   0.0800 
 38 H        6.8010    -7.4720    -1.0480 H     1 <1>   0.0800 
 39 H        7.0870    -7.4790     0.6630 H     1 <1>   0.0800 
 40 H        8.0990    -4.4730     1.7800 H     1 <1>   0.0800 
 41 H        7.2690    -3.1710     0.9780 H     1 <1>   0.0800 
 42 H        8.7070    -6.3480    -1.3960 H     1 <1>   0.0800 
 43 H        9.0390    -6.4070     0.3120 H     1 <1>   0.0800 
 44 H        7.4070    -4.4070    -1.0570 H     1 <1>   0.4500 
 45 H       10.1140    -4.0310     0.1400 H     1 <1>   0.0800 
 46 H        9.1580    -2.7640    -0.6020 H     1 <1>   0.0800 
 47 H        9.7710    -4.0820    -1.5770 H     1 <1>   0.0800 
@<TRIPOS>BOND
  1   1   2  1   
  2   1   3  1   
  3   2   4  ar  
  4   2   5  ar  
  5   3   6  1   
  6   3  21  1   
  7   3  22  1   
  8   4   7  ar  
  9   4   8  1   
 10   5   9  ar  
 11   5  23  1   
 12   6  10  1   
 13   6  24  1   
 14   6  25  1   
 15   7  11  ar  
 16   7  26  1   
 17   8  27  1   
 18   8  28  1   
 19   8  29  1   
 20   9  11  ar  
 21   9  30  1   
 22  10  12  1   
 23  11  31  1   
 24  12  13  1   
 25  12  32  1   
 26  12  33  1   
 27  13  14  1   
 28  13  34  1   
 29  13  35  1   
 30  14  15  1   
 31  14  16  1   
 32  15  17  1   
 33  15  36  1   
 34  15  37  1   
 35  16  18  1   
 36  16  38  1   
 37  16  39  1   
 38  17  19  1   
 39  17  40  1   
 40  17  41  1   
 41  18  19  1   
 42  18  42  1   
 43  18  43  1   
 44  19  20  1   
 45  19  44  1   
 46  20  45  1   
 47  20  46  1   
 48  20  47  1   
@<TRIPOS>SUBSTRUCTURE
  1 ****  10 GROUP 4 **** **** 0

# MOE 2024.06 (io_trps.svl 2023.06)
