@<TRIPOS>MOLECULE
NONAME
47 48 1 0 0 
SMALL
USER_CHARGES


@<TRIPOS>ATOM
  1 S       -0.1580    -1.2260    -1.4480 S.o2  1 <1>   1.4470 
  2 O        0.3390    -2.1410    -2.4540 O.2   1 <1>  -0.6500 
  3 O       -0.1210     0.1930    -1.7280 O.2   1 <1>  -0.6500 
  4 N        0.7890    -1.4600    -0.0620 N.am  1 <1>  -0.8490 
  5 C       -1.8260    -1.7190    -0.8990 C.ar  1 <1>  -0.0090 
  6 C        0.4750    -0.4960     1.0070 C.3   1 <1>   0.1960 
  7 C        2.2230    -1.3800    -0.3770 C.3   1 <1>   0.1960 
  8 C       -2.1980    -3.0450    -0.6560 C.ar  1 <1>  -0.1440 
  9 C       -2.7770    -0.7310    -0.6750 C.ar  1 <1>  -0.1500 
 10 C        1.3700    -0.7290     2.2380 C.3   1 <1>   0.1200 
 11 C        3.0810    -1.5830     0.8850 C.3   1 <1>   0.1200 
 12 C       -3.4800    -3.3370    -0.2170 C.ar  1 <1>  -0.1500 
 13 C       -1.2270    -4.2020    -0.8560 C.3   1 <1>  -0.0960 
 14 C       -4.0680    -0.9990    -0.2290 C.ar  1 <1>   0.0860 
 15 O        2.7220    -0.6680     1.8820 O.3   1 <1>  -0.5600 
 16 C       -4.4000    -2.3310    -0.0050 C.ar  1 <1>  -0.1500 
 17 C       -5.0130     0.0780    -0.0030 C.2   1 <1>   0.5440 
 18 O       -4.6320     1.1470     0.4320 O.2   1 <1>  -0.5700 
 19 N       -6.3380    -0.0920    -0.2880 N.am  1 <1>  -0.7300 
 20 C       -7.3870     0.9240    -0.1260 C.3   1 <1>   0.2200 
 21 C       -8.4470     0.3670     0.8340 C.3   1 <1>  -0.1600 
 22 C       -7.9420     1.2350    -1.5140 C.3   1 <1>  -0.2400 
 23 C       -9.5460     1.3820     1.1820 C.3   1 <1>  -0.2400 
 24 H       -0.5550    -0.6000     1.3010 H     1 <1>   0.0800 
 25 H        0.6240     0.5130     0.6590 H     1 <1>   0.0800 
 26 H        2.4530    -0.4210    -0.8120 H     1 <1>   0.0800 
 27 H        2.4780    -2.1410    -1.0960 H     1 <1>   0.0800 
 28 H       -2.5130     0.3000    -0.8480 H     1 <1>   0.1500 
 29 H        1.1700    -1.6930     2.6730 H     1 <1>   0.0800 
 30 H        1.1900     0.0300     2.9780 H     1 <1>   0.0800 
 31 H        4.1200    -1.4290     0.6570 H     1 <1>   0.0800 
 32 H        2.9530    -2.5800     1.2710 H     1 <1>   0.0800 
 33 H       -3.7690    -4.3580    -0.0320 H     1 <1>   0.1500 
 34 H       -1.0190    -4.3350    -1.9030 H     1 <1>   0.0800 
 35 H       -1.6340    -5.1220    -0.4770 H     1 <1>   0.0800 
 36 H       -0.3020    -4.0150    -0.3400 H     1 <1>   0.0800 
 37 H       -5.3840    -2.5810     0.3500 H     1 <1>   0.1500 
 38 H       -6.6420    -0.9470    -0.7510 H     1 <1>   0.3700 
 39 H       -6.9610     1.8210     0.2960 H     1 <1>   0.0800 
 40 H       -7.9560     0.0810     1.7490 H     1 <1>   0.0800 
 41 H       -8.9010    -0.5100     0.4080 H     1 <1>   0.0800 
 42 H       -8.4310     0.3750    -1.9340 H     1 <1>   0.0800 
 43 H       -7.1430     1.5460    -2.1640 H     1 <1>   0.0800 
 44 H       -8.6510     2.0400    -1.4580 H     1 <1>   0.0800 
 45 H       -9.1110     2.2830     1.5800 H     1 <1>   0.0800 
 46 H      -10.2040     0.9670     1.9250 H     1 <1>   0.0800 
 47 H      -10.1310     1.6300     0.3150 H     1 <1>   0.0800 
@<TRIPOS>BOND
  1   1   2  2   
  2   1   3  2   
  3   1   4  am  
  4   1   5  1   
  5   4   6  1   
  6   4   7  1   
  7   5   8  ar  
  8   5   9  ar  
  9   6  10  1   
 10   6  24  1   
 11   6  25  1   
 12   7  11  1   
 13   7  26  1   
 14   7  27  1   
 15   8  12  ar  
 16   8  13  1   
 17   9  14  ar  
 18   9  28  1   
 19  10  15  1   
 20  10  29  1   
 21  10  30  1   
 22  11  15  1   
 23  11  31  1   
 24  11  32  1   
 25  12  16  ar  
 26  12  33  1   
 27  13  34  1   
 28  13  35  1   
 29  13  36  1   
 30  14  16  ar  
 31  14  17  1   
 32  16  37  1   
 33  17  18  2   
 34  17  19  am  
 35  19  20  1   
 36  19  38  1   
 37  20  21  1   
 38  20  22  1   
 39  20  39  1   
 40  21  23  1   
 41  21  40  1   
 42  21  41  1   
 43  22  42  1   
 44  22  43  1   
 45  22  44  1   
 46  23  45  1   
 47  23  46  1   
 48  23  47  1   
@<TRIPOS>SUBSTRUCTURE
  1 ****   9 GROUP 4 **** **** 0

# MOE 2024.06 (io_trps.svl 2023.06)
