@<TRIPOS>MOLECULE
NONAME
56 58 1 0 0 
SMALL
USER_CHARGES


@<TRIPOS>ATOM
  1 O       -0.8160     2.7400     2.8680 O.2   1 <1>  -0.5700 
  2 C       -0.1120     2.3120     1.9850 C.2   1 <1>   0.5690 
  3 N       -0.5040     1.4160     1.0330 N.am  1 <1>  -0.5470 
  4 C        1.3430     2.7780     1.8920 C.3   1 <1>   0.1710 
  5 C       -1.6910     0.7220     0.7570 C.ar  1 <1>   0.1170 
  6 N        2.2120     1.8370     1.1230 N.3   1 <1>  -0.8100 
  7 C       -1.6710    -0.3050    -0.1890 C.ar  1 <1>  -0.1430 
  8 C       -2.8900     1.0260     1.3920 C.ar  1 <1>  -0.1500 
  9 C        2.5540     0.6410     1.9360 C.3   1 <1>   0.1100 
 10 C        3.4610     2.4960     0.6780 C.3   1 <1>   0.1100 
 11 C       -2.8370    -0.9980    -0.4760 C.ar  1 <1>  -0.1500 
 12 C       -0.3860    -0.6840    -0.9180 C.3   1 <1>  -0.0970 
 13 C       -4.0530     0.3320     1.1060 C.ar  1 <1>  -0.1430 
 14 C        3.4440    -0.3510     1.1640 C.3   1 <1>   0.2090 
 15 C        4.3620     1.5370    -0.1240 C.3   1 <1>   0.2090 
 16 C       -4.0210    -0.6830     0.1660 C.ar  1 <1>  -0.1500 
 17 C       -5.3520     0.6780     1.8100 C.3   1 <1>  -0.0970 
 18 N        4.6840     0.3150     0.6690 N.pl3 1 <1>  -0.8380 
 19 C        5.6310    -0.5400     0.0880 C.ar  1 <1>   0.1000 
 20 C        5.4250    -1.2690    -1.0990 C.ar  1 <1>   0.0830 
 21 C        6.8500    -0.6610     0.7390 C.ar  1 <1>  -0.1500 
 22 O        4.2210    -1.1470    -1.7400 O.3   1 <1>  -0.3630 
 23 C        6.4390    -2.0880    -1.5880 C.ar  1 <1>  -0.1500 
 24 C        7.8530    -1.4750     0.2460 C.ar  1 <1>  -0.1500 
 25 C        4.0140    -1.6800    -3.0260 C.3   1 <1>   0.1200 
 26 C        7.6480    -2.1900    -0.9190 C.ar  1 <1>  -0.1500 
 27 C        2.6140    -1.2790    -3.4790 C.3   1 <1>  -0.2400 
 28 H        0.2930     1.1620     0.4420 H     1 <1>   0.3700 
 29 H        1.7330     2.9180     2.8850 H     1 <1>   0.0800 
 30 H        1.3330     3.7350     1.4030 H     1 <1>   0.0800 
 31 H       -2.9180     1.8170     2.1170 H     1 <1>   0.1500 
 32 H        1.6550     0.1330     2.2360 H     1 <1>   0.0800 
 33 H        3.0780     0.9420     2.8280 H     1 <1>   0.0800 
 34 H        4.0130     2.8530     1.5310 H     1 <1>   0.0800 
 35 H        3.2190     3.3390     0.0560 H     1 <1>   0.0800 
 36 H       -2.8340    -1.7900    -1.2030 H     1 <1>   0.1500 
 37 H       -0.0150     0.1570    -1.4760 H     1 <1>   0.0800 
 38 H       -0.5570    -1.4940    -1.6040 H     1 <1>   0.0800 
 39 H        0.3610    -0.9950    -0.2100 H     1 <1>   0.0800 
 40 H        2.8880    -0.7510     0.3350 H     1 <1>   0.0800 
 41 H        3.7170    -1.1680     1.8090 H     1 <1>   0.0800 
 42 H        5.2780     2.0370    -0.3860 H     1 <1>   0.0800 
 43 H        3.8590     1.2600    -1.0340 H     1 <1>   0.0800 
 44 H       -4.9170    -1.2300    -0.0690 H     1 <1>   0.1500 
 45 H       -5.1610     1.2490     2.7010 H     1 <1>   0.0800 
 46 H       -5.8740    -0.2200     2.0870 H     1 <1>   0.0800 
 47 H       -5.9760     1.2580     1.1550 H     1 <1>   0.0800 
 48 H        7.0030    -0.1030     1.6440 H     1 <1>   0.1500 
 49 H        6.3150    -2.6600    -2.4860 H     1 <1>   0.1500 
 50 H        8.7900    -1.5510     0.7700 H     1 <1>   0.1500 
 51 H        4.1020    -2.7520    -2.9710 H     1 <1>   0.0800 
 52 H        4.7610    -1.2750    -3.6870 H     1 <1>   0.0800 
 53 H        8.4260    -2.8260    -1.3040 H     1 <1>   0.1500 
 54 H        1.8800    -1.6890    -2.8100 H     1 <1>   0.0800 
 55 H        2.4280    -1.6580    -4.4670 H     1 <1>   0.0800 
 56 H        2.5260    -0.2070    -3.5000 H     1 <1>   0.0800 
@<TRIPOS>BOND
  1   1   2  2   
  2   2   3  am  
  3   2   4  1   
  4   3   5  1   
  5   3  28  1   
  6   4   6  1   
  7   4  29  1   
  8   4  30  1   
  9   5   7  ar  
 10   5   8  ar  
 11   6   9  1   
 12   6  10  1   
 13   7  11  ar  
 14   7  12  1   
 15   8  13  ar  
 16   8  31  1   
 17   9  14  1   
 18   9  32  1   
 19   9  33  1   
 20  10  15  1   
 21  10  34  1   
 22  10  35  1   
 23  11  16  ar  
 24  11  36  1   
 25  12  37  1   
 26  12  38  1   
 27  12  39  1   
 28  13  16  ar  
 29  13  17  1   
 30  14  18  1   
 31  14  40  1   
 32  14  41  1   
 33  15  18  1   
 34  15  42  1   
 35  15  43  1   
 36  16  44  1   
 37  17  45  1   
 38  17  46  1   
 39  17  47  1   
 40  18  19  1   
 41  19  20  ar  
 42  19  21  ar  
 43  20  22  1   
 44  20  23  ar  
 45  21  24  ar  
 46  21  48  1   
 47  22  25  1   
 48  23  26  ar  
 49  23  49  1   
 50  24  26  ar  
 51  24  50  1   
 52  25  27  1   
 53  25  51  1   
 54  25  52  1   
 55  26  53  1   
 56  27  54  1   
 57  27  55  1   
 58  27  56  1   
@<TRIPOS>SUBSTRUCTURE
  1 ****   9 GROUP 4 **** **** 0

# MOE 2024.06 (io_trps.svl 2023.06)
