@<TRIPOS>MOLECULE
NONAME
37 38 1 0 0 
SMALL
USER_CHARGES


@<TRIPOS>ATOM
  1 S        0.2990    -0.0270    -1.9080 S.o2  1 <1>   1.4470 
  2 O       -0.2010     0.8490    -2.9420 O.2   1 <1>  -0.6500 
  3 O        0.3540    -1.4510    -2.1550 O.2   1 <1>  -0.6500 
  4 N       -0.7340     0.2020    -0.6040 N.am  1 <1>  -0.7890 
  5 C        1.8930     0.5770    -1.2920 C.ar  1 <1>  -0.0090 
  6 C       -0.5150    -0.6840     0.5110 C.3   1 <1>   0.1310 
  7 C        2.0700     1.9170    -0.9670 C.ar  1 <1>  -0.1500 
  8 C        2.9710    -0.2840    -1.1120 C.ar  1 <1>  -0.1500 
  9 C       -1.2180    -1.9940     0.5530 C.3   1 <1>  -0.2000 
 10 C       -1.6310    -0.8770     1.4740 C.3   1 <1>  -0.2000 
 11 C        3.2780     2.3810    -0.4780 C.ar  1 <1>  -0.1500 
 12 C        4.1840     0.1700    -0.6240 C.ar  1 <1>  -0.1500 
 13 C        4.3420     1.5140    -0.3030 C.ar  1 <1>   0.0830 
 14 O        5.4880     2.0460     0.1790 O.3   1 <1>  -0.3630 
 15 C        6.6630     1.2640     0.3230 C.3   1 <1>   0.1810 
 16 C        7.8160     2.1100     0.8370 C.2   1 <1>   0.6590 
 17 O        8.3250     1.8970     1.9080 O.2   1 <1>  -0.5700 
 18 O        8.2460     3.0720     0.0290 O.3   1 <1>  -0.4300 
 19 C        9.3030     3.9260     0.4000 C.3   1 <1>   0.1200 
 20 C        9.5390     4.9100    -0.7410 C.3   1 <1>  -0.2400 
 21 H       -1.6520    -0.0070    -0.9840 H     1 <1>   0.4200 
 22 H        0.4830    -0.6150     0.9170 H     1 <1>   0.1000 
 23 H        1.2500     2.6040    -1.0980 H     1 <1>   0.1500 
 24 H        2.8570    -1.3270    -1.3580 H     1 <1>   0.1500 
 25 H       -0.7020    -2.8400     0.9720 H     1 <1>   0.1000 
 26 H       -1.8550    -2.2680    -0.2700 H     1 <1>   0.1000 
 27 H       -2.5640    -0.3700     1.2990 H     1 <1>   0.1000 
 28 H       -1.4020    -0.9720     2.5210 H     1 <1>   0.1000 
 29 H        3.4020     3.4210    -0.2300 H     1 <1>   0.1500 
 30 H        4.9840    -0.5360    -0.5030 H     1 <1>   0.1500 
 31 H        6.9210     0.8570    -0.6360 H     1 <1>   0.0800 
 32 H        6.4610     0.4750     1.0240 H     1 <1>   0.0800 
 33 H       10.1780     3.3260     0.5830 H     1 <1>   0.0800 
 34 H        9.0220     4.4410     1.3040 H     1 <1>   0.0800 
 35 H        9.8080     4.3800    -1.6370 H     1 <1>   0.0800 
 36 H       10.3400     5.5780    -0.4840 H     1 <1>   0.0800 
 37 H        8.6510     5.4900    -0.9180 H     1 <1>   0.0800 
@<TRIPOS>BOND
  1   1   2  2   
  2   1   3  2   
  3   1   4  am  
  4   1   5  1   
  5   4   6  1   
  6   4  21  1   
  7   5   7  ar  
  8   5   8  ar  
  9   6   9  1   
 10   6  10  1   
 11   6  22  1   
 12   7  11  ar  
 13   7  23  1   
 14   8  12  ar  
 15   8  24  1   
 16   9  10  1   
 17   9  25  1   
 18   9  26  1   
 19  10  27  1   
 20  10  28  1   
 21  11  13  ar  
 22  11  29  1   
 23  12  13  ar  
 24  12  30  1   
 25  13  14  1   
 26  14  15  1   
 27  15  16  1   
 28  15  31  1   
 29  15  32  1   
 30  16  17  2   
 31  16  18  1   
 32  18  19  1   
 33  19  20  1   
 34  19  33  1   
 35  19  34  1   
 36  20  35  1   
 37  20  36  1   
 38  20  37  1   
@<TRIPOS>SUBSTRUCTURE
  1 ****  13 GROUP 4 **** **** 0

# MOE 2024.06 (io_trps.svl 2023.06)
