@<TRIPOS>MOLECULE
NONAME
39 39 1 0 0 
SMALL
USER_CHARGES


@<TRIPOS>ATOM
  1 O       -0.0880    -0.0010    -0.3760 O.2   1 <1>  -0.5700 
  2 C       -0.1650     1.1560    -0.0150 C.2   1 <1>   0.6900 
  3 N       -1.3680     1.7820     0.1320 N.am  1 <1>  -0.5470 
  4 N        0.9410     1.8970     0.2560 N.am  1 <1>  -0.7300 
  5 C       -2.6790     1.2880     0.0830 C.ar  1 <1>   0.1170 
  6 C        2.3630     1.5310     0.1540 C.3   1 <1>   0.3000 
  7 C       -3.7160     2.1660    -0.2070 C.ar  1 <1>  -0.1500 
  8 C       -2.9970    -0.0410     0.3330 C.ar  1 <1>  -0.1500 
  9 C        3.1470     2.8000     0.5580 C.3   1 <1>  -0.1600 
 10 C        2.6510     0.3780     1.1220 C.3   1 <1>  -0.2400 
 11 C        2.6790     1.1300    -1.2910 C.3   1 <1>  -0.2400 
 12 C       -5.0360     1.7440    -0.2520 C.ar  1 <1>  -0.1430 
 13 C       -4.3090    -0.4740     0.2900 C.ar  1 <1>  -0.1500 
 14 C        4.6830     2.6920     0.5370 C.3   1 <1>  -0.2400 
 15 C       -5.3370     0.4100    -0.0010 C.ar  1 <1>  -0.1430 
 16 C       -6.1270     2.7540    -0.5780 C.3   1 <1>  -0.0970 
 17 C       -6.7670    -0.1070    -0.0390 C.3   1 <1>  -0.0970 
 18 H       -1.2960     2.7900     0.1740 H     1 <1>   0.3700 
 19 H        0.7990     2.7770     0.7390 H     1 <1>   0.3700 
 20 H       -3.4830     3.1950    -0.4030 H     1 <1>   0.1500 
 21 H       -2.2190    -0.7450     0.5650 H     1 <1>   0.1500 
 22 H        2.8540     3.0830     1.5550 H     1 <1>   0.0800 
 23 H        2.8670     3.6000    -0.1050 H     1 <1>   0.0800 
 24 H        2.4260     0.6670     2.1320 H     1 <1>   0.0800 
 25 H        3.6830     0.0890     1.0690 H     1 <1>   0.0800 
 26 H        2.0640    -0.4860     0.8690 H     1 <1>   0.0800 
 27 H        2.4640     1.9410    -1.9620 H     1 <1>   0.0800 
 28 H        2.1000     0.2730    -1.5850 H     1 <1>   0.0800 
 29 H        3.7130     0.8640    -1.3930 H     1 <1>   0.0800 
 30 H       -4.5220    -1.5100     0.4850 H     1 <1>   0.1500 
 31 H        5.0290     1.9370     1.2190 H     1 <1>   0.0800 
 32 H        5.1130     3.6310     0.8380 H     1 <1>   0.0800 
 33 H        5.0440     2.4660    -0.4490 H     1 <1>   0.0800 
 34 H       -5.7140     3.7320    -0.7440 H     1 <1>   0.0800 
 35 H       -6.8250     2.8170     0.2370 H     1 <1>   0.0800 
 36 H       -6.6510     2.4550    -1.4670 H     1 <1>   0.0800 
 37 H       -7.3660     0.4100     0.6880 H     1 <1>   0.0800 
 38 H       -6.8030    -1.1590     0.1810 H     1 <1>   0.0800 
 39 H       -7.1880     0.0470    -1.0160 H     1 <1>   0.0800 
@<TRIPOS>BOND
  1   1   2  2   
  2   2   3  am  
  3   2   4  am  
  4   3   5  1   
  5   3  18  1   
  6   4   6  1   
  7   4  19  1   
  8   5   7  ar  
  9   5   8  ar  
 10   6   9  1   
 11   6  10  1   
 12   6  11  1   
 13   7  12  ar  
 14   7  20  1   
 15   8  13  ar  
 16   8  21  1   
 17   9  14  1   
 18   9  22  1   
 19   9  23  1   
 20  10  24  1   
 21  10  25  1   
 22  10  26  1   
 23  11  27  1   
 24  11  28  1   
 25  11  29  1   
 26  12  15  ar  
 27  12  16  1   
 28  13  15  ar  
 29  13  30  1   
 30  14  31  1   
 31  14  32  1   
 32  14  33  1   
 33  15  17  1   
 34  16  34  1   
 35  16  35  1   
 36  16  36  1   
 37  17  37  1   
 38  17  38  1   
 39  17  39  1   
@<TRIPOS>SUBSTRUCTURE
  1 ****   3 GROUP 4 **** **** 0

# MOE 2024.06 (io_trps.svl 2023.06)
