@<TRIPOS>MOLECULE
NONAME
40 40 1 0 0 
SMALL
USER_CHARGES


@<TRIPOS>ATOM
  1 S       -0.1590     0.1250     0.6860 S.o2  1 <1>   1.4470 
  2 O       -0.5600     0.1080     2.0740 O.2   1 <1>  -0.6500 
  3 O       -0.7000    -0.8350    -0.2460 O.2   1 <1>  -0.6500 
  4 N       -0.6360     1.6010     0.0530 N.am  1 <1>  -0.9140 
  5 C        1.6470     0.1940     0.5650 C.ar  1 <1>  -0.0090 
  6 C       -1.9700     1.9880     0.4790 C.3   1 <1>   0.1960 
  7 C        2.3580    -0.7390    -0.1800 C.ar  1 <1>  -0.1500 
  8 C        2.3630     1.1880     1.2180 C.ar  1 <1>  -0.1500 
  9 C       -2.4400     3.2260    -0.3020 C.3   1 <1>  -0.0800 
 10 C        3.7390    -0.6910    -0.2770 C.ar  1 <1>  -0.1440 
 11 C        3.7410     1.2540     1.1340 C.ar  1 <1>  -0.1500 
 12 C       -3.8110     3.6810     0.2130 C.3   1 <1>  -0.2400 
 13 C       -2.5220     2.9650    -1.8160 C.3   1 <1>  -0.2400 
 14 C        4.4390     0.3130     0.3850 C.ar  1 <1>   0.0830 
 15 C        4.4730    -1.7370    -1.1050 C.3   1 <1>  -0.0970 
 16 O        5.7900     0.3220     0.2650 O.3   1 <1>  -0.3620 
 17 C        6.5940     1.2830     0.9380 C.3   1 <1>   0.1810 
 18 C        8.0740     1.0530     0.6590 C.2   1 <1>   0.5690 
 19 O        8.8900     1.7920     1.1490 O.2   1 <1>  -0.5700 
 20 N        8.4700     0.0330    -0.1280 N.am  1 <1>  -0.8000 
 21 H       -0.7030     1.4170    -0.9450 H     1 <1>   0.4200 
 22 H       -1.9560     2.2100     1.5340 H     1 <1>   0.0800 
 23 H       -2.6590     1.1730     0.3160 H     1 <1>   0.0800 
 24 H        1.8150    -1.5170    -0.6910 H     1 <1>   0.1500 
 25 H        1.8270     1.9200     1.8010 H     1 <1>   0.1500 
 26 H       -1.7370     4.0220    -0.1220 H     1 <1>   0.0800 
 27 H        4.2440     2.0440     1.6590 H     1 <1>   0.1500 
 28 H       -4.5520     2.9170     0.0530 H     1 <1>   0.0800 
 29 H       -4.1250     4.5740    -0.2980 H     1 <1>   0.0800 
 30 H       -3.7630     3.8970     1.2660 H     1 <1>   0.0800 
 31 H       -3.1740     2.1350    -2.0240 H     1 <1>   0.0800 
 32 H       -1.5500     2.7550    -2.2230 H     1 <1>   0.0800 
 33 H       -2.9060     3.8350    -2.3210 H     1 <1>   0.0800 
 34 H        3.7860    -2.4350    -1.5480 H     1 <1>   0.0800 
 35 H        5.1580    -2.2810    -0.4800 H     1 <1>   0.0800 
 36 H        5.0260    -1.2560    -1.8920 H     1 <1>   0.0800 
 37 H        6.4160     1.1990     1.9940 H     1 <1>   0.0800 
 38 H        6.3170     2.2620     0.5920 H     1 <1>   0.0800 
 39 H        9.4600    -0.1230    -0.3160 H     1 <1>   0.3700 
 40 H        7.7960    -0.6040    -0.5550 H     1 <1>   0.3700 
@<TRIPOS>BOND
  1   1   2  2   
  2   1   3  2   
  3   1   4  am  
  4   1   5  1   
  5   4   6  1   
  6   4  21  1   
  7   5   7  ar  
  8   5   8  ar  
  9   6   9  1   
 10   6  22  1   
 11   6  23  1   
 12   7  10  ar  
 13   7  24  1   
 14   8  11  ar  
 15   8  25  1   
 16   9  12  1   
 17   9  13  1   
 18   9  26  1   
 19  10  14  ar  
 20  10  15  1   
 21  11  14  ar  
 22  11  27  1   
 23  12  28  1   
 24  12  29  1   
 25  12  30  1   
 26  13  31  1   
 27  13  32  1   
 28  13  33  1   
 29  14  16  1   
 30  15  34  1   
 31  15  35  1   
 32  15  36  1   
 33  16  17  1   
 34  17  18  1   
 35  17  37  1   
 36  17  38  1   
 37  18  19  2   
 38  18  20  am  
 39  20  39  1   
 40  20  40  1   
@<TRIPOS>SUBSTRUCTURE
  1 ****   8 GROUP 4 **** **** 0

# MOE 2024.06 (io_trps.svl 2023.06)
