@<TRIPOS>MOLECULE
NONAME
51 53 1 0 0 
SMALL
USER_CHARGES


@<TRIPOS>ATOM
  1 CL      -0.1870    -2.9210    -2.1170 Cl    1 <1>  -0.1770 
  2 C       -1.7250    -2.7530    -1.3160 C.ar  1 <1>   0.1770 
  3 C       -1.9560    -1.6540    -0.5100 C.ar  1 <1>  -0.1500 
  4 C       -2.6950    -3.7200    -1.4940 C.ar  1 <1>  -0.1500 
  5 C       -3.1810    -1.5230     0.1210 C.ar  1 <1>  -0.1500 
  6 C       -3.9160    -3.5780    -0.8580 C.ar  1 <1>  -0.1500 
  7 C       -4.1900    -2.4760    -0.0460 C.ar  1 <1>   0.0860 
  8 C       -5.4800    -2.3380     0.6070 C.2   1 <1>   0.5440 
  9 O       -5.9590    -3.2950     1.1850 O.2   1 <1>  -0.5700 
 10 N       -6.1900    -1.1570     0.5790 N.am  1 <1>  -0.6600 
 11 C       -7.3870    -0.9440     1.4580 C.3   1 <1>   0.1400 
 12 C       -6.0680    -0.1440    -0.5180 C.3   1 <1>   0.1400 
 13 C       -8.6750    -0.8370     0.6270 C.3   1 <1>   0.2090 
 14 C       -7.3780    -0.0270    -1.3200 C.3   1 <1>   0.2090 
 15 N       -8.5440     0.2240    -0.4200 N.pl3 1 <1>  -0.8380 
 16 C       -9.7440     0.5770    -1.0680 C.ar  1 <1>   0.1000 
 17 C      -10.3010     1.8470    -0.8640 C.ar  1 <1>   0.1170 
 18 C      -10.3910    -0.3180    -1.9110 C.ar  1 <1>  -0.1500 
 19 N       -9.6010     2.6990     0.0040 N.am  1 <1>  -0.5470 
 20 C      -11.4820     2.1900    -1.5090 C.ar  1 <1>  -0.1500 
 21 C      -11.5680     0.0330    -2.5490 C.ar  1 <1>  -0.1500 
 22 C       -9.8120     3.9620     0.4730 C.2   1 <1>   0.5690 
 23 C      -12.1130     1.2880    -2.3480 C.ar  1 <1>  -0.1500 
 24 O      -10.7660     4.6370     0.1670 O.2   1 <1>  -0.5700 
 25 C       -8.7730     4.5340     1.4430 C.3   1 <1>  -0.0190 
 26 C       -9.3810     4.7910     2.8310 C.3   1 <1>  -0.2400 
 27 C       -8.1390     5.8240     0.8970 C.3   1 <1>  -0.2400 
 28 H       -1.1820    -0.9180    -0.3790 H     1 <1>   0.1500 
 29 H       -2.4920    -4.5710    -2.1200 H     1 <1>   0.1500 
 30 H       -3.3640    -0.6760     0.7590 H     1 <1>   0.1500 
 31 H       -4.6760    -4.3310    -0.9820 H     1 <1>   0.1500 
 32 H       -7.2540    -0.0350     2.0170 H     1 <1>   0.0800 
 33 H       -7.4880    -1.7480     2.1660 H     1 <1>   0.0800 
 34 H       -5.2760    -0.4080    -1.1940 H     1 <1>   0.0800 
 35 H       -5.8350     0.8140    -0.0880 H     1 <1>   0.0800 
 36 H       -9.5020    -0.6010     1.2740 H     1 <1>   0.0800 
 37 H       -8.8740    -1.7880     0.1620 H     1 <1>   0.0800 
 38 H       -7.5360    -0.9380    -1.8710 H     1 <1>   0.0800 
 39 H       -7.2960     0.7800    -2.0270 H     1 <1>   0.0800 
 40 H       -9.9720    -1.2950    -2.0680 H     1 <1>   0.1500 
 41 H       -8.7670     2.2110     0.3380 H     1 <1>   0.3700 
 42 H      -11.9160     3.1610    -1.3610 H     1 <1>   0.1500 
 43 H      -12.0590    -0.6690    -3.1990 H     1 <1>   0.1500 
 44 H      -13.0280     1.5670    -2.8420 H     1 <1>   0.1500 
 45 H       -7.9860     3.8090     1.5600 H     1 <1>   0.0800 
 46 H      -10.1680     5.5230     2.7610 H     1 <1>   0.0800 
 47 H       -8.6320     5.1530     3.5130 H     1 <1>   0.0800 
 48 H       -9.7980     3.8820     3.2270 H     1 <1>   0.0800 
 49 H       -8.8900     6.5860     0.7800 H     1 <1>   0.0800 
 50 H       -7.6920     5.6390    -0.0630 H     1 <1>   0.0800 
 51 H       -7.3800     6.1870     1.5670 H     1 <1>   0.0800 
@<TRIPOS>BOND
  1   1   2  1   
  2   2   3  ar  
  3   2   4  ar  
  4   3   5  ar  
  5   3  28  1   
  6   4   6  ar  
  7   4  29  1   
  8   5   7  ar  
  9   5  30  1   
 10   6   7  ar  
 11   6  31  1   
 12   7   8  1   
 13   8   9  2   
 14   8  10  am  
 15  10  11  1   
 16  10  12  1   
 17  11  13  1   
 18  11  32  1   
 19  11  33  1   
 20  12  14  1   
 21  12  34  1   
 22  12  35  1   
 23  13  15  1   
 24  13  36  1   
 25  13  37  1   
 26  14  15  1   
 27  14  38  1   
 28  14  39  1   
 29  15  16  1   
 30  16  17  ar  
 31  16  18  ar  
 32  17  19  1   
 33  17  20  ar  
 34  18  21  ar  
 35  18  40  1   
 36  19  22  am  
 37  19  41  1   
 38  20  23  ar  
 39  20  42  1   
 40  21  23  ar  
 41  21  43  1   
 42  22  24  2   
 43  22  25  1   
 44  23  44  1   
 45  25  26  1   
 46  25  27  1   
 47  25  45  1   
 48  26  46  1   
 49  26  47  1   
 50  26  48  1   
 51  27  49  1   
 52  27  50  1   
 53  27  51  1   
@<TRIPOS>SUBSTRUCTURE
  1 ****  14 GROUP 4 **** **** 0

# MOE 2024.06 (io_trps.svl 2023.06)
