@<TRIPOS>MOLECULE
NONAME
44 45 1 0 0 
SMALL
USER_CHARGES


@<TRIPOS>ATOM
  1 O        0.1490    -0.0660    -0.6410 O.2   1 <1>  -0.5700 
  2 C        0.6440    -1.1630    -0.4710 C.2   1 <1>   0.6900 
  3 N        1.9980    -1.2840    -0.2980 N.am  1 <1>  -0.6600 
  4 N       -0.1160    -2.2980    -0.4730 N.am  1 <1>  -0.5470 
  5 C        2.8910    -0.1030    -0.4960 C.3   1 <1>   0.1400 
  6 C        2.6550    -2.4730     0.3210 C.3   1 <1>   0.1400 
  7 C       -1.5050    -2.4880    -0.4940 C.ar  1 <1>   0.1170 
  8 C        4.3390    -0.5310    -0.8230 C.3   1 <1>   0.2000 
  9 C        3.9990    -2.0960     0.9770 C.3   1 <1>   0.2000 
 10 C       -2.4090    -1.5260    -0.0580 C.ar  1 <1>  -0.1500 
 11 C       -2.0090    -3.7000    -0.9500 C.ar  1 <1>  -0.1500 
 12 O        4.8610    -1.5040     0.0480 O.3   1 <1>  -0.5600 
 13 C        5.3040     0.6510    -0.7930 C.3   1 <1>  -0.2400 
 14 C        4.7270    -3.3130     1.5410 C.3   1 <1>  -0.2400 
 15 C       -3.7710    -1.7670    -0.0820 C.ar  1 <1>  -0.1500 
 16 C       -3.3710    -3.9430    -0.9740 C.ar  1 <1>  -0.1500 
 17 C       -4.2680    -2.9790    -0.5400 C.ar  1 <1>  -0.1430 
 18 C       -5.7690    -3.2600    -0.5730 C.3   1 <1>   0.0630 
 19 C       -6.4890    -2.2770    -1.5020 C.3   1 <1>  -0.2400 
 20 C       -6.3660    -3.2130     0.8370 C.3   1 <1>  -0.2400 
 21 H        0.4380    -3.1360    -0.5930 H     1 <1>   0.3700 
 22 H        2.8820     0.4970     0.3980 H     1 <1>   0.0800 
 23 H        2.5120     0.5060    -1.2990 H     1 <1>   0.0800 
 24 H        2.8310    -3.2170    -0.4360 H     1 <1>   0.0800 
 25 H        2.0080    -2.8920     1.0720 H     1 <1>   0.0800 
 26 H        4.3470    -0.9640    -1.8090 H     1 <1>   0.0800 
 27 H        3.8280    -1.3850     1.7680 H     1 <1>   0.0800 
 28 H       -2.0500    -0.5810     0.3050 H     1 <1>   0.1500 
 29 H       -1.3340    -4.4610    -1.2940 H     1 <1>   0.1500 
 30 H        5.3380     1.0800     0.1920 H     1 <1>   0.0800 
 31 H        4.9870     1.4060    -1.4890 H     1 <1>   0.0800 
 32 H        6.2900     0.3230    -1.0710 H     1 <1>   0.0800 
 33 H        4.9390    -4.0180     0.7580 H     1 <1>   0.0800 
 34 H        4.1220    -3.7930     2.2890 H     1 <1>   0.0800 
 35 H        5.6500    -3.0030     1.9980 H     1 <1>   0.0800 
 36 H       -4.4420    -1.0000     0.2600 H     1 <1>   0.1500 
 37 H       -3.7300    -4.8910    -1.3350 H     1 <1>   0.1500 
 38 H       -5.9260    -4.2520    -0.9620 H     1 <1>   0.0800 
 39 H       -6.4060    -1.2710    -1.1330 H     1 <1>   0.0800 
 40 H       -7.5310    -2.5310    -1.5790 H     1 <1>   0.0800 
 41 H       -6.0520    -2.3180    -2.4840 H     1 <1>   0.0800 
 42 H       -6.2790    -2.2270     1.2560 H     1 <1>   0.0800 
 43 H       -5.8450    -3.9030     1.4760 H     1 <1>   0.0800 
 44 H       -7.4050    -3.4870     0.8120 H     1 <1>   0.0800 
@<TRIPOS>BOND
  1   1   2  2   
  2   2   3  am  
  3   2   4  am  
  4   3   5  1   
  5   3   6  1   
  6   4   7  1   
  7   4  21  1   
  8   5   8  1   
  9   5  22  1   
 10   5  23  1   
 11   6   9  1   
 12   6  24  1   
 13   6  25  1   
 14   7  10  ar  
 15   7  11  ar  
 16   8  12  1   
 17   8  13  1   
 18   8  26  1   
 19   9  12  1   
 20   9  14  1   
 21   9  27  1   
 22  10  15  ar  
 23  10  28  1   
 24  11  16  ar  
 25  11  29  1   
 26  13  30  1   
 27  13  31  1   
 28  13  32  1   
 29  14  33  1   
 30  14  34  1   
 31  14  35  1   
 32  15  17  ar  
 33  15  36  1   
 34  16  17  ar  
 35  16  37  1   
 36  17  18  1   
 37  18  19  1   
 38  18  20  1   
 39  18  38  1   
 40  19  39  1   
 41  19  40  1   
 42  19  41  1   
 43  20  42  1   
 44  20  43  1   
 45  20  44  1   
@<TRIPOS>SUBSTRUCTURE
  1 ****   4 GROUP 4 **** **** 0

# MOE 2024.06 (io_trps.svl 2023.06)
