@<TRIPOS>MOLECULE
NONAME
36 37 1 0 0 
SMALL
USER_CHARGES


@<TRIPOS>ATOM
  1 S        0.0420     0.0620     0.5390 S.3   1 <1>  -0.0800 
  2 C       -0.8530    -0.6900    -0.7460 C.2   1 <1>   0.4420 
  3 C        1.2510     0.4580    -0.6350 C.2   1 <1>   0.1980 
  4 N       -0.2490    -0.6020    -1.8730 N.2   1 <1>  -0.3380 
  5 N       -2.0710    -1.2990    -0.5370 N.am  1 <1>  -0.4940 
  6 N        0.9490     0.0520    -1.8030 N.2   1 <1>  -0.3380 
  7 C        2.4870     1.2130    -0.1570 C.3   1 <1>   0.1000 
  8 C       -2.7960    -1.5330     0.5980 C.2   1 <1>   0.5690 
  9 C        2.6620     2.4940    -0.9990 C.3   1 <1>  -0.1600 
 10 C        3.7380     0.3100    -0.2060 C.3   1 <1>  -0.1600 
 11 O       -2.4340    -1.2080     1.6990 O.2   1 <1>  -0.5700 
 12 C       -4.1400    -2.2260     0.4480 C.3   1 <1>   0.0810 
 13 C        3.7430     3.4490    -0.4700 C.3   1 <1>  -0.2400 
 14 C        3.5940    -0.9650     0.6390 C.3   1 <1>  -0.2400 
 15 C       -4.0850    -3.4530    -0.4520 C.2   1 <1>  -0.1400 
 16 S       -5.5990    -3.9490    -1.1920 S.3   1 <1>  -0.0800 
 17 C       -3.0890    -4.2820    -0.8220 C.2   1 <1>  -0.1500 
 18 C       -4.8160    -5.2910    -2.0060 C.2   1 <1>  -0.1100 
 19 C       -3.5050    -5.3260    -1.7090 C.2   1 <1>  -0.1500 
 20 H       -2.4690    -1.6840    -1.3920 H     1 <1>   0.3700 
 21 H        2.3220     1.5090     0.8650 H     1 <1>   0.0800 
 22 H        1.7240     3.0230    -1.0120 H     1 <1>   0.0800 
 23 H        2.8900     2.2260    -2.0170 H     1 <1>   0.0800 
 24 H        4.5910     0.8540     0.1580 H     1 <1>   0.0800 
 25 H        3.9350     0.0320    -1.2270 H     1 <1>   0.0800 
 26 H       -4.8330    -1.5140     0.0410 H     1 <1>   0.0800 
 27 H       -4.4990    -2.5180     1.4180 H     1 <1>   0.0800 
 28 H        3.5600     3.6960     0.5610 H     1 <1>   0.0800 
 29 H        3.7330     4.3600    -1.0430 H     1 <1>   0.0800 
 30 H        4.7220     3.0140    -0.5580 H     1 <1>   0.0800 
 31 H        3.3650    -0.7190     1.6610 H     1 <1>   0.0800 
 32 H        4.5140    -1.5210     0.6210 H     1 <1>   0.0800 
 33 H        2.8150    -1.5970     0.2500 H     1 <1>   0.0800 
 34 H       -2.0600    -4.2190    -0.5080 H     1 <1>   0.1500 
 35 H       -5.4290    -5.9190    -2.6280 H     1 <1>   0.1500 
 36 H       -2.8000    -6.0510    -2.0770 H     1 <1>   0.1500 
@<TRIPOS>BOND
  1   1   2  1   
  2   1   3  1   
  3   2   4  2   
  4   2   5  1   
  5   3   6  2   
  6   3   7  1   
  7   4   6  1   
  8   5   8  am  
  9   5  20  1   
 10   7   9  1   
 11   7  10  1   
 12   7  21  1   
 13   8  11  2   
 14   8  12  1   
 15   9  13  1   
 16   9  22  1   
 17   9  23  1   
 18  10  14  1   
 19  10  24  1   
 20  10  25  1   
 21  12  15  1   
 22  12  26  1   
 23  12  27  1   
 24  13  28  1   
 25  13  29  1   
 26  13  30  1   
 27  14  31  1   
 28  14  32  1   
 29  14  33  1   
 30  15  16  1   
 31  15  17  2   
 32  16  18  1   
 33  17  19  1   
 34  17  34  1   
 35  18  19  2   
 36  18  35  1   
 37  19  36  1   
@<TRIPOS>SUBSTRUCTURE
  1 ****   2 GROUP 4 **** **** 0

# MOE 2024.06 (io_trps.svl 2023.06)
