@<TRIPOS>MOLECULE
NONAME
44 46 1 0 0 
SMALL
USER_CHARGES


@<TRIPOS>ATOM
  1 O        0.2440     0.5570    -0.9180 O.2   1 <1>  -0.5700 
  2 C        0.8270     1.5750    -0.5700 C.2   1 <1>   0.8410 
  3 N        0.0890     2.6660    -0.2680 N.2   1 <1>  -0.6610 
  4 N        2.2120     1.5770    -0.4940 N.am  1 <1>  -0.4690 
  5 C        0.7160     3.7440     0.0790 C.2   1 <1>   0.4860 
  6 C        2.9000     2.7360    -0.1830 C.2   1 <1>   0.0810 
  7 C        2.9660     0.3250    -0.7880 C.3   1 <1>   0.1400 
  8 N       -0.0380     4.8490     0.4180 N.pl3 1 <1>  -0.7880 
  9 C        2.1290     3.8140     0.1130 C.2   1 <1>  -0.1360 
 10 C        4.3530     2.7230    -0.1820 C.ar  1 <1>   0.0280 
 11 C        4.2250     0.2360     0.0800 C.3   1 <1>  -0.0170 
 12 C        0.3550     5.7760     1.5090 C.3   1 <1>   0.2090 
 13 C       -1.4700     4.9380     0.0070 C.3   1 <1>   0.1290 
 14 C        5.0380     1.5150    -0.0420 C.ar  1 <1>  -0.1430 
 15 C        5.1140     3.8840    -0.3260 C.ar  1 <1>  -0.1500 
 16 C        0.7800     7.1130     0.9070 C.3   1 <1>  -0.2400 
 17 C        6.4200     1.4720    -0.0150 C.ar  1 <1>  -0.1500 
 18 C        6.5030     3.8560    -0.3050 C.ar  1 <1>   0.0830 
 19 C        7.1670     2.6380    -0.1410 C.ar  1 <1>   0.0830 
 20 O        7.2610     4.9830    -0.4410 O.3   1 <1>  -0.3630 
 21 O        8.5290     2.6440    -0.1170 O.3   1 <1>  -0.3630 
 22 C        6.6930     6.2340    -0.7560 C.3   1 <1>   0.0400 
 23 C        9.2850     1.4690     0.0630 C.3   1 <1>   0.0400 
 24 H        3.2410     0.3290    -1.8290 H     1 <1>   0.0800 
 25 H        2.3510    -0.5390    -0.6030 H     1 <1>   0.0800 
 26 H        2.5670     4.7520     0.3780 H     1 <1>   0.1500 
 27 H        4.8070    -0.6130    -0.2300 H     1 <1>   0.0800 
 28 H        3.9380     0.0890     1.1060 H     1 <1>   0.0800 
 29 H        1.1620     5.3540     2.0830 H     1 <1>   0.0800 
 30 H       -0.4790     5.9210     2.1760 H     1 <1>   0.0800 
 31 H       -2.0870     4.4330     0.7300 H     1 <1>   0.0800 
 32 H       -1.6100     4.4710    -0.9530 H     1 <1>   0.0800 
 33 H       -1.7770     5.9660    -0.0680 H     1 <1>   0.0800 
 34 H        4.6010     4.8130    -0.4620 H     1 <1>   0.1500 
 35 H        1.6000     6.9740     0.2270 H     1 <1>   0.0800 
 36 H        1.0920     7.7790     1.6900 H     1 <1>   0.0800 
 37 H       -0.0420     7.5650     0.3830 H     1 <1>   0.0800 
 38 H        6.9060     0.5230     0.1030 H     1 <1>   0.1500 
 39 H        7.4940     6.9420    -0.8690 H     1 <1>   0.0800 
 40 H        6.0490     6.5370     0.0490 H     1 <1>   0.0800 
 41 H        6.1500     6.1480    -1.6800 H     1 <1>   0.0800 
 42 H       10.3260     1.7400     0.0540 H     1 <1>   0.0800 
 43 H        9.0780     0.7920    -0.7470 H     1 <1>   0.0800 
 44 H        9.0300     1.0310     1.0110 H     1 <1>   0.0800 
@<TRIPOS>BOND
  1   1   2  2   
  2   2   3  1   
  3   2   4  am  
  4   3   5  2   
  5   4   6  1   
  6   4   7  1   
  7   5   8  1   
  8   5   9  1   
  9   6   9  2   
 10   6  10  1   
 11   7  11  1   
 12   7  24  1   
 13   7  25  1   
 14   8  12  1   
 15   8  13  1   
 16   9  26  1   
 17  10  14  ar  
 18  10  15  ar  
 19  11  14  1   
 20  11  27  1   
 21  11  28  1   
 22  12  16  1   
 23  12  29  1   
 24  12  30  1   
 25  13  31  1   
 26  13  32  1   
 27  13  33  1   
 28  14  17  ar  
 29  15  18  ar  
 30  15  34  1   
 31  16  35  1   
 32  16  36  1   
 33  16  37  1   
 34  17  19  ar  
 35  17  38  1   
 36  18  19  ar  
 37  18  20  1   
 38  19  21  1   
 39  20  22  1   
 40  21  23  1   
 41  22  39  1   
 42  22  40  1   
 43  22  41  1   
 44  23  42  1   
 45  23  43  1   
 46  23  44  1   
@<TRIPOS>SUBSTRUCTURE
  1 ****   6 GROUP 4 **** **** 0

# MOE 2024.06 (io_trps.svl 2023.06)
