@<TRIPOS>MOLECULE
NONAME
34 35 1 0 0 
SMALL
USER_CHARGES


@<TRIPOS>ATOM
  1 CL      -0.3050    -0.9420    -1.4770 Cl    1 <1>  -0.1770 
  2 C        1.2230    -1.4220    -0.7830 C.ar  1 <1>   0.1770 
  3 C        1.2320    -2.2680     0.3120 C.ar  1 <1>  -0.1500 
  4 C        2.3970    -0.9470    -1.3400 C.ar  1 <1>  -0.1500 
  5 C        2.4460    -2.6470     0.8610 C.ar  1 <1>  -0.1500 
  6 C        3.6120    -1.3250    -0.7910 C.ar  1 <1>  -0.1500 
  7 C        3.6250    -2.1740     0.3080 C.ar  1 <1>   0.1020 
  8 S        5.1590    -2.7150     1.0820 S.3   1 <1>  -0.3320 
  9 C        6.5350    -1.8950     0.1620 C.3   1 <1>   0.0700 
 10 C        7.8550    -2.3660     0.7680 C.3   1 <1>   0.1400 
 11 N        8.9930    -1.6850     0.1110 N.am  1 <1>  -0.4200 
 12 C        9.3980    -1.9040    -1.1740 C.2   1 <1>   0.6900 
 13 C        9.8480    -0.8070     0.7100 C.2   1 <1>   0.5690 
 14 O        8.8700    -2.6740    -1.9440 O.2   1 <1>  -0.5700 
 15 N       10.4800    -1.1640    -1.4830 N.am  1 <1>  -0.7300 
 16 O        9.7720    -0.4090     1.8490 O.2   1 <1>  -0.5700 
 17 C       10.9320    -0.4050    -0.3110 C.3   1 <1>   0.3610 
 18 C       12.3320    -0.8850     0.0770 C.3   1 <1>  -0.2400 
 19 C       10.9150     1.0860    -0.6550 C.3   1 <1>  -0.2400 
 20 H        0.3050    -2.6220     0.7240 H     1 <1>   0.1500 
 21 H        2.3560    -0.2910    -2.1910 H     1 <1>   0.1500 
 22 H        2.4830    -3.3040     1.7120 H     1 <1>   0.1500 
 23 H        4.5200    -0.9570    -1.2270 H     1 <1>   0.1500 
 24 H        6.4060    -0.8340     0.2760 H     1 <1>   0.0800 
 25 H        6.4510    -2.1920    -0.8690 H     1 <1>   0.0800 
 26 H        7.9570    -3.4290     0.6330 H     1 <1>   0.0800 
 27 H        7.8670    -2.1490     1.8230 H     1 <1>   0.0800 
 28 H       11.0500    -1.3320    -2.3100 H     1 <1>   0.3700 
 29 H       12.3270    -1.9430     0.2710 H     1 <1>   0.0800 
 30 H       12.6500    -0.3820     0.9730 H     1 <1>   0.0800 
 31 H       13.0390    -0.6690    -0.7040 H     1 <1>   0.0800 
 32 H        9.9310     1.3870    -0.9650 H     1 <1>   0.0800 
 33 H       11.6170     1.3020    -1.4410 H     1 <1>   0.0800 
 34 H       11.1850     1.6600     0.2130 H     1 <1>   0.0800 
@<TRIPOS>BOND
  1   1   2  1   
  2   2   3  ar  
  3   2   4  ar  
  4   3   5  ar  
  5   3  20  1   
  6   4   6  ar  
  7   4  21  1   
  8   5   7  ar  
  9   5  22  1   
 10   6   7  ar  
 11   6  23  1   
 12   7   8  1   
 13   8   9  1   
 14   9  10  1   
 15   9  24  1   
 16   9  25  1   
 17  10  11  1   
 18  10  26  1   
 19  10  27  1   
 20  11  12  am  
 21  11  13  am  
 22  12  14  2   
 23  12  15  am  
 24  13  16  2   
 25  13  17  1   
 26  15  17  1   
 27  15  28  1   
 28  17  18  1   
 29  17  19  1   
 30  18  29  1   
 31  18  30  1   
 32  18  31  1   
 33  19  32  1   
 34  19  33  1   
 35  19  34  1   
@<TRIPOS>SUBSTRUCTURE
  1 ****   9 GROUP 4 **** **** 0

# MOE 2024.06 (io_trps.svl 2023.06)
