@<TRIPOS>MOLECULE
NONAME
35 36 1 0 0 
SMALL
USER_CHARGES


@<TRIPOS>ATOM
  1 S        0.2370    -1.7900     0.1290 S.3   1 <1>  -0.2860 
  2 C       -1.4580    -1.1980     0.1330 C.2   1 <1>   0.2420 
  3 C        1.1580    -0.3840     0.9270 C.3   1 <1>   0.1310 
  4 N       -1.8050    -0.0450     0.5790 N.2   1 <1>  -0.3380 
  5 N       -2.4750    -1.9230    -0.3290 N.pl3 1 <1>   0.0480 
  6 C        2.6580    -0.6360     0.9510 C.2   1 <1>   0.5690 
  7 N       -3.1290     0.0200     0.4130 N.2   1 <1>  -0.3380 
  8 C       -3.5130    -1.0960    -0.1220 C.2   1 <1>   0.0060 
  9 C       -2.4340    -3.2840    -0.9020 C.3   1 <1>   0.0160 
 10 O        3.3220    -0.0120     1.7410 O.2   1 <1>  -0.5700 
 11 N        3.1860    -1.5490     0.0770 N.am  1 <1>  -0.5470 
 12 C       -4.9520    -1.4510    -0.4820 C.3   1 <1>   0.0200 
 13 C        4.5020    -1.9970    -0.1640 C.ar  1 <1>   0.1170 
 14 C       -5.9640    -0.3730    -0.0720 C.3   1 <1>  -0.2400 
 15 C        4.7100    -3.0970    -1.0020 C.ar  1 <1>   0.1900 
 16 C        5.6340    -1.3950     0.3890 C.ar  1 <1>  -0.1500 
 17 F        3.6700    -3.6830    -1.5430 F     1 <1>  -0.1900 
 18 C        5.9590    -3.6060    -1.2950 C.ar  1 <1>  -0.1500 
 19 C        6.9040    -1.8800     0.1150 C.ar  1 <1>  -0.1500 
 20 C        7.0430    -2.9750    -0.7200 C.ar  1 <1>   0.1900 
 21 F        8.2430    -3.4270    -0.9730 F     1 <1>  -0.1900 
 22 H        0.7780    -0.2820     1.9270 H     1 <1>   0.0800 
 23 H        0.9370     0.5040     0.3650 H     1 <1>   0.0800 
 24 H       -1.6240    -3.3490    -1.6060 H     1 <1>   0.0800 
 25 H       -3.3570    -3.5020    -1.4060 H     1 <1>   0.0800 
 26 H       -2.2780    -3.9950    -0.1120 H     1 <1>   0.0800 
 27 H        2.4800    -2.0480    -0.4720 H     1 <1>   0.3700 
 28 H       -5.2150    -2.3730     0.0050 H     1 <1>   0.0800 
 29 H       -5.0180    -1.6000    -1.5450 H     1 <1>   0.0800 
 30 H       -5.9250    -0.2140     0.9920 H     1 <1>   0.0800 
 31 H       -6.9600    -0.6740    -0.3410 H     1 <1>   0.0800 
 32 H       -5.7370     0.5560    -0.5650 H     1 <1>   0.0800 
 33 H        5.5360    -0.5420     1.0350 H     1 <1>   0.1500 
 34 H        6.0860    -4.4540    -1.9420 H     1 <1>   0.1500 
 35 H        7.7760    -1.4170     0.5420 H     1 <1>   0.1500 
@<TRIPOS>BOND
  1   1   2  1   
  2   1   3  1   
  3   2   4  2   
  4   2   5  1   
  5   3   6  1   
  6   3  22  1   
  7   3  23  1   
  8   4   7  1   
  9   5   8  1   
 10   5   9  1   
 11   6  10  2   
 12   6  11  am  
 13   7   8  2   
 14   8  12  1   
 15   9  24  1   
 16   9  25  1   
 17   9  26  1   
 18  11  13  1   
 19  11  27  1   
 20  12  14  1   
 21  12  28  1   
 22  12  29  1   
 23  13  15  ar  
 24  13  16  ar  
 25  14  30  1   
 26  14  31  1   
 27  14  32  1   
 28  15  17  1   
 29  15  18  ar  
 30  16  19  ar  
 31  16  33  1   
 32  18  20  ar  
 33  18  34  1   
 34  19  20  ar  
 35  19  35  1   
 36  20  21  1   
@<TRIPOS>SUBSTRUCTURE
  1 ****   1 GROUP 4 **** **** 0

# MOE 2024.06 (io_trps.svl 2023.06)
