@<TRIPOS>MOLECULE
NONAME
41 42 1 0 0 
SMALL
USER_CHARGES


@<TRIPOS>ATOM
  1 BR      -0.3100     0.1260     0.2550 Br    1 <1>  -0.1110 
  2 C        1.1140     1.4360     0.3180 C.ar  1 <1>   0.1110 
  3 C        2.3690     1.0260    -0.1070 C.ar  1 <1>   0.0830 
  4 C        0.8600     2.7220     0.8010 C.ar  1 <1>   0.0860 
  5 O        2.5280    -0.2340    -0.5910 O.3   1 <1>  -0.3630 
  6 C        3.4330     1.9250    -0.0520 C.ar  1 <1>   0.0830 
  7 C       -0.4400     3.1920     1.2280 C.2   1 <1>   0.5440 
  8 C        1.9520     3.5890     0.8660 C.ar  1 <1>  -0.1500 
  9 C        3.2630    -1.1290     0.2140 C.3   1 <1>   0.0400 
 10 O        4.6650     1.5420    -0.4740 O.3   1 <1>  -0.3630 
 11 C        3.2250     3.2110     0.4530 C.ar  1 <1>   0.0830 
 12 O       -0.5420     3.8470     2.2470 O.2   1 <1>  -0.5700 
 13 N       -1.5600     2.9610     0.4840 N.am  1 <1>  -0.7300 
 14 C        5.0390     1.9800    -1.7590 C.3   1 <1>   0.0400 
 15 O        4.2930     4.0580     0.5190 O.3   1 <1>  -0.3630 
 16 C       -2.9330     3.3470     0.8460 C.3   1 <1>   0.2200 
 17 C        4.2410     5.2470     1.2780 C.3   1 <1>   0.0400 
 18 C       -3.7320     2.0850     1.1450 C.3   1 <1>  -0.1600 
 19 C       -3.6220     3.9120    -0.3900 C.3   1 <1>  -0.1600 
 20 C       -4.1520     1.5230    -0.2180 C.3   1 <1>  -0.1600 
 21 C       -4.0810     2.6960    -1.2040 C.3   1 <1>  -0.1600 
 22 H        1.7690     4.5760     1.2500 H     1 <1>   0.1500 
 23 H        3.2250    -2.1010    -0.2430 H     1 <1>   0.0800 
 24 H        2.8170    -1.1640     1.1920 H     1 <1>   0.0800 
 25 H        4.2830    -0.7950     0.2790 H     1 <1>   0.0800 
 26 H       -1.5090     2.3330    -0.3180 H     1 <1>   0.3700 
 27 H        6.0150     1.5860    -1.9760 H     1 <1>   0.0800 
 28 H        5.0650     3.0550    -1.7700 H     1 <1>   0.0800 
 29 H        4.3230     1.6110    -2.4720 H     1 <1>   0.0800 
 30 H       -2.9340     4.0420     1.6710 H     1 <1>   0.0800 
 31 H        5.2250     5.6790     1.2880 H     1 <1>   0.0800 
 32 H        3.9370     5.0080     2.2830 H     1 <1>   0.0800 
 33 H        3.5490     5.9280     0.8160 H     1 <1>   0.0800 
 34 H       -4.6130     2.3640     1.6950 H     1 <1>   0.0800 
 35 H       -3.1700     1.3800     1.7330 H     1 <1>   0.0800 
 36 H       -2.9790     4.5700    -0.9490 H     1 <1>   0.0800 
 37 H       -4.4870     4.4660    -0.0720 H     1 <1>   0.0800 
 38 H       -5.1430     1.1060    -0.1710 H     1 <1>   0.0800 
 39 H       -3.4650     0.7510    -0.5220 H     1 <1>   0.0800 
 40 H       -3.3620     2.4780    -1.9750 H     1 <1>   0.0800 
 41 H       -5.0370     2.8810    -1.6640 H     1 <1>   0.0800 
@<TRIPOS>BOND
  1   1   2  1   
  2   2   3  ar  
  3   2   4  ar  
  4   3   5  1   
  5   3   6  ar  
  6   4   7  1   
  7   4   8  ar  
  8   5   9  1   
  9   6  10  1   
 10   6  11  ar  
 11   7  12  2   
 12   7  13  am  
 13   8  11  ar  
 14   8  22  1   
 15   9  23  1   
 16   9  24  1   
 17   9  25  1   
 18  10  14  1   
 19  11  15  1   
 20  13  16  1   
 21  13  26  1   
 22  14  27  1   
 23  14  28  1   
 24  14  29  1   
 25  15  17  1   
 26  16  18  1   
 27  16  19  1   
 28  16  30  1   
 29  17  31  1   
 30  17  32  1   
 31  17  33  1   
 32  18  20  1   
 33  18  34  1   
 34  18  35  1   
 35  19  21  1   
 36  19  36  1   
 37  19  37  1   
 38  20  21  1   
 39  20  38  1   
 40  20  39  1   
 41  21  40  1   
 42  21  41  1   
@<TRIPOS>SUBSTRUCTURE
  1 ****   4 GROUP 4 **** **** 0

# MOE 2024.06 (io_trps.svl 2023.06)
