@<TRIPOS>MOLECULE
NONAME
48 50 1 0 0 
SMALL
USER_CHARGES


@<TRIPOS>ATOM
  1 O        0.3770     0.0180     0.2750 O.2   1 <1>  -0.5700 
  2 C        0.8200    -1.0620     0.6180 C.2   1 <1>   0.6900 
  3 N        2.1730    -1.2360     0.7510 N.am  1 <1>  -0.6600 
  4 N       -0.0080    -2.1100     0.9080 N.am  1 <1>  -0.5470 
  5 C        3.0740    -0.0430     0.6970 C.3   1 <1>   0.1400 
  6 C        2.8400    -2.5760     0.7230 C.3   1 <1>   0.1400 
  7 C       -1.3870    -2.2820     0.7240 C.ar  1 <1>   0.1170 
  8 C        4.4680    -0.3400     1.2700 C.3   1 <1>   0.1400 
  9 C        4.2030    -2.5330     0.0120 C.3   1 <1>   0.1400 
 10 C       -2.0590    -3.2120     1.5070 C.ar  1 <1>  -0.1500 
 11 C       -2.1170    -1.5760    -0.2250 C.ar  1 <1>  -0.1500 
 12 N        5.1230    -1.5060     0.5940 N.am  1 <1>  -0.6600 
 13 C       -3.4160    -3.4300     1.3500 C.ar  1 <1>  -0.1500 
 14 C       -3.4740    -1.7920    -0.3840 C.ar  1 <1>  -0.1500 
 15 C        6.5030    -1.6150     0.5740 C.2   1 <1>   0.7150 
 16 C       -4.1400    -2.7220     0.4020 C.ar  1 <1>  -0.1430 
 17 O        7.1350    -0.8870     1.3210 O.2   1 <1>  -0.5700 
 18 C        7.2330    -2.5430    -0.2710 C.2   1 <1>   0.0550 
 19 C       -5.6380    -2.9720     0.2400 C.3   1 <1>   0.0630 
 20 O        6.6840    -3.1670    -1.3140 O.3   1 <1>  -0.2800 
 21 C        8.5400    -2.9230    -0.1960 C.2   1 <1>  -0.1500 
 22 C       -5.9570    -3.4930    -1.1650 C.3   1 <1>  -0.2400 
 23 C       -6.4400    -1.7030     0.5450 C.3   1 <1>  -0.2400 
 24 C        7.5910    -3.9230    -1.8880 C.2   1 <1>  -0.0100 
 25 C        8.7700    -3.8190    -1.2400 C.2   1 <1>  -0.1500 
 26 H        0.4490    -2.8280     1.4540 H     1 <1>   0.3700 
 27 H        2.6290     0.7650     1.2520 H     1 <1>   0.0800 
 28 H        3.1710     0.2770    -0.3260 H     1 <1>   0.0800 
 29 H        2.2130    -3.2860     0.2120 H     1 <1>   0.0800 
 30 H        2.9860    -2.9170     1.7330 H     1 <1>   0.0800 
 31 H        4.3830    -0.5450     2.3230 H     1 <1>   0.0800 
 32 H        5.0840     0.5360     1.1550 H     1 <1>   0.0800 
 33 H        4.0510    -2.3160    -1.0320 H     1 <1>   0.0800 
 34 H        4.6550    -3.5070     0.0880 H     1 <1>   0.0800 
 35 H       -1.5210    -3.7710     2.2500 H     1 <1>   0.1500 
 36 H       -1.6250    -0.8520    -0.8490 H     1 <1>   0.1500 
 37 H       -3.9080    -4.1560     1.9720 H     1 <1>   0.1500 
 38 H       -4.0090    -1.2270    -1.1250 H     1 <1>   0.1500 
 39 H       -5.9400    -3.7270     0.9460 H     1 <1>   0.0800 
 40 H        9.2690    -2.5980     0.5260 H     1 <1>   0.1500 
 41 H       -5.7190    -2.7560    -1.9090 H     1 <1>   0.0800 
 42 H       -7.0010    -3.7380    -1.2440 H     1 <1>   0.0800 
 43 H       -5.3810    -4.3790    -1.3640 H     1 <1>   0.0800 
 44 H       -6.2120    -0.9270    -0.1630 H     1 <1>   0.0800 
 45 H       -6.1980    -1.3470     1.5310 H     1 <1>   0.0800 
 46 H       -7.4950    -1.9090     0.5040 H     1 <1>   0.0800 
 47 H        7.3200    -4.5030    -2.7540 H     1 <1>   0.1500 
 48 H        9.7040    -4.3050    -1.4590 H     1 <1>   0.1500 
@<TRIPOS>BOND
  1   1   2  2   
  2   2   3  am  
  3   2   4  am  
  4   3   5  1   
  5   3   6  1   
  6   4   7  1   
  7   4  26  1   
  8   5   8  1   
  9   5  27  1   
 10   5  28  1   
 11   6   9  1   
 12   6  29  1   
 13   6  30  1   
 14   7  10  ar  
 15   7  11  ar  
 16   8  12  1   
 17   8  31  1   
 18   8  32  1   
 19   9  12  1   
 20   9  33  1   
 21   9  34  1   
 22  10  13  ar  
 23  10  35  1   
 24  11  14  ar  
 25  11  36  1   
 26  12  15  am  
 27  13  16  ar  
 28  13  37  1   
 29  14  16  ar  
 30  14  38  1   
 31  15  17  2   
 32  15  18  1   
 33  16  19  1   
 34  18  20  1   
 35  18  21  2   
 36  19  22  1   
 37  19  23  1   
 38  19  39  1   
 39  20  24  1   
 40  21  25  1   
 41  21  40  1   
 42  22  41  1   
 43  22  42  1   
 44  22  43  1   
 45  23  44  1   
 46  23  45  1   
 47  23  46  1   
 48  24  25  2   
 49  24  47  1   
 50  25  48  1   
@<TRIPOS>SUBSTRUCTURE
  1 ****   3 GROUP 4 **** **** 0

# MOE 2024.06 (io_trps.svl 2023.06)
