@<TRIPOS>MOLECULE
NONAME
43 45 1 0 0 
SMALL
USER_CHARGES


@<TRIPOS>ATOM
  1 F       -1.4830     1.9950     2.0680 F     1 <1>  -0.1900 
  2 C       -0.9040     2.3830     0.9620 C.ar  1 <1>   0.1900 
  3 C       -1.6020     2.2780    -0.2300 C.ar  1 <1>  -0.1440 
  4 C        0.3770     2.8950     1.0340 C.ar  1 <1>  -0.1500 
  5 C       -0.9770     2.7070    -1.3930 C.ar  1 <1>  -0.1500 
  6 C       -3.0060     1.7100    -0.2520 C.3   1 <1>   0.4870 
  7 C        0.9840     3.3210    -0.1340 C.ar  1 <1>  -0.1500 
  8 C        0.3080     3.2260    -1.3410 C.ar  1 <1>  -0.1500 
  9 N       -3.9100     2.6190     0.5010 N.4   1 <1>  -0.9590 
 10 C       -5.2840     2.0280     0.6890 C.3   1 <1>   0.3430 
 11 C       -3.9870     3.9940    -0.1190 C.3   1 <1>   0.3430 
 12 C       -6.2180     2.9450     1.5060 C.3   1 <1>   0.2090 
 13 C       -4.8940     4.9550     0.6770 C.3   1 <1>   0.2090 
 14 N       -6.2190     4.3400     0.9800 N.pl3 1 <1>  -0.8380 
 15 C       -7.3170     4.7490     0.2230 C.ar  1 <1>   0.1000 
 16 C       -8.2900     5.5860     0.7710 C.ar  1 <1>  -0.1430 
 17 C       -7.4570     4.3240    -1.0940 C.ar  1 <1>  -0.1500 
 18 C       -9.3730     5.9780     0.0020 C.ar  1 <1>  -0.1500 
 19 C       -8.1760     6.0760     2.2070 C.3   1 <1>  -0.0970 
 20 C       -8.5400     4.7180    -1.8560 C.ar  1 <1>  -0.1500 
 21 C       -9.5010     5.5470    -1.3080 C.ar  1 <1>  -0.1500 
 22 H        0.8880     2.9580     1.9790 H     1 <1>   0.1500 
 23 H       -1.4720     2.6420    -2.3490 H     1 <1>   0.1500 
 24 H       -2.9970     0.7350     0.2090 H     1 <1>   0.0800 
 25 H       -3.3460     1.6040    -1.2690 H     1 <1>   0.0800 
 26 H        1.9840     3.7240    -0.1070 H     1 <1>   0.1500 
 27 H        0.7920     3.5570    -2.2460 H     1 <1>   0.1500 
 28 H       -3.4870     2.7340     1.4340 H     1 <1>   0.4500 
 29 H       -5.2100     1.0750     1.1880 H     1 <1>   0.0800 
 30 H       -5.7400     1.8620    -0.2730 H     1 <1>   0.0800 
 31 H       -4.3790     3.9170    -1.1190 H     1 <1>   0.0800 
 32 H       -3.0010     4.4250    -0.1860 H     1 <1>   0.0800 
 33 H       -5.9060     2.9600     2.5360 H     1 <1>   0.0800 
 34 H       -7.2200     2.5520     1.4770 H     1 <1>   0.0800 
 35 H       -5.0410     5.8600     0.1100 H     1 <1>   0.0800 
 36 H       -4.4150     5.2270     1.6010 H     1 <1>   0.0800 
 37 H       -6.7190     3.6810    -1.5290 H     1 <1>   0.1500 
 38 H      -10.1280     6.6230     0.4160 H     1 <1>   0.1500 
 39 H       -8.1710     5.2370     2.8790 H     1 <1>   0.0800 
 40 H       -8.9980     6.7180     2.4660 H     1 <1>   0.0800 
 41 H       -7.2600     6.6250     2.3320 H     1 <1>   0.0800 
 42 H       -8.6420     4.3850    -2.8750 H     1 <1>   0.1500 
 43 H      -10.3470     5.8590    -1.8960 H     1 <1>   0.1500 
@<TRIPOS>BOND
  1   1   2  1   
  2   2   3  ar  
  3   2   4  ar  
  4   3   5  ar  
  5   3   6  1   
  6   4   7  ar  
  7   4  22  1   
  8   5   8  ar  
  9   5  23  1   
 10   6   9  1   
 11   6  24  1   
 12   6  25  1   
 13   7   8  ar  
 14   7  26  1   
 15   8  27  1   
 16   9  10  1   
 17   9  11  1   
 18   9  28  1   
 19  10  12  1   
 20  10  29  1   
 21  10  30  1   
 22  11  13  1   
 23  11  31  1   
 24  11  32  1   
 25  12  14  1   
 26  12  33  1   
 27  12  34  1   
 28  13  14  1   
 29  13  35  1   
 30  13  36  1   
 31  14  15  1   
 32  15  16  ar  
 33  15  17  ar  
 34  16  18  ar  
 35  16  19  1   
 36  17  20  ar  
 37  17  37  1   
 38  18  21  ar  
 39  18  38  1   
 40  19  39  1   
 41  19  40  1   
 42  19  41  1   
 43  20  21  ar  
 44  20  42  1   
 45  21  43  1   
@<TRIPOS>SUBSTRUCTURE
  1 ****  11 GROUP 4 **** **** 0

# MOE 2024.06 (io_trps.svl 2023.06)
