@<TRIPOS>MOLECULE
NONAME
62 65 1 0 0 
SMALL
USER_CHARGES


@<TRIPOS>ATOM
  1 O       -0.8020    -1.5510    -1.1270 O.2   1 <1>  -0.5700 
  2 C       -1.3920    -1.2690    -0.1150 C.2   1 <1>   0.6590 
  3 O       -0.8160    -1.3760     1.0780 O.3   1 <1>  -0.4300 
  4 C       -2.8390    -0.7740    -0.1100 C.3   1 <1>  -0.0190 
  5 C        0.5020    -1.8620     1.2240 C.3   1 <1>   0.0400 
  6 C       -3.7340    -1.6630     0.7780 C.3   1 <1>  -0.1600 
  7 C       -3.4410    -0.6820    -1.5290 C.3   1 <1>  -0.1600 
  8 C       -5.1920    -1.2060     0.7710 C.3   1 <1>   0.1400 
  9 C       -4.9050    -0.2370    -1.5030 C.3   1 <1>   0.1400 
 10 N       -5.6850    -1.1630    -0.6350 N.am  1 <1>  -0.6600 
 11 C       -6.6700    -1.9730    -1.1630 C.2   1 <1>   0.5690 
 12 O       -6.9180    -1.9520    -2.3500 O.2   1 <1>  -0.5700 
 13 C       -7.4830    -2.9590    -0.2840 C.3   1 <1>   0.2810 
 14 N       -6.8600    -4.3080    -0.2580 N.am  1 <1>  -0.7300 
 15 C       -8.9280    -3.1430    -0.7610 C.3   1 <1>  -0.2400 
 16 C       -6.2390    -4.8680     0.8060 C.2   1 <1>   0.5690 
 17 O       -6.1600    -4.3020     1.8690 O.2   1 <1>  -0.5700 
 18 C       -5.6590    -6.2620     0.6520 C.3   1 <1>  -0.0990 
 19 C       -4.1720    -6.3170     0.2360 C.3   1 <1>   0.0000 
 20 C       -3.2620    -5.7200     1.3360 C.3   1 <1>  -0.1600 
 21 C       -3.9180    -5.5580    -1.0900 C.3   1 <1>  -0.1600 
 22 C       -3.7640    -7.7960     0.0310 C.3   1 <1>  -0.1600 
 23 C       -1.7790    -5.8150     0.9310 C.3   1 <1>  -0.0800 
 24 C       -2.4370    -5.6580    -1.5010 C.3   1 <1>  -0.0800 
 25 C       -2.2830    -7.9100    -0.3780 C.3   1 <1>  -0.0800 
 26 C       -1.5610    -5.0540    -0.3900 C.3   1 <1>  -0.1600 
 27 C       -1.4060    -7.2940     0.7280 C.3   1 <1>  -0.1600 
 28 C       -2.0620    -7.1390    -1.6920 C.3   1 <1>  -0.1600 
 29 H       -2.8260     0.2150     0.3110 H     1 <1>   0.0800 
 30 H        0.7550    -1.8580     2.2690 H     1 <1>   0.0800 
 31 H        1.1720    -1.2220     0.6760 H     1 <1>   0.0800 
 32 H        0.5470    -2.8650     0.8350 H     1 <1>   0.0800 
 33 H       -3.3720    -1.6550     1.7910 H     1 <1>   0.0800 
 34 H       -3.6960    -2.6760     0.4270 H     1 <1>   0.0800 
 35 H       -3.3830    -1.6420    -2.0140 H     1 <1>   0.0800 
 36 H       -2.8710     0.0130    -2.1200 H     1 <1>   0.0800 
 37 H       -5.2700    -0.2210     1.2000 H     1 <1>   0.0800 
 38 H       -5.7680    -1.8740     1.3810 H     1 <1>   0.0800 
 39 H       -5.2960    -0.2290    -2.5070 H     1 <1>   0.0800 
 40 H       -4.9820     0.7620    -1.1110 H     1 <1>   0.0800 
 41 H       -7.5370    -2.5720     0.7150 H     1 <1>   0.0800 
 42 H       -6.8170    -4.7620    -1.1710 H     1 <1>   0.3700 
 43 H       -8.9510    -3.5580    -1.7530 H     1 <1>   0.0800 
 44 H       -9.4230    -2.1890    -0.7840 H     1 <1>   0.0800 
 45 H       -9.4620    -3.7890    -0.0880 H     1 <1>   0.0800 
 46 H       -6.2500    -6.7920    -0.0710 H     1 <1>   0.0800 
 47 H       -5.7810    -6.7710     1.5910 H     1 <1>   0.0800 
 48 H       -3.4150    -6.2460     2.2610 H     1 <1>   0.0800 
 49 H       -3.5160    -4.6910     1.5110 H     1 <1>   0.0800 
 50 H       -4.1740    -4.5190    -0.9840 H     1 <1>   0.0800 
 51 H       -4.5320    -5.9670    -1.8720 H     1 <1>   0.0800 
 52 H       -4.3760    -8.2440    -0.7330 H     1 <1>   0.0800 
 53 H       -3.9230    -8.3490     0.9400 H     1 <1>   0.0800 
 54 H       -1.1640    -5.3860     1.7040 H     1 <1>   0.0800 
 55 H       -2.2770    -5.1190    -2.4200 H     1 <1>   0.0800 
 56 H       -2.0210    -8.9450    -0.5150 H     1 <1>   0.0800 
 57 H       -0.5250    -5.1040    -0.6750 H     1 <1>   0.0800 
 58 H       -1.8090    -4.0190    -0.2580 H     1 <1>   0.0800 
 59 H       -0.3680    -7.3740     0.4550 H     1 <1>   0.0800 
 60 H       -1.5440    -7.8350     1.6470 H     1 <1>   0.0800 
 61 H       -1.0310    -7.2160    -1.9910 H     1 <1>   0.0800 
 62 H       -2.6620    -7.5690    -2.4740 H     1 <1>   0.0800 
@<TRIPOS>BOND
  1   1   2  2   
  2   2   3  1   
  3   2   4  1   
  4   3   5  1   
  5   4   6  1   
  6   4   7  1   
  7   4  29  1   
  8   5  30  1   
  9   5  31  1   
 10   5  32  1   
 11   6   8  1   
 12   6  33  1   
 13   6  34  1   
 14   7   9  1   
 15   7  35  1   
 16   7  36  1   
 17   8  10  1   
 18   8  37  1   
 19   8  38  1   
 20   9  10  1   
 21   9  39  1   
 22   9  40  1   
 23  10  11  am  
 24  11  12  2   
 25  11  13  1   
 26  13  14  1   
 27  13  15  1   
 28  13  41  1   
 29  14  16  am  
 30  14  42  1   
 31  15  43  1   
 32  15  44  1   
 33  15  45  1   
 34  16  17  2   
 35  16  18  1   
 36  18  19  1   
 37  18  46  1   
 38  18  47  1   
 39  19  20  1   
 40  19  21  1   
 41  19  22  1   
 42  20  23  1   
 43  20  48  1   
 44  20  49  1   
 45  21  24  1   
 46  21  50  1   
 47  21  51  1   
 48  22  25  1   
 49  22  52  1   
 50  22  53  1   
 51  23  26  1   
 52  23  27  1   
 53  23  54  1   
 54  24  26  1   
 55  24  28  1   
 56  24  55  1   
 57  25  27  1   
 58  25  28  1   
 59  25  56  1   
 60  26  57  1   
 61  26  58  1   
 62  27  59  1   
 63  27  60  1   
 64  28  61  1   
 65  28  62  1   
@<TRIPOS>SUBSTRUCTURE
  1 ****  21 GROUP 4 **** **** 0

# MOE 2024.06 (io_trps.svl 2023.06)
