@<TRIPOS>MOLECULE
NONAME
44 45 1 0 0 
SMALL
USER_CHARGES


@<TRIPOS>ATOM
  1 O       -1.8680    -1.9770    -1.6720 O.2   1 <1>  -0.5700 
  2 C       -0.9090    -1.8530    -0.9500 C.2   1 <1>   0.5690 
  3 N       -0.9360    -2.2500     0.3540 N.am  1 <1>  -0.7300 
  4 C        0.3540    -1.2120    -1.5050 C.3   1 <1>   0.0440 
  5 C       -1.9200    -3.0920     1.1120 C.3   1 <1>   0.1400 
  6 C        1.3640    -0.8900    -0.4080 C.ar  1 <1>  -0.1430 
  7 C       -3.3690    -3.1220     0.5680 C.3   1 <1>   0.3430 
  8 C        2.2980    -1.8390    -0.0210 C.ar  1 <1>  -0.1500 
  9 C        1.3380     0.3420     0.2270 C.ar  1 <1>  -0.1500 
 10 N       -3.8830    -1.7770     0.1710 N.4   1 <1>  -0.9590 
 11 C        3.1940    -1.5700     1.0010 C.ar  1 <1>  -0.1430 
 12 C        2.2330     0.6160     1.2450 C.ar  1 <1>  -0.1500 
 13 C       -3.8560    -0.7580     1.2580 C.3   1 <1>   0.3430 
 14 C       -5.1980    -1.8670    -0.5160 C.3   1 <1>   0.3430 
 15 C        3.1570    -0.3380     1.6320 C.ar  1 <1>  -0.1500 
 16 C        4.2190    -2.6070     1.4230 C.3   1 <1>  -0.0970 
 17 C       -4.1940     0.6160     0.6780 C.3   1 <1>  -0.1600 
 18 C       -5.5530    -0.5080    -1.1210 C.3   1 <1>  -0.1600 
 19 C       -5.5350     0.6080    -0.0680 C.3   1 <1>  -0.1600 
 20 H       -0.0570    -2.0720     0.8650 H     1 <1>   0.3700 
 21 H        0.0850    -0.3130    -2.0290 H     1 <1>   0.0800 
 22 H        0.7930    -1.8830    -2.2200 H     1 <1>   0.0800 
 23 H       -1.9480    -2.7420     2.1290 H     1 <1>   0.0800 
 24 H       -1.5500    -4.1020     1.1420 H     1 <1>   0.0800 
 25 H       -4.0180    -3.5590     1.3090 H     1 <1>   0.0800 
 26 H       -3.3810    -3.7650    -0.2970 H     1 <1>   0.0800 
 27 H        2.3330    -2.7940    -0.5160 H     1 <1>   0.1500 
 28 H        0.6270     1.0950    -0.0650 H     1 <1>   0.1500 
 29 H       -3.2030    -1.4710    -0.5560 H     1 <1>   0.4500 
 30 H        2.2150     1.5740     1.7370 H     1 <1>   0.1500 
 31 H       -2.8770    -0.7210     1.7070 H     1 <1>   0.0800 
 32 H       -4.5750    -1.0170     2.0180 H     1 <1>   0.0800 
 33 H       -5.9590    -2.1600     0.1890 H     1 <1>   0.0800 
 34 H       -5.1530    -2.6050    -1.3010 H     1 <1>   0.0800 
 35 H        3.8510    -0.1150     2.4240 H     1 <1>   0.1500 
 36 H        4.3390    -2.5990     2.4920 H     1 <1>   0.0800 
 37 H        5.1680    -2.3860     0.9680 H     1 <1>   0.0800 
 38 H        3.9130    -3.5930     1.1230 H     1 <1>   0.0800 
 39 H       -3.4060     0.9200     0.0110 H     1 <1>   0.0800 
 40 H       -4.2340     1.3360     1.4780 H     1 <1>   0.0800 
 41 H       -6.5310    -0.5650    -1.5650 H     1 <1>   0.0800 
 42 H       -4.8550    -0.2810    -1.9080 H     1 <1>   0.0800 
 43 H       -5.6940     1.5620    -0.5440 H     1 <1>   0.0800 
 44 H       -6.3370     0.4540     0.6340 H     1 <1>   0.0800 
@<TRIPOS>BOND
  1   1   2  2   
  2   2   3  am  
  3   2   4  1   
  4   3   5  1   
  5   3  20  1   
  6   4   6  1   
  7   4  21  1   
  8   4  22  1   
  9   5   7  1   
 10   5  23  1   
 11   5  24  1   
 12   6   8  ar  
 13   6   9  ar  
 14   7  10  1   
 15   7  25  1   
 16   7  26  1   
 17   8  11  ar  
 18   8  27  1   
 19   9  12  ar  
 20   9  28  1   
 21  10  13  1   
 22  10  14  1   
 23  10  29  1   
 24  11  15  ar  
 25  11  16  1   
 26  12  15  ar  
 27  12  30  1   
 28  13  17  1   
 29  13  31  1   
 30  13  32  1   
 31  14  18  1   
 32  14  33  1   
 33  14  34  1   
 34  15  35  1   
 35  16  36  1   
 36  16  37  1   
 37  16  38  1   
 38  17  19  1   
 39  17  39  1   
 40  17  40  1   
 41  18  19  1   
 42  18  41  1   
 43  18  42  1   
 44  19  43  1   
 45  19  44  1   
@<TRIPOS>SUBSTRUCTURE
  1 ****   3 GROUP 4 **** **** 0

# MOE 2024.06 (io_trps.svl 2023.06)
