@<TRIPOS>MOLECULE
NONAME
55 58 1 0 0 
SMALL
USER_CHARGES


@<TRIPOS>ATOM
  1 O        1.0150     2.4880     3.6870 O.2   1 <1>  -0.5700 
  2 C        0.8760     2.8360     2.5370 C.2   1 <1>   0.5180 
  3 N        1.8460     2.6290     1.5510 N.pl3 1 <1>   0.2940 
  4 C       -0.4440     3.5110     2.1360 C.3   1 <1>   0.1710 
  5 C        2.2010     3.5160     0.5290 C.ar  1 <1>  -0.1520 
  6 C        2.2840     1.3830     1.1210 C.2   1 <1>  -0.3320 
  7 N       -1.3580     2.6970     1.2730 N.3   1 <1>  -0.8100 
  8 C        2.7780     2.8070    -0.5210 C.ar  1 <1>   0.0000 
  9 C        2.0770     4.9060     0.4470 C.ar  1 <1>  -0.1500 
 10 C        2.8230     1.4590    -0.1100 C.2   1 <1>  -0.1810 
 11 C        2.1550     0.1010     1.9270 C.3   1 <1>   0.0200 
 12 C       -2.7410     3.2270     1.3040 C.3   1 <1>   0.1100 
 13 C       -0.8770     2.5710    -0.1340 C.3   1 <1>   0.1100 
 14 C        3.1840     3.4710    -1.6790 C.ar  1 <1>  -0.1500 
 15 C        2.4810     5.5530    -0.7000 C.ar  1 <1>  -0.1500 
 16 C        3.3830     0.2750    -0.8730 C.3   1 <1>   0.0210 
 17 C        2.9990    -1.0180     1.2880 C.3   1 <1>  -0.1600 
 18 C       -3.7330     2.3220     0.5290 C.3   1 <1>   0.3430 
 19 C       -1.9170     1.9270    -1.0800 C.3   1 <1>   0.3430 
 20 C        3.0290     4.8360    -1.7650 C.ar  1 <1>  -0.1500 
 21 C        2.8760    -1.0440    -0.2510 C.3   1 <1>  -0.0800 
 22 N       -3.0190     1.2860    -0.2900 N.4   1 <1>  -0.9590 
 23 C        3.6320    -2.2440    -0.8340 C.3   1 <1>  -0.2400 
 24 C       -3.9440     0.4380    -1.0800 C.3   1 <1>   0.3430 
 25 C       -3.2170    -0.8170    -1.5460 C.3   1 <1>  -0.2400 
 26 H       -0.2460     4.4540     1.6620 H     1 <1>   0.0800 
 27 H       -0.9560     3.7300     3.0580 H     1 <1>   0.0800 
 28 H        1.6850     5.4750     1.2720 H     1 <1>   0.1500 
 29 H        1.1220    -0.1950     1.9580 H     1 <1>   0.0800 
 30 H        2.4890     0.2620     2.9380 H     1 <1>   0.0800 
 31 H       -2.7600     4.2170     0.8790 H     1 <1>   0.0800 
 32 H       -3.0780     3.3070     2.3240 H     1 <1>   0.0800 
 33 H       -0.0030     1.9470    -0.1540 H     1 <1>   0.0800 
 34 H       -0.5950     3.5350    -0.5250 H     1 <1>   0.0800 
 35 H        3.6210     2.9090    -2.4850 H     1 <1>   0.1500 
 36 H        2.3890     6.6230    -0.7820 H     1 <1>   0.1500 
 37 H        4.4570     0.3190    -0.8260 H     1 <1>   0.0800 
 38 H        3.0860     0.3290    -1.9050 H     1 <1>   0.0800 
 39 H        2.6970    -1.9640     1.7020 H     1 <1>   0.0800 
 40 H        4.0310    -0.8600     1.5500 H     1 <1>   0.0800 
 41 H       -4.3490     2.9380    -0.1040 H     1 <1>   0.0800 
 42 H       -4.3800     1.8340     1.2390 H     1 <1>   0.0800 
 43 H       -1.4180     1.1980    -1.6970 H     1 <1>   0.0800 
 44 H       -2.3250     2.6840    -1.7290 H     1 <1>   0.0800 
 45 H        3.3390     5.3620    -2.6510 H     1 <1>   0.1500 
 46 H        1.8340    -1.1510    -0.4990 H     1 <1>   0.0800 
 47 H       -2.5250     0.7100     0.4090 H     1 <1>   0.4500 
 48 H        4.6790    -2.1850    -0.5940 H     1 <1>   0.0800 
 49 H        3.5260    -2.2710    -1.9040 H     1 <1>   0.0800 
 50 H        3.2410    -3.1630    -0.4330 H     1 <1>   0.0800 
 51 H       -4.3220     0.9870    -1.9280 H     1 <1>   0.0800 
 52 H       -4.7800     0.1470    -0.4650 H     1 <1>   0.0800 
 53 H       -2.4350    -0.5840    -2.2460 H     1 <1>   0.0800 
 54 H       -3.9170    -1.4630    -2.0460 H     1 <1>   0.0800 
 55 H       -2.8080    -1.3560    -0.7100 H     1 <1>   0.0800 
@<TRIPOS>BOND
  1   1   2  2   
  2   2   3  1   
  3   2   4  1   
  4   3   5  1   
  5   3   6  1   
  6   4   7  1   
  7   4  26  1   
  8   4  27  1   
  9   5   8  ar  
 10   5   9  ar  
 11   6  10  2   
 12   6  11  1   
 13   7  12  1   
 14   7  13  1   
 15   8  10  1   
 16   8  14  ar  
 17   9  15  ar  
 18   9  28  1   
 19  10  16  1   
 20  11  17  1   
 21  11  29  1   
 22  11  30  1   
 23  12  18  1   
 24  12  31  1   
 25  12  32  1   
 26  13  19  1   
 27  13  33  1   
 28  13  34  1   
 29  14  20  ar  
 30  14  35  1   
 31  15  20  ar  
 32  15  36  1   
 33  16  21  1   
 34  16  37  1   
 35  16  38  1   
 36  17  21  1   
 37  17  39  1   
 38  17  40  1   
 39  18  22  1   
 40  18  41  1   
 41  18  42  1   
 42  19  22  1   
 43  19  43  1   
 44  19  44  1   
 45  20  45  1   
 46  21  23  1   
 47  21  46  1   
 48  22  24  1   
 49  22  47  1   
 50  23  48  1   
 51  23  49  1   
 52  23  50  1   
 53  24  25  1   
 54  24  51  1   
 55  24  52  1   
 56  25  53  1   
 57  25  54  1   
 58  25  55  1   
@<TRIPOS>SUBSTRUCTURE
  1 ****  13 GROUP 4 **** **** 0

# MOE 2024.06 (io_trps.svl 2023.06)
