@<TRIPOS>MOLECULE
NONAME
37 38 1 0 0 
SMALL
USER_CHARGES


@<TRIPOS>ATOM
  1 CL       2.4030    -0.2140    -2.7590 Cl    1 <1>  -0.1770 
  2 C        3.0520     0.8050    -1.5010 C.ar  1 <1>   0.1770 
  3 C        2.2950     1.8560    -1.0260 C.ar  1 <1>  -0.1500 
  4 C        4.3150     0.5400    -1.0050 C.ar  1 <1>  -0.1500 
  5 C        2.8030     2.6760    -0.0240 C.ar  1 <1>   0.1990 
  6 C        4.8290     1.3530    -0.0080 C.ar  1 <1>  -0.1500 
  7 N        2.0590     3.7420     0.4730 N.am  1 <1>  -0.6930 
  8 C        4.0750     2.4090     0.4740 C.ar  1 <1>  -0.1500 
  9 S        2.5440     5.3750     0.1430 S.o2  1 <1>   1.3330 
 10 C        0.6840     3.4540     0.9950 C.3   1 <1>   0.3370 
 11 O        3.9760     5.4490     0.2930 O.2   1 <1>  -0.6500 
 12 O        1.6920     6.2620     0.8990 O.2   1 <1>  -0.6500 
 13 C        2.1480     5.5410    -1.5860 C.3   1 <1>  -0.1350 
 14 C       -0.4590     4.0600     0.1520 C.2   1 <1>   0.5690 
 15 C        0.6140     3.7790     2.4950 C.3   1 <1>  -0.2400 
 16 O       -0.9770     3.3610    -0.6880 O.2   1 <1>  -0.5700 
 17 N       -0.8420     5.3540     0.3380 N.am  1 <1>  -0.5790 
 18 C       -1.8740     6.0700    -0.4190 C.3   1 <1>   0.0490 
 19 C       -1.5550     7.4520    -0.8810 C.3   1 <1>  -0.2000 
 20 C       -2.5360     7.2370     0.2320 C.3   1 <1>  -0.2000 
 21 H        1.3180     2.0330    -1.4380 H     1 <1>   0.1500 
 22 H        4.8830    -0.2860    -1.3940 H     1 <1>   0.1500 
 23 H        5.8120     1.1650     0.3900 H     1 <1>   0.1500 
 24 H        4.4760     3.0430     1.2470 H     1 <1>   0.1500 
 25 H        0.5390     2.3900     0.9320 H     1 <1>   0.0800 
 26 H        2.6960     4.8220    -2.1620 H     1 <1>   0.0800 
 27 H        2.4100     6.5230    -1.9280 H     1 <1>   0.0800 
 28 H        1.0990     5.3900    -1.7530 H     1 <1>   0.0800 
 29 H        0.7100     4.8310     2.6850 H     1 <1>   0.0800 
 30 H        1.3950     3.2570     3.0180 H     1 <1>   0.0800 
 31 H       -0.3320     3.4540     2.8880 H     1 <1>   0.0800 
 32 H       -0.2390     5.9550     0.9200 H     1 <1>   0.3700 
 33 H       -2.4630     5.4290    -1.0570 H     1 <1>   0.1000 
 34 H       -1.9340     7.7820    -1.8320 H     1 <1>   0.1000 
 35 H       -0.5920     7.8730    -0.6480 H     1 <1>   0.1000 
 36 H       -2.2530     7.5030     1.2360 H     1 <1>   0.1000 
 37 H       -3.5780     7.4170     0.0340 H     1 <1>   0.1000 
@<TRIPOS>BOND
  1   1   2  1   
  2   2   3  ar  
  3   2   4  ar  
  4   3   5  ar  
  5   3  21  1   
  6   4   6  ar  
  7   4  22  1   
  8   5   7  1   
  9   5   8  ar  
 10   6   8  ar  
 11   6  23  1   
 12   7   9  am  
 13   7  10  1   
 14   8  24  1   
 15   9  11  2   
 16   9  12  2   
 17   9  13  1   
 18  10  14  1   
 19  10  15  1   
 20  10  25  1   
 21  13  26  1   
 22  13  27  1   
 23  13  28  1   
 24  14  16  2   
 25  14  17  am  
 26  15  29  1   
 27  15  30  1   
 28  15  31  1   
 29  17  18  1   
 30  17  32  1   
 31  18  19  1   
 32  18  20  1   
 33  18  33  1   
 34  19  20  1   
 35  19  34  1   
 36  19  35  1   
 37  20  36  1   
 38  20  37  1   
@<TRIPOS>SUBSTRUCTURE
  1 ****   7 GROUP 4 **** **** 0

# MOE 2024.06 (io_trps.svl 2023.06)
