@<TRIPOS>MOLECULE
NONAME
44 47 1 0 0 
SMALL
USER_CHARGES


@<TRIPOS>ATOM
  1 N       -0.4940    -0.1290    -1.1880 N.ar  1 <1>  -0.6200 
  2 C       -0.1810    -1.3860    -1.3860 C.ar  1 <1>   0.6710 
  3 C       -1.6870     0.1710    -0.6980 C.ar  1 <1>   0.4100 
  4 N       -1.0460    -2.3790    -1.1400 N.ar  1 <1>  -0.1790 
  5 C        1.1260    -1.7250    -1.8900 C.ar  1 <1>   0.0000 
  6 N       -1.7550     1.4500    -0.3370 N.pl3 1 <1>  -0.8690 
  7 C       -2.7180    -0.8150    -0.5580 C.ar  1 <1>   0.0000 
  8 C       -2.3300    -2.1480    -0.7360 C.ar  1 <1>   0.3610 
  9 C        1.9710    -2.6410    -1.2690 C.ar  1 <1>  -0.1500 
 10 C        1.6370    -1.1530    -3.0490 C.ar  1 <1>  -0.1500 
 11 C       -2.6790     2.2200     0.5130 C.3   1 <1>   0.2890 
 12 C       -4.0830    -0.5820    -0.2950 C.ar  1 <1>  -0.1500 
 13 C       -3.2370    -3.1980    -0.5480 C.ar  1 <1>  -0.1500 
 14 C        3.2010    -2.9420    -1.8250 C.ar  1 <1>   0.1600 
 15 C        2.8810    -1.5230    -3.5240 C.ar  1 <1>   0.1600 
 16 C       -3.5120     3.1530    -0.3720 C.3   1 <1>  -0.1600 
 17 C       -1.8500     3.0240     1.5180 C.3   1 <1>  -0.1600 
 18 C       -4.9720    -1.6140    -0.1270 C.ar  1 <1>  -0.1500 
 19 C       -4.5470    -2.9350    -0.2390 C.ar  1 <1>  -0.1500 
 20 N        3.6650    -2.4130    -2.9420 N.ar  1 <1>  -0.6200 
 21 C       -4.4210     4.0550     0.4760 C.3   1 <1>  -0.1600 
 22 C       -2.7470     3.9270     2.3790 C.3   1 <1>  -0.1600 
 23 C       -3.6050     4.8510     1.5040 C.3   1 <1>  -0.1600 
 24 H       -0.7480    -3.3330    -1.3280 H     1 <1>   0.4570 
 25 H       -0.9410     2.0160    -0.5950 H     1 <1>   0.4000 
 26 H        1.6990    -3.1180    -0.3450 H     1 <1>   0.1500 
 27 H        1.0710    -0.4120    -3.5870 H     1 <1>   0.1500 
 28 H       -3.3200     1.5620     1.0710 H     1 <1>   0.0800 
 29 H       -4.4570     0.4210    -0.2360 H     1 <1>   0.1500 
 30 H       -2.9200    -4.2210    -0.6510 H     1 <1>   0.1500 
 31 H        3.8420    -3.6530    -1.3290 H     1 <1>   0.1500 
 32 H        3.2540    -1.0670    -4.4270 H     1 <1>   0.1500 
 33 H       -4.1150     2.5760    -1.0500 H     1 <1>   0.0800 
 34 H       -2.8540     3.7730    -0.9550 H     1 <1>   0.0800 
 35 H       -1.1410     3.6390     0.9930 H     1 <1>   0.0800 
 36 H       -1.3090     2.3490     2.1570 H     1 <1>   0.0800 
 37 H       -6.0100    -1.4120     0.0880 H     1 <1>   0.1500 
 38 H       -5.2600    -3.7320    -0.0910 H     1 <1>   0.1500 
 39 H       -5.1500     3.4510     0.9890 H     1 <1>   0.0800 
 40 H       -4.9530     4.7370    -0.1660 H     1 <1>   0.0800 
 41 H       -2.1360     4.5200     3.0370 H     1 <1>   0.0800 
 42 H       -3.3900     3.3160     2.9900 H     1 <1>   0.0800 
 43 H       -4.2710     5.4220     2.1280 H     1 <1>   0.0800 
 44 H       -2.9650     5.5460     0.9880 H     1 <1>   0.0800 
@<TRIPOS>BOND
  1   1   2  ar  
  2   1   3  ar  
  3   2   4  ar  
  4   2   5  1   
  5   3   6  1   
  6   3   7  ar  
  7   4   8  ar  
  8   4  24  1   
  9   5   9  ar  
 10   5  10  ar  
 11   6  11  1   
 12   6  25  1   
 13   7   8  ar  
 14   7  12  ar  
 15   8  13  ar  
 16   9  14  ar  
 17   9  26  1   
 18  10  15  ar  
 19  10  27  1   
 20  11  16  1   
 21  11  17  1   
 22  11  28  1   
 23  12  18  ar  
 24  12  29  1   
 25  13  19  ar  
 26  13  30  1   
 27  14  20  ar  
 28  14  31  1   
 29  15  20  ar  
 30  15  32  1   
 31  16  21  1   
 32  16  33  1   
 33  16  34  1   
 34  17  22  1   
 35  17  35  1   
 36  17  36  1   
 37  18  19  ar  
 38  18  37  1   
 39  19  38  1   
 40  21  23  1   
 41  21  39  1   
 42  21  40  1   
 43  22  23  1   
 44  22  41  1   
 45  22  42  1   
 46  23  43  1   
 47  23  44  1   
@<TRIPOS>SUBSTRUCTURE
  1 ****   3 GROUP 4 **** **** 0

# MOE 2024.06 (io_trps.svl 2023.06)
