@<TRIPOS>MOLECULE
NONAME
40 41 1 0 0 
SMALL
USER_CHARGES


@<TRIPOS>ATOM
  1 S       -0.9230     0.5980     0.6240 S.o2  1 <1>   1.3330 
  2 O       -0.9670     1.8150     1.3990 O.2   1 <1>  -0.6500 
  3 O       -0.1910     0.5580    -0.6210 O.2   1 <1>  -0.6500 
  4 N       -2.5150     0.1170     0.3070 N.am  1 <1>  -0.8490 
  5 C       -0.3330    -0.7010     1.6890 C.3   1 <1>  -0.1350 
  6 C       -2.6050    -0.8430    -0.8100 C.3   1 <1>   0.1960 
  7 C       -3.3850     1.2760     0.0350 C.3   1 <1>   0.1960 
  8 C       -4.0440    -1.3390    -1.0220 C.3   1 <1>   0.1400 
  9 C       -4.8540     0.8690    -0.1850 C.3   1 <1>   0.1400 
 10 N       -4.9850    -0.1960    -1.2290 N.am  1 <1>  -0.6600 
 11 C       -5.9290    -0.2230    -2.2270 C.2   1 <1>   0.5690 
 12 O       -5.9790    -1.1380    -3.0160 O.2   1 <1>  -0.5700 
 13 C       -6.9530     0.8950    -2.3990 C.3   1 <1>   0.0440 
 14 C       -7.8540     1.1020    -1.1840 C.ar  1 <1>  -0.1440 
 15 C       -8.4200     0.0160    -0.5340 C.ar  1 <1>  -0.1500 
 16 C       -8.1160     2.3800    -0.7150 C.ar  1 <1>  -0.1500 
 17 C       -9.2230     0.2040     0.5770 C.ar  1 <1>  -0.1500 
 18 C       -8.9200     2.5680     0.3970 C.ar  1 <1>  -0.1500 
 19 C       -9.4740     1.4800     1.0510 C.ar  1 <1>  -0.1440 
 20 C      -10.3550     1.6870     2.2700 C.3   1 <1>  -0.0970 
 21 H       -0.9460    -0.7610     2.5670 H     1 <1>   0.0800 
 22 H        0.6760    -0.4980     1.9880 H     1 <1>   0.0800 
 23 H       -0.3590    -1.6430     1.1800 H     1 <1>   0.0800 
 24 H       -1.9740    -1.6910    -0.6110 H     1 <1>   0.0800 
 25 H       -2.2600    -0.3840    -1.7230 H     1 <1>   0.0800 
 26 H       -3.0270     1.8030    -0.8340 H     1 <1>   0.0800 
 27 H       -3.3510     1.9570     0.8680 H     1 <1>   0.0800 
 28 H       -4.3570    -1.8990    -0.1590 H     1 <1>   0.0800 
 29 H       -4.0630    -2.0010    -1.8700 H     1 <1>   0.0800 
 30 H       -5.4060     1.7470    -0.4610 H     1 <1>   0.0800 
 31 H       -5.2600     0.5030     0.7410 H     1 <1>   0.0800 
 32 H       -7.5750     0.6610    -3.2440 H     1 <1>   0.0800 
 33 H       -6.4240     1.7990    -2.6330 H     1 <1>   0.0800 
 34 H       -8.2370    -0.9850    -0.8890 H     1 <1>   0.1500 
 35 H       -7.6990     3.2400    -1.2090 H     1 <1>   0.1500 
 36 H       -9.6540    -0.6510     1.0680 H     1 <1>   0.1500 
 37 H       -9.1150     3.5650     0.7500 H     1 <1>   0.1500 
 38 H      -10.3120     0.8280     2.9150 H     1 <1>   0.0800 
 39 H      -11.3730     1.8390     1.9600 H     1 <1>   0.0800 
 40 H      -10.0280     2.5470     2.8270 H     1 <1>   0.0800 
@<TRIPOS>BOND
  1   1   2  2   
  2   1   3  2   
  3   1   4  am  
  4   1   5  1   
  5   4   6  1   
  6   4   7  1   
  7   5  21  1   
  8   5  22  1   
  9   5  23  1   
 10   6   8  1   
 11   6  24  1   
 12   6  25  1   
 13   7   9  1   
 14   7  26  1   
 15   7  27  1   
 16   8  10  1   
 17   8  28  1   
 18   8  29  1   
 19   9  10  1   
 20   9  30  1   
 21   9  31  1   
 22  10  11  am  
 23  11  12  2   
 24  11  13  1   
 25  13  14  1   
 26  13  32  1   
 27  13  33  1   
 28  14  15  ar  
 29  14  16  ar  
 30  15  17  ar  
 31  15  34  1   
 32  16  18  ar  
 33  16  35  1   
 34  17  19  ar  
 35  17  36  1   
 36  18  19  ar  
 37  18  37  1   
 38  19  20  1   
 39  20  38  1   
 40  20  39  1   
 41  20  40  1   
@<TRIPOS>SUBSTRUCTURE
  1 ****   9 GROUP 4 **** **** 0

# MOE 2024.06 (io_trps.svl 2023.06)
