@<TRIPOS>MOLECULE
NONAME
32 32 1 0 0 
SMALL
USER_CHARGES


@<TRIPOS>ATOM
  1 S       -0.4830     0.0510    -1.4400 S.o2  1 <1>   1.3330 
  2 O       -1.2800     0.2940    -2.6150 O.2   1 <1>  -0.6500 
  3 O        0.1070    -1.2390    -1.1820 O.2   1 <1>  -0.6500 
  4 N        0.7990     1.1850    -1.5690 N.am  1 <1>  -0.7570 
  5 C       -1.3640     0.6370     0.0090 C.3   1 <1>  -0.0550 
  6 C        2.0580     1.1760    -0.9630 C.ar  1 <1>   0.1990 
  7 C       -2.5890    -0.2180     0.3730 C.3   1 <1>  -0.1600 
  8 C        3.0920     1.9660    -1.4650 C.ar  1 <1>   0.1900 
  9 C        2.3500     0.4040     0.1590 C.ar  1 <1>  -0.1500 
 10 C       -3.2900     0.3210     1.6250 C.3   1 <1>  -0.1600 
 11 F        2.8660     2.7130    -2.5200 F     1 <1>  -0.1900 
 12 C        4.3510     2.0040    -0.9040 C.ar  1 <1>  -0.1500 
 13 C        3.6090     0.4190     0.7570 C.ar  1 <1>  -0.1430 
 14 C       -4.5050    -0.5380     1.9840 C.3   1 <1>  -0.2400 
 15 C        4.6070     1.2250     0.2120 C.ar  1 <1>  -0.1500 
 16 C        3.8920    -0.4510     1.9950 C.3   1 <1>   1.1630 
 17 F        4.8190     0.0720     2.7870 F     1 <1>  -0.3400 
 18 F        4.3220    -1.6610     1.6650 F     1 <1>  -0.3400 
 19 F        2.8160    -0.6270     2.7540 F     1 <1>  -0.3400 
 20 H        0.7140     1.6970    -2.4450 H     1 <1>   0.4200 
 21 H       -1.6850     1.6460    -0.1640 H     1 <1>   0.0800 
 22 H       -0.6930     0.6470     0.8450 H     1 <1>   0.0800 
 23 H       -2.2740    -1.2340     0.5440 H     1 <1>   0.0800 
 24 H       -3.2780    -0.2190    -0.4560 H     1 <1>   0.0800 
 25 H        1.5840    -0.2280     0.5720 H     1 <1>   0.1500 
 26 H       -3.6130     1.3350     1.4550 H     1 <1>   0.0800 
 27 H       -2.6030     0.3230     2.4560 H     1 <1>   0.0800 
 28 H        5.1140     2.6300    -1.3310 H     1 <1>   0.1500 
 29 H       -5.2170    -0.5390     1.1780 H     1 <1>   0.0800 
 30 H       -4.9860    -0.1470     2.8630 H     1 <1>   0.0800 
 31 H       -4.2050    -1.5520     2.1820 H     1 <1>   0.0800 
 32 H        5.5920     1.2510     0.6520 H     1 <1>   0.1500 
@<TRIPOS>BOND
  1   1   2  2   
  2   1   3  2   
  3   1   4  am  
  4   1   5  1   
  5   4   6  1   
  6   4  20  1   
  7   5   7  1   
  8   5  21  1   
  9   5  22  1   
 10   6   8  ar  
 11   6   9  ar  
 12   7  10  1   
 13   7  23  1   
 14   7  24  1   
 15   8  11  1   
 16   8  12  ar  
 17   9  13  ar  
 18   9  25  1   
 19  10  14  1   
 20  10  26  1   
 21  10  27  1   
 22  12  15  ar  
 23  12  28  1   
 24  13  15  ar  
 25  13  16  1   
 26  14  29  1   
 27  14  30  1   
 28  14  31  1   
 29  15  32  1   
 30  16  17  1   
 31  16  18  1   
 32  16  19  1   
@<TRIPOS>SUBSTRUCTURE
  1 ****   9 GROUP 4 **** **** 0

# MOE 2024.06 (io_trps.svl 2023.06)
