@<TRIPOS>MOLECULE
NONAME
47 49 1 0 0 
SMALL
USER_CHARGES


@<TRIPOS>ATOM
  1 F       -0.7980    -0.4680    -1.6230 F     1 <1>  -0.1900 
  2 C       -1.9480    -0.9480    -1.2250 C.ar  1 <1>   0.1900 
  3 C       -1.9600    -2.0740    -0.4260 C.ar  1 <1>  -0.1500 
  4 C       -3.1090    -0.3110    -1.6160 C.ar  1 <1>  -0.1500 
  5 C       -3.1810    -2.5770    -0.0090 C.ar  1 <1>  -0.1500 
  6 C       -4.3220    -0.8250    -1.1900 C.ar  1 <1>  -0.1500 
  7 C       -4.3750    -1.9640    -0.3850 C.ar  1 <1>   0.1170 
  8 N       -5.5820    -2.5120     0.0800 N.am  1 <1>  -0.5470 
  9 C       -6.8580    -2.4160    -0.4080 C.2   1 <1>   0.5690 
 10 O       -7.1370    -1.8170    -1.4170 O.2   1 <1>  -0.5700 
 11 C       -7.9630    -3.1280     0.3750 C.3   1 <1>  -0.0190 
 12 C       -8.1090    -4.5900    -0.0830 C.3   1 <1>  -0.1600 
 13 C       -9.3240    -2.4100     0.2690 C.3   1 <1>  -0.1600 
 14 C       -9.2100    -5.3170     0.6950 C.3   1 <1>   0.1400 
 15 C      -10.4230    -3.1500     1.0370 C.3   1 <1>   0.1400 
 16 N      -10.4900    -4.5650     0.5750 N.am  1 <1>  -0.6600 
 17 C      -11.5870    -5.1070    -0.0690 C.2   1 <1>   0.5440 
 18 O      -11.4570    -6.1510    -0.6800 O.2   1 <1>  -0.5700 
 19 C      -12.8880    -4.4670    -0.0460 C.ar  1 <1>   0.0860 
 20 C      -13.5330    -4.1630     1.1540 C.ar  1 <1>  -0.1500 
 21 C      -13.5430    -4.1370    -1.2310 C.ar  1 <1>  -0.1500 
 22 C      -14.7670    -3.5400     1.1670 C.ar  1 <1>  -0.1500 
 23 C      -14.7780    -3.5140    -1.2270 C.ar  1 <1>  -0.1500 
 24 C      -15.3990    -3.2070    -0.0200 C.ar  1 <1>   0.0830 
 25 O      -16.6010    -2.5970     0.0760 O.3   1 <1>  -0.3630 
 26 C      -17.3480    -2.2440    -1.0670 C.3   1 <1>   0.0400 
 27 H       -1.0340    -2.5410    -0.1420 H     1 <1>   0.1500 
 28 H       -3.0640     0.5640    -2.2390 H     1 <1>   0.1500 
 29 H       -3.2020    -3.4550     0.6100 H     1 <1>   0.1500 
 30 H       -5.2300    -0.3310    -1.4870 H     1 <1>   0.1500 
 31 H       -5.4790    -3.1200     0.8890 H     1 <1>   0.3700 
 32 H       -7.6800    -3.1270     1.4130 H     1 <1>   0.0800 
 33 H       -7.1800    -5.1150     0.0500 H     1 <1>   0.0800 
 34 H       -8.3520    -4.6200    -1.1320 H     1 <1>   0.0800 
 35 H       -9.6190    -2.3390    -0.7640 H     1 <1>   0.0800 
 36 H       -9.2360    -1.4080     0.6490 H     1 <1>   0.0800 
 37 H       -8.9440    -5.3880     1.7350 H     1 <1>   0.0800 
 38 H       -9.3170    -6.3200     0.3150 H     1 <1>   0.0800 
 39 H      -11.3590    -2.6450     0.8750 H     1 <1>   0.0800 
 40 H      -10.2110    -3.1350     2.0920 H     1 <1>   0.0800 
 41 H      -13.0560    -4.4250     2.0820 H     1 <1>   0.1500 
 42 H      -13.0670    -4.3810    -2.1660 H     1 <1>   0.1500 
 43 H      -15.2530    -3.3090     2.0980 H     1 <1>   0.1500 
 44 H      -15.2410    -3.2790    -2.1670 H     1 <1>   0.1500 
 45 H      -18.2640    -1.7870    -0.7390 H     1 <1>   0.0800 
 46 H      -17.5640    -3.1340    -1.6310 H     1 <1>   0.0800 
 47 H      -16.7790    -1.5440    -1.6530 H     1 <1>   0.0800 
@<TRIPOS>BOND
  1   1   2  1   
  2   2   3  ar  
  3   2   4  ar  
  4   3   5  ar  
  5   3  27  1   
  6   4   6  ar  
  7   4  28  1   
  8   5   7  ar  
  9   5  29  1   
 10   6   7  ar  
 11   6  30  1   
 12   7   8  1   
 13   8   9  am  
 14   8  31  1   
 15   9  10  2   
 16   9  11  1   
 17  11  12  1   
 18  11  13  1   
 19  11  32  1   
 20  12  14  1   
 21  12  33  1   
 22  12  34  1   
 23  13  15  1   
 24  13  35  1   
 25  13  36  1   
 26  14  16  1   
 27  14  37  1   
 28  14  38  1   
 29  15  16  1   
 30  15  39  1   
 31  15  40  1   
 32  16  17  am  
 33  17  18  2   
 34  17  19  1   
 35  19  20  ar  
 36  19  21  ar  
 37  20  22  ar  
 38  20  41  1   
 39  21  23  ar  
 40  21  42  1   
 41  22  24  ar  
 42  22  43  1   
 43  23  24  ar  
 44  23  44  1   
 45  24  25  1   
 46  25  26  1   
 47  26  45  1   
 48  26  46  1   
 49  26  47  1   
@<TRIPOS>SUBSTRUCTURE
  1 ****  13 GROUP 4 **** **** 0

# MOE 2024.06 (io_trps.svl 2023.06)
