@<TRIPOS>MOLECULE
NONAME
52 54 1 0 0 
SMALL
USER_CHARGES


@<TRIPOS>ATOM
  1 F        1.2800    -2.8610    -3.4680 F     1 <1>  -0.1900 
  2 C        1.9300    -3.4940    -2.5300 C.ar  1 <1>   0.1900 
  3 C        1.5340    -3.3310    -1.2170 C.ar  1 <1>  -0.1500 
  4 C        2.9920    -4.3030    -2.8840 C.ar  1 <1>  -0.1500 
  5 C        2.2300    -4.0000    -0.2240 C.ar  1 <1>  -0.1500 
  6 C        3.6820    -4.9690    -1.8850 C.ar  1 <1>  -0.1500 
  7 C        3.3090    -4.8150    -0.5530 C.ar  1 <1>  -0.1430 
  8 C        4.0810    -5.5360     0.5370 C.3   1 <1>   0.4870 
  9 N        4.9490    -4.5530     1.2390 N.4   1 <1>  -0.9590 
 10 C        5.9780    -3.9680     0.2970 C.3   1 <1>   0.3430 
 11 C        5.5850    -5.1820     2.4550 C.3   1 <1>   0.3430 
 12 C        6.9700    -3.0300     1.0150 C.3   1 <1>   0.1400 
 13 C        6.5890    -4.2360     3.1470 C.3   1 <1>   0.1400 
 14 N        7.5940    -3.7520     2.1580 N.am  1 <1>  -0.6600 
 15 C        8.6500    -4.5690     1.8720 C.2   1 <1>   0.6900 
 16 O        8.5030    -5.7740     1.9690 O.2   1 <1>  -0.5700 
 17 N        9.7870    -3.9990     1.3980 N.am  1 <1>  -0.5470 
 18 C       10.8820    -4.5180     0.6860 C.ar  1 <1>   0.1170 
 19 C       11.6060    -3.6470    -0.1360 C.ar  1 <1>   0.0830 
 20 C       11.2760    -5.8480     0.7700 C.ar  1 <1>  -0.1500 
 21 O       11.1940    -2.3430    -0.1820 O.3   1 <1>  -0.3630 
 22 C       12.6910    -4.1220    -0.8640 C.ar  1 <1>  -0.1500 
 23 C       12.3560    -6.3160     0.0440 C.ar  1 <1>  -0.1500 
 24 C       11.9510    -1.3710    -0.8730 C.3   1 <1>   0.0400 
 25 C       13.0680    -5.4510    -0.7800 C.ar  1 <1>   0.0830 
 26 O       14.1390    -5.8280    -1.5290 O.3   1 <1>  -0.3620 
 27 C       14.5920    -7.1640    -1.5220 C.3   1 <1>   0.0400 
 28 H        0.6950    -2.6960    -0.9880 H     1 <1>   0.1500 
 29 H        3.2620    -4.4070    -3.9210 H     1 <1>   0.1500 
 30 H        1.9120    -3.8800     0.7980 H     1 <1>   0.1500 
 31 H        4.5060    -5.6070    -2.1630 H     1 <1>   0.1500 
 32 H        4.6820    -6.3210     0.1070 H     1 <1>   0.0800 
 33 H        3.3850    -5.9800     1.2300 H     1 <1>   0.0800 
 34 H        4.3450    -3.7810     1.5450 H     1 <1>   0.4500 
 35 H        5.4850    -3.4220    -0.4910 H     1 <1>   0.0800 
 36 H        6.5430    -4.7660    -0.1570 H     1 <1>   0.0800 
 37 H        6.1200    -6.0720     2.1630 H     1 <1>   0.0800 
 38 H        4.8270    -5.4710     3.1640 H     1 <1>   0.0800 
 39 H        6.4640    -2.1500     1.3720 H     1 <1>   0.0800 
 40 H        7.7280    -2.7150     0.3170 H     1 <1>   0.0800 
 41 H        7.0920    -4.7680     3.9380 H     1 <1>   0.0800 
 42 H        6.0760    -3.3990     3.5870 H     1 <1>   0.0800 
 43 H        9.7910    -2.9810     1.4280 H     1 <1>   0.3700 
 44 H       10.7430    -6.5280     1.4080 H     1 <1>   0.1500 
 45 H       13.2650    -3.4860    -1.5090 H     1 <1>   0.1500 
 46 H       12.6260    -7.3510     0.1370 H     1 <1>   0.1500 
 47 H       11.4820    -0.4150    -0.7300 H     1 <1>   0.0800 
 48 H       11.9650    -1.6170    -1.9210 H     1 <1>   0.0800 
 49 H       12.9480    -1.3520    -0.4690 H     1 <1>   0.0800 
 50 H       15.4370    -7.2330    -2.1840 H     1 <1>   0.0800 
 51 H       13.8010    -7.8030    -1.8720 H     1 <1>   0.0800 
 52 H       14.8890    -7.4270    -0.5220 H     1 <1>   0.0800 
@<TRIPOS>BOND
  1   1   2  1   
  2   2   3  ar  
  3   2   4  ar  
  4   3   5  ar  
  5   3  28  1   
  6   4   6  ar  
  7   4  29  1   
  8   5   7  ar  
  9   5  30  1   
 10   6   7  ar  
 11   6  31  1   
 12   7   8  1   
 13   8   9  1   
 14   8  32  1   
 15   8  33  1   
 16   9  10  1   
 17   9  11  1   
 18   9  34  1   
 19  10  12  1   
 20  10  35  1   
 21  10  36  1   
 22  11  13  1   
 23  11  37  1   
 24  11  38  1   
 25  12  14  1   
 26  12  39  1   
 27  12  40  1   
 28  13  14  1   
 29  13  41  1   
 30  13  42  1   
 31  14  15  am  
 32  15  16  2   
 33  15  17  am  
 34  17  18  1   
 35  17  43  1   
 36  18  19  ar  
 37  18  20  ar  
 38  19  21  1   
 39  19  22  ar  
 40  20  23  ar  
 41  20  44  1   
 42  21  24  1   
 43  22  25  ar  
 44  22  45  1   
 45  23  25  ar  
 46  23  46  1   
 47  24  47  1   
 48  24  48  1   
 49  24  49  1   
 50  25  26  1   
 51  26  27  1   
 52  27  50  1   
 53  27  51  1   
 54  27  52  1   
@<TRIPOS>SUBSTRUCTURE
  1 ****  10 GROUP 4 **** **** 0

# MOE 2024.06 (io_trps.svl 2023.06)
