@<TRIPOS>MOLECULE
NONAME
37 38 1 0 0 
SMALL
USER_CHARGES


@<TRIPOS>ATOM
  1 O       -0.9050     0.5020    -1.6850 O.2   1 <1>  -0.5700 
  2 C       -1.7260     1.1370    -1.0680 C.2   1 <1>   0.4950 
  3 C       -1.5170     2.4810    -0.5940 C.2   1 <1>   0.0290 
  4 C       -3.0500     0.4110    -0.8780 C.3   1 <1>  -0.0990 
  5 C       -2.7140     3.2710    -0.4310 C.2   1 <1>   0.4950 
  6 C       -0.2570     2.9990    -0.3220 C.2   1 <1>  -0.0380 
  7 C       -4.0640     1.1640    -0.0070 C.3   1 <1>   0.0000 
  8 O       -2.7320     4.4660    -0.2380 O.2   1 <1>  -0.5700 
  9 C       -4.0880     2.6230    -0.4770 C.3   1 <1>  -0.0990 
 10 N       -0.0450     4.3200    -0.0310 N.pl3 1 <1>  -0.6000 
 11 C        0.9990     2.1260    -0.2840 C.3   1 <1>  -0.1020 
 12 C       -3.6790     1.0710     1.4820 C.3   1 <1>  -0.2400 
 13 C       -5.4580     0.5430    -0.1820 C.3   1 <1>  -0.2400 
 14 C        1.1250     5.0610     0.1510 C.ar  1 <1>   0.1000 
 15 C        2.1730     5.0460    -0.7500 C.ar  1 <1>  -0.1500 
 16 C        1.2840     5.8810     1.2510 C.ar  1 <1>  -0.1500 
 17 C        3.2960     5.8120    -0.5080 C.ar  1 <1>   0.1600 
 18 C        2.4490     6.6090     1.4000 C.ar  1 <1>   0.1600 
 19 N        3.4640     6.5940     0.5480 N.ar  1 <1>  -0.6200 
 20 H       -3.4640     0.2540    -1.8580 H     1 <1>   0.0800 
 21 H       -2.8550    -0.5590    -0.4580 H     1 <1>   0.0800 
 22 H       -4.7610     3.1900     0.1440 H     1 <1>   0.0800 
 23 H       -4.4520     2.6860    -1.4870 H     1 <1>   0.0800 
 24 H       -0.9110     4.8880     0.0360 H     1 <1>   0.4000 
 25 H        1.7120     2.5030     0.4260 H     1 <1>   0.0800 
 26 H        1.4560     2.0970    -1.2560 H     1 <1>   0.0800 
 27 H        0.7720     1.1210     0.0200 H     1 <1>   0.0800 
 28 H       -2.6970     1.4630     1.6750 H     1 <1>   0.0800 
 29 H       -3.6940     0.0460     1.8100 H     1 <1>   0.0800 
 30 H       -4.3810     1.6220     2.0850 H     1 <1>   0.0800 
 31 H       -5.4520    -0.4920     0.1160 H     1 <1>   0.0800 
 32 H       -5.7780     0.5940    -1.2080 H     1 <1>   0.0800 
 33 H       -6.1830     1.0610     0.4210 H     1 <1>   0.0800 
 34 H        2.1050     4.4440    -1.6360 H     1 <1>   0.1500 
 35 H        0.5050     5.9450     1.9870 H     1 <1>   0.1500 
 36 H        4.1020     5.7850    -1.2210 H     1 <1>   0.1500 
 37 H        2.5560     7.2390     2.2670 H     1 <1>   0.1500 
@<TRIPOS>BOND
  1   1   2  2   
  2   2   3  1   
  3   2   4  1   
  4   3   5  1   
  5   3   6  2   
  6   4   7  1   
  7   4  20  1   
  8   4  21  1   
  9   5   8  2   
 10   5   9  1   
 11   6  10  1   
 12   6  11  1   
 13   7   9  1   
 14   7  12  1   
 15   7  13  1   
 16   9  22  1   
 17   9  23  1   
 18  10  14  1   
 19  10  24  1   
 20  11  25  1   
 21  11  26  1   
 22  11  27  1   
 23  12  28  1   
 24  12  29  1   
 25  12  30  1   
 26  13  31  1   
 27  13  32  1   
 28  13  33  1   
 29  14  15  ar  
 30  14  16  ar  
 31  15  17  ar  
 32  15  34  1   
 33  16  18  ar  
 34  16  35  1   
 35  17  19  ar  
 36  17  36  1   
 37  18  19  ar  
 38  18  37  1   
@<TRIPOS>SUBSTRUCTURE
  1 ****   6 GROUP 4 **** **** 0

# MOE 2024.06 (io_trps.svl 2023.06)
