@<TRIPOS>MOLECULE
NONAME
38 42 1 0 0 
SMALL
USER_CHARGES


@<TRIPOS>ATOM
  1 N       -0.5400     0.2940     0.7040 N.2   1 <1>  -0.4180 
  2 N        0.7240     0.4500     0.7580 N.2   1 <1>  -0.2270 
  3 N       -1.1260     1.4400     0.2890 N.pl3 1 <1>   0.3140 
  4 C        1.0080     1.7130     0.3770 C.ar  1 <1>   0.2270 
  5 C       -0.1540     2.3790     0.0680 C.ar  1 <1>  -0.1520 
  6 C       -2.6300     1.4950     0.1480 C.3   1 <1>   0.2560 
  7 C        2.2530     2.3380     0.2800 C.ar  1 <1>  -0.1500 
  8 C       -0.0860     3.7190    -0.3550 C.ar  1 <1>  -0.1500 
  9 C       -3.0900     0.4210    -0.8720 C.3   1 <1>  -0.1600 
 10 C       -3.1550     2.8690    -0.3350 C.3   1 <1>  -0.1600 
 11 C       -3.2870     1.1860     1.5180 C.3   1 <1>  -0.1600 
 12 C        2.3160     3.6470    -0.1340 C.ar  1 <1>  -0.1500 
 13 C        1.1400     4.3360    -0.4520 C.ar  1 <1>  -0.1500 
 14 C       -4.6250     0.4030    -0.9970 C.3   1 <1>  -0.0800 
 15 C       -4.6900     2.8660    -0.4600 C.3   1 <1>  -0.0800 
 16 C       -4.8230     1.1710     1.4010 C.3   1 <1>  -0.0800 
 17 C       -5.1120     1.7840    -1.4710 C.3   1 <1>  -0.1600 
 18 C       -5.2400     0.0950     0.3810 C.3   1 <1>  -0.1600 
 19 C       -5.3080     2.5470     0.9130 C.3   1 <1>  -0.1600 
 20 H        3.1340     1.7780     0.5310 H     1 <1>   0.1500 
 21 H       -0.9650     4.2780    -0.6060 H     1 <1>   0.1500 
 22 H       -2.7570    -0.5520    -0.5560 H     1 <1>   0.0800 
 23 H       -2.6530     0.6240    -1.8340 H     1 <1>   0.0800 
 24 H       -2.7360     3.0990    -1.2980 H     1 <1>   0.0800 
 25 H       -2.8730     3.6320     0.3680 H     1 <1>   0.0800 
 26 H       -2.9880     1.9270     2.2390 H     1 <1>   0.0800 
 27 H       -2.9570     0.2260     1.8750 H     1 <1>   0.0800 
 28 H        3.2630     4.1510    -0.2170 H     1 <1>   0.1500 
 29 H        1.2090     5.3610    -0.7740 H     1 <1>   0.1500 
 30 H       -4.9240    -0.3510    -1.7050 H     1 <1>   0.0800 
 31 H       -5.0320     3.8300    -0.7970 H     1 <1>   0.0800 
 32 H       -5.2580     0.9500     2.3610 H     1 <1>   0.0800 
 33 H       -6.1840     1.7770    -1.5700 H     1 <1>   0.0800 
 34 H       -4.6980     2.0050    -2.4400 H     1 <1>   0.0800 
 35 H       -4.9140    -0.8740     0.7180 H     1 <1>   0.0800 
 36 H       -6.3130     0.0660     0.3020 H     1 <1>   0.0800 
 37 H       -6.3820     2.5480     0.8380 H     1 <1>   0.0800 
 38 H       -5.0320     3.3060     1.6250 H     1 <1>   0.0800 
@<TRIPOS>BOND
  1   1   2  2   
  2   1   3  1   
  3   2   4  1   
  4   3   5  1   
  5   3   6  1   
  6   4   5  ar  
  7   4   7  ar  
  8   5   8  ar  
  9   6   9  1   
 10   6  10  1   
 11   6  11  1   
 12   7  12  ar  
 13   7  20  1   
 14   8  13  ar  
 15   8  21  1   
 16   9  14  1   
 17   9  22  1   
 18   9  23  1   
 19  10  15  1   
 20  10  24  1   
 21  10  25  1   
 22  11  16  1   
 23  11  26  1   
 24  11  27  1   
 25  12  13  ar  
 26  12  28  1   
 27  13  29  1   
 28  14  17  1   
 29  14  18  1   
 30  14  30  1   
 31  15  17  1   
 32  15  19  1   
 33  15  31  1   
 34  16  18  1   
 35  16  19  1   
 36  16  32  1   
 37  17  33  1   
 38  17  34  1   
 39  18  35  1   
 40  18  36  1   
 41  19  37  1   
 42  19  38  1   
@<TRIPOS>SUBSTRUCTURE
  1 ****   6 GROUP 4 **** **** 0

# MOE 2024.06 (io_trps.svl 2023.06)
