@<TRIPOS>MOLECULE
NONAME
50 51 1 0 0 
SMALL
USER_CHARGES


@<TRIPOS>ATOM
  1 BR       2.1820    -0.8440     1.5200 Br    1 <1>  -0.1110 
  2 C        0.8240    -1.9110     0.6710 C.ar  1 <1>   0.1110 
  3 C       -0.2580    -2.3230     1.4230 C.ar  1 <1>  -0.1500 
  4 C        0.9660    -2.2340    -0.6630 C.ar  1 <1>  -0.1500 
  5 C       -1.2430    -3.0890     0.8140 C.ar  1 <1>  -0.1440 
  6 C       -0.0150    -3.0000    -1.2680 C.ar  1 <1>  -0.1500 
  7 C       -1.1220    -3.4310    -0.5350 C.ar  1 <1>   0.0830 
  8 C       -2.4400    -3.5460     1.6240 C.3   1 <1>   0.4870 
  9 O       -2.1180    -4.1800    -1.0880 O.3   1 <1>  -0.3630 
 10 N       -3.6730    -3.0570     0.9470 N.4   1 <1>  -0.9590 
 11 C       -1.9160    -4.8330    -2.3300 C.3   1 <1>   0.0400 
 12 C       -3.7200    -1.5580     0.9710 C.3   1 <1>   0.4860 
 13 C       -4.9220    -3.7510     1.4340 C.3   1 <1>   0.3430 
 14 C       -4.8880    -1.0990     0.1260 C.ar  1 <1>  -0.1430 
 15 C       -6.0220    -3.9400     0.3430 C.3   1 <1>   0.3430 
 16 C       -6.0250    -0.5760     0.7270 C.ar  1 <1>  -0.1500 
 17 C       -4.8380    -1.2240    -1.2560 C.ar  1 <1>  -0.1500 
 18 N       -7.3190    -4.5270     0.8430 N.4   1 <1>  -0.9590 
 19 C       -7.1110    -0.2070    -0.0460 C.ar  1 <1>  -0.1500 
 20 C       -5.9260    -0.8550    -2.0260 C.ar  1 <1>  -0.1500 
 21 C       -7.2120    -5.9670     1.2560 C.3   1 <1>   0.2630 
 22 C       -8.3660    -4.3960    -0.2250 C.3   1 <1>   0.2630 
 23 C       -7.0640    -0.3510    -1.4210 C.ar  1 <1>  -0.1500 
 24 H       -0.3040    -2.0420     2.4610 H     1 <1>   0.1500 
 25 H        1.8270    -1.8930    -1.2130 H     1 <1>   0.1500 
 26 H        0.1070    -3.2420    -2.3080 H     1 <1>   0.1500 
 27 H       -2.3810    -3.1660     2.6320 H     1 <1>   0.0800 
 28 H       -2.4370    -4.6240     1.6610 H     1 <1>   0.0800 
 29 H       -3.4840    -3.3120    -0.0400 H     1 <1>   0.4500 
 30 H       -2.7560    -5.4770    -2.5200 H     1 <1>   0.0800 
 31 H       -1.0160    -5.4210    -2.2770 H     1 <1>   0.0800 
 32 H       -1.8420    -4.0960    -3.1110 H     1 <1>   0.0800 
 33 H       -2.8090    -1.1470     0.5650 H     1 <1>   0.0800 
 34 H       -3.8330    -1.1990     1.9810 H     1 <1>   0.0800 
 35 H       -5.3340    -3.1890     2.2560 H     1 <1>   0.0800 
 36 H       -4.6540    -4.7280     1.8000 H     1 <1>   0.0800 
 37 H       -5.6310    -4.5700    -0.4390 H     1 <1>   0.0800 
 38 H       -6.2450    -2.9830    -0.0940 H     1 <1>   0.0800 
 39 H       -6.0790    -0.4390     1.7950 H     1 <1>   0.1500 
 40 H       -3.9550    -1.5980    -1.7510 H     1 <1>   0.1500 
 41 H       -7.6660    -3.9790     1.6490 H     1 <1>   0.4500 
 42 H       -7.9920     0.2100     0.4160 H     1 <1>   0.1500 
 43 H       -5.8880    -0.9440    -3.1000 H     1 <1>   0.1500 
 44 H       -6.8830    -6.5740     0.4280 H     1 <1>   0.0800 
 45 H       -8.1730    -6.3340     1.5820 H     1 <1>   0.0800 
 46 H       -6.5150    -6.0820     2.0700 H     1 <1>   0.0800 
 47 H       -8.0880    -4.9610    -1.1000 H     1 <1>   0.0800 
 48 H       -8.4870    -3.3610    -0.5090 H     1 <1>   0.0800 
 49 H       -9.3160    -4.7630     0.1310 H     1 <1>   0.0800 
 50 H       -7.9060    -0.0530    -2.0240 H     1 <1>   0.1500 
@<TRIPOS>BOND
  1   1   2  1   
  2   2   3  ar  
  3   2   4  ar  
  4   3   5  ar  
  5   3  24  1   
  6   4   6  ar  
  7   4  25  1   
  8   5   7  ar  
  9   5   8  1   
 10   6   7  ar  
 11   6  26  1   
 12   7   9  1   
 13   8  10  1   
 14   8  27  1   
 15   8  28  1   
 16   9  11  1   
 17  10  12  1   
 18  10  13  1   
 19  10  29  1   
 20  11  30  1   
 21  11  31  1   
 22  11  32  1   
 23  12  14  1   
 24  12  33  1   
 25  12  34  1   
 26  13  15  1   
 27  13  35  1   
 28  13  36  1   
 29  14  16  ar  
 30  14  17  ar  
 31  15  18  1   
 32  15  37  1   
 33  15  38  1   
 34  16  19  ar  
 35  16  39  1   
 36  17  20  ar  
 37  17  40  1   
 38  18  21  1   
 39  18  22  1   
 40  18  41  1   
 41  19  23  ar  
 42  19  42  1   
 43  20  23  ar  
 44  20  43  1   
 45  21  44  1   
 46  21  45  1   
 47  21  46  1   
 48  22  47  1   
 49  22  48  1   
 50  22  49  1   
 51  23  50  1   
@<TRIPOS>SUBSTRUCTURE
  1 ****  10 GROUP 4 **** **** 0

# MOE 2024.06 (io_trps.svl 2023.06)
