@<TRIPOS>MOLECULE
NONAME
46 47 1 0 0 
SMALL
USER_CHARGES


@<TRIPOS>ATOM
  1 O        4.5410    -5.9960    -0.0340 O.3   1 <1>  -0.3630 
  2 C        5.2820    -4.8580     0.0250 C.ar  1 <1>   0.0830 
  3 C        3.1520    -5.9810    -0.2700 C.3   1 <1>   0.1200 
  4 C        6.6340    -4.9580     0.3710 C.ar  1 <1>  -0.1440 
  5 C        4.7280    -3.6090    -0.2500 C.ar  1 <1>  -0.1500 
  6 C        2.6560    -7.4280    -0.2200 C.3   1 <1>   0.1100 
  7 C        7.3930    -3.7970     0.4360 C.ar  1 <1>  -0.1500 
  8 C        7.3370    -6.2870     0.6870 C.3   1 <1>   0.0640 
  9 C        5.5020    -2.4660    -0.1800 C.ar  1 <1>  -0.1500 
 10 N        1.1940    -7.5190    -0.4410 N.3   1 <1>  -0.8100 
 11 C        6.8360    -2.5600     0.1640 C.ar  1 <1>  -0.1500 
 12 C        7.3650    -7.2160    -0.5430 C.3   1 <1>  -0.1600 
 13 C        6.7400    -6.9540     1.9350 C.3   1 <1>  -0.2400 
 14 C        0.4220    -7.1140     0.7540 C.3   1 <1>   0.1100 
 15 C        0.8210    -8.8740    -0.8940 C.3   1 <1>   0.1100 
 16 C        8.2840    -8.4340    -0.3700 C.3   1 <1>  -0.2400 
 17 C       -1.0960    -7.1900     0.4930 C.3   1 <1>   0.3430 
 18 C       -0.6910    -8.9740    -1.1820 C.3   1 <1>   0.3430 
 19 N       -1.5060    -8.5490     0.0050 N.4   1 <1>  -0.9060 
 20 H        2.9790    -5.5610    -1.2450 H     1 <1>   0.0800 
 21 H        2.6950    -5.3830     0.4950 H     1 <1>   0.0800 
 22 H        3.6980    -3.4990    -0.5240 H     1 <1>   0.1500 
 23 H        2.9170    -7.8680     0.7280 H     1 <1>   0.0800 
 24 H        3.1710    -7.9670    -0.9980 H     1 <1>   0.0800 
 25 H        8.4340    -3.8430     0.7000 H     1 <1>   0.1500 
 26 H        8.3630    -6.0620     0.9250 H     1 <1>   0.0800 
 27 H        5.0690    -1.5040    -0.3930 H     1 <1>   0.1500 
 28 H        7.4420    -1.6730     0.2210 H     1 <1>   0.1500 
 29 H        7.7070    -6.6460    -1.3890 H     1 <1>   0.0800 
 30 H        6.3710    -7.5590    -0.7680 H     1 <1>   0.0800 
 31 H        5.7630    -7.3480     1.7300 H     1 <1>   0.0800 
 32 H        6.6590    -6.2320     2.7270 H     1 <1>   0.0800 
 33 H        7.3700    -7.7550     2.2730 H     1 <1>   0.0800 
 34 H        0.6690    -6.0990     1.0160 H     1 <1>   0.0800 
 35 H        0.6800    -7.7410     1.5910 H     1 <1>   0.0800 
 36 H        1.1020    -9.6020    -0.1510 H     1 <1>   0.0800 
 37 H        1.3570    -9.1040    -1.8000 H     1 <1>   0.0800 
 38 H        9.2840    -8.1200    -0.1270 H     1 <1>   0.0800 
 39 H        8.3170    -8.9970    -1.2860 H     1 <1>   0.0800 
 40 H        7.9210    -9.0800     0.4090 H     1 <1>   0.0800 
 41 H       -1.3470    -6.4490    -0.2480 H     1 <1>   0.0800 
 42 H       -1.6270    -6.9470     1.3990 H     1 <1>   0.0800 
 43 H       -0.9360    -9.9860    -1.4570 H     1 <1>   0.0800 
 44 H       -0.9150    -8.3370    -2.0230 H     1 <1>   0.0800 
 45 H       -2.5050    -8.5500    -0.2370 H     1 <1>   0.4500 
 46 H       -1.3680    -9.2280     0.7610 H     1 <1>   0.4500 
@<TRIPOS>BOND
  1   1   2  1   
  2   1   3  1   
  3   2   4  ar  
  4   2   5  ar  
  5   3   6  1   
  6   3  20  1   
  7   3  21  1   
  8   4   7  ar  
  9   4   8  1   
 10   5   9  ar  
 11   5  22  1   
 12   6  10  1   
 13   6  23  1   
 14   6  24  1   
 15   7  11  ar  
 16   7  25  1   
 17   8  12  1   
 18   8  13  1   
 19   8  26  1   
 20   9  11  ar  
 21   9  27  1   
 22  10  14  1   
 23  10  15  1   
 24  11  28  1   
 25  12  16  1   
 26  12  29  1   
 27  12  30  1   
 28  13  31  1   
 29  13  32  1   
 30  13  33  1   
 31  14  17  1   
 32  14  34  1   
 33  14  35  1   
 34  15  18  1   
 35  15  36  1   
 36  15  37  1   
 37  16  38  1   
 38  16  39  1   
 39  16  40  1   
 40  17  19  1   
 41  17  41  1   
 42  17  42  1   
 43  18  19  1   
 44  18  43  1   
 45  18  44  1   
 46  19  45  1   
 47  19  46  1   
@<TRIPOS>SUBSTRUCTURE
  1 ****   1 GROUP 4 **** **** 0

# MOE 2024.06 (io_trps.svl 2023.06)
