@<TRIPOS>MOLECULE
NONAME
26 27 1 0 0 
SMALL
USER_CHARGES


@<TRIPOS>ATOM
  1 S       -5.7770    -0.5710    -1.0590 S.3   1 <1>   1.1040 
  2 C       -7.3730    -0.0240    -0.4060 C.ar  1 <1>  -0.1200 
  3 C       -4.6620    -0.3590     0.3160 C.3   1 <1>  -0.1520 
  4 C       -5.8760    -2.3490    -0.9740 C.3   1 <1>  -0.1530 
  5 C       -8.0250     0.9890    -1.0880 C.ar  1 <1>   0.0820 
  6 C       -7.9420    -0.5720     0.7350 C.ar  1 <1>  -0.1500 
  7 C       -4.5040    -1.7270     1.0010 C.3   1 <1>  -0.1600 
  8 C       -4.7350    -2.8170    -0.0580 C.3   1 <1>  -0.1600 
  9 O       -7.4550     1.5070    -2.1890 O.3   1 <1>  -0.5330 
 10 C       -9.2490     1.4650    -0.6440 C.ar  1 <1>  -0.1500 
 11 C       -9.1640    -0.0940     1.1740 C.ar  1 <1>   0.0820 
 12 C       -9.8210     0.9200     0.4930 C.ar  1 <1>  -0.1500 
 13 O       -9.7010    -0.6340     2.2770 O.3   1 <1>  -0.5320 
 14 H       -5.0280     0.3710     1.0160 H     1 <1>   0.0800 
 15 H       -3.7010    -0.0390    -0.0430 H     1 <1>   0.0800 
 16 H       -5.7890    -2.8030    -1.9440 H     1 <1>   0.0800 
 17 H       -6.8160    -2.6420    -0.5420 H     1 <1>   0.0800 
 18 H       -7.4750    -1.3600     1.2990 H     1 <1>   0.1500 
 19 H       -5.2400    -1.8260     1.7810 H     1 <1>   0.0800 
 20 H       -3.5300    -1.8230     1.4550 H     1 <1>   0.0800 
 21 H       -3.8360    -2.9390    -0.6410 H     1 <1>   0.0800 
 22 H       -4.9660    -3.7650     0.4010 H     1 <1>   0.0800 
 23 H       -7.9960     2.2160    -2.5980 H     1 <1>   0.4500 
 24 H       -9.7600     2.2520    -1.1710 H     1 <1>   0.1500 
 25 H      -10.7710     1.2850     0.8440 H     1 <1>   0.1500 
 26 H      -10.5620    -0.2450     2.5230 H     1 <1>   0.4500 
@<TRIPOS>BOND
  1   1   2  1   
  2   1   3  1   
  3   1   4  1   
  4   2   5  ar  
  5   2   6  ar  
  6   3   7  1   
  7   3  14  1   
  8   3  15  1   
  9   4   8  1   
 10   4  16  1   
 11   4  17  1   
 12   5   9  1   
 13   5  10  ar  
 14   6  11  ar  
 15   6  18  1   
 16   7   8  1   
 17   7  19  1   
 18   7  20  1   
 19   8  21  1   
 20   8  22  1   
 21   9  23  1   
 22  10  12  ar  
 23  10  24  1   
 24  11  12  ar  
 25  11  13  1   
 26  12  25  1   
 27  13  26  1   
@<TRIPOS>SUBSTRUCTURE
  1 ****   2 GROUP 4 **** **** 0

# MOE 2024.06 (io_trps.svl 2023.06)
