@<TRIPOS>MOLECULE
NONAME
41 43 1 0 0 
SMALL
USER_CHARGES


@<TRIPOS>ATOM
  1 O        0.6820    -0.4700    -0.7720 O.co2 1 <1>  -0.9000 
  2 C        1.6320     0.2810    -1.0290 C.2   1 <1>   0.9060 
  3 O        2.0670     0.4120    -2.1750 O.co2 1 <1>  -0.9000 
  4 C        2.2090     1.0940     0.1240 C.3   1 <1>  -0.1860 
  5 C        1.4510     2.5770     0.4260 C.3   1 <1>  -0.0190 
  6 C        3.8160     1.3810    -0.0490 C.3   1 <1>  -0.0800 
  7 C        0.1080     2.8830    -0.2620 C.2   1 <1>   0.5690 
  8 C        2.5940     3.7440     0.2310 C.3   1 <1>  -0.0800 
  9 C        3.2080     2.5590     0.1160 C.3   1 <1>  -0.1600 
 10 C        4.9450     2.5550    -0.1930 C.3   1 <1>  -0.1600 
 11 O       -0.1990     4.0340    -0.4800 O.2   1 <1>  -0.5700 
 12 N       -0.7510     1.8780    -0.5480 N.am  1 <1>  -0.7300 
 13 C        4.1980     4.0200     0.1040 C.3   1 <1>  -0.1600 
 14 C       -1.9790     2.0010    -1.3410 C.3   1 <1>   0.2840 
 15 C       -3.0560     1.0930    -0.7670 C.ar  1 <1>  -0.1430 
 16 C       -4.2480     1.6200    -0.2940 C.ar  1 <1>  -0.1500 
 17 C       -2.8560    -0.2780    -0.7150 C.ar  1 <1>  -0.1500 
 18 C       -5.2290     0.7860     0.2150 C.ar  1 <1>  -0.1500 
 19 C       -3.8370    -1.1110    -0.2050 C.ar  1 <1>  -0.1500 
 20 C       -5.0300    -0.5840     0.2630 C.ar  1 <1>  -0.1430 
 21 C       -6.1040    -1.4980     0.8220 C.3   1 <1>  -0.0970 
 22 H        2.0620     0.4720     0.9910 H     1 <1>   0.0800 
 23 H        1.1840     2.5730     1.4720 H     1 <1>   0.0800 
 24 H        4.2120     0.8200     0.7850 H     1 <1>   0.0800 
 25 H        2.2370     4.2710    -0.6450 H     1 <1>   0.0800 
 26 H        3.0350     2.6100    -1.0480 H     1 <1>   0.0800 
 27 H        3.3730     2.4890     1.2770 H     1 <1>   0.0800 
 28 H        5.3500     2.5430    -1.1940 H     1 <1>   0.0800 
 29 H        5.7620     2.3970     0.4920 H     1 <1>   0.0800 
 30 H       -0.3980     0.9010    -0.4980 H     1 <1>   0.3700 
 31 H        4.5730     4.4510     1.0200 H     1 <1>   0.0800 
 32 H        4.4060     4.7160    -0.6930 H     1 <1>   0.0800 
 33 H       -1.7640     1.7060    -2.3540 H     1 <1>   0.0800 
 34 H       -2.3100     3.0240    -1.3470 H     1 <1>   0.0800 
 35 H       -4.4130     2.6820    -0.3200 H     1 <1>   0.1500 
 36 H       -1.9260    -0.6990    -1.0700 H     1 <1>   0.1500 
 37 H       -6.1490     1.2110     0.5760 H     1 <1>   0.1500 
 38 H       -3.6570    -2.1700    -0.1750 H     1 <1>   0.1500 
 39 H       -6.6670    -0.9930     1.5850 H     1 <1>   0.0800 
 40 H       -5.6600    -2.3770     1.2530 H     1 <1>   0.0800 
 41 H       -6.7720    -1.7960     0.0340 H     1 <1>   0.0800 
@<TRIPOS>BOND
  1   1   2  ar  
  2   2   3  ar  
  3   2   4  1   
  4   4   5  1   
  5   4   6  1   
  6   4  22  1   
  7   5   7  1   
  8   5   8  1   
  9   5  23  1   
 10   6   9  1   
 11   6  10  1   
 12   6  24  1   
 13   7  11  2   
 14   7  12  am  
 15   8   9  1   
 16   8  13  1   
 17   8  25  1   
 18   9  26  1   
 19   9  27  1   
 20  10  13  1   
 21  10  28  1   
 22  10  29  1   
 23  12  14  1   
 24  12  30  1   
 25  13  31  1   
 26  13  32  1   
 27  14  15  1   
 28  14  33  1   
 29  14  34  1   
 30  15  16  ar  
 31  15  17  ar  
 32  16  18  ar  
 33  16  35  1   
 34  17  19  ar  
 35  17  36  1   
 36  18  20  ar  
 37  18  37  1   
 38  19  20  ar  
 39  19  38  1   
 40  20  21  1   
 41  21  39  1   
 42  21  40  1   
 43  21  41  1   
@<TRIPOS>SUBSTRUCTURE
  1 ****  12 GROUP 4 **** **** 0

# MOE 2024.06 (io_trps.svl 2023.06)
