@<TRIPOS>MOLECULE
NONAME
36 39 1 0 0 
SMALL
USER_CHARGES


@<TRIPOS>ATOM
  1 O       -0.3780     0.6660    -1.6480 O.2   1 <1>  -0.5700 
  2 C       -0.5650     1.5750    -0.8810 C.2   1 <1>   0.5690 
  3 N        0.2950     2.6040    -0.5820 N.am  1 <1>  -0.4200 
  4 C       -1.7620     1.7600    -0.0010 C.3   1 <1>  -0.0190 
  5 C       -0.3560     3.5700     0.1520 C.2   1 <1>   0.5690 
  6 C        1.7610     2.5630    -0.8140 C.3   1 <1>   0.1400 
  7 C       -3.2330     1.4100     0.1900 C.3   1 <1>   0.3380 
  8 C       -1.8240     3.2860     0.0250 C.3   1 <1>  -0.0190 
  9 O        0.1270     4.5130     0.7210 O.2   1 <1>  -0.5700 
 10 C        2.4160     1.3000    -0.2240 C.3   1 <1>   0.3440 
 11 O       -3.4010     2.2280     1.3120 O.3   1 <1>  -0.5600 
 12 C       -4.2050     2.1400    -0.7220 C.2   1 <1>  -0.2880 
 13 C       -3.1570     3.4920     0.7720 C.3   1 <1>   0.3380 
 14 O        2.0380     1.1300     1.0990 O.3   1 <1>  -0.6800 
 15 C        3.9360     1.3790    -0.2670 C.ar  1 <1>  -0.1440 
 16 C       -4.2030     3.4110    -0.3230 C.2   1 <1>  -0.2880 
 17 C        4.6290     2.2690     0.5430 C.ar  1 <1>  -0.1500 
 18 C        4.6470     0.5570    -1.1290 C.ar  1 <1>  -0.1500 
 19 C        6.0100     2.3360     0.4920 C.ar  1 <1>  -0.1500 
 20 C        6.0290     0.6230    -1.1810 C.ar  1 <1>  -0.1500 
 21 C        6.7110     1.5130    -0.3700 C.ar  1 <1>  -0.1500 
 22 H       -1.3450     1.4090     0.9330 H     1 <1>   0.0800 
 23 H        2.2150     3.4340    -0.3750 H     1 <1>   0.0800 
 24 H        1.9480     2.5920    -1.8720 H     1 <1>   0.0800 
 25 H       -3.4700     0.3890     0.4370 H     1 <1>   0.0800 
 26 H       -2.0060     3.6620    -0.9700 H     1 <1>   0.0800 
 27 H        2.0830     0.4330    -0.7670 H     1 <1>   0.0800 
 28 H       -4.7430     1.6200    -1.4940 H     1 <1>   0.1500 
 29 H       -3.2440     4.2770     1.5040 H     1 <1>   0.0800 
 30 H        2.6860     0.5380     1.5290 H     1 <1>   0.4000 
 31 H       -4.7420     4.2810    -0.6540 H     1 <1>   0.1500 
 32 H        4.0930     2.9150     1.2200 H     1 <1>   0.1500 
 33 H        4.1330    -0.1410    -1.7670 H     1 <1>   0.1500 
 34 H        6.5380     3.0290     1.1240 H     1 <1>   0.1500 
 35 H        6.5740    -0.0180    -1.8520 H     1 <1>   0.1500 
 36 H        7.7850     1.5650    -0.4100 H     1 <1>   0.1500 
@<TRIPOS>BOND
  1   1   2  2   
  2   2   3  am  
  3   2   4  1   
  4   3   5  am  
  5   3   6  1   
  6   4   7  1   
  7   4   8  1   
  8   4  22  1   
  9   5   8  1   
 10   5   9  2   
 11   6  10  1   
 12   6  23  1   
 13   6  24  1   
 14   7  11  1   
 15   7  12  1   
 16   7  25  1   
 17   8  13  1   
 18   8  26  1   
 19  10  14  1   
 20  10  15  1   
 21  10  27  1   
 22  11  13  1   
 23  12  16  2   
 24  12  28  1   
 25  13  16  1   
 26  13  29  1   
 27  14  30  1   
 28  15  17  ar  
 29  15  18  ar  
 30  16  31  1   
 31  17  19  ar  
 32  17  32  1   
 33  18  20  ar  
 34  18  33  1   
 35  19  21  ar  
 36  19  34  1   
 37  20  21  ar  
 38  20  35  1   
 39  21  36  1   
@<TRIPOS>SUBSTRUCTURE
  1 ****   3 GROUP 4 **** **** 0

# MOE 2024.06 (io_trps.svl 2023.06)
