@<TRIPOS>MOLECULE
NONAME
49 51 1 0 0 
SMALL
USER_CHARGES


@<TRIPOS>ATOM
  1 S        2.0420     0.3720    -1.4040 S.o2  1 <1>   1.3330 
  2 O        2.9280     1.2890    -2.0800 O.2   1 <1>  -0.6500 
  3 O        2.3470    -1.0340    -1.3810 O.2   1 <1>  -0.6500 
  4 N        1.9610     0.9290     0.2340 N.am  1 <1>  -0.6930 
  5 C        0.3680     0.5800    -1.9740 C.3   1 <1>  -0.1350 
  6 C        1.4190     2.1720     0.5420 C.ar  1 <1>   0.1990 
  7 C        2.8000     0.2720     1.2910 C.3   1 <1>   0.3370 
  8 C        1.9810     3.3520     0.0690 C.ar  1 <1>  -0.1500 
  9 C        0.2880     2.2490     1.3440 C.ar  1 <1>  -0.1500 
 10 C        4.3220     0.1590     1.0090 C.2   1 <1>   0.5690 
 11 C        2.1470    -1.0550     1.7080 C.3   1 <1>  -0.2400 
 12 C        1.4200     4.5760     0.3840 C.ar  1 <1>  -0.1500 
 13 C       -0.2750     3.4720     1.6600 C.ar  1 <1>  -0.1500 
 14 O        4.9850    -0.5080     1.7700 O.2   1 <1>  -0.5700 
 15 N        4.8860     0.8460    -0.0370 N.am  1 <1>  -0.5470 
 16 C        0.2890     4.6440     1.1820 C.ar  1 <1>  -0.1430 
 17 C        6.2210     0.9570    -0.4540 C.ar  1 <1>   0.1170 
 18 C       -0.3270     5.9880     1.5260 C.3   1 <1>  -0.0970 
 19 C        7.3010     0.8400     0.4160 C.ar  1 <1>  -0.1500 
 20 C        6.4700     1.2180    -1.7980 C.ar  1 <1>  -0.1500 
 21 C        8.5960     0.9760    -0.0480 C.ar  1 <1>   0.0830 
 22 C        7.7640     1.3600    -2.2710 C.ar  1 <1>  -0.1500 
 23 O        9.6260     0.8430     0.8270 O.3   1 <1>  -0.3620 
 24 C        8.8310     1.2460    -1.3980 C.ar  1 <1>   0.0830 
 25 C       10.9130     0.6530     0.2720 C.3   1 <1>   0.1200 
 26 O       10.0940     1.4050    -1.8800 O.3   1 <1>  -0.3630 
 27 C       11.1170     1.5960    -0.9210 C.3   1 <1>   0.1200 
 28 H        0.2850     0.2580    -2.9930 H     1 <1>   0.0800 
 29 H        0.0790     1.6110    -1.9150 H     1 <1>   0.0800 
 30 H       -0.3020    -0.0030    -1.3730 H     1 <1>   0.0800 
 31 H        2.7440     0.9030     2.1600 H     1 <1>   0.0800 
 32 H        2.8620     3.3200    -0.5450 H     1 <1>   0.1500 
 33 H       -0.1550     1.3450     1.7190 H     1 <1>   0.1500 
 34 H        2.3070    -1.8160     0.9680 H     1 <1>   0.0800 
 35 H        1.0940    -0.9260     1.8740 H     1 <1>   0.0800 
 36 H        2.5940    -1.3990     2.6240 H     1 <1>   0.0800 
 37 H        1.8680     5.4790     0.0050 H     1 <1>   0.1500 
 38 H       -1.1530     3.5110     2.2810 H     1 <1>   0.1500 
 39 H        4.2180     1.2590    -0.6980 H     1 <1>   0.3700 
 40 H        0.4270     6.7530     1.5500 H     1 <1>   0.0800 
 41 H       -0.8000     5.9490     2.4910 H     1 <1>   0.0800 
 42 H       -1.0650     6.2500     0.7890 H     1 <1>   0.0800 
 43 H        7.1420     0.6410     1.4590 H     1 <1>   0.1500 
 44 H        5.6440     1.3060    -2.4820 H     1 <1>   0.1500 
 45 H        7.9500     1.5600    -3.3100 H     1 <1>   0.1500 
 46 H       10.9930    -0.3720    -0.0430 H     1 <1>   0.0800 
 47 H       11.6370     0.8450     1.0420 H     1 <1>   0.0800 
 48 H       12.0600     1.4070    -1.4020 H     1 <1>   0.0800 
 49 H       11.0840     2.6210    -0.5970 H     1 <1>   0.0800 
@<TRIPOS>BOND
  1   1   2  2   
  2   1   3  2   
  3   1   4  am  
  4   1   5  1   
  5   4   6  1   
  6   4   7  1   
  7   5  28  1   
  8   5  29  1   
  9   5  30  1   
 10   6   8  ar  
 11   6   9  ar  
 12   7  10  1   
 13   7  11  1   
 14   7  31  1   
 15   8  12  ar  
 16   8  32  1   
 17   9  13  ar  
 18   9  33  1   
 19  10  14  2   
 20  10  15  am  
 21  11  34  1   
 22  11  35  1   
 23  11  36  1   
 24  12  16  ar  
 25  12  37  1   
 26  13  16  ar  
 27  13  38  1   
 28  15  17  1   
 29  15  39  1   
 30  16  18  1   
 31  17  19  ar  
 32  17  20  ar  
 33  18  40  1   
 34  18  41  1   
 35  18  42  1   
 36  19  21  ar  
 37  19  43  1   
 38  20  22  ar  
 39  20  44  1   
 40  21  23  1   
 41  21  24  ar  
 42  22  24  ar  
 43  22  45  1   
 44  23  25  1   
 45  24  26  1   
 46  25  27  1   
 47  25  46  1   
 48  25  47  1   
 49  26  27  1   
 50  27  48  1   
 51  27  49  1   
@<TRIPOS>SUBSTRUCTURE
  1 ****  15 GROUP 4 **** **** 0

# MOE 2024.06 (io_trps.svl 2023.06)
