@<TRIPOS>MOLECULE
NONAME
50 53 1 0 0 
SMALL
USER_CHARGES


@<TRIPOS>ATOM
  1 N       -3.9900     3.5890    -0.2630 N.pl3 1 <1>  -0.7030 
  2 C       -3.2140     2.5480     0.0170 C.cat 1 <1>   1.0690 
  3 C       -5.3030     3.2700    -0.0070 C.ar  1 <1>   0.3030 
  4 N       -1.8750     2.5950    -0.1390 N.pl3 1 <1>  -0.5960 
  5 N       -3.9830     1.5130     0.4340 N.pl3 1 <1>  -0.7670 
  6 C       -5.3080     1.9620     0.4380 C.ar  1 <1>   0.3030 
  7 C       -6.4760     4.0040    -0.1250 C.ar  1 <1>  -0.1160 
  8 C       -1.1780     3.7410    -0.7910 C.3   1 <1>   0.1610 
  9 C       -0.8610     1.6250     0.3500 C.3   1 <1>   0.1610 
 10 C       -3.6350     0.1130     0.8210 C.3   1 <1>   0.3480 
 11 C       -6.5110     1.3500     0.7850 C.ar  1 <1>  -0.1160 
 12 C       -7.6670     3.3930     0.2170 C.ar  1 <1>  -0.1570 
 13 C        0.2510     3.2710    -1.0120 C.3   1 <1>  -0.1670 
 14 C        0.4940     2.2780     0.1130 C.3   1 <1>  -0.1670 
 15 C       -3.7040    -0.8430    -0.3980 C.3   1 <1>   0.3370 
 16 C       -7.6830     2.0740     0.6700 C.ar  1 <1>  -0.1570 
 17 N       -3.5460    -2.3040    -0.0710 N.4   1 <1>  -0.9610 
 18 C       -2.1990    -2.6610     0.4750 C.3   1 <1>   0.3370 
 19 C       -3.8460    -3.1330    -1.2810 C.3   1 <1>   0.3370 
 20 C       -2.1940    -4.1260     0.9110 C.3   1 <1>  -0.1670 
 21 C       -3.8840    -4.6110    -0.8930 C.3   1 <1>  -0.1670 
 22 C       -2.5700    -5.0600    -0.2440 C.3   1 <1>  -0.1670 
 23 H       -3.6560     4.4980    -0.5730 H     1 <1>   0.4450 
 24 H       -6.4550     5.0220    -0.4730 H     1 <1>   0.1430 
 25 H       -1.1810     4.5880    -0.1240 H     1 <1>   0.0720 
 26 H       -1.6410     4.0090    -1.7260 H     1 <1>   0.0720 
 27 H       -0.9250     0.7160    -0.2240 H     1 <1>   0.0720 
 28 H       -0.9920     1.4210     1.4000 H     1 <1>   0.0720 
 29 H       -4.3350    -0.2200     1.5680 H     1 <1>   0.0720 
 30 H       -2.6610     0.0770     1.2660 H     1 <1>   0.0720 
 31 H       -6.5420     0.3380     1.1420 H     1 <1>   0.1430 
 32 H       -8.5960     3.9360     0.1360 H     1 <1>   0.1430 
 33 H        0.9510     4.0890    -0.9940 H     1 <1>   0.0720 
 34 H        0.3230     2.7760    -1.9660 H     1 <1>   0.0720 
 35 H        1.2540     1.5580    -0.1360 H     1 <1>   0.0720 
 36 H        0.7970     2.8030     1.0040 H     1 <1>   0.0720 
 37 H       -2.9430    -0.5590    -1.1050 H     1 <1>   0.0720 
 38 H       -4.6620    -0.7030    -0.8710 H     1 <1>   0.0720 
 39 H       -8.6280     1.6230     0.9330 H     1 <1>   0.1430 
 40 H       -4.2400    -2.6000     0.6320 H     1 <1>   0.4450 
 41 H       -1.9600    -2.0430     1.3240 H     1 <1>   0.0720 
 42 H       -1.4460    -2.5120    -0.2820 H     1 <1>   0.0720 
 43 H       -3.0860    -2.9780    -2.0300 H     1 <1>   0.0720 
 44 H       -4.7990    -2.8520    -1.6980 H     1 <1>   0.0720 
 45 H       -2.8780    -4.2620     1.7310 H     1 <1>   0.0720 
 46 H       -1.2120    -4.3850     1.2680 H     1 <1>   0.0720 
 47 H       -4.0620    -5.2010    -1.7760 H     1 <1>   0.0720 
 48 H       -4.7060    -4.7870    -0.2210 H     1 <1>   0.0720 
 49 H       -2.6660    -6.0710     0.1170 H     1 <1>   0.0720 
 50 H       -1.7850    -5.0520    -0.9830 H     1 <1>   0.0720 
@<TRIPOS>BOND
  1   1   2  ar  
  2   1   3  1   
  3   1  23  1   
  4   2   4  ar  
  5   2   5  ar  
  6   3   6  ar  
  7   3   7  ar  
  8   4   8  1   
  9   4   9  1   
 10   5   6  1   
 11   5  10  1   
 12   6  11  ar  
 13   7  12  ar  
 14   7  24  1   
 15   8  13  1   
 16   8  25  1   
 17   8  26  1   
 18   9  14  1   
 19   9  27  1   
 20   9  28  1   
 21  10  15  1   
 22  10  29  1   
 23  10  30  1   
 24  11  16  ar  
 25  11  31  1   
 26  12  16  ar  
 27  12  32  1   
 28  13  14  1   
 29  13  33  1   
 30  13  34  1   
 31  14  35  1   
 32  14  36  1   
 33  15  17  1   
 34  15  37  1   
 35  15  38  1   
 36  16  39  1   
 37  17  18  1   
 38  17  19  1   
 39  17  40  1   
 40  18  20  1   
 41  18  41  1   
 42  18  42  1   
 43  19  21  1   
 44  19  43  1   
 45  19  44  1   
 46  20  22  1   
 47  20  45  1   
 48  20  46  1   
 49  21  22  1   
 50  21  47  1   
 51  21  48  1   
 52  22  49  1   
 53  22  50  1   
@<TRIPOS>SUBSTRUCTURE
  1 ****  10 GROUP 4 **** **** 0

# MOE 2024.06 (io_trps.svl 2023.06)
