@<TRIPOS>MOLECULE
NONAME
55 57 1 0 0 
SMALL
USER_CHARGES


@<TRIPOS>ATOM
  1 O       -0.5670     1.4980     1.1580 O.2   1 <1>  -0.5700 
  2 C       -0.7550     0.3190     0.9250 C.2   1 <1>   0.5440 
  3 N        0.2840    -0.4800     0.5110 N.am  1 <1>  -0.5470 
  4 C       -2.0760    -0.2550     1.0880 C.ar  1 <1>   0.0860 
  5 C        1.6560    -0.2570     0.2930 C.ar  1 <1>   0.1170 
  6 C       -2.5800    -1.2740     0.2620 C.ar  1 <1>   0.0830 
  7 C       -2.9010     0.1990     2.1180 C.ar  1 <1>  -0.1500 
  8 C        2.3820    -1.1710    -0.4760 C.ar  1 <1>  -0.1440 
  9 C        2.3270     0.8390     0.8290 C.ar  1 <1>  -0.1500 
 10 O       -1.8610    -1.7260    -0.7900 O.3   1 <1>  -0.3630 
 11 C       -3.8280    -1.8460     0.4970 C.ar  1 <1>  -0.1430 
 12 C       -4.1480    -0.3490     2.3440 C.ar  1 <1>  -0.1500 
 13 C        3.7340    -0.9670    -0.6990 C.ar  1 <1>  -0.1500 
 14 C        1.7150    -2.3980    -1.0870 C.3   1 <1>  -0.0970 
 15 C        3.6750     1.0400     0.6040 C.ar  1 <1>  -0.1500 
 16 C       -1.9070    -0.9430    -1.9650 C.3   1 <1>   0.0400 
 17 C       -4.6080    -1.3760     1.5390 C.ar  1 <1>  -0.1500 
 18 C       -4.3510    -2.9780    -0.3770 C.3   1 <1>  -0.0970 
 19 C        4.3900     0.1290    -0.1650 C.ar  1 <1>   0.0830 
 20 O        5.7170     0.2390    -0.4340 O.3   1 <1>  -0.3630 
 21 C        6.4930     1.2790     0.1460 C.3   1 <1>   0.1810 
 22 C        7.9750     1.1430    -0.2000 C.2   1 <1>   0.5690 
 23 O        8.5080     2.1010    -0.7130 O.2   1 <1>  -0.5700 
 24 N        8.6880     0.0020     0.0890 N.am  1 <1>  -0.6600 
 25 C        8.1300    -1.2240     0.7380 C.3   1 <1>   0.1400 
 26 C       10.1200    -0.1460    -0.3080 C.3   1 <1>   0.1400 
 27 C        9.0810    -1.7480     1.8280 C.3   1 <1>   0.1200 
 28 C       10.9510    -0.7270     0.8470 C.3   1 <1>   0.1200 
 29 O       10.3760    -1.9110     1.3250 O.3   1 <1>  -0.5600 
 30 H       -0.0430    -1.3950     0.1950 H     1 <1>   0.3700 
 31 H       -2.5490     0.9940     2.7530 H     1 <1>   0.1500 
 32 H        1.7950     1.5500     1.4330 H     1 <1>   0.1500 
 33 H       -4.7620     0.0190     3.1480 H     1 <1>   0.1500 
 34 H        4.3030    -1.6590    -1.2930 H     1 <1>   0.1500 
 35 H        1.2830    -3.0100    -0.3150 H     1 <1>   0.0800 
 36 H        2.4270    -2.9950    -1.6290 H     1 <1>   0.0800 
 37 H        0.9430    -2.0950    -1.7710 H     1 <1>   0.0800 
 38 H        4.1390     1.9070     1.0330 H     1 <1>   0.1500 
 39 H       -1.4480     0.0120    -1.7750 H     1 <1>   0.0800 
 40 H       -2.9340    -0.8090    -2.2560 H     1 <1>   0.0800 
 41 H       -1.3700    -1.4610    -2.7390 H     1 <1>   0.0800 
 42 H       -5.5780    -1.8010     1.7310 H     1 <1>   0.1500 
 43 H       -3.6100    -3.7540    -0.4550 H     1 <1>   0.0800 
 44 H       -4.5700    -2.6090    -1.3620 H     1 <1>   0.0800 
 45 H       -5.2460    -3.4060     0.0370 H     1 <1>   0.0800 
 46 H        6.3750     1.2400     1.2130 H     1 <1>   0.0800 
 47 H        6.1250     2.2160    -0.2280 H     1 <1>   0.0800 
 48 H        7.9950    -1.9860    -0.0100 H     1 <1>   0.0800 
 49 H        7.1730    -1.0250     1.1840 H     1 <1>   0.0800 
 50 H       10.5340     0.8040    -0.5970 H     1 <1>   0.0800 
 51 H       10.1840    -0.8050    -1.1560 H     1 <1>   0.0800 
 52 H        8.7450    -2.7060     2.1830 H     1 <1>   0.0800 
 53 H        9.1180    -1.0660     2.6590 H     1 <1>   0.0800 
 54 H       11.0160    -0.0210     1.6570 H     1 <1>   0.0800 
 55 H       11.9450    -0.9570     0.5090 H     1 <1>   0.0800 
@<TRIPOS>BOND
  1   1   2  2   
  2   2   3  am  
  3   2   4  1   
  4   3   5  1   
  5   3  30  1   
  6   4   6  ar  
  7   4   7  ar  
  8   5   8  ar  
  9   5   9  ar  
 10   6  10  1   
 11   6  11  ar  
 12   7  12  ar  
 13   7  31  1   
 14   8  13  ar  
 15   8  14  1   
 16   9  15  ar  
 17   9  32  1   
 18  10  16  1   
 19  11  17  ar  
 20  11  18  1   
 21  12  17  ar  
 22  12  33  1   
 23  13  19  ar  
 24  13  34  1   
 25  14  35  1   
 26  14  36  1   
 27  14  37  1   
 28  15  19  ar  
 29  15  38  1   
 30  16  39  1   
 31  16  40  1   
 32  16  41  1   
 33  17  42  1   
 34  18  43  1   
 35  18  44  1   
 36  18  45  1   
 37  19  20  1   
 38  20  21  1   
 39  21  22  1   
 40  21  46  1   
 41  21  47  1   
 42  22  23  2   
 43  22  24  am  
 44  24  25  1   
 45  24  26  1   
 46  25  27  1   
 47  25  48  1   
 48  25  49  1   
 49  26  28  1   
 50  26  50  1   
 51  26  51  1   
 52  27  29  1   
 53  27  52  1   
 54  27  53  1   
 55  28  29  1   
 56  28  54  1   
 57  28  55  1   
@<TRIPOS>SUBSTRUCTURE
  1 ****   5 GROUP 4 **** **** 0

# MOE 2024.06 (io_trps.svl 2023.06)
