@<TRIPOS>MOLECULE
NONAME
52 54 1 0 0 
SMALL
USER_CHARGES


@<TRIPOS>ATOM
  1 O        0.1260    -5.6090     1.6430 O.2   1 <1>  -0.5700 
  2 C       -0.5210    -6.1440     0.7690 C.2   1 <1>   0.5690 
  3 N        0.1200    -6.8960    -0.1820 N.am  1 <1>  -0.7300 
  4 C       -2.0670    -5.9620     0.7010 C.3   1 <1>   0.3480 
  5 C        1.5470    -7.3550    -0.2480 C.3   1 <1>   0.1400 
  6 C       -2.6280    -7.1480    -0.1330 C.ar  1 <1>  -0.1440 
  7 C       -2.4670    -4.6080     0.0630 C.ar  1 <1>  -0.1440 
  8 C       -2.6600    -5.9440     2.1270 C.3   1 <1>  -0.2400 
  9 C        2.6020    -6.3940     0.3550 C.3   1 <1>   0.3430 
 10 C       -2.7110    -7.0530    -1.5220 C.ar  1 <1>  -0.1500 
 11 C       -3.0150    -8.3480     0.4590 C.ar  1 <1>  -0.1500 
 12 C       -1.5690    -3.5540    -0.0910 C.ar  1 <1>  -0.1500 
 13 C       -3.7790    -4.4090    -0.3580 C.ar  1 <1>  -0.1500 
 14 N        2.3100    -4.9560     0.0770 N.4   1 <1>  -0.9590 
 15 C       -3.1690    -8.1100    -2.2880 C.ar  1 <1>  -0.1500 
 16 C       -3.4730    -9.4060    -0.3060 C.ar  1 <1>  -0.1500 
 17 C       -1.9610    -2.3600    -0.6690 C.ar  1 <1>  -0.1500 
 18 C       -4.1740    -3.2160    -0.9370 C.ar  1 <1>  -0.1500 
 19 C        2.1540    -4.5820    -1.3690 C.3   1 <1>   0.3430 
 20 C        3.1830    -3.9980     0.8220 C.3   1 <1>   0.3430 
 21 C       -3.5510    -9.2900    -1.6800 C.ar  1 <1>  -0.1500 
 22 C       -3.2630    -2.1900    -1.0970 C.ar  1 <1>  -0.1500 
 23 C        2.0100    -3.0550    -1.5610 C.3   1 <1>   0.1200 
 24 C        2.7060    -2.5380     0.6340 C.3   1 <1>   0.1200 
 25 O        1.7090    -2.4220    -0.3490 O.3   1 <1>  -0.5600 
 26 H       -0.5140    -7.4100    -0.8130 H     1 <1>   0.3700 
 27 H        1.7980    -7.5220    -1.2810 H     1 <1>   0.0800 
 28 H        1.6260    -8.3060     0.2500 H     1 <1>   0.0800 
 29 H       -2.2850    -6.7620     2.7140 H     1 <1>   0.0800 
 30 H       -3.7330    -5.9960     2.0900 H     1 <1>   0.0800 
 31 H       -2.3820    -5.0320     2.6250 H     1 <1>   0.0800 
 32 H        3.5790    -6.6560    -0.0170 H     1 <1>   0.0800 
 33 H        2.6080    -6.5440     1.4230 H     1 <1>   0.0800 
 34 H       -2.4220    -6.1480    -2.0300 H     1 <1>   0.1500 
 35 H       -2.9650    -8.4910     1.5230 H     1 <1>   0.1500 
 36 H       -0.5530    -3.6220     0.2440 H     1 <1>   0.1500 
 37 H       -4.5110    -5.1910    -0.2400 H     1 <1>   0.1500 
 38 H        1.3690    -4.8170     0.5020 H     1 <1>   0.4500 
 39 H       -3.2330    -8.0130    -3.3580 H     1 <1>   0.1500 
 40 H       -3.7710   -10.3250     0.1710 H     1 <1>   0.1500 
 41 H       -1.2490    -1.5590    -0.7790 H     1 <1>   0.1500 
 42 H       -5.1920    -3.0870    -1.2610 H     1 <1>   0.1500 
 43 H        1.2770    -5.0640    -1.7690 H     1 <1>   0.0800 
 44 H        3.0020    -4.9250    -1.9370 H     1 <1>   0.0800 
 45 H        4.1980    -4.0820     0.4720 H     1 <1>   0.0800 
 46 H        3.1790    -4.2350     1.8740 H     1 <1>   0.0800 
 47 H       -3.9110   -10.1130    -2.2730 H     1 <1>   0.1500 
 48 H       -3.5690    -1.2610    -1.5470 H     1 <1>   0.1500 
 49 H        1.2130    -2.8430    -2.2530 H     1 <1>   0.0800 
 50 H        2.9190    -2.6310    -1.9520 H     1 <1>   0.0800 
 51 H        3.5320    -1.9040     0.3610 H     1 <1>   0.0800 
 52 H        2.2920    -2.1680     1.5560 H     1 <1>   0.0800 
@<TRIPOS>BOND
  1   1   2  2   
  2   2   3  am  
  3   2   4  1   
  4   3   5  1   
  5   3  26  1   
  6   4   6  1   
  7   4   7  1   
  8   4   8  1   
  9   5   9  1   
 10   5  27  1   
 11   5  28  1   
 12   6  10  ar  
 13   6  11  ar  
 14   7  12  ar  
 15   7  13  ar  
 16   8  29  1   
 17   8  30  1   
 18   8  31  1   
 19   9  14  1   
 20   9  32  1   
 21   9  33  1   
 22  10  15  ar  
 23  10  34  1   
 24  11  16  ar  
 25  11  35  1   
 26  12  17  ar  
 27  12  36  1   
 28  13  18  ar  
 29  13  37  1   
 30  14  19  1   
 31  14  20  1   
 32  14  38  1   
 33  15  21  ar  
 34  15  39  1   
 35  16  21  ar  
 36  16  40  1   
 37  17  22  ar  
 38  17  41  1   
 39  18  22  ar  
 40  18  42  1   
 41  19  23  1   
 42  19  43  1   
 43  19  44  1   
 44  20  24  1   
 45  20  45  1   
 46  20  46  1   
 47  21  47  1   
 48  22  48  1   
 49  23  25  1   
 50  23  49  1   
 51  23  50  1   
 52  24  25  1   
 53  24  51  1   
 54  24  52  1   
@<TRIPOS>SUBSTRUCTURE
  1 ****   2 GROUP 4 **** **** 0

# MOE 2024.06 (io_trps.svl 2023.06)
