@<TRIPOS>MOLECULE
NONAME
31 32 1 0 0 
SMALL
USER_CHARGES


@<TRIPOS>ATOM
  1 CL       0.2060     0.2640     0.6850 Cl    1 <1>  -0.1770 
  2 C        1.6010    -0.7340     0.3650 C.ar  1 <1>   0.1770 
  3 C        2.7770    -0.1420    -0.0530 C.ar  1 <1>  -0.1500 
  4 C        1.5080    -2.1000     0.5340 C.ar  1 <1>  -0.1500 
  5 C        3.9000    -0.9180    -0.3140 C.ar  1 <1>  -0.0090 
  6 C        2.6160    -2.8870     0.2790 C.ar  1 <1>  -0.1500 
  7 S        5.4390    -0.1560    -0.8830 S.o2  1 <1>   1.4470 
  8 C        3.8100    -2.3000    -0.1440 C.ar  1 <1>   0.0830 
  9 O        5.7950    -0.6660    -2.1880 O.2   1 <1>  -0.6500 
 10 O        5.3670     1.2750    -0.6790 O.2   1 <1>  -0.6500 
 11 N        6.5940    -0.7650     0.1720 N.am  1 <1>  -0.7890 
 12 O        4.9220    -3.0350    -0.4020 O.3   1 <1>  -0.3630 
 13 C        7.9160    -0.2490    -0.0720 C.3   1 <1>   0.1310 
 14 C        4.8900    -4.4400    -0.5050 C.3   1 <1>   0.1200 
 15 C        8.9380    -0.4460     0.9940 C.3   1 <1>  -0.2000 
 16 C        8.3740     0.9200     0.7280 C.3   1 <1>  -0.2000 
 17 C        6.2770    -4.9050    -0.9380 C.3   1 <1>  -0.2400 
 18 H        2.8140     0.9270    -0.1740 H     1 <1>   0.1500 
 19 H        0.5800    -2.5360     0.8610 H     1 <1>   0.1500 
 20 H        2.5310    -3.9490     0.4180 H     1 <1>   0.1500 
 21 H        6.6110    -1.7590    -0.0610 H     1 <1>   0.4200 
 22 H        8.2280    -0.3240    -1.1040 H     1 <1>   0.1000 
 23 H        4.1510    -4.7130    -1.2400 H     1 <1>   0.0800 
 24 H        4.6340    -4.8510     0.4560 H     1 <1>   0.0800 
 25 H        9.9580    -0.6340     0.7120 H     1 <1>   0.1000 
 26 H        8.6540    -0.9490     1.9010 H     1 <1>   0.1000 
 27 H        7.6780     1.3550     1.4230 H     1 <1>   0.1000 
 28 H        8.9980     1.6540     0.2500 H     1 <1>   0.1000 
 29 H        6.5340    -4.4680    -1.8870 H     1 <1>   0.0800 
 30 H        6.2850    -5.9750    -1.0420 H     1 <1>   0.0800 
 31 H        7.0100    -4.6270    -0.2020 H     1 <1>   0.0800 
@<TRIPOS>BOND
  1   1   2  1   
  2   2   3  ar  
  3   2   4  ar  
  4   3   5  ar  
  5   3  18  1   
  6   4   6  ar  
  7   4  19  1   
  8   5   7  1   
  9   5   8  ar  
 10   6   8  ar  
 11   6  20  1   
 12   7   9  2   
 13   7  10  2   
 14   7  11  am  
 15   8  12  1   
 16  11  13  1   
 17  11  21  1   
 18  12  14  1   
 19  13  15  1   
 20  13  16  1   
 21  13  22  1   
 22  14  17  1   
 23  14  23  1   
 24  14  24  1   
 25  15  16  1   
 26  15  25  1   
 27  15  26  1   
 28  16  27  1   
 29  16  28  1   
 30  17  29  1   
 31  17  30  1   
 32  17  31  1   
@<TRIPOS>SUBSTRUCTURE
  1 ****   5 GROUP 4 **** **** 0

# MOE 2024.06 (io_trps.svl 2023.06)
