@<TRIPOS>MOLECULE
NONAME
37 38 1 0 0 
SMALL
USER_CHARGES


@<TRIPOS>ATOM
  1 S       -0.4040    -0.3120    -1.6170 S.o2  1 <1>   1.5010 
  2 O        0.0480     0.0630    -2.9350 O.2   1 <1>  -0.6500 
  3 O       -0.8550    -1.6530    -1.3280 O.2   1 <1>  -0.6500 
  4 N       -1.7190     0.7390    -1.2990 N.am  1 <1>  -0.7570 
  5 C        0.8050     0.2170    -0.3960 C.2   1 <1>  -0.0630 
  6 C       -2.3450     0.7950    -0.0610 C.ar  1 <1>   0.1990 
  7 C        0.6760     0.0230     0.9730 C.2   1 <1>   0.1390 
  8 C        1.9880     0.8710    -0.5150 C.2   1 <1>  -0.3020 
  9 C       -2.1940     1.9270     0.7440 C.ar  1 <1>   0.0830 
 10 C       -3.1000    -0.2710     0.4070 C.ar  1 <1>  -0.1500 
 11 N        1.6730     0.5100     1.6470 N.2   1 <1>  -0.7070 
 12 N        2.4950     1.0280     0.7210 N.pl3 1 <1>   0.3140 
 13 O       -1.4320     2.9500     0.2640 O.3   1 <1>  -0.3620 
 14 C       -2.7970     1.9810     1.9940 C.ar  1 <1>  -0.1500 
 15 C       -3.6960    -0.2180     1.6560 C.ar  1 <1>  -0.1500 
 16 C        3.7930     1.6360     1.0790 C.3   1 <1>   0.0960 
 17 C       -0.5350     3.5910     1.1410 C.3   1 <1>   0.1200 
 18 C       -3.5440     0.9070     2.4480 C.ar  1 <1>  -0.1500 
 19 C        3.6950     3.1640     1.1540 C.3   1 <1>  -0.2400 
 20 C        0.3860     4.4680     0.3000 C.3   1 <1>  -0.2400 
 21 H       -1.4940     1.6550    -1.6780 H     1 <1>   0.4200 
 22 H       -0.1620    -0.4770     1.4340 H     1 <1>   0.1500 
 23 H        2.4820     1.2160    -1.4060 H     1 <1>   0.1500 
 24 H       -3.2190    -1.1440    -0.2100 H     1 <1>   0.1500 
 25 H       -2.6970     2.8510     2.6150 H     1 <1>   0.1500 
 26 H       -4.2780    -1.0520     2.0090 H     1 <1>   0.1500 
 27 H        4.5210     1.3450     0.3440 H     1 <1>   0.0800 
 28 H        4.0950     1.2420     2.0330 H     1 <1>   0.0800 
 29 H        0.0280     2.8390     1.6700 H     1 <1>   0.0800 
 30 H       -1.0970     4.1900     1.8350 H     1 <1>   0.0800 
 31 H       -4.0110     0.9480     3.4180 H     1 <1>   0.1500 
 32 H        3.4180     3.5710     0.1980 H     1 <1>   0.0800 
 33 H        4.6470     3.5760     1.4370 H     1 <1>   0.0800 
 34 H        2.9670     3.4500     1.8940 H     1 <1>   0.0800 
 35 H        0.9360     3.8630    -0.3970 H     1 <1>   0.0800 
 36 H        1.0820     4.9800     0.9380 H     1 <1>   0.0800 
 37 H       -0.1900     5.2020    -0.2360 H     1 <1>   0.0800 
@<TRIPOS>BOND
  1   1   2  2   
  2   1   3  2   
  3   1   4  am  
  4   1   5  1   
  5   4   6  1   
  6   4  21  1   
  7   5   7  1   
  8   5   8  2   
  9   6   9  ar  
 10   6  10  ar  
 11   7  11  2   
 12   7  22  1   
 13   8  12  1   
 14   8  23  1   
 15   9  13  1   
 16   9  14  ar  
 17  10  15  ar  
 18  10  24  1   
 19  11  12  1   
 20  12  16  1   
 21  13  17  1   
 22  14  18  ar  
 23  14  25  1   
 24  15  18  ar  
 25  15  26  1   
 26  16  19  1   
 27  16  27  1   
 28  16  28  1   
 29  17  20  1   
 30  17  29  1   
 31  17  30  1   
 32  18  31  1   
 33  19  32  1   
 34  19  33  1   
 35  19  34  1   
 36  20  35  1   
 37  20  36  1   
 38  20  37  1   
@<TRIPOS>SUBSTRUCTURE
  1 ****   5 GROUP 4 **** **** 0

# MOE 2024.06 (io_trps.svl 2023.06)
