@<TRIPOS>MOLECULE
NONAME
36 37 1 0 0 
SMALL
USER_CHARGES


@<TRIPOS>ATOM
  1 BR       0.0910     0.4920     1.1800 Br    1 <1>  -0.1110 
  2 C        0.9540     1.8180     0.0850 C.ar  1 <1>   0.1110 
  3 C        2.3270     1.9470     0.1560 C.ar  1 <1>  -0.1500 
  4 C        0.1770     2.6050    -0.7410 C.ar  1 <1>  -0.1500 
  5 C        2.9590     2.9070    -0.6260 C.ar  1 <1>  -0.1440 
  6 C        0.8070     3.5550    -1.5260 C.ar  1 <1>  -0.1500 
  7 C        2.1850     3.7010    -1.4670 C.ar  1 <1>  -0.1500 
  8 C        4.4770     3.0990    -0.5840 C.3   1 <1>   0.3440 
  9 O        5.0760     1.8320    -0.4560 O.3   1 <1>  -0.4300 
 10 C        4.9870     4.0310     0.5400 C.3   1 <1>   0.0610 
 11 C        6.3450     1.6410    -0.1310 C.2   1 <1>   0.6590 
 12 C        6.5090     4.1150     0.3510 C.2   1 <1>   0.4480 
 13 C        4.3380     5.4310     0.4030 C.3   1 <1>  -0.2400 
 14 C        4.6600     3.5130     1.9610 C.3   1 <1>  -0.2400 
 15 O        6.7330     0.5200     0.0580 O.2   1 <1>  -0.5700 
 16 C        7.2930     2.8460    -0.0150 C.3   1 <1>   0.1220 
 17 O        7.0840     5.1590     0.4660 O.2   1 <1>  -0.5700 
 18 C        8.3720     2.5930     1.0670 C.3   1 <1>  -0.2400 
 19 C        8.0110     3.0510    -1.3690 C.3   1 <1>  -0.2400 
 20 H        2.8850     1.3020     0.8110 H     1 <1>   0.1500 
 21 H       -0.8900     2.4750    -0.7700 H     1 <1>   0.1500 
 22 H        0.2250     4.1810    -2.1820 H     1 <1>   0.1500 
 23 H        2.6520     4.4470    -2.0880 H     1 <1>   0.1500 
 24 H        4.7930     3.4920    -1.5360 H     1 <1>   0.0800 
 25 H        3.2730     5.3830     0.5450 H     1 <1>   0.0800 
 26 H        4.7380     6.1040     1.1430 H     1 <1>   0.0800 
 27 H        4.5390     5.8500    -0.5670 H     1 <1>   0.0800 
 28 H        5.1030     4.1600     2.6990 H     1 <1>   0.0800 
 29 H        3.5970     3.5010     2.1270 H     1 <1>   0.0800 
 30 H        5.0360     2.5190     2.1220 H     1 <1>   0.0800 
 31 H        9.0330     3.4390     1.1490 H     1 <1>   0.0800 
 32 H        7.9090     2.4300     2.0240 H     1 <1>   0.0800 
 33 H        8.9600     1.7250     0.8230 H     1 <1>   0.0800 
 34 H        8.5680     2.1680    -1.6340 H     1 <1>   0.0800 
 35 H        7.3000     3.2510    -2.1500 H     1 <1>   0.0800 
 36 H        8.6950     3.8800    -1.3120 H     1 <1>   0.0800 
@<TRIPOS>BOND
  1   1   2  1   
  2   2   3  ar  
  3   2   4  ar  
  4   3   5  ar  
  5   3  20  1   
  6   4   6  ar  
  7   4  21  1   
  8   5   7  ar  
  9   5   8  1   
 10   6   7  ar  
 11   6  22  1   
 12   7  23  1   
 13   8   9  1   
 14   8  10  1   
 15   8  24  1   
 16   9  11  1   
 17  10  12  1   
 18  10  13  1   
 19  10  14  1   
 20  11  15  2   
 21  11  16  1   
 22  12  16  1   
 23  12  17  2   
 24  13  25  1   
 25  13  26  1   
 26  13  27  1   
 27  14  28  1   
 28  14  29  1   
 29  14  30  1   
 30  16  18  1   
 31  16  19  1   
 32  18  31  1   
 33  18  32  1   
 34  18  33  1   
 35  19  34  1   
 36  19  35  1   
 37  19  36  1   
@<TRIPOS>SUBSTRUCTURE
  1 ****   8 GROUP 4 **** **** 0

# MOE 2024.06 (io_trps.svl 2023.06)
