@<TRIPOS>MOLECULE
NONAME
38 39 1 0 0 
SMALL
USER_CHARGES


@<TRIPOS>ATOM
  1 O        0.0570     0.3170     0.8620 O.2   1 <1>  -0.5700 
  2 C        0.2150     1.4860     0.6000 C.2   1 <1>   0.5770 
  3 N        1.3310     1.9260    -0.0310 N.am  1 <1>  -0.7300 
  4 C       -0.8490     2.4980     1.0050 C.3   1 <1>   0.0530 
  5 C        2.4790     1.0890    -0.3810 C.3   1 <1>   0.3640 
  6 C       -2.3180     2.0210     0.8380 C.3   1 <1>   0.0000 
  7 C       -1.1710     3.5860    -0.0570 C.3   1 <1>   0.0000 
  8 C        3.7230     1.9690    -0.3570 C.ar  1 <1>  -0.1440 
  9 C        2.2410     0.4620    -1.7530 C.3   1 <1>  -0.2400 
 10 C       -2.6520     3.4660     0.3870 C.3   1 <1>   0.0000 
 11 C        4.7170     1.7290     0.5790 C.ar  1 <1>  -0.1500 
 12 C        3.8850     3.0210    -1.2470 C.ar  1 <1>  -0.1500 
 13 C        5.8580     2.5140     0.6350 C.ar  1 <1>  -0.1430 
 14 C        5.0200     3.8090    -1.1990 C.ar  1 <1>  -0.1500 
 15 C        6.0120     3.5650    -0.2630 C.ar  1 <1>  -0.1430 
 16 C        6.9180     2.2050     1.6830 C.3   1 <1>  -0.0970 
 17 C        7.2460     4.4560    -0.2430 C.3   1 <1>  -0.0970 
 18 H        1.5000     2.9230    -0.1590 H     1 <1>   0.3700 
 19 H       -0.6720     2.9250     1.9780 H     1 <1>   0.0000 
 20 H        2.5770     0.3010     0.3490 H     1 <1>   0.0800 
 21 H       -2.7900     1.7330     1.7600 H     1 <1>   0.0000 
 22 H       -2.4460     1.3040     0.0440 H     1 <1>   0.0000 
 23 H       -1.0190     3.2520    -1.0700 H     1 <1>   0.0000 
 24 H       -0.7300     4.5440     0.1520 H     1 <1>   0.0000 
 25 H        2.0550     1.2140    -2.4970 H     1 <1>   0.0800 
 26 H        1.3980    -0.2040    -1.7040 H     1 <1>   0.0800 
 27 H        3.1060    -0.1060    -2.0430 H     1 <1>   0.0800 
 28 H       -2.8930     4.1150     1.2120 H     1 <1>   0.0000 
 29 H       -3.3560     3.5180    -0.4250 H     1 <1>   0.0000 
 30 H        4.5980     0.9180     1.2760 H     1 <1>   0.1500 
 31 H        3.1320     3.2330    -1.9850 H     1 <1>   0.1500 
 32 H        5.1260     4.6180    -1.9000 H     1 <1>   0.1500 
 33 H        6.6300     1.3640     2.2870 H     1 <1>   0.0800 
 34 H        7.0550     3.0530     2.3290 H     1 <1>   0.0800 
 35 H        7.8520     1.9720     1.2040 H     1 <1>   0.0800 
 36 H        8.1280     3.8660    -0.4150 H     1 <1>   0.0800 
 37 H        7.3310     4.9460     0.7090 H     1 <1>   0.0800 
 38 H        7.1910     5.2100    -1.0070 H     1 <1>   0.0800 
@<TRIPOS>BOND
  1   1   2  2   
  2   2   3  am  
  3   2   4  1   
  4   3   5  1   
  5   3  18  1   
  6   4   6  1   
  7   4   7  1   
  8   4  19  1   
  9   5   8  1   
 10   5   9  1   
 11   5  20  1   
 12   6  10  1   
 13   6  21  1   
 14   6  22  1   
 15   7  10  1   
 16   7  23  1   
 17   7  24  1   
 18   8  11  ar  
 19   8  12  ar  
 20   9  25  1   
 21   9  26  1   
 22   9  27  1   
 23  10  28  1   
 24  10  29  1   
 25  11  13  ar  
 26  11  30  1   
 27  12  14  ar  
 28  12  31  1   
 29  13  15  ar  
 30  13  16  1   
 31  14  15  ar  
 32  14  32  1   
 33  15  17  1   
 34  16  33  1   
 35  16  34  1   
 36  16  35  1   
 37  17  36  1   
 38  17  37  1   
 39  17  38  1   
@<TRIPOS>SUBSTRUCTURE
  1 ****   3 GROUP 4 **** **** 0

# MOE 2024.06 (io_trps.svl 2023.06)
