@<TRIPOS>MOLECULE
NONAME
30 29 1 0 0 
SMALL
USER_CHARGES


@<TRIPOS>ATOM
  1 F       -1.1820     0.9000     1.4950 F     1 <1>  -0.3400 
  2 C        0.1460     0.9670     1.5030 C.3   1 <1>   1.0200 
  3 F        0.5050     1.0870     2.7760 F     1 <1>  -0.3400 
  4 F        0.5560    -0.2530     1.1620 F     1 <1>  -0.3400 
  5 C        0.7470     2.0520     0.5520 C.3   1 <1>   0.3000 
  6 N        2.2270     1.7280     0.2730 N.am  1 <1>  -0.7300 
  7 C        0.5030     3.4080     1.3090 C.3   1 <1>   1.0200 
  8 C        0.0120     2.0630    -0.8330 C.3   1 <1>  -0.1600 
  9 C        3.1310     2.5000    -0.3600 C.2   1 <1>   0.6900 
 10 F        0.5920     4.4810     0.5330 F     1 <1>  -0.3400 
 11 F        1.3630     3.6160     2.3020 F     1 <1>  -0.3400 
 12 F       -0.7050     3.5080     1.8530 F     1 <1>  -0.3400 
 13 C        0.1230     0.7840    -1.6850 C.3   1 <1>  -0.2400 
 14 O        2.8190     3.5710    -0.8290 O.2   1 <1>  -0.5700 
 15 N        4.3870     2.0320    -0.4710 N.am  1 <1>  -0.7300 
 16 C        5.4930     2.7740    -1.0860 C.3   1 <1>   0.2780 
 17 C        6.7530     2.3990    -0.3360 C.2   1 <1>  -0.2880 
 18 C        7.7910     1.7300    -0.8490 C.2   1 <1>  -0.3000 
 19 H        2.5080     0.7690     0.4810 H     1 <1>   0.3700 
 20 H        0.3960     2.8780    -1.4240 H     1 <1>   0.0800 
 21 H       -1.0330     2.2750    -0.6810 H     1 <1>   0.0800 
 22 H        1.1510     0.5350    -1.8820 H     1 <1>   0.0800 
 23 H       -0.3620     0.9430    -2.6330 H     1 <1>   0.0800 
 24 H       -0.3570    -0.0530    -1.2100 H     1 <1>   0.0800 
 25 H        4.6660     1.1700    -0.0100 H     1 <1>   0.3700 
 26 H        5.3190     3.8360    -1.0210 H     1 <1>   0.0800 
 27 H        5.5730     2.4980    -2.1240 H     1 <1>   0.0800 
 28 H        6.7290     2.7380     0.6860 H     1 <1>   0.1500 
 29 H        8.6770     1.4790    -0.2900 H     1 <1>   0.1500 
 30 H        7.8480     1.3790    -1.8650 H     1 <1>   0.1500 
@<TRIPOS>BOND
  1   1   2  1   
  2   2   3  1   
  3   2   4  1   
  4   2   5  1   
  5   5   6  1   
  6   5   7  1   
  7   5   8  1   
  8   6   9  am  
  9   6  19  1   
 10   7  10  1   
 11   7  11  1   
 12   7  12  1   
 13   8  13  1   
 14   8  20  1   
 15   8  21  1   
 16   9  14  2   
 17   9  15  am  
 18  13  22  1   
 19  13  23  1   
 20  13  24  1   
 21  15  16  1   
 22  15  25  1   
 23  16  17  1   
 24  16  26  1   
 25  16  27  1   
 26  17  18  2   
 27  17  28  1   
 28  18  29  1   
 29  18  30  1   
@<TRIPOS>SUBSTRUCTURE
  1 ****   6 GROUP 4 **** **** 0

# MOE 2024.06 (io_trps.svl 2023.06)
