@<TRIPOS>MOLECULE
NONAME
39 41 1 0 0 
SMALL
USER_CHARGES


@<TRIPOS>ATOM
  1 CL       0.6510     0.0260     1.3590 Cl    1 <1>  -0.1770 
  2 C        2.0630     0.8790     0.7980 C.ar  1 <1>   0.1770 
  3 C        3.3130     0.4900     1.2390 C.ar  1 <1>  -0.1500 
  4 C        1.9170     1.9330    -0.0820 C.ar  1 <1>  -0.1500 
  5 C        4.4330     1.1720     0.7940 C.ar  1 <1>  -0.1500 
  6 C        3.0430     2.6080    -0.5200 C.ar  1 <1>  -0.1500 
  7 C        4.3240     2.2530    -0.0890 C.ar  1 <1>   0.0860 
  8 C        5.4870     2.9880    -0.5500 C.2   1 <1>   0.5440 
  9 O        5.5050     3.4670    -1.6630 O.2   1 <1>  -0.5700 
 10 N        6.5540     3.1720     0.2950 N.am  1 <1>  -0.4940 
 11 C        7.7970     3.7140     0.0350 C.2   1 <1>   0.4420 
 12 S        8.8400     3.9400     1.4070 S.3   1 <1>  -0.0800 
 13 N        8.3470     4.0840    -1.0680 N.2   1 <1>  -0.3380 
 14 C        9.9960     4.5650     0.2920 C.2   1 <1>   0.4340 
 15 N        9.6150     4.5770    -0.9190 N.2   1 <1>  -0.3380 
 16 S       11.5590     5.1050     0.9570 S.3   1 <1>  -0.2860 
 17 C       12.4220     5.7860    -0.5390 C.3   1 <1>   0.1310 
 18 C       13.8620     6.1500    -0.2140 C.2   1 <1>   0.5690 
 19 O       14.1460     7.3230    -0.1480 O.2   1 <1>  -0.5700 
 20 N       14.8070     5.1750    -0.0310 N.am  1 <1>  -0.6600 
 21 C       14.5830     3.7130    -0.0610 C.3   1 <1>   0.1400 
 22 C       16.2120     5.4920     0.3040 C.3   1 <1>   0.1400 
 23 C       15.9800     3.1070     0.0080 C.3   1 <1>  -0.1600 
 24 C       16.8220     4.1600     0.7250 C.3   1 <1>  -0.1600 
 25 H        3.4000    -0.3400     1.9190 H     1 <1>   0.1500 
 26 H        0.9360     2.2170    -0.4200 H     1 <1>   0.1500 
 27 H        5.4020     0.8480     1.1300 H     1 <1>   0.1500 
 28 H        2.9360     3.4280    -1.2130 H     1 <1>   0.1500 
 29 H        6.3910     2.9150     1.2640 H     1 <1>   0.3700 
 30 H       11.8760     6.6580    -0.8480 H     1 <1>   0.0800 
 31 H       12.3790     5.0400    -1.3100 H     1 <1>   0.0800 
 32 H       14.0700     3.4130    -0.9590 H     1 <1>   0.0800 
 33 H       14.0110     3.4250     0.8040 H     1 <1>   0.0800 
 34 H       16.2630     6.2230     1.0940 H     1 <1>   0.0800 
 35 H       16.7030     5.8760    -0.5740 H     1 <1>   0.0800 
 36 H       16.3500     2.9640    -0.9920 H     1 <1>   0.0800 
 37 H       15.9810     2.1610     0.5210 H     1 <1>   0.0800 
 38 H       16.7160     4.0500     1.7900 H     1 <1>   0.0800 
 39 H       17.8640     4.0990     0.4680 H     1 <1>   0.0800 
@<TRIPOS>BOND
  1   1   2  1   
  2   2   3  ar  
  3   2   4  ar  
  4   3   5  ar  
  5   3  25  1   
  6   4   6  ar  
  7   4  26  1   
  8   5   7  ar  
  9   5  27  1   
 10   6   7  ar  
 11   6  28  1   
 12   7   8  1   
 13   8   9  2   
 14   8  10  am  
 15  10  11  1   
 16  10  29  1   
 17  11  12  1   
 18  11  13  2   
 19  12  14  1   
 20  13  15  1   
 21  14  15  2   
 22  14  16  1   
 23  16  17  1   
 24  17  18  1   
 25  17  30  1   
 26  17  31  1   
 27  18  19  2   
 28  18  20  am  
 29  20  21  1   
 30  20  22  1   
 31  21  23  1   
 32  21  32  1   
 33  21  33  1   
 34  22  24  1   
 35  22  34  1   
 36  22  35  1   
 37  23  24  1   
 38  23  36  1   
 39  23  37  1   
 40  24  38  1   
 41  24  39  1   
@<TRIPOS>SUBSTRUCTURE
  1 ****  11 GROUP 4 **** **** 0

# MOE 2024.06 (io_trps.svl 2023.06)
