@<TRIPOS>MOLECULE
NONAME
44 45 1 0 0 
SMALL
USER_CHARGES


@<TRIPOS>ATOM
  1 CL       0.3820     0.0980     1.8910 Cl    1 <1>  -0.1770 
  2 C        0.8070     1.4140     0.8110 C.ar  1 <1>   0.1770 
  3 C        2.1140     1.5610     0.3760 C.ar  1 <1>   0.1770 
  4 C       -0.1650     2.3150     0.3890 C.ar  1 <1>   0.0830 
  5 CL       3.3570     0.4400     0.8820 Cl    1 <1>  -0.1770 
  6 C        2.4650     2.6000    -0.4710 C.ar  1 <1>  -0.1500 
  7 O       -1.4490     2.2120     0.7940 O.3   1 <1>  -0.3630 
  8 C        0.1860     3.3610    -0.4520 C.ar  1 <1>  -0.1500 
  9 C        1.4960     3.5020    -0.8830 C.ar  1 <1>  -0.1500 
 10 C       -2.2610     1.3130     0.0710 C.3   1 <1>   0.1200 
 11 C       -3.6520     1.3100     0.6960 C.3   1 <1>   0.1200 
 12 O       -4.4780     0.4890    -0.0710 O.3   1 <1>  -0.5600 
 13 C       -5.7820     0.3980     0.4050 C.3   1 <1>   0.1200 
 14 C       -6.5480    -0.5680    -0.5030 C.3   1 <1>   0.1100 
 15 N       -7.9550    -0.7320    -0.0750 N.3   1 <1>  -0.8100 
 16 C       -8.7910     0.4450    -0.4300 C.3   1 <1>   0.1100 
 17 C       -8.5360    -1.9640    -0.6640 C.3   1 <1>   0.1100 
 18 C      -10.2830     0.2520    -0.0570 C.3   1 <1>   0.3430 
 19 C      -10.0090    -2.1900    -0.2390 C.3   1 <1>   0.3430 
 20 N      -10.5040    -1.0660     0.6230 N.4   1 <1>  -0.9590 
 21 C      -11.9000    -1.2610     1.1100 C.3   1 <1>   0.2630 
 22 H        3.4840     2.6980    -0.7990 H     1 <1>   0.1500 
 23 H       -0.5680     4.0620    -0.7650 H     1 <1>   0.1500 
 24 H        1.7620     4.3150    -1.5380 H     1 <1>   0.1500 
 25 H       -1.8250     0.3320     0.1250 H     1 <1>   0.0800 
 26 H       -2.3080     1.6470    -0.9510 H     1 <1>   0.0800 
 27 H       -4.0610     2.3060     0.6950 H     1 <1>   0.0800 
 28 H       -3.6060     0.9200     1.6980 H     1 <1>   0.0800 
 29 H       -6.2180     1.3800     0.3820 H     1 <1>   0.0800 
 30 H       -5.7570     0.0190     1.4120 H     1 <1>   0.0800 
 31 H       -6.0460    -1.5200    -0.4520 H     1 <1>   0.0800 
 32 H       -6.5070    -0.2170    -1.5210 H     1 <1>   0.0800 
 33 H       -8.7180     0.6420    -1.4860 H     1 <1>   0.0800 
 34 H       -8.4240     1.3160     0.0850 H     1 <1>   0.0800 
 35 H       -7.9550    -2.8160    -0.3530 H     1 <1>   0.0800 
 36 H       -8.4830    -1.9140    -1.7390 H     1 <1>   0.0800 
 37 H      -10.8800     0.3080    -0.9520 H     1 <1>   0.0800 
 38 H      -10.5880     1.0570     0.5910 H     1 <1>   0.0800 
 39 H      -10.0760    -3.1200     0.2990 H     1 <1>   0.0800 
 40 H      -10.6210    -2.2770    -1.1210 H     1 <1>   0.0800 
 41 H       -9.8360    -1.0510     1.4120 H     1 <1>   0.4500 
 42 H      -12.5870    -1.2760     0.2800 H     1 <1>   0.0800 
 43 H      -12.1780    -0.4600     1.7750 H     1 <1>   0.0800 
 44 H      -11.9820    -2.1940     1.6440 H     1 <1>   0.0800 
@<TRIPOS>BOND
  1   1   2  1   
  2   2   3  ar  
  3   2   4  ar  
  4   3   5  1   
  5   3   6  ar  
  6   4   7  1   
  7   4   8  ar  
  8   6   9  ar  
  9   6  22  1   
 10   7  10  1   
 11   8   9  ar  
 12   8  23  1   
 13   9  24  1   
 14  10  11  1   
 15  10  25  1   
 16  10  26  1   
 17  11  12  1   
 18  11  27  1   
 19  11  28  1   
 20  12  13  1   
 21  13  14  1   
 22  13  29  1   
 23  13  30  1   
 24  14  15  1   
 25  14  31  1   
 26  14  32  1   
 27  15  16  1   
 28  15  17  1   
 29  16  18  1   
 30  16  33  1   
 31  16  34  1   
 32  17  19  1   
 33  17  35  1   
 34  17  36  1   
 35  18  20  1   
 36  18  37  1   
 37  18  38  1   
 38  19  20  1   
 39  19  39  1   
 40  19  40  1   
 41  20  21  1   
 42  20  41  1   
 43  21  42  1   
 44  21  43  1   
 45  21  44  1   
@<TRIPOS>SUBSTRUCTURE
  1 ****  12 GROUP 4 **** **** 0

# MOE 2024.06 (io_trps.svl 2023.06)
