@<TRIPOS>MOLECULE
NONAME
52 53 1 0 0 
SMALL
USER_CHARGES


@<TRIPOS>ATOM
  1 S       -0.0180    -0.5780     0.4910 S.o2  1 <1>   1.3330 
  2 O       -1.2970    -1.2360     0.5720 O.2   1 <1>  -0.6500 
  3 O        1.1290    -1.2770    -0.0450 O.2   1 <1>  -0.6500 
  4 N       -0.1930     0.8680    -0.4470 N.am  1 <1>  -0.6930 
  5 C        0.4280     0.0710     2.0870 C.3   1 <1>  -0.1350 
  6 C       -1.0970     1.8760    -0.1150 C.ar  1 <1>   0.1990 
  7 C        0.7370     1.0680    -1.6050 C.3   1 <1>   0.2570 
  8 C       -2.4490     1.6050     0.0610 C.ar  1 <1>  -0.1500 
  9 C       -0.6660     3.1860     0.0570 C.ar  1 <1>  -0.1500 
 10 C        2.1220     1.5920    -1.2110 C.2   1 <1>   0.5690 
 11 C       -3.3490     2.5960     0.4140 C.ar  1 <1>  -0.1440 
 12 C       -1.5550     4.1840     0.4060 C.ar  1 <1>  -0.1500 
 13 O        2.4560     2.6810    -1.6100 O.2   1 <1>  -0.5700 
 14 N        2.9180     0.8040    -0.4260 N.am  1 <1>  -0.5470 
 15 C       -2.8990     3.9000     0.5900 C.ar  1 <1>  -0.1430 
 16 C       -4.8150     2.2300     0.5980 C.3   1 <1>  -0.0970 
 17 C        4.2030     1.0230     0.0950 C.ar  1 <1>   0.1170 
 18 C       -3.8480     5.0260     0.9750 C.3   1 <1>  -0.0970 
 19 C        4.5160     2.1360     0.8840 C.ar  1 <1>  -0.1430 
 20 C        5.1900     0.0680    -0.1570 C.ar  1 <1>  -0.1430 
 21 C        5.8000     2.2860     1.3790 C.ar  1 <1>  -0.1500 
 22 C        3.4920     3.2060     1.2420 C.3   1 <1>  -0.0970 
 23 C        6.4650     0.2360     0.3540 C.ar  1 <1>  -0.1500 
 24 C        4.8930    -1.1710    -0.9960 C.3   1 <1>  -0.0970 
 25 C        6.7790     1.3430     1.1210 C.ar  1 <1>  -0.1430 
 26 C        8.1830     1.5250     1.6700 C.3   1 <1>  -0.0970 
 27 H        0.5910    -0.7320     2.7790 H     1 <1>   0.0800 
 28 H       -0.3580     0.6950     2.4650 H     1 <1>   0.0800 
 29 H        1.3270     0.6520     2.0170 H     1 <1>   0.0800 
 30 H        0.2950     1.7730    -2.2860 H     1 <1>   0.0800 
 31 H        0.8530     0.1410    -2.1370 H     1 <1>   0.0800 
 32 H       -2.8000     0.6000    -0.0890 H     1 <1>   0.1500 
 33 H        0.3710     3.4340    -0.0770 H     1 <1>   0.1500 
 34 H       -1.1910     5.1890     0.5320 H     1 <1>   0.1500 
 35 H        2.5790    -0.1590    -0.3050 H     1 <1>   0.3700 
 36 H       -4.9750     1.1790     0.4340 H     1 <1>   0.0800 
 37 H       -5.4220     2.7750    -0.1030 H     1 <1>   0.0800 
 38 H       -5.1330     2.4660     1.5970 H     1 <1>   0.0800 
 39 H       -3.3250     5.9610     1.0600 H     1 <1>   0.0800 
 40 H       -4.3100     4.8110     1.9210 H     1 <1>   0.0800 
 41 H       -4.6120     5.1350     0.2270 H     1 <1>   0.0800 
 42 H        6.0450     3.1470     1.9740 H     1 <1>   0.1500 
 43 H        3.4370     3.9330     0.4520 H     1 <1>   0.0800 
 44 H        3.7690     3.7110     2.1500 H     1 <1>   0.0800 
 45 H        2.5200     2.7740     1.3880 H     1 <1>   0.0800 
 46 H        7.2260    -0.4970     0.1540 H     1 <1>   0.1500 
 47 H        5.7740    -1.7750    -1.1200 H     1 <1>   0.0800 
 48 H        4.1370    -1.7690    -0.5190 H     1 <1>   0.0800 
 49 H        4.5460    -0.8780    -1.9710 H     1 <1>   0.0800 
 50 H        8.1570     2.0640     2.6000 H     1 <1>   0.0800 
 51 H        8.7780     2.0760     0.9650 H     1 <1>   0.0800 
 52 H        8.6460     0.5700     1.8440 H     1 <1>   0.0800 
@<TRIPOS>BOND
  1   1   2  2   
  2   1   3  2   
  3   1   4  am  
  4   1   5  1   
  5   4   6  1   
  6   4   7  1   
  7   5  27  1   
  8   5  28  1   
  9   5  29  1   
 10   6   8  ar  
 11   6   9  ar  
 12   7  10  1   
 13   7  30  1   
 14   7  31  1   
 15   8  11  ar  
 16   8  32  1   
 17   9  12  ar  
 18   9  33  1   
 19  10  13  2   
 20  10  14  am  
 21  11  15  ar  
 22  11  16  1   
 23  12  15  ar  
 24  12  34  1   
 25  14  17  1   
 26  14  35  1   
 27  15  18  1   
 28  16  36  1   
 29  16  37  1   
 30  16  38  1   
 31  17  19  ar  
 32  17  20  ar  
 33  18  39  1   
 34  18  40  1   
 35  18  41  1   
 36  19  21  ar  
 37  19  22  1   
 38  20  23  ar  
 39  20  24  1   
 40  21  25  ar  
 41  21  42  1   
 42  22  43  1   
 43  22  44  1   
 44  22  45  1   
 45  23  25  ar  
 46  23  46  1   
 47  24  47  1   
 48  24  48  1   
 49  24  49  1   
 50  25  26  1   
 51  26  50  1   
 52  26  51  1   
 53  26  52  1   
@<TRIPOS>SUBSTRUCTURE
  1 ****  10 GROUP 4 **** **** 0

# MOE 2024.06 (io_trps.svl 2023.06)
