@<TRIPOS>MOLECULE
NONAME
38 39 1 0 0 
SMALL
USER_CHARGES


@<TRIPOS>ATOM
  1 S       -0.0650     0.0580    -1.3180 S.3   1 <1>  -0.9360 
  2 C       -1.6330     0.3920    -1.0760 C.cat 1 <1>   0.7360 
  3 N       -2.2880     1.4050    -1.5950 N.pl3 1 <1>  -0.3930 
  4 N       -2.4610    -0.3080    -0.3250 N.pl3 1 <1>  -0.7640 
  5 N       -3.5900     1.3910    -1.1860 N.2   1 <1>  -0.2600 
  6 C       -3.6650     0.3540    -0.4260 C.2   1 <1>   0.4850 
  7 C       -2.0360    -1.5220     0.4060 C.3   1 <1>   0.2740 
  8 C       -4.9120    -0.1300     0.3030 C.3   1 <1>   0.1520 
  9 C       -6.1250     0.7670     0.0850 C.ar  1 <1>  -0.1440 
 10 C       -7.0260     0.4950    -0.9340 C.ar  1 <1>  -0.1500 
 11 C       -6.3340     1.8710     0.8990 C.ar  1 <1>  -0.1500 
 12 C       -8.1210     1.3160    -1.1310 C.ar  1 <1>  -0.1500 
 13 C       -7.4290     2.6940     0.7000 C.ar  1 <1>  -0.1500 
 14 C       -8.3340     2.4180    -0.3200 C.ar  1 <1>   0.0830 
 15 O       -9.4360     3.1620    -0.5970 O.3   1 <1>  -0.3630 
 16 C       -9.8870     4.2440     0.1970 C.3   1 <1>   0.1200 
 17 C       -9.5050     5.5890    -0.4500 C.3   1 <1>  -0.0800 
 18 C       -7.9870     5.7930    -0.5720 C.3   1 <1>  -0.2400 
 19 C      -10.1120     6.7470     0.3520 C.3   1 <1>  -0.2400 
 20 H       -1.8300     2.0740    -2.2120 H     1 <1>   0.4500 
 21 H       -1.2580    -1.2640     1.1050 H     1 <1>   0.0800 
 22 H       -1.6400    -2.2400    -0.2920 H     1 <1>   0.0800 
 23 H       -2.8610    -1.9610     0.9370 H     1 <1>   0.0800 
 24 H       -4.6960    -0.1810     1.3540 H     1 <1>   0.0800 
 25 H       -5.1390    -1.1240    -0.0340 H     1 <1>   0.0800 
 26 H       -6.8840    -0.3520    -1.5830 H     1 <1>   0.1500 
 27 H       -5.6420     2.1040     1.6900 H     1 <1>   0.1500 
 28 H       -8.8200     1.1090    -1.9210 H     1 <1>   0.1500 
 29 H       -7.5510     3.5430     1.3430 H     1 <1>   0.1500 
 30 H       -9.5180     4.1540     1.2000 H     1 <1>   0.0800 
 31 H      -10.9590     4.1650     0.2360 H     1 <1>   0.0800 
 32 H       -9.9330     5.6090    -1.4390 H     1 <1>   0.0800 
 33 H       -7.5210     5.7820     0.3960 H     1 <1>   0.0800 
 34 H       -7.7760     6.7360    -1.0440 H     1 <1>   0.0800 
 35 H       -7.5520     5.0170    -1.1770 H     1 <1>   0.0800 
 36 H       -9.7150     6.7670     1.3510 H     1 <1>   0.0800 
 37 H      -11.1820     6.6430     0.4080 H     1 <1>   0.0800 
 38 H       -9.8900     7.6860    -0.1240 H     1 <1>   0.0800 
@<TRIPOS>BOND
  1   1   2  1   
  2   2   3  ar  
  3   2   4  ar  
  4   3   5  1   
  5   3  20  1   
  6   4   6  1   
  7   4   7  1   
  8   5   6  2   
  9   6   8  1   
 10   7  21  1   
 11   7  22  1   
 12   7  23  1   
 13   8   9  1   
 14   8  24  1   
 15   8  25  1   
 16   9  10  ar  
 17   9  11  ar  
 18  10  12  ar  
 19  10  26  1   
 20  11  13  ar  
 21  11  27  1   
 22  12  14  ar  
 23  12  28  1   
 24  13  14  ar  
 25  13  29  1   
 26  14  15  1   
 27  15  16  1   
 28  16  17  1   
 29  16  30  1   
 30  16  31  1   
 31  17  18  1   
 32  17  19  1   
 33  17  32  1   
 34  18  33  1   
 35  18  34  1   
 36  18  35  1   
 37  19  36  1   
 38  19  37  1   
 39  19  38  1   
@<TRIPOS>SUBSTRUCTURE
  1 ****   9 GROUP 4 **** **** 0

# MOE 2024.06 (io_trps.svl 2023.06)
