@<TRIPOS>MOLECULE
NONAME
55 57 1 0 0 
SMALL
USER_CHARGES


@<TRIPOS>ATOM
  1 O        0.2120     0.6420    -1.7610 O.2   1 <1>  -0.5700 
  2 C       -0.0090     1.7760    -1.4060 C.2   1 <1>   0.5690 
  3 N       -1.2120     2.2580    -0.9680 N.am  1 <1>  -0.2370 
  4 C        1.0450     2.8930    -1.4680 C.3   1 <1>   0.2510 
  5 C       -2.3330     1.4700    -0.6250 C.ar  1 <1>   0.1170 
  6 C       -1.1510     3.6220    -0.8910 C.2   1 <1>   0.5690 
  7 N        2.0720     2.8870    -0.3830 N.3   1 <1>  -0.8100 
  8 C        0.1870     4.1560    -1.3300 C.3   1 <1>  -0.0990 
  9 C       -2.9650     1.6330     0.6010 C.ar  1 <1>  -0.1500 
 10 C       -2.8260     0.5080    -1.5020 C.ar  1 <1>  -0.1500 
 11 O       -2.0360     4.3610    -0.5440 O.2   1 <1>  -0.5700 
 12 C        3.1920     3.8100    -0.7040 C.3   1 <1>   0.1100 
 13 C        2.6080     1.5270    -0.1090 C.3   1 <1>   0.1100 
 14 C       -4.0550     0.8580     0.9550 C.ar  1 <1>   0.0830 
 15 C       -3.9170    -0.2700    -1.1600 C.ar  1 <1>  -0.1500 
 16 C        4.2330     3.8690     0.4250 C.3   1 <1>   0.1400 
 17 C        3.6550     1.5270     1.0180 C.3   1 <1>   0.1400 
 18 O       -4.5960     1.0890     2.1780 O.3   1 <1>  -0.3630 
 19 C       -4.5340    -0.1000     0.0660 C.ar  1 <1>  -0.1500 
 20 N        4.7390     2.5030     0.7230 N.am  1 <1>  -0.6600 
 21 C       -5.7340     0.3830     2.6210 C.3   1 <1>   0.0400 
 22 C        6.0550     2.1610     0.5650 C.2   1 <1>   0.7800 
 23 O        6.8940     2.9720     0.2240 O.2   1 <1>  -0.5700 
 24 O        6.3820     0.8860     0.7890 O.3   1 <1>  -0.4300 
 25 C        7.6570     0.2930     0.6720 C.3   1 <1>   0.2800 
 26 C        7.4470    -1.1760     1.0410 C.3   1 <1>  -0.2400 
 27 C        8.1530     0.3840    -0.7750 C.3   1 <1>  -0.2400 
 28 C        8.6320     0.9300     1.6690 C.3   1 <1>  -0.2400 
 29 H        1.5270     2.8550    -2.4300 H     1 <1>   0.0800 
 30 H        0.0710     4.6470    -2.2780 H     1 <1>   0.0800 
 31 H        0.5600     4.8470    -0.5970 H     1 <1>   0.0800 
 32 H       -2.6120     2.3740     1.2950 H     1 <1>   0.1500 
 33 H       -2.3500     0.3620    -2.4560 H     1 <1>   0.1500 
 34 H        2.8160     4.8050    -0.8650 H     1 <1>   0.0800 
 35 H        3.6840     3.4900    -1.6070 H     1 <1>   0.0800 
 36 H        3.0510     1.1180    -1.0020 H     1 <1>   0.0800 
 37 H        1.8110     0.8720     0.1960 H     1 <1>   0.0800 
 38 H       -4.2850    -1.0110    -1.8500 H     1 <1>   0.1500 
 39 H        3.7800     4.2800     1.3100 H     1 <1>   0.0800 
 40 H        5.0410     4.5180     0.1330 H     1 <1>   0.0800 
 41 H        4.0490     0.5330     1.1330 H     1 <1>   0.0800 
 42 H        3.1770     1.8000     1.9420 H     1 <1>   0.0800 
 43 H       -5.3780    -0.7170     0.3100 H     1 <1>   0.1500 
 44 H       -5.9880     0.7430     3.6020 H     1 <1>   0.0800 
 45 H       -5.4980    -0.6650     2.6660 H     1 <1>   0.0800 
 46 H       -6.5460     0.5690     1.9420 H     1 <1>   0.0800 
 47 H        7.0750    -1.2580     2.0470 H     1 <1>   0.0800 
 48 H        8.3750    -1.7140     0.9770 H     1 <1>   0.0800 
 49 H        6.7430    -1.6320     0.3680 H     1 <1>   0.0800 
 50 H        7.4130    -0.0050    -1.4500 H     1 <1>   0.0800 
 51 H        9.0550    -0.1890    -0.8900 H     1 <1>   0.0800 
 52 H        8.3790     1.3990    -1.0450 H     1 <1>   0.0800 
 53 H        8.2180     0.9130     2.6610 H     1 <1>   0.0800 
 54 H        8.8570     1.9450     1.3980 H     1 <1>   0.0800 
 55 H        9.5580     0.3840     1.6760 H     1 <1>   0.0800 
@<TRIPOS>BOND
  1   1   2  2   
  2   2   3  am  
  3   2   4  1   
  4   3   5  1   
  5   3   6  am  
  6   4   7  1   
  7   4   8  1   
  8   4  29  1   
  9   5   9  ar  
 10   5  10  ar  
 11   6   8  1   
 12   6  11  2   
 13   7  12  1   
 14   7  13  1   
 15   8  30  1   
 16   8  31  1   
 17   9  14  ar  
 18   9  32  1   
 19  10  15  ar  
 20  10  33  1   
 21  12  16  1   
 22  12  34  1   
 23  12  35  1   
 24  13  17  1   
 25  13  36  1   
 26  13  37  1   
 27  14  18  1   
 28  14  19  ar  
 29  15  19  ar  
 30  15  38  1   
 31  16  20  1   
 32  16  39  1   
 33  16  40  1   
 34  17  20  1   
 35  17  41  1   
 36  17  42  1   
 37  18  21  1   
 38  19  43  1   
 39  20  22  am  
 40  21  44  1   
 41  21  45  1   
 42  21  46  1   
 43  22  23  2   
 44  22  24  1   
 45  24  25  1   
 46  25  26  1   
 47  25  27  1   
 48  25  28  1   
 49  26  47  1   
 50  26  48  1   
 51  26  49  1   
 52  27  50  1   
 53  27  51  1   
 54  27  52  1   
 55  28  53  1   
 56  28  54  1   
 57  28  55  1   
@<TRIPOS>SUBSTRUCTURE
  1 ****  13 GROUP 4 **** **** 0

# MOE 2024.06 (io_trps.svl 2023.06)
