@<TRIPOS>MOLECULE
NONAME
46 49 1 0 0 
SMALL
USER_CHARGES


@<TRIPOS>ATOM
  1 O       -3.2960     0.3800     0.1110 O.3   1 <1>  -0.6800 
  2 C       -3.6760     1.6450     0.5740 C.3   1 <1>   0.2000 
  3 C       -5.1700     1.9170     0.2450 C.3   1 <1>   0.0000 
  4 C       -2.6970     2.6910    -0.0110 C.3   1 <1>   0.3430 
  5 C       -5.4650     1.8450    -1.2780 C.3   1 <1>  -0.1600 
  6 C       -5.5810     3.3250     0.7520 C.3   1 <1>  -0.1600 
  7 C       -6.0690     0.8750     0.9630 C.3   1 <1>  -0.1600 
  8 N       -1.3140     2.1310    -0.0940 N.4   1 <1>  -0.9590 
  9 C       -6.9540     2.1150    -1.5610 C.3   1 <1>  -0.0800 
 10 C       -7.0690     3.6030     0.4720 C.3   1 <1>  -0.0800 
 11 C       -7.5590     1.1420     0.6850 C.3   1 <1>  -0.0800 
 12 C       -0.5680     2.1190     1.1820 C.3   1 <1>   0.3430 
 13 C       -0.4410     2.7630    -1.1050 C.3   1 <1>   0.3430 
 14 C       -7.3240     3.5170    -1.0440 C.3   1 <1>  -0.1600 
 15 C       -7.8110     1.0650    -0.8320 C.3   1 <1>  -0.1600 
 16 C       -7.9260     2.5470     1.1910 C.3   1 <1>  -0.1600 
 17 C        0.8790     1.9000     0.7630 C.3   1 <1>  -0.1600 
 18 C        0.9660     2.3390    -0.7040 C.3   1 <1>  -0.1600 
 19 H       -3.9990    -0.2720     0.3170 H     1 <1>   0.4000 
 20 H       -3.5610     1.6340     1.6450 H     1 <1>   0.0800 
 21 H       -2.7140     3.5900     0.5810 H     1 <1>   0.0800 
 22 H       -3.0330     2.9440    -1.0020 H     1 <1>   0.0800 
 23 H       -5.2100     0.8720    -1.6620 H     1 <1>   0.0800 
 24 H       -4.8800     2.5680    -1.8170 H     1 <1>   0.0800 
 25 H       -5.0020     4.0920     0.2670 H     1 <1>   0.0800 
 26 H       -5.4060     3.4020     1.8110 H     1 <1>   0.0800 
 27 H       -5.8390    -0.1210     0.6270 H     1 <1>   0.0800 
 28 H       -5.8990     0.9080     2.0250 H     1 <1>   0.0800 
 29 H       -1.4700     1.1390    -0.3570 H     1 <1>   0.4500 
 30 H       -7.1410     2.0600    -2.6210 H     1 <1>   0.0800 
 31 H       -7.3320     4.5850     0.8280 H     1 <1>   0.0800 
 32 H       -8.1630     0.4060     1.1900 H     1 <1>   0.0800 
 33 H       -0.9170     1.3380     1.8390 H     1 <1>   0.0800 
 34 H       -0.6620     3.0750     1.6710 H     1 <1>   0.0800 
 35 H       -0.5260     3.8360    -1.0420 H     1 <1>   0.0800 
 36 H       -0.6880     2.4380    -2.1030 H     1 <1>   0.0800 
 37 H       -6.7450     4.2640    -1.5580 H     1 <1>   0.0800 
 38 H       -8.3620     3.7160    -1.2480 H     1 <1>   0.0800 
 39 H       -7.5720     0.0810    -1.1940 H     1 <1>   0.0800 
 40 H       -8.8530     1.2410    -1.0360 H     1 <1>   0.0800 
 41 H       -8.9690     2.7390     1.0070 H     1 <1>   0.0800 
 42 H       -7.7680     2.6070     2.2540 H     1 <1>   0.0800 
 43 H        1.1270     0.8570     0.8560 H     1 <1>   0.0800 
 44 H        1.5440     2.4660     1.3910 H     1 <1>   0.0800 
 45 H        1.6540     3.1560    -0.8360 H     1 <1>   0.0800 
 46 H        1.2890     1.5180    -1.3220 H     1 <1>   0.0800 
@<TRIPOS>BOND
  1   1   2  1   
  2   1  19  1   
  3   2   3  1   
  4   2   4  1   
  5   2  20  1   
  6   3   5  1   
  7   3   6  1   
  8   3   7  1   
  9   4   8  1   
 10   4  21  1   
 11   4  22  1   
 12   5   9  1   
 13   5  23  1   
 14   5  24  1   
 15   6  10  1   
 16   6  25  1   
 17   6  26  1   
 18   7  11  1   
 19   7  27  1   
 20   7  28  1   
 21   8  12  1   
 22   8  13  1   
 23   8  29  1   
 24   9  14  1   
 25   9  15  1   
 26   9  30  1   
 27  10  14  1   
 28  10  16  1   
 29  10  31  1   
 30  11  15  1   
 31  11  16  1   
 32  11  32  1   
 33  12  17  1   
 34  12  33  1   
 35  12  34  1   
 36  13  18  1   
 37  13  35  1   
 38  13  36  1   
 39  14  37  1   
 40  14  38  1   
 41  15  39  1   
 42  15  40  1   
 43  16  41  1   
 44  16  42  1   
 45  17  18  1   
 46  17  43  1   
 47  17  44  1   
 48  18  45  1   
 49  18  46  1   
@<TRIPOS>SUBSTRUCTURE
  1 ****   3 GROUP 4 **** **** 0

# MOE 2024.06 (io_trps.svl 2023.06)
