@<TRIPOS>MOLECULE
NONAME
43 43 1 0 0 
SMALL
USER_CHARGES


@<TRIPOS>ATOM
  1 S        0.0510     0.0730     1.2610 S.o2  1 <1>   1.4470 
  2 O        0.1840     0.0910     2.7000 O.2   1 <1>  -0.6500 
  3 O       -0.3680     1.2820     0.5880 O.2   1 <1>  -0.6500 
  4 N       -1.2050    -1.0250     1.0510 N.am  1 <1>  -0.9140 
  5 C        1.4990    -0.7200     0.5070 C.ar  1 <1>  -0.0090 
  6 C       -2.0620    -0.8240    -0.1130 C.3   1 <1>   0.2760 
  7 C        2.6180     0.0320     0.1640 C.ar  1 <1>   0.0830 
  8 C        1.5380    -2.0930     0.2810 C.ar  1 <1>  -0.1500 
  9 C       -3.3140    -1.7050     0.0510 C.3   1 <1>   0.1200 
 10 C       -1.2990    -1.1910    -1.3910 C.3   1 <1>  -0.2400 
 11 O        2.5840     1.3610     0.4290 O.3   1 <1>  -0.3630 
 12 C        3.7240    -0.5810    -0.4210 C.ar  1 <1>  -0.1500 
 13 C        2.6320    -2.7150    -0.3020 C.ar  1 <1>  -0.1430 
 14 O       -4.2050    -1.4760    -0.9990 O.3   1 <1>  -0.5600 
 15 C        3.6360     2.2320     0.0790 C.3   1 <1>   0.0400 
 16 C        3.7260    -1.9420    -0.6530 C.ar  1 <1>  -0.1500 
 17 C        2.6440    -4.2200    -0.5560 C.3   1 <1>   0.0630 
 18 C       -5.3560    -2.2560    -0.9460 C.3   1 <1>   0.0400 
 19 C        1.5140    -4.6220    -1.5100 C.3   1 <1>  -0.2400 
 20 C        2.5450    -4.9960     0.7620 C.3   1 <1>  -0.2400 
 21 H       -1.7650    -0.8410     1.8800 H     1 <1>   0.4200 
 22 H       -2.3890     0.2020    -0.1600 H     1 <1>   0.0800 
 23 H        0.6910    -2.6900     0.5660 H     1 <1>   0.1500 
 24 H       -3.8160    -1.4630     0.9710 H     1 <1>   0.0800 
 25 H       -3.0360    -2.7440     0.0440 H     1 <1>   0.0800 
 26 H       -0.9480    -2.2050    -1.3460 H     1 <1>   0.0800 
 27 H       -0.4720    -0.5260    -1.5520 H     1 <1>   0.0800 
 28 H       -1.9530    -1.0980    -2.2400 H     1 <1>   0.0800 
 29 H        4.5930    -0.0160    -0.6990 H     1 <1>   0.1500 
 30 H        3.3540     3.2270     0.3740 H     1 <1>   0.0800 
 31 H        3.7800     2.1950    -0.9860 H     1 <1>   0.0800 
 32 H        4.5260     1.9340     0.6040 H     1 <1>   0.0800 
 33 H        4.5880    -2.3980    -1.1080 H     1 <1>   0.1500 
 34 H        3.5770    -4.4850    -1.0230 H     1 <1>   0.0800 
 35 H       -5.9700    -2.0030    -1.7920 H     1 <1>   0.0800 
 36 H       -5.8880    -2.0440    -0.0350 H     1 <1>   0.0800 
 37 H       -5.0830    -3.2960    -0.9950 H     1 <1>   0.0800 
 38 H        0.5520    -4.4360    -1.0670 H     1 <1>   0.0800 
 39 H        1.5840    -5.6680    -1.7490 H     1 <1>   0.0800 
 40 H        1.5880    -4.0580    -2.4220 H     1 <1>   0.0800 
 41 H        1.6070    -4.8070     1.2500 H     1 <1>   0.0800 
 42 H        3.3400    -4.6980     1.4220 H     1 <1>   0.0800 
 43 H        2.6310    -6.0520     0.5790 H     1 <1>   0.0800 
@<TRIPOS>BOND
  1   1   2  2   
  2   1   3  2   
  3   1   4  am  
  4   1   5  1   
  5   4   6  1   
  6   4  21  1   
  7   5   7  ar  
  8   5   8  ar  
  9   6   9  1   
 10   6  10  1   
 11   6  22  1   
 12   7  11  1   
 13   7  12  ar  
 14   8  13  ar  
 15   8  23  1   
 16   9  14  1   
 17   9  24  1   
 18   9  25  1   
 19  10  26  1   
 20  10  27  1   
 21  10  28  1   
 22  11  15  1   
 23  12  16  ar  
 24  12  29  1   
 25  13  16  ar  
 26  13  17  1   
 27  14  18  1   
 28  15  30  1   
 29  15  31  1   
 30  15  32  1   
 31  16  33  1   
 32  17  19  1   
 33  17  20  1   
 34  17  34  1   
 35  18  35  1   
 36  18  36  1   
 37  18  37  1   
 38  19  38  1   
 39  19  39  1   
 40  19  40  1   
 41  20  41  1   
 42  20  42  1   
 43  20  43  1   
@<TRIPOS>SUBSTRUCTURE
  1 ****   5 GROUP 4 **** **** 0

# MOE 2024.06 (io_trps.svl 2023.06)
