@<TRIPOS>MOLECULE
NONAME
46 47 1 0 0 
SMALL
USER_CHARGES


@<TRIPOS>ATOM
  1 S        0.1540    -0.1650    -0.7120 S.o2  1 <1>   1.3330 
  2 O        0.9740    -1.0910    -1.4540 O.2   1 <1>  -0.6500 
  3 O        0.7710     0.7670     0.1980 O.2   1 <1>  -0.6500 
  4 N       -0.9940    -1.1290     0.1740 N.am  1 <1>  -0.6930 
  5 C       -0.8220     0.7300    -1.9050 C.3   1 <1>  -0.1350 
  6 C       -1.1010    -2.4870    -0.0980 C.ar  1 <1>   0.1990 
  7 C       -2.1000    -0.5270     0.9920 C.3   1 <1>   0.3370 
  8 C       -0.7530    -3.4190     0.8770 C.ar  1 <1>  -0.1500 
  9 C       -1.5800    -2.9360    -1.3280 C.ar  1 <1>  -0.1500 
 10 C       -3.4480    -0.5520     0.2250 C.2   1 <1>   0.5690 
 11 C       -1.7900     0.8570     1.5790 C.3   1 <1>  -0.2400 
 12 C       -0.9050    -4.7760     0.6460 C.ar  1 <1>  -0.1500 
 13 C       -1.7280    -4.2890    -1.5790 C.ar  1 <1>  -0.1500 
 14 O       -3.6080     0.2610    -0.6580 O.2   1 <1>  -0.5700 
 15 N       -4.4440    -1.4760     0.4890 N.am  1 <1>  -0.6600 
 16 C       -1.3990    -5.1840    -0.5790 C.ar  1 <1>   0.1900 
 17 C       -5.7820    -1.3620    -0.1790 C.3   1 <1>   0.1400 
 18 C       -4.2990    -2.7250     1.3070 C.3   1 <1>   0.1400 
 19 F       -1.5800    -6.4600    -0.7940 F     1 <1>  -0.1900 
 20 C       -6.0790    -2.6130    -1.0260 C.3   1 <1>   0.3430 
 21 C       -4.6310    -3.9780     0.4680 C.3   1 <1>   0.3430 
 22 N       -5.9690    -3.8810    -0.2170 N.4   1 <1>  -0.9590 
 23 C       -6.2170    -5.0830    -1.0710 C.3   1 <1>   0.2630 
 24 H       -0.1750     1.2730    -2.5650 H     1 <1>   0.0800 
 25 H       -1.4690     1.4320    -1.4200 H     1 <1>   0.0800 
 26 H       -1.4160     0.0570    -2.4890 H     1 <1>   0.0800 
 27 H       -2.2100    -1.1520     1.8550 H     1 <1>   0.0800 
 28 H       -0.3500    -3.0710     1.8130 H     1 <1>   0.1500 
 29 H       -1.8250    -2.2210    -2.0910 H     1 <1>   0.1500 
 30 H       -1.7000     1.6050     0.8140 H     1 <1>   0.0800 
 31 H       -0.8860     0.8240     2.1610 H     1 <1>   0.0800 
 32 H       -2.5900     1.1570     2.2300 H     1 <1>   0.0800 
 33 H       -0.6360    -5.5040     1.3910 H     1 <1>   0.1500 
 34 H       -2.0800    -4.6460    -2.5310 H     1 <1>   0.1500 
 35 H       -5.8240    -0.4940    -0.8150 H     1 <1>   0.0800 
 36 H       -6.5440    -1.2410     0.5710 H     1 <1>   0.0800 
 37 H       -4.9620    -2.6720     2.1540 H     1 <1>   0.0800 
 38 H       -3.3020    -2.8350     1.6860 H     1 <1>   0.0800 
 39 H       -5.3780    -2.6410    -1.8440 H     1 <1>   0.0800 
 40 H       -7.0700    -2.5280    -1.4430 H     1 <1>   0.0800 
 41 H       -4.6090    -4.8460     1.1070 H     1 <1>   0.0800 
 42 H       -3.8600    -4.1000    -0.2730 H     1 <1>   0.0800 
 43 H       -6.6950    -3.8450     0.5150 H     1 <1>   0.4500 
 44 H       -5.4720    -5.1520    -1.8470 H     1 <1>   0.0800 
 45 H       -7.1900    -5.0230    -1.5310 H     1 <1>   0.0800 
 46 H       -6.1770    -5.9820    -0.4750 H     1 <1>   0.0800 
@<TRIPOS>BOND
  1   1   2  2   
  2   1   3  2   
  3   1   4  am  
  4   1   5  1   
  5   4   6  1   
  6   4   7  1   
  7   5  24  1   
  8   5  25  1   
  9   5  26  1   
 10   6   8  ar  
 11   6   9  ar  
 12   7  10  1   
 13   7  11  1   
 14   7  27  1   
 15   8  12  ar  
 16   8  28  1   
 17   9  13  ar  
 18   9  29  1   
 19  10  14  2   
 20  10  15  am  
 21  11  30  1   
 22  11  31  1   
 23  11  32  1   
 24  12  16  ar  
 25  12  33  1   
 26  13  16  ar  
 27  13  34  1   
 28  15  17  1   
 29  15  18  1   
 30  16  19  1   
 31  17  20  1   
 32  17  35  1   
 33  17  36  1   
 34  18  21  1   
 35  18  37  1   
 36  18  38  1   
 37  20  22  1   
 38  20  39  1   
 39  20  40  1   
 40  21  22  1   
 41  21  41  1   
 42  21  42  1   
 43  22  23  1   
 44  22  43  1   
 45  23  44  1   
 46  23  45  1   
 47  23  46  1   
@<TRIPOS>SUBSTRUCTURE
  1 ****   6 GROUP 4 **** **** 0

# MOE 2024.06 (io_trps.svl 2023.06)
