@<TRIPOS>MOLECULE
NONAME
50 52 1 0 0 
SMALL
USER_CHARGES


@<TRIPOS>ATOM
  1 S        0.2080    -0.7190     1.6070 S.o2  1 <1>   1.4470 
  2 O        0.5390    -0.3360     2.9610 O.2   1 <1>  -0.6500 
  3 O       -0.7310    -1.7960     1.3780 O.2   1 <1>  -0.6500 
  4 N        1.6650    -1.2050     0.8840 N.am  1 <1>  -0.8490 
  5 C       -0.2500     0.7560     0.6560 C.ar  1 <1>  -0.0090 
  6 C        2.3120    -2.2730     1.6980 C.3   1 <1>   0.2570 
  7 C        1.4770    -1.6750    -0.4990 C.3   1 <1>   0.1160 
  8 C        0.5040     1.9200     0.7430 C.ar  1 <1>  -0.1500 
  9 C       -1.3460     0.7570    -0.2000 C.ar  1 <1>  -0.1500 
 10 C        3.7820    -2.5050     1.3390 C.2   1 <1>   0.5690 
 11 C        0.1820     3.0430     0.0010 C.ar  1 <1>  -0.1500 
 12 C       -1.6740     1.8770    -0.9450 C.ar  1 <1>  -0.1500 
 13 O        4.2430    -3.6160     1.4350 O.2   1 <1>  -0.5700 
 14 N        4.4740    -1.4110     0.9000 N.am  1 <1>  -0.5470 
 15 C       -0.9110     3.0270    -0.8480 C.ar  1 <1>  -0.1430 
 16 C        5.7780    -1.2210     0.4140 C.ar  1 <1>   0.1170 
 17 C       -1.2700     4.2560    -1.6640 C.3   1 <1>  -0.0970 
 18 C        6.0710    -0.0900    -0.3570 C.ar  1 <1>  -0.1430 
 19 C        6.7930    -2.1280     0.6990 C.ar  1 <1>  -0.1500 
 20 C        7.3690     0.1160    -0.8170 C.ar  1 <1>  -0.1430 
 21 C        4.9630     0.9230    -0.6730 C.3   1 <1>  -0.0170 
 22 C        8.0760    -1.9250     0.2340 C.ar  1 <1>  -0.1500 
 23 C        8.3610    -0.8050    -0.5210 C.ar  1 <1>  -0.1500 
 24 C        7.7580     1.3250    -1.6610 C.3   1 <1>  -0.0170 
 25 C        5.3260     1.9070    -1.7900 C.3   1 <1>  -0.1600 
 26 C        6.7350     2.4600    -1.5770 C.3   1 <1>  -0.1600 
 27 H        1.7710    -3.1980     1.5920 H     1 <1>   0.0800 
 28 H        2.2930    -2.0050     2.7400 H     1 <1>   0.0800 
 29 H        1.0350    -0.8990    -1.1010 H     1 <1>   0.0800 
 30 H        0.8310    -2.5390    -0.5240 H     1 <1>   0.0800 
 31 H        2.4220    -1.9400    -0.9430 H     1 <1>   0.0800 
 32 H        1.3550     1.9470     1.4030 H     1 <1>   0.1500 
 33 H       -1.9520    -0.1300    -0.2860 H     1 <1>   0.1500 
 34 H        0.7850     3.9300     0.0890 H     1 <1>   0.1500 
 35 H       -2.5280     1.8490    -1.5990 H     1 <1>   0.1500 
 36 H        3.8720    -0.5900     0.8220 H     1 <1>   0.3700 
 37 H       -0.8080     4.1980    -2.6330 H     1 <1>   0.0800 
 38 H       -0.9320     5.1490    -1.1700 H     1 <1>   0.0800 
 39 H       -2.3360     4.3230    -1.7910 H     1 <1>   0.0800 
 40 H        6.5870    -2.9990     1.2930 H     1 <1>   0.1500 
 41 H        4.7540     1.4800     0.2230 H     1 <1>   0.0800 
 42 H        4.0640     0.4090    -0.9650 H     1 <1>   0.0800 
 43 H        8.8500    -2.6360     0.4610 H     1 <1>   0.1500 
 44 H        9.3640    -0.6540    -0.8800 H     1 <1>   0.1500 
 45 H        7.8480     1.0060    -2.6850 H     1 <1>   0.0800 
 46 H        8.7180     1.6950    -1.3460 H     1 <1>   0.0800 
 47 H        4.6130     2.7120    -1.8090 H     1 <1>   0.0800 
 48 H        5.2830     1.4000    -2.7400 H     1 <1>   0.0800 
 49 H        6.9580     3.2030    -2.3230 H     1 <1>   0.0800 
 50 H        6.7970     2.9270    -0.6080 H     1 <1>   0.0800 
@<TRIPOS>BOND
  1   1   2  2   
  2   1   3  2   
  3   1   4  am  
  4   1   5  1   
  5   4   6  1   
  6   4   7  1   
  7   5   8  ar  
  8   5   9  ar  
  9   6  10  1   
 10   6  27  1   
 11   6  28  1   
 12   7  29  1   
 13   7  30  1   
 14   7  31  1   
 15   8  11  ar  
 16   8  32  1   
 17   9  12  ar  
 18   9  33  1   
 19  10  13  2   
 20  10  14  am  
 21  11  15  ar  
 22  11  34  1   
 23  12  15  ar  
 24  12  35  1   
 25  14  16  1   
 26  14  36  1   
 27  15  17  1   
 28  16  18  ar  
 29  16  19  ar  
 30  17  37  1   
 31  17  38  1   
 32  17  39  1   
 33  18  20  ar  
 34  18  21  1   
 35  19  22  ar  
 36  19  40  1   
 37  20  23  ar  
 38  20  24  1   
 39  21  25  1   
 40  21  41  1   
 41  21  42  1   
 42  22  23  ar  
 43  22  43  1   
 44  23  44  1   
 45  24  26  1   
 46  24  45  1   
 47  24  46  1   
 48  25  26  1   
 49  25  47  1   
 50  25  48  1   
 51  26  49  1   
 52  26  50  1   
@<TRIPOS>SUBSTRUCTURE
  1 ****   4 GROUP 4 **** **** 0

# MOE 2024.06 (io_trps.svl 2023.06)
