@<TRIPOS>MOLECULE
NONAME
39 40 1 0 0 
SMALL
USER_CHARGES


@<TRIPOS>ATOM
  1 BR       1.3450    -0.2630     2.2030 Br    1 <1>  -0.1110 
  2 C        0.4580    -1.7430     1.3490 C.ar  1 <1>   0.1110 
  3 C       -0.9020    -1.8900     1.5120 C.ar  1 <1>  -0.1500 
  4 C        1.2090    -2.6180     0.5940 C.ar  1 <1>  -0.1500 
  5 C       -1.5830    -2.9510     0.9070 C.ar  1 <1>   0.0860 
  6 C        0.5620    -3.6760    -0.0130 C.ar  1 <1>  -0.1500 
  7 C       -0.8160    -3.8520     0.1350 C.ar  1 <1>   0.0830 
  8 C       -3.0240    -3.0550     1.1110 C.2   1 <1>   0.5440 
  9 O       -1.4430    -4.9020    -0.4590 O.3   1 <1>  -0.3630 
 10 O       -3.5660    -2.4290     2.0030 O.2   1 <1>  -0.5700 
 11 N       -3.8110    -3.8350     0.3150 N.am  1 <1>  -0.7300 
 12 C       -0.7710    -5.9230    -1.1600 C.3   1 <1>   0.1200 
 13 C       -5.2550    -4.0670     0.4510 C.3   1 <1>   0.2200 
 14 C       -1.8150    -6.9380    -1.6130 C.3   1 <1>  -0.2400 
 15 C       -5.4800    -5.5260     0.8600 C.3   1 <1>  -0.1600 
 16 C       -5.9310    -3.7550    -0.8880 C.3   1 <1>  -0.1600 
 17 C       -6.9770    -5.8680     0.9040 C.3   1 <1>  -0.1600 
 18 C       -7.4290    -4.0930    -0.8470 C.3   1 <1>  -0.1600 
 19 C       -7.6570    -5.5540    -0.4350 C.3   1 <1>  -0.1600 
 20 H       -1.4380    -1.1760     2.1120 H     1 <1>   0.1500 
 21 H        2.2700    -2.4700     0.4890 H     1 <1>   0.1500 
 22 H        1.1550    -4.3520    -0.6000 H     1 <1>   0.1500 
 23 H       -3.3260    -4.4390    -0.3540 H     1 <1>   0.3700 
 24 H       -0.0570    -6.3810    -0.4960 H     1 <1>   0.0800 
 25 H       -0.2710    -5.4870    -2.0080 H     1 <1>   0.0800 
 26 H       -5.6610    -3.4190     1.2110 H     1 <1>   0.0800 
 27 H       -2.3230    -7.3530    -0.7610 H     1 <1>   0.0800 
 28 H       -1.3360    -7.7380    -2.1480 H     1 <1>   0.0800 
 29 H       -2.5300    -6.4700    -2.2660 H     1 <1>   0.0800 
 30 H       -5.0490    -5.6890     1.8330 H     1 <1>   0.0800 
 31 H       -4.9920    -6.1770     0.1560 H     1 <1>   0.0800 
 32 H       -5.4640    -4.3280    -1.6690 H     1 <1>   0.0800 
 33 H       -5.8080    -2.7100    -1.1100 H     1 <1>   0.0800 
 34 H       -7.4480    -5.2960     1.6860 H     1 <1>   0.0800 
 35 H       -7.1020    -6.9110     1.1390 H     1 <1>   0.0800 
 36 H       -7.8650    -3.9180    -1.8160 H     1 <1>   0.0800 
 37 H       -7.9200    -3.4440    -0.1420 H     1 <1>   0.0800 
 38 H       -8.7130    -5.7450    -0.3560 H     1 <1>   0.0800 
 39 H       -7.2610    -6.2040    -1.1970 H     1 <1>   0.0800 
@<TRIPOS>BOND
  1   1   2  1   
  2   2   3  ar  
  3   2   4  ar  
  4   3   5  ar  
  5   3  20  1   
  6   4   6  ar  
  7   4  21  1   
  8   5   7  ar  
  9   5   8  1   
 10   6   7  ar  
 11   6  22  1   
 12   7   9  1   
 13   8  10  2   
 14   8  11  am  
 15   9  12  1   
 16  11  13  1   
 17  11  23  1   
 18  12  14  1   
 19  12  24  1   
 20  12  25  1   
 21  13  15  1   
 22  13  16  1   
 23  13  26  1   
 24  14  27  1   
 25  14  28  1   
 26  14  29  1   
 27  15  17  1   
 28  15  30  1   
 29  15  31  1   
 30  16  18  1   
 31  16  32  1   
 32  16  33  1   
 33  17  19  1   
 34  17  34  1   
 35  17  35  1   
 36  18  19  1   
 37  18  36  1   
 38  18  37  1   
 39  19  38  1   
 40  19  39  1   
@<TRIPOS>SUBSTRUCTURE
  1 ****  11 GROUP 4 **** **** 0

# MOE 2024.06 (io_trps.svl 2023.06)
