@<TRIPOS>MOLECULE
NONAME
31 31 1 0 0 
SMALL
USER_CHARGES


@<TRIPOS>ATOM
  1 BR       0.5970    -0.2170    -1.4800 Br    1 <1>  -0.1110 
  2 C        0.3960    -1.7460    -0.3240 C.ar  1 <1>   0.1110 
  3 C        1.5000    -2.2650     0.3550 C.ar  1 <1>   0.0860 
  4 C       -0.8780    -2.2670    -0.2010 C.ar  1 <1>  -0.1500 
  5 C        2.8390    -1.7370     0.2170 C.2   1 <1>   0.5440 
  6 C        1.2520    -3.3470     1.2010 C.ar  1 <1>  -0.1500 
  7 C       -1.0850    -3.3470     0.6360 C.ar  1 <1>  -0.1500 
  8 O        3.4910    -1.4320     1.1960 O.2   1 <1>  -0.5700 
  9 N        3.4250    -1.5850    -1.0100 N.am  1 <1>  -0.7300 
 10 C       -0.0170    -3.8830     1.3390 C.ar  1 <1>  -0.1500 
 11 C        4.8080    -1.0930    -1.2520 C.3   1 <1>   0.1400 
 12 C        4.9950     0.3370    -0.6990 C.3   1 <1>   0.3430 
 13 N        6.2390     0.5020     0.1320 N.4   1 <1>  -0.9590 
 14 C        6.1170    -0.2520     1.4240 C.3   1 <1>   0.2630 
 15 C        6.4800     1.9480     0.4160 C.3   1 <1>   0.2630 
 16 H       -1.6970    -1.8320    -0.7480 H     1 <1>   0.1500 
 17 H        2.0700    -3.7720     1.7580 H     1 <1>   0.1500 
 18 H       -2.0700    -3.7680     0.7470 H     1 <1>   0.1500 
 19 H        2.8960    -1.8830    -1.8370 H     1 <1>   0.3700 
 20 H       -0.1780    -4.7200     1.9970 H     1 <1>   0.1500 
 21 H        4.9960    -1.0920    -2.3120 H     1 <1>   0.0800 
 22 H        5.4960    -1.7760    -0.7870 H     1 <1>   0.0800 
 23 H        4.1370     0.5850    -0.0960 H     1 <1>   0.0800 
 24 H        5.0240     1.0210    -1.5300 H     1 <1>   0.0800 
 25 H        7.0440     0.1280    -0.3920 H     1 <1>   0.4500 
 26 H        5.2690     0.1070     1.9860 H     1 <1>   0.0800 
 27 H        7.0060    -0.1300     2.0200 H     1 <1>   0.0800 
 28 H        5.9670    -1.3030     1.2370 H     1 <1>   0.0800 
 29 H        5.6520     2.3630     0.9690 H     1 <1>   0.0800 
 30 H        6.5910     2.4990    -0.5040 H     1 <1>   0.0800 
 31 H        7.3790     2.0700     0.9990 H     1 <1>   0.0800 
@<TRIPOS>BOND
  1   1   2  1   
  2   2   3  ar  
  3   2   4  ar  
  4   3   5  1   
  5   3   6  ar  
  6   4   7  ar  
  7   4  16  1   
  8   5   8  2   
  9   5   9  am  
 10   6  10  ar  
 11   6  17  1   
 12   7  10  ar  
 13   7  18  1   
 14   9  11  1   
 15   9  19  1   
 16  10  20  1   
 17  11  12  1   
 18  11  21  1   
 19  11  22  1   
 20  12  13  1   
 21  12  23  1   
 22  12  24  1   
 23  13  14  1   
 24  13  15  1   
 25  13  25  1   
 26  14  26  1   
 27  14  27  1   
 28  14  28  1   
 29  15  29  1   
 30  15  30  1   
 31  15  31  1   
@<TRIPOS>SUBSTRUCTURE
  1 ****   5 GROUP 4 **** **** 0

# MOE 2024.06 (io_trps.svl 2023.06)
