@<TRIPOS>MOLECULE
NONAME
39 40 1 0 0 
SMALL
USER_CHARGES


@<TRIPOS>ATOM
  1 O        0.2350     0.3690     0.8640 O.2   1 <1>  -0.5700 
  2 C        0.2420     1.5360     0.5510 C.2   1 <1>   0.4950 
  3 C        1.4400     2.2200     0.1560 C.2   1 <1>  -0.1240 
  4 C       -1.1150     2.2270     0.5700 C.3   1 <1>  -0.0990 
  5 C        2.6260     1.5700     0.0120 C.2   1 <1>  -0.0500 
  6 C        1.3730     3.7310    -0.0840 C.3   1 <1>  -0.0220 
  7 C       -1.0480     3.7580     0.5630 C.3   1 <1>  -0.1600 
  8 N        3.8440     2.1250    -0.3410 N.pl3 1 <1>  -0.6000 
  9 C       -0.0230     4.2310    -0.4660 C.3   1 <1>  -0.1600 
 10 C        5.0850     1.4990    -0.4600 C.ar  1 <1>   0.1000 
 11 C        5.3490     0.2420     0.0760 C.ar  1 <1>  -0.1500 
 12 C        6.1110     2.1470    -1.1370 C.ar  1 <1>  -0.1500 
 13 C        6.5940    -0.3410    -0.0610 C.ar  1 <1>  -0.1500 
 14 C        7.3560     1.5630    -1.2710 C.ar  1 <1>  -0.1500 
 15 C        7.6350     0.3070    -0.7260 C.ar  1 <1>   0.0860 
 16 C        8.9370    -0.3130    -0.8470 C.2   1 <1>   0.6340 
 17 O        9.0800    -1.4640    -1.1910 O.2   1 <1>  -0.5700 
 18 O       10.0450     0.3720    -0.5540 O.3   1 <1>  -0.4300 
 19 C       10.0790     1.3720     0.4380 C.3   1 <1>   0.1200 
 20 C       11.5420     1.6770     0.7430 C.3   1 <1>  -0.2400 
 21 H       -1.6560     1.8920    -0.2970 H     1 <1>   0.0800 
 22 H       -1.6590     1.8980     1.4370 H     1 <1>   0.0800 
 23 H        2.6400     0.5060     0.1860 H     1 <1>   0.1500 
 24 H        1.6860     4.2280     0.8190 H     1 <1>   0.0800 
 25 H        2.0550     4.0150    -0.8660 H     1 <1>   0.0800 
 26 H       -2.0190     4.1620     0.3320 H     1 <1>   0.0800 
 27 H       -0.7660     4.1110     1.5420 H     1 <1>   0.0800 
 28 H        3.8430     3.1210    -0.5700 H     1 <1>   0.4000 
 29 H       -0.0200     5.3070    -0.5070 H     1 <1>   0.0800 
 30 H       -0.2870     3.8620    -1.4430 H     1 <1>   0.0800 
 31 H        4.5800    -0.2870     0.6070 H     1 <1>   0.1500 
 32 H        5.9290     3.1150    -1.5680 H     1 <1>   0.1500 
 33 H        6.7730    -1.3190     0.3540 H     1 <1>   0.1500 
 34 H        8.1290     2.0800    -1.8130 H     1 <1>   0.1500 
 35 H        9.5810     2.2510     0.0680 H     1 <1>   0.0800 
 36 H        9.5770     1.0040     1.3170 H     1 <1>   0.0800 
 37 H       12.0390     2.0310    -0.1430 H     1 <1>   0.0800 
 38 H       12.0360     0.7910     1.1000 H     1 <1>   0.0800 
 39 H       11.6070     2.4360     1.5010 H     1 <1>   0.0800 
@<TRIPOS>BOND
  1   1   2  2   
  2   2   3  1   
  3   2   4  1   
  4   3   5  2   
  5   3   6  1   
  6   4   7  1   
  7   4  21  1   
  8   4  22  1   
  9   5   8  1   
 10   5  23  1   
 11   6   9  1   
 12   6  24  1   
 13   6  25  1   
 14   7   9  1   
 15   7  26  1   
 16   7  27  1   
 17   8  10  1   
 18   8  28  1   
 19   9  29  1   
 20   9  30  1   
 21  10  11  ar  
 22  10  12  ar  
 23  11  13  ar  
 24  11  31  1   
 25  12  14  ar  
 26  12  32  1   
 27  13  15  ar  
 28  13  33  1   
 29  14  15  ar  
 30  14  34  1   
 31  15  16  1   
 32  16  17  2   
 33  16  18  1   
 34  18  19  1   
 35  19  20  1   
 36  19  35  1   
 37  19  36  1   
 38  20  37  1   
 39  20  38  1   
 40  20  39  1   
@<TRIPOS>SUBSTRUCTURE
  1 ****  10 GROUP 4 **** **** 0

# MOE 2024.06 (io_trps.svl 2023.06)
