@<TRIPOS>MOLECULE
NONAME
29 29 1 0 0 
SMALL
USER_CHARGES


@<TRIPOS>ATOM
  1 S        0.0930    -0.0280    -0.1430 S.o2  1 <1>   1.4470 
  2 O        0.2910    -0.5920    -1.4590 O.2   1 <1>  -0.6500 
  3 O        0.2830    -0.8470     1.0320 O.2   1 <1>  -0.6500 
  4 N        1.2390     1.1830     0.0460 N.am  1 <1>  -0.9140 
  5 C       -1.4840     0.8620    -0.0580 C.ar  1 <1>  -0.0090 
  6 C        2.5800     0.7450    -0.3340 C.3   1 <1>   0.1960 
  7 C       -1.7720     1.8980    -0.9370 C.ar  1 <1>  -0.1500 
  8 C       -2.4500     0.5350     0.8870 C.ar  1 <1>  -0.1500 
  9 C        3.5890     1.8730    -0.1150 C.3   1 <1>   0.1200 
 10 C       -2.9720     2.5820    -0.8720 C.ar  1 <1>  -0.1500 
 11 C       -3.6500     1.2190     0.9510 C.ar  1 <1>  -0.1500 
 12 O        4.8640     1.3910    -0.4000 O.3   1 <1>  -0.5600 
 13 C       -3.9450     2.2630     0.0750 C.ar  1 <1>  -0.1790 
 14 C        5.8700     2.3440    -0.2750 C.3   1 <1>   0.0400 
 15 C       -5.2110     2.9860     0.1450 C.2   1 <1>   0.9790 
 16 O       -6.0710     2.6770     0.9890 O.co2 1 <1>  -0.9000 
 17 O       -5.4480     3.9230    -0.6380 O.co2 1 <1>  -0.9000 
 18 H        1.2470     1.3290     1.0530 H     1 <1>   0.4200 
 19 H        2.5910     0.4690    -1.3760 H     1 <1>   0.0800 
 20 H        2.8660    -0.1110     0.2560 H     1 <1>   0.0800 
 21 H       -1.0470     2.1740    -1.6830 H     1 <1>   0.1500 
 22 H       -2.2650    -0.2640     1.5830 H     1 <1>   0.1500 
 23 H        3.5720     2.2020     0.9090 H     1 <1>   0.0800 
 24 H        3.3740     2.6940    -0.7780 H     1 <1>   0.0800 
 25 H       -3.1750     3.3840    -1.5630 H     1 <1>   0.1500 
 26 H       -4.3870     0.9510     1.6910 H     1 <1>   0.1500 
 27 H        6.8080     1.8720    -0.5130 H     1 <1>   0.0800 
 28 H        5.8940     2.7070     0.7380 H     1 <1>   0.0800 
 29 H        5.6850     3.1490    -0.9650 H     1 <1>   0.0800 
@<TRIPOS>BOND
  1   1   2  2   
  2   1   3  2   
  3   1   4  am  
  4   1   5  1   
  5   4   6  1   
  6   4  18  1   
  7   5   7  ar  
  8   5   8  ar  
  9   6   9  1   
 10   6  19  1   
 11   6  20  1   
 12   7  10  ar  
 13   7  21  1   
 14   8  11  ar  
 15   8  22  1   
 16   9  12  1   
 17   9  23  1   
 18   9  24  1   
 19  10  13  ar  
 20  10  25  1   
 21  11  13  ar  
 22  11  26  1   
 23  12  14  1   
 24  13  15  1   
 25  14  27  1   
 26  14  28  1   
 27  14  29  1   
 28  15  16  ar  
 29  15  17  ar  
@<TRIPOS>SUBSTRUCTURE
  1 ****   5 GROUP 4 **** **** 0

# MOE 2024.06 (io_trps.svl 2023.06)
