@<TRIPOS>MOLECULE
NONAME
43 44 1 0 0 
SMALL
USER_CHARGES


@<TRIPOS>ATOM
  1 O       -0.3000    -0.4410    -1.5000 O.2   1 <1>  -0.5700 
  2 C        0.2220    -1.2760    -0.7820 C.2   1 <1>   0.5440 
  3 N        1.2780    -0.9180     0.0140 N.am  1 <1>  -0.7300 
  4 C       -0.2740    -2.6370    -0.7370 C.ar  1 <1>   0.0860 
  5 C        1.9410     0.3820     0.1620 C.3   1 <1>   0.3000 
  6 C       -1.6510    -2.9190    -0.7070 C.ar  1 <1>   0.1170 
  7 C        0.6220    -3.7090    -0.6980 C.ar  1 <1>  -0.1500 
  8 C        3.0560     0.1810     1.1870 C.3   1 <1>  -0.2400 
  9 C        2.5480     0.8120    -1.1740 C.3   1 <1>  -0.2400 
 10 C        0.9450     1.4170     0.6870 C.3   1 <1>  -0.2400 
 11 N       -2.5760    -1.8710    -0.7780 N.am  1 <1>  -0.5470 
 12 C       -2.0770    -4.2410    -0.6160 C.ar  1 <1>  -0.1500 
 13 C        0.1840    -5.0160    -0.6110 C.ar  1 <1>  -0.1500 
 14 C       -3.8280    -1.6980    -0.2570 C.2   1 <1>   0.5690 
 15 C       -1.1720    -5.2820    -0.5670 C.ar  1 <1>  -0.1500 
 16 O       -4.4210    -2.5600     0.3490 O.2   1 <1>  -0.5700 
 17 C       -4.4730    -0.3140    -0.4190 C.3   1 <1>   0.2610 
 18 O       -3.8950     0.4120    -1.4830 O.3   1 <1>  -0.5600 
 19 C       -4.3160     0.5670     0.8250 C.3   1 <1>  -0.1600 
 20 C       -3.2370     1.5520    -1.0330 C.3   1 <1>   0.1200 
 21 C       -3.9280     1.9220     0.2670 C.3   1 <1>  -0.1600 
 22 H        1.6180    -1.6110     0.6780 H     1 <1>   0.3700 
 23 H        1.6790    -3.5140    -0.7420 H     1 <1>   0.1500 
 24 H        2.6500    -0.1290     2.1340 H     1 <1>   0.0800 
 25 H        3.5870     1.1040     1.3380 H     1 <1>   0.0800 
 26 H        3.7590    -0.5550     0.8420 H     1 <1>   0.0800 
 27 H        3.2090     0.0530    -1.5490 H     1 <1>   0.0800 
 28 H        3.1060     1.7220    -1.0510 H     1 <1>   0.0800 
 29 H        1.7770     0.9940    -1.9010 H     1 <1>   0.0800 
 30 H        0.4880     1.0730     1.5970 H     1 <1>   0.0800 
 31 H        0.1780     1.6070    -0.0410 H     1 <1>   0.0800 
 32 H        1.4480     2.3450     0.8850 H     1 <1>   0.0800 
 33 H       -2.2190    -1.0260    -1.2510 H     1 <1>   0.3700 
 34 H       -3.1300    -4.4580    -0.5900 H     1 <1>   0.1500 
 35 H        0.8910    -5.8270    -0.5810 H     1 <1>   0.1500 
 36 H       -1.5230    -6.2980    -0.4970 H     1 <1>   0.1500 
 37 H       -5.5150    -0.4400    -0.6560 H     1 <1>   0.0800 
 38 H       -3.5250     0.1810     1.4460 H     1 <1>   0.0800 
 39 H       -5.2230     0.6000     1.4020 H     1 <1>   0.0800 
 40 H       -3.3110     2.3230    -1.7800 H     1 <1>   0.0800 
 41 H       -2.2040     1.2970    -0.8660 H     1 <1>   0.0800 
 42 H       -3.2810     2.4760     0.9250 H     1 <1>   0.0800 
 43 H       -4.8040     2.5070     0.0480 H     1 <1>   0.0800 
@<TRIPOS>BOND
  1   1   2  2   
  2   2   3  am  
  3   2   4  1   
  4   3   5  1   
  5   3  22  1   
  6   4   6  ar  
  7   4   7  ar  
  8   5   8  1   
  9   5   9  1   
 10   5  10  1   
 11   6  11  1   
 12   6  12  ar  
 13   7  13  ar  
 14   7  23  1   
 15   8  24  1   
 16   8  25  1   
 17   8  26  1   
 18   9  27  1   
 19   9  28  1   
 20   9  29  1   
 21  10  30  1   
 22  10  31  1   
 23  10  32  1   
 24  11  14  am  
 25  11  33  1   
 26  12  15  ar  
 27  12  34  1   
 28  13  15  ar  
 29  13  35  1   
 30  14  16  2   
 31  14  17  1   
 32  15  36  1   
 33  17  18  1   
 34  17  19  1   
 35  17  37  1   
 36  18  20  1   
 37  19  21  1   
 38  19  38  1   
 39  19  39  1   
 40  20  21  1   
 41  20  40  1   
 42  20  41  1   
 43  21  42  1   
 44  21  43  1   
@<TRIPOS>SUBSTRUCTURE
  1 ****   2 GROUP 4 **** **** 0

# MOE 2024.06 (io_trps.svl 2023.06)
