@<TRIPOS>MOLECULE
NONAME
34 34 1 0 0 
SMALL
USER_CHARGES


@<TRIPOS>ATOM
  1 BR       0.0780    -0.0800     0.7760 Br    1 <1>  -0.1110 
  2 C       -1.6930    -0.8260     0.6660 C.ar  1 <1>   0.1110 
  3 C       -1.8640    -2.1720     0.9230 C.ar  1 <1>  -0.1500 
  4 C       -2.7470     0.0060     0.3340 C.ar  1 <1>  -0.1500 
  5 C       -3.1440    -2.6840     0.8380 C.ar  1 <1>   0.1770 
  6 C       -4.0260    -0.5230     0.2520 C.ar  1 <1>  -0.1500 
  7 CL      -3.3820    -4.3880     1.1590 Cl    1 <1>  -0.1770 
  8 C       -4.2350    -1.8810     0.5050 C.ar  1 <1>   0.0830 
  9 O       -5.4600    -2.4710     0.4450 O.3   1 <1>  -0.3630 
 10 C       -6.6250    -1.7570     0.1200 C.3   1 <1>   0.1200 
 11 C       -7.7800    -2.7610     0.1570 C.3   1 <1>   0.3430 
 12 N       -9.0940    -2.1210    -0.1750 N.4   1 <1>  -0.9060 
 13 C      -10.2640    -3.0050    -0.1660 C.3   1 <1>   0.5030 
 14 C      -11.4600    -2.1320    -0.5290 C.3   1 <1>  -0.2400 
 15 C      -10.4580    -3.5950     1.2300 C.3   1 <1>  -0.2400 
 16 C      -10.0910    -4.1070    -1.2110 C.3   1 <1>  -0.2400 
 17 H       -1.0310    -2.8000     1.1790 H     1 <1>   0.1500 
 18 H       -2.5630     1.0500     0.1430 H     1 <1>   0.1500 
 19 H       -4.8320     0.1360    -0.0070 H     1 <1>   0.1500 
 20 H       -6.5000    -1.3430    -0.8660 H     1 <1>   0.0800 
 21 H       -6.7590    -0.9830     0.8550 H     1 <1>   0.0800 
 22 H       -7.8240    -3.1930     1.1430 H     1 <1>   0.0800 
 23 H       -7.5700    -3.5480    -0.5500 H     1 <1>   0.0800 
 24 H       -9.0490    -1.7000    -1.1080 H     1 <1>   0.4500 
 25 H       -9.2900    -1.3650     0.4890 H     1 <1>   0.4500 
 26 H      -11.3470    -1.7010    -1.5080 H     1 <1>   0.0800 
 27 H      -11.6030    -1.3450     0.1910 H     1 <1>   0.0800 
 28 H      -12.3570    -2.7270    -0.5390 H     1 <1>   0.0800 
 29 H      -10.5280    -2.8220     1.9740 H     1 <1>   0.0800 
 30 H       -9.6620    -4.2700     1.4910 H     1 <1>   0.0800 
 31 H      -11.3730    -4.1610     1.2600 H     1 <1>   0.0800 
 32 H       -9.9030    -3.6930    -2.1860 H     1 <1>   0.0800 
 33 H      -10.9920    -4.6910    -1.2720 H     1 <1>   0.0800 
 34 H       -9.2950    -4.7810    -0.9500 H     1 <1>   0.0800 
@<TRIPOS>BOND
  1   1   2  1   
  2   2   3  ar  
  3   2   4  ar  
  4   3   5  ar  
  5   3  17  1   
  6   4   6  ar  
  7   4  18  1   
  8   5   7  1   
  9   5   8  ar  
 10   6   8  ar  
 11   6  19  1   
 12   8   9  1   
 13   9  10  1   
 14  10  11  1   
 15  10  20  1   
 16  10  21  1   
 17  11  12  1   
 18  11  22  1   
 19  11  23  1   
 20  12  13  1   
 21  12  24  1   
 22  12  25  1   
 23  13  14  1   
 24  13  15  1   
 25  13  16  1   
 26  14  26  1   
 27  14  27  1   
 28  14  28  1   
 29  15  29  1   
 30  15  30  1   
 31  15  31  1   
 32  16  32  1   
 33  16  33  1   
 34  16  34  1   
@<TRIPOS>SUBSTRUCTURE
  1 ****   9 GROUP 4 **** **** 0

# MOE 2024.06 (io_trps.svl 2023.06)
