@<TRIPOS>MOLECULE
NONAME
38 38 1 0 0 
SMALL
USER_CHARGES


@<TRIPOS>ATOM
  1 S        0.7480     1.3560     0.4010 S.3   1 <1>  -0.3320 
  2 C       -1.0380     1.5790     0.2900 C.ar  1 <1>   0.1020 
  3 C        1.3110     0.4460    -1.1260 C.3   1 <1>   0.2110 
  4 C       -1.8060     1.0320    -0.7280 C.ar  1 <1>  -0.1500 
  5 C       -1.6290     2.3350     1.2860 C.ar  1 <1>  -0.1500 
  6 C        2.6830    -0.1980    -0.8930 C.2   1 <1>   0.5690 
  7 C        1.3290     1.4620    -2.2770 C.3   1 <1>  -0.2400 
  8 C       -3.1730     1.2520    -0.7400 C.ar  1 <1>  -0.1500 
  9 C       -2.9960     2.5500     1.2670 C.ar  1 <1>  -0.1500 
 10 O        3.0140    -1.1210    -1.6000 O.2   1 <1>  -0.5700 
 11 N        3.4980     0.2810     0.0850 N.am  1 <1>  -0.7300 
 12 C       -3.7740     2.0090     0.2550 C.ar  1 <1>  -0.1430 
 13 C        4.8550    -0.2080     0.4080 C.3   1 <1>   0.1400 
 14 C       -5.2730     2.2480     0.2350 C.3   1 <1>  -0.0970 
 15 C        5.8500     0.9630     0.4570 C.3   1 <1>  -0.0800 
 16 C        7.2670     0.4360     0.7180 C.3   1 <1>  -0.2400 
 17 C        5.4810     1.9970     1.5340 C.3   1 <1>  -0.2400 
 18 H        0.6020    -0.3390    -1.3080 H     1 <1>   0.0800 
 19 H       -1.3710     0.4410    -1.5080 H     1 <1>   0.1500 
 20 H       -1.0220     2.7510     2.0700 H     1 <1>   0.1500 
 21 H        2.0420     2.2400    -2.0700 H     1 <1>   0.0800 
 22 H        0.3600     1.9040    -2.4140 H     1 <1>   0.0800 
 23 H        1.6160     0.9690    -3.1890 H     1 <1>   0.0800 
 24 H       -3.7710     0.8310    -1.5300 H     1 <1>   0.1500 
 25 H       -3.4500     3.1400     2.0430 H     1 <1>   0.1500 
 26 H        3.1370     1.0240     0.6900 H     1 <1>   0.3700 
 27 H        5.1680    -0.9180    -0.3400 H     1 <1>   0.0800 
 28 H        4.8300    -0.7120     1.3580 H     1 <1>   0.0800 
 29 H       -5.7800     1.4280    -0.2390 H     1 <1>   0.0800 
 30 H       -5.4900     3.1510    -0.3070 H     1 <1>   0.0800 
 31 H       -5.6510     2.3460     1.2370 H     1 <1>   0.0800 
 32 H        5.8480     1.4460    -0.5060 H     1 <1>   0.0800 
 33 H        7.3200    -0.0570     1.6730 H     1 <1>   0.0800 
 34 H        7.9750     1.2450     0.7090 H     1 <1>   0.0800 
 35 H        7.5500    -0.2660    -0.0470 H     1 <1>   0.0800 
 36 H        5.4280     1.5330     2.5030 H     1 <1>   0.0800 
 37 H        4.5330     2.4540     1.3170 H     1 <1>   0.0800 
 38 H        6.2220     2.7770     1.5690 H     1 <1>   0.0800 
@<TRIPOS>BOND
  1   1   2  1   
  2   1   3  1   
  3   2   4  ar  
  4   2   5  ar  
  5   3   6  1   
  6   3   7  1   
  7   3  18  1   
  8   4   8  ar  
  9   4  19  1   
 10   5   9  ar  
 11   5  20  1   
 12   6  10  2   
 13   6  11  am  
 14   7  21  1   
 15   7  22  1   
 16   7  23  1   
 17   8  12  ar  
 18   8  24  1   
 19   9  12  ar  
 20   9  25  1   
 21  11  13  1   
 22  11  26  1   
 23  12  14  1   
 24  13  15  1   
 25  13  27  1   
 26  13  28  1   
 27  14  29  1   
 28  14  30  1   
 29  14  31  1   
 30  15  16  1   
 31  15  17  1   
 32  15  32  1   
 33  16  33  1   
 34  16  34  1   
 35  16  35  1   
 36  17  36  1   
 37  17  37  1   
 38  17  38  1   
@<TRIPOS>SUBSTRUCTURE
  1 ****   1 GROUP 4 **** **** 0

# MOE 2024.06 (io_trps.svl 2023.06)
