@<TRIPOS>MOLECULE
NONAME
41 43 1 0 0 
SMALL
USER_CHARGES


@<TRIPOS>ATOM
  1 S       -0.1970    -0.4320     1.5740 S.o2  1 <1>   1.4470 
  2 O        0.1130     0.9730     1.4210 O.2   1 <1>  -0.6500 
  3 O       -0.6980    -0.9140     2.8440 O.2   1 <1>  -0.6500 
  4 N       -1.3600    -0.8210     0.4040 N.am  1 <1>  -0.8490 
  5 C        1.2410    -1.4090     1.0570 C.ar  1 <1>  -0.0090 
  6 C       -1.8080    -2.2220     0.4930 C.3   1 <1>   0.1960 
  7 C       -2.4980     0.0970     0.4290 C.3   1 <1>   0.1960 
  8 C        1.7250    -1.3190    -0.2460 C.ar  1 <1>  -0.1500 
  9 C        1.8910    -2.2690     1.9450 C.ar  1 <1>  -0.1500 
 10 C       -3.0120    -2.5230    -0.4200 C.3   1 <1>  -0.1600 
 11 C       -3.3530    -0.0720    -0.8390 C.3   1 <1>  -0.1600 
 12 C        2.8170    -2.0710    -0.6330 C.ar  1 <1>  -0.1430 
 13 C        2.9860    -3.0240     1.5570 C.ar  1 <1>  -0.1500 
 14 C       -3.2090    -1.4540    -1.5020 C.3   1 <1>  -0.0800 
 15 C        3.4470    -2.9190     0.2550 C.ar  1 <1>   0.1170 
 16 C        3.5190    -2.1420    -1.9800 C.3   1 <1>   0.0440 
 17 C       -4.4130    -1.7720    -2.3950 C.3   1 <1>  -0.2400 
 18 N        4.5100    -3.5620    -0.3680 N.am  1 <1>  -0.4770 
 19 C        4.6070    -3.1550    -1.6690 C.2   1 <1>   0.5690 
 20 C        5.4120    -4.5370     0.2860 C.3   1 <1>   0.0600 
 21 O        5.4250    -3.5270    -2.4770 O.2   1 <1>  -0.5700 
 22 H       -2.0800    -2.4650     1.5070 H     1 <1>   0.0800 
 23 H       -0.9890    -2.8610     0.2090 H     1 <1>   0.0800 
 24 H       -2.1590     1.1190     0.4820 H     1 <1>   0.0800 
 25 H       -3.0930    -0.1000     1.3070 H     1 <1>   0.0800 
 26 H        1.2410    -0.6580    -0.9470 H     1 <1>   0.1500 
 27 H        1.5300    -2.3460     2.9580 H     1 <1>   0.1500 
 28 H       -3.8970    -2.5760     0.1890 H     1 <1>   0.0800 
 29 H       -2.8770    -3.4890    -0.8720 H     1 <1>   0.0800 
 30 H       -3.0740     0.6860    -1.5500 H     1 <1>   0.0800 
 31 H       -4.3790     0.1090    -0.5700 H     1 <1>   0.0800 
 32 H        3.4750    -3.6810     2.2530 H     1 <1>   0.1500 
 33 H       -2.3230    -1.4400    -2.1170 H     1 <1>   0.0800 
 34 H        3.9510    -1.1990    -2.2550 H     1 <1>   0.0800 
 35 H        2.8690    -2.5130    -2.7500 H     1 <1>   0.0800 
 36 H       -5.3180    -1.8130    -1.8150 H     1 <1>   0.0800 
 37 H       -4.2740    -2.7210    -2.8830 H     1 <1>   0.0800 
 38 H       -4.5230    -1.0150    -3.1520 H     1 <1>   0.0800 
 39 H        4.8410    -5.3780     0.6360 H     1 <1>   0.0800 
 40 H        5.9090    -4.0680     1.1160 H     1 <1>   0.0800 
 41 H        6.1510    -4.8820    -0.4160 H     1 <1>   0.0800 
@<TRIPOS>BOND
  1   1   2  2   
  2   1   3  2   
  3   1   4  am  
  4   1   5  1   
  5   4   6  1   
  6   4   7  1   
  7   5   8  ar  
  8   5   9  ar  
  9   6  10  1   
 10   6  22  1   
 11   6  23  1   
 12   7  11  1   
 13   7  24  1   
 14   7  25  1   
 15   8  12  ar  
 16   8  26  1   
 17   9  13  ar  
 18   9  27  1   
 19  10  14  1   
 20  10  28  1   
 21  10  29  1   
 22  11  14  1   
 23  11  30  1   
 24  11  31  1   
 25  12  15  ar  
 26  12  16  1   
 27  13  15  ar  
 28  13  32  1   
 29  14  17  1   
 30  14  33  1   
 31  15  18  1   
 32  16  19  1   
 33  16  34  1   
 34  16  35  1   
 35  17  36  1   
 36  17  37  1   
 37  17  38  1   
 38  18  19  am  
 39  18  20  1   
 40  19  21  2   
 41  20  39  1   
 42  20  40  1   
 43  20  41  1   
@<TRIPOS>SUBSTRUCTURE
  1 ****   8 GROUP 4 **** **** 0

# MOE 2024.06 (io_trps.svl 2023.06)
