@<TRIPOS>MOLECULE
NONAME
65 66 1 0 0 
SMALL
USER_CHARGES


@<TRIPOS>ATOM
  1 O        1.1160    -0.5650     2.2840 O.2   1 <1>  -0.5700 
  2 C        0.9400    -1.6530     1.8250 C.2   1 <1>   0.4480 
  3 C        2.0950    -2.4970     1.3300 C.3   1 <1>   0.0420 
  4 C       -0.4520    -2.2640     1.8080 C.3   1 <1>  -0.0990 
  5 C        2.7940    -1.7840     0.1940 C.2   1 <1>   0.6590 
  6 C        1.6400    -3.9320     1.0030 C.3   1 <1>   0.0630 
  7 C       -0.7410    -2.9900     0.4880 C.3   1 <1>   0.2800 
  8 O        2.2660    -1.6120    -0.8740 O.2   1 <1>  -0.5700 
  9 O        4.0420    -1.4110     0.4560 O.3   1 <1>  -0.4300 
 10 C        2.7850    -4.8110     0.4850 C.ar  1 <1>  -0.1440 
 11 C        0.3730    -4.0160     0.1110 C.3   1 <1>  -0.0190 
 12 O       -0.7350    -2.0200    -0.4860 O.3   1 <1>  -0.6800 
 13 C       -2.1770    -3.5300     0.4730 C.3   1 <1>  -0.2400 
 14 C        4.9610    -0.7960    -0.4190 C.3   1 <1>   0.2800 
 15 C        3.3840    -5.7230     1.3440 C.ar  1 <1>  -0.1500 
 16 C        3.2360    -4.7390    -0.8280 C.ar  1 <1>  -0.1500 
 17 C       -0.0990    -5.4590     0.1300 C.2   1 <1>   0.6590 
 18 C        5.2570    -1.7270    -1.6000 C.3   1 <1>  -0.2400 
 19 C        4.4250     0.5670    -0.8680 C.3   1 <1>  -0.2400 
 20 C        6.2330    -0.5990     0.4050 C.3   1 <1>  -0.2400 
 21 C        4.4100    -6.5430     0.9090 C.ar  1 <1>  -0.1500 
 22 C        4.2610    -5.5580    -1.2660 C.ar  1 <1>  -0.1500 
 23 O       -0.4210    -5.9930     1.1620 O.2   1 <1>  -0.5700 
 24 O       -0.0680    -6.0820    -1.0420 O.3   1 <1>  -0.4300 
 25 C        4.8560    -6.4650    -0.4060 C.ar  1 <1>   0.0830 
 26 C       -0.2520    -7.4550    -1.2930 C.3   1 <1>   0.2800 
 27 O        5.8520    -7.2310    -0.9150 O.3   1 <1>  -0.3630 
 28 C       -1.6780    -7.8720    -0.9200 C.3   1 <1>  -0.2400 
 29 C       -0.0460    -7.6190    -2.7990 C.3   1 <1>  -0.2400 
 30 C        0.8130    -8.2610    -0.5410 C.3   1 <1>  -0.2400 
 31 C        6.5080    -8.1990    -0.1280 C.3   1 <1>   0.0400 
 32 H        2.8000    -2.5610     2.1380 H     1 <1>   0.0800 
 33 H       -1.1810    -1.4910     1.9790 H     1 <1>   0.0800 
 34 H       -0.5300    -2.9600     2.6230 H     1 <1>   0.0800 
 35 H        1.3560    -4.3490     1.9550 H     1 <1>   0.0800 
 36 H        0.6620    -3.8140    -0.9040 H     1 <1>   0.0800 
 37 H       -1.3930    -1.3250    -0.2950 H     1 <1>   0.4000 
 38 H       -2.3220    -4.2490     1.2590 H     1 <1>   0.0800 
 39 H       -2.3920    -4.0060    -0.4680 H     1 <1>   0.0800 
 40 H       -2.8870    -2.7370     0.6280 H     1 <1>   0.0800 
 41 H        3.0530    -5.8080     2.3650 H     1 <1>   0.1500 
 42 H        2.8010    -4.0500    -1.5300 H     1 <1>   0.1500 
 43 H        4.3940    -1.8390    -2.2310 H     1 <1>   0.0800 
 44 H        5.5650    -2.6940    -1.2460 H     1 <1>   0.0800 
 45 H        6.0480    -1.3170    -2.2010 H     1 <1>   0.0800 
 46 H        4.1530     1.1610    -0.0140 H     1 <1>   0.0800 
 47 H        3.5680     0.4560    -1.5070 H     1 <1>   0.0800 
 48 H        5.1790     1.0930    -1.4240 H     1 <1>   0.0800 
 49 H        6.0330     0.0290     1.2550 H     1 <1>   0.0800 
 50 H        6.9960    -0.1320    -0.1900 H     1 <1>   0.0800 
 51 H        6.6040    -1.5480     0.7500 H     1 <1>   0.0800 
 52 H        4.8460    -7.2350     1.6040 H     1 <1>   0.1500 
 53 H        4.6070    -5.4970    -2.2820 H     1 <1>   0.1500 
 54 H       -1.8300    -7.8250     0.1420 H     1 <1>   0.0800 
 55 H       -1.8550    -8.8860    -1.2290 H     1 <1>   0.0800 
 56 H       -2.3940    -7.2370    -1.4100 H     1 <1>   0.0800 
 57 H       -0.7650    -7.0320    -3.3410 H     1 <1>   0.0800 
 58 H       -0.1650    -8.6490    -3.0830 H     1 <1>   0.0800 
 59 H        0.9450    -7.3040    -3.0750 H     1 <1>   0.0800 
 60 H        0.6560    -8.2140     0.5210 H     1 <1>   0.0800 
 61 H        1.7950    -7.8870    -0.7690 H     1 <1>   0.0800 
 62 H        0.7660    -9.2940    -0.8330 H     1 <1>   0.0800 
 63 H        7.2470    -8.6830    -0.7410 H     1 <1>   0.0800 
 64 H        5.7860    -8.9210     0.2130 H     1 <1>   0.0800 
 65 H        6.9860    -7.7090     0.7020 H     1 <1>   0.0800 
@<TRIPOS>BOND
  1   1   2  2   
  2   2   3  1   
  3   2   4  1   
  4   3   5  1   
  5   3   6  1   
  6   3  32  1   
  7   4   7  1   
  8   4  33  1   
  9   4  34  1   
 10   5   8  2   
 11   5   9  1   
 12   6  10  1   
 13   6  11  1   
 14   6  35  1   
 15   7  11  1   
 16   7  12  1   
 17   7  13  1   
 18   9  14  1   
 19  10  15  ar  
 20  10  16  ar  
 21  11  17  1   
 22  11  36  1   
 23  12  37  1   
 24  13  38  1   
 25  13  39  1   
 26  13  40  1   
 27  14  18  1   
 28  14  19  1   
 29  14  20  1   
 30  15  21  ar  
 31  15  41  1   
 32  16  22  ar  
 33  16  42  1   
 34  17  23  2   
 35  17  24  1   
 36  18  43  1   
 37  18  44  1   
 38  18  45  1   
 39  19  46  1   
 40  19  47  1   
 41  19  48  1   
 42  20  49  1   
 43  20  50  1   
 44  20  51  1   
 45  21  25  ar  
 46  21  52  1   
 47  22  25  ar  
 48  22  53  1   
 49  24  26  1   
 50  25  27  1   
 51  26  28  1   
 52  26  29  1   
 53  26  30  1   
 54  27  31  1   
 55  28  54  1   
 56  28  55  1   
 57  28  56  1   
 58  29  57  1   
 59  29  58  1   
 60  29  59  1   
 61  30  60  1   
 62  30  61  1   
 63  30  62  1   
 64  31  63  1   
 65  31  64  1   
 66  31  65  1   
@<TRIPOS>SUBSTRUCTURE
  1 ****  10 GROUP 4 **** **** 0

# MOE 2024.06 (io_trps.svl 2023.06)
