@<TRIPOS>MOLECULE
NONAME
34 35 1 0 0 
SMALL
USER_CHARGES


@<TRIPOS>ATOM
  1 CL       0.0200    -0.1260    -1.9350 Cl    1 <1>  -0.1240 
  2 C        1.4790     0.4220    -1.1580 C.2   1 <1>   0.1640 
  3 S        1.8480     2.1260    -1.2910 S.3   1 <1>  -0.0800 
  4 C        2.4090    -0.2400    -0.4500 C.2   1 <1>  -0.1500 
  5 C        3.3280     1.9180    -0.3480 C.2   1 <1>  -0.0220 
  6 C        3.4580     0.6200     0.0110 C.2   1 <1>  -0.1500 
  7 S        4.3370     3.3820    -0.0160 S.o2  1 <1>   1.5000 
  8 O        4.1970     4.3700    -1.0580 O.2   1 <1>  -0.6500 
  9 O        4.2210     3.7630     1.3730 O.2   1 <1>  -0.6500 
 10 N        5.8980     2.8150    -0.2450 N.am  1 <1>  -0.9140 
 11 C        6.8900     3.5770     0.4900 C.3   1 <1>   0.1960 
 12 C        8.2800     3.1080     0.0720 C.3   1 <1>  -0.1600 
 13 C        9.3590     3.8740     0.8370 C.3   1 <1>   0.1400 
 14 N       10.6930     3.3680     0.4520 N.am  1 <1>  -0.6600 
 15 C       11.4430     2.5190     1.1890 C.2   1 <1>   0.5690 
 16 C       11.3820     3.8360    -0.7620 C.3   1 <1>   0.1400 
 17 O       11.1170     2.0120     2.2340 O.2   1 <1>  -0.5700 
 18 C       12.7750     2.2780     0.5360 C.3   1 <1>  -0.0990 
 19 C       12.6360     2.9530    -0.8400 C.3   1 <1>  -0.1600 
 20 H        2.3980    -1.2930    -0.2340 H     1 <1>   0.1500 
 21 H        4.2730     0.2280     0.5980 H     1 <1>   0.1500 
 22 H        6.0580     2.9900    -1.2350 H     1 <1>   0.4200 
 23 H        6.7550     3.4180     1.5490 H     1 <1>   0.0800 
 24 H        6.7760     4.6300     0.2830 H     1 <1>   0.0800 
 25 H        8.4120     3.2640    -0.9830 H     1 <1>   0.0800 
 26 H        8.3780     2.0590     0.2950 H     1 <1>   0.0800 
 27 H        9.2230     3.7310     1.8970 H     1 <1>   0.0800 
 28 H        9.3010     4.9280     0.6280 H     1 <1>   0.0800 
 29 H       11.6480     4.8730    -0.6460 H     1 <1>   0.0800 
 30 H       10.7590     3.7090    -1.6310 H     1 <1>   0.0800 
 31 H       12.9690     1.2250     0.4500 H     1 <1>   0.0800 
 32 H       13.5410     2.7480     1.1260 H     1 <1>   0.0800 
 33 H       13.5070     3.5310    -1.0950 H     1 <1>   0.0800 
 34 H       12.4870     2.2030    -1.5970 H     1 <1>   0.0800 
@<TRIPOS>BOND
  1   1   2  1   
  2   2   3  1   
  3   2   4  2   
  4   3   5  1   
  5   4   6  1   
  6   4  20  1   
  7   5   6  2   
  8   5   7  1   
  9   6  21  1   
 10   7   8  2   
 11   7   9  2   
 12   7  10  am  
 13  10  11  1   
 14  10  22  1   
 15  11  12  1   
 16  11  23  1   
 17  11  24  1   
 18  12  13  1   
 19  12  25  1   
 20  12  26  1   
 21  13  14  1   
 22  13  27  1   
 23  13  28  1   
 24  14  15  am  
 25  14  16  1   
 26  15  17  2   
 27  15  18  1   
 28  16  19  1   
 29  16  29  1   
 30  16  30  1   
 31  18  19  1   
 32  18  31  1   
 33  18  32  1   
 34  19  33  1   
 35  19  34  1   
@<TRIPOS>SUBSTRUCTURE
  1 ****  10 GROUP 4 **** **** 0

# MOE 2024.06 (io_trps.svl 2023.06)
