@<TRIPOS>MOLECULE
NONAME
59 61 1 0 0 
SMALL
USER_CHARGES


@<TRIPOS>ATOM
  1 O        4.2400    -4.0330    -1.4590 O.2   1 <1>  -0.5700 
  2 C        3.9960    -3.3440    -0.5030 C.2   1 <1>   0.5690 
  3 N        4.6150    -2.1510    -0.3660 N.am  1 <1>  -0.7300 
  4 C        2.9790    -3.8590     0.5190 C.3   1 <1>  -0.0190 
  5 C        4.4520    -1.0960     0.6470 C.3   1 <1>   0.2840 
  6 C        3.4040    -5.2400     1.0580 C.3   1 <1>  -0.1600 
  7 C        1.5780    -3.9400    -0.1180 C.3   1 <1>  -0.1600 
  8 C        5.2250     0.1220     0.1830 C.ar  1 <1>  -0.1440 
  9 C        2.3440    -5.8660     1.9610 C.3   1 <1>   0.3430 
 10 C        0.5530    -4.5930     0.8070 C.3   1 <1>   0.3430 
 11 C        6.5130     0.3530     0.6420 C.ar  1 <1>  -0.1500 
 12 C        4.6540     1.0150    -0.7100 C.ar  1 <1>  -0.1500 
 13 N        1.0570    -5.9290     1.2260 N.4   1 <1>  -0.9590 
 14 C        7.2170     1.4660     0.2170 C.ar  1 <1>  -0.1500 
 15 C        5.3600     2.1270    -1.1340 C.ar  1 <1>  -0.1500 
 16 C        0.0280    -6.7240     1.9420 C.3   1 <1>   0.4860 
 17 C        6.6440     2.3600    -0.6710 C.ar  1 <1>  -0.1430 
 18 C       -1.1140    -6.9950     0.9850 C.ar  1 <1>  -0.1430 
 19 C        7.4180     3.5800    -1.1380 C.3   1 <1>  -0.0970 
 20 C       -0.8940    -7.7030    -0.1930 C.ar  1 <1>   0.0830 
 21 C       -2.3850    -6.5300     1.2820 C.ar  1 <1>  -0.1500 
 22 O        0.3780    -8.1240    -0.4440 O.3   1 <1>  -0.3630 
 23 C       -1.9580    -7.9380    -1.0610 C.ar  1 <1>  -0.1500 
 24 C       -3.4410    -6.7580     0.4180 C.ar  1 <1>   0.0830 
 25 C        0.6660    -8.9520    -1.5530 C.3   1 <1>   0.0400 
 26 C       -3.2240    -7.4680    -0.7580 C.ar  1 <1>  -0.1500 
 27 O       -4.6440    -6.2560     0.7910 O.3   1 <1>  -0.3620 
 28 C       -5.8040    -6.4880     0.0200 C.3   1 <1>   0.0400 
 29 H        5.2750    -1.9000    -1.1090 H     1 <1>   0.3700 
 30 H        2.9340    -3.1790     1.3490 H     1 <1>   0.0800 
 31 H        4.8330    -1.4380     1.5930 H     1 <1>   0.0800 
 32 H        3.4100    -0.8480     0.7560 H     1 <1>   0.0800 
 33 H        4.3240    -5.1410     1.6080 H     1 <1>   0.0800 
 34 H        3.5970    -5.9110     0.2380 H     1 <1>   0.0800 
 35 H        1.6250    -4.5030    -1.0340 H     1 <1>   0.0800 
 36 H        1.2420    -2.9490    -0.3730 H     1 <1>   0.0800 
 37 H        2.2280    -5.2740     2.8550 H     1 <1>   0.0800 
 38 H        2.6570    -6.8580     2.2450 H     1 <1>   0.0800 
 39 H       -0.3840    -4.6970     0.2820 H     1 <1>   0.0800 
 40 H        0.3920    -3.9720     1.6730 H     1 <1>   0.0800 
 41 H        6.9780    -0.3320     1.3290 H     1 <1>   0.1500 
 42 H        3.6590     0.8490    -1.0850 H     1 <1>   0.1500 
 43 H        1.2090    -6.4750     0.3580 H     1 <1>   0.4500 
 44 H        8.2160     1.6320     0.5800 H     1 <1>   0.1500 
 45 H        4.9050     2.8120    -1.8290 H     1 <1>   0.1500 
 46 H       -0.3260    -6.1910     2.8090 H     1 <1>   0.0800 
 47 H        0.4450    -7.6660     2.2590 H     1 <1>   0.0800 
 48 H        8.0970     3.9100    -0.3730 H     1 <1>   0.0800 
 49 H        6.7460     4.3880    -1.3650 H     1 <1>   0.0800 
 50 H        7.9810     3.3360    -2.0210 H     1 <1>   0.0800 
 51 H       -2.5860    -5.9830     2.1870 H     1 <1>   0.1500 
 52 H       -1.8250    -8.4820    -1.9780 H     1 <1>   0.1500 
 53 H        0.4460    -8.4170    -2.4610 H     1 <1>   0.0800 
 54 H        0.0750    -9.8490    -1.4850 H     1 <1>   0.0800 
 55 H        1.7110    -9.2040    -1.5260 H     1 <1>   0.0800 
 56 H       -4.0250    -7.6630    -1.4470 H     1 <1>   0.1500 
 57 H       -6.6350    -6.0230     0.5190 H     1 <1>   0.0800 
 58 H       -5.9700    -7.5490    -0.0520 H     1 <1>   0.0800 
 59 H       -5.6720    -6.0500    -0.9530 H     1 <1>   0.0800 
@<TRIPOS>BOND
  1   1   2  2   
  2   2   3  am  
  3   2   4  1   
  4   3   5  1   
  5   3  29  1   
  6   4   6  1   
  7   4   7  1   
  8   4  30  1   
  9   5   8  1   
 10   5  31  1   
 11   5  32  1   
 12   6   9  1   
 13   6  33  1   
 14   6  34  1   
 15   7  10  1   
 16   7  35  1   
 17   7  36  1   
 18   8  11  ar  
 19   8  12  ar  
 20   9  13  1   
 21   9  37  1   
 22   9  38  1   
 23  10  13  1   
 24  10  39  1   
 25  10  40  1   
 26  11  14  ar  
 27  11  41  1   
 28  12  15  ar  
 29  12  42  1   
 30  13  16  1   
 31  13  43  1   
 32  14  17  ar  
 33  14  44  1   
 34  15  17  ar  
 35  15  45  1   
 36  16  18  1   
 37  16  46  1   
 38  16  47  1   
 39  17  19  1   
 40  18  20  ar  
 41  18  21  ar  
 42  19  48  1   
 43  19  49  1   
 44  19  50  1   
 45  20  22  1   
 46  20  23  ar  
 47  21  24  ar  
 48  21  51  1   
 49  22  25  1   
 50  23  26  ar  
 51  23  52  1   
 52  24  26  ar  
 53  24  27  1   
 54  25  53  1   
 55  25  54  1   
 56  25  55  1   
 57  26  56  1   
 58  27  28  1   
 59  28  57  1   
 60  28  58  1   
 61  28  59  1   
@<TRIPOS>SUBSTRUCTURE
  1 ****   7 GROUP 4 **** **** 0

# MOE 2024.06 (io_trps.svl 2023.06)
