@<TRIPOS>MOLECULE
NONAME
36 37 1 0 0 
SMALL
USER_CHARGES


@<TRIPOS>ATOM
  1 CL       0.5500    -0.4990    -0.6070 Cl    1 <1>  -0.1770 
  2 C        2.0280    -1.1090     0.1060 C.ar  1 <1>   0.1770 
  3 C        3.2140    -0.3620     0.1570 C.ar  1 <1>   0.0820 
  4 C        1.9800    -2.4000     0.5970 C.ar  1 <1>  -0.1500 
  5 O        3.3520     0.9170    -0.2940 O.3   1 <1>  -0.3630 
  6 C        4.3630    -0.9510     0.6840 C.ar  1 <1>  -0.1440 
  7 C        3.1260    -2.9550     1.1270 C.ar  1 <1>   0.1770 
  8 C        2.3370     1.8790    -0.0720 C.3   1 <1>   0.0400 
  9 C        4.3140    -2.2500     1.1710 C.ar  1 <1>  -0.1500 
 10 C        5.6650    -0.1780     0.7250 C.3   1 <1>   0.4870 
 11 CL       3.0830    -4.5840     1.7470 Cl    1 <1>  -0.1770 
 12 N        6.0810     0.0520    -0.6680 N.4   1 <1>  -0.9060 
 13 C        7.3750     0.7750    -0.8390 C.3   1 <1>   0.3430 
 14 C        8.5670    -0.1770    -0.5960 C.3   1 <1>   0.2000 
 15 O        8.1640    -1.4920    -0.8500 O.3   1 <1>  -0.5600 
 16 C        9.1040    -0.2020     0.8370 C.3   1 <1>  -0.1600 
 17 C        9.0240    -2.3690    -0.1990 C.3   1 <1>   0.1200 
 18 C        9.3480    -1.6800     1.1200 C.3   1 <1>  -0.1600 
 19 H        1.0670    -2.9670     0.5610 H     1 <1>   0.1500 
 20 H        2.7960     2.8500    -0.0130 H     1 <1>   0.0800 
 21 H        1.8270     1.6620     0.8510 H     1 <1>   0.0800 
 22 H        1.6500     1.8630    -0.8990 H     1 <1>   0.0800 
 23 H        5.1830    -2.7330     1.5870 H     1 <1>   0.1500 
 24 H        6.4160    -0.7460     1.2490 H     1 <1>   0.0800 
 25 H        5.5130     0.7620     1.2310 H     1 <1>   0.0800 
 26 H        5.2930     0.5030    -1.1550 H     1 <1>   0.4500 
 27 H        6.2340    -0.8780    -1.0910 H     1 <1>   0.4500 
 28 H        7.4350     1.6300    -0.1870 H     1 <1>   0.0800 
 29 H        7.4430     1.1320    -1.8540 H     1 <1>   0.0800 
 30 H        9.3720     0.0570    -1.2740 H     1 <1>   0.0800 
 31 H        8.4080     0.2120     1.5440 H     1 <1>   0.0800 
 32 H       10.0210     0.3590     0.8970 H     1 <1>   0.0800 
 33 H        9.9080    -2.4870    -0.8060 H     1 <1>   0.0800 
 34 H        8.5380    -3.3200    -0.0660 H     1 <1>   0.0800 
 35 H        8.6880    -2.0400     1.8890 H     1 <1>   0.0800 
 36 H       10.3650    -1.8790     1.4160 H     1 <1>   0.0800 
@<TRIPOS>BOND
  1   1   2  1   
  2   2   3  ar  
  3   2   4  ar  
  4   3   5  1   
  5   3   6  ar  
  6   4   7  ar  
  7   4  19  1   
  8   5   8  1   
  9   6   9  ar  
 10   6  10  1   
 11   7   9  ar  
 12   7  11  1   
 13   8  20  1   
 14   8  21  1   
 15   8  22  1   
 16   9  23  1   
 17  10  12  1   
 18  10  24  1   
 19  10  25  1   
 20  12  13  1   
 21  12  26  1   
 22  12  27  1   
 23  13  14  1   
 24  13  28  1   
 25  13  29  1   
 26  14  15  1   
 27  14  16  1   
 28  14  30  1   
 29  15  17  1   
 30  16  18  1   
 31  16  31  1   
 32  16  32  1   
 33  17  18  1   
 34  17  33  1   
 35  17  34  1   
 36  18  35  1   
 37  18  36  1   
@<TRIPOS>SUBSTRUCTURE
  1 ****   6 GROUP 4 **** **** 0

# MOE 2024.06 (io_trps.svl 2023.06)
