@<TRIPOS>MOLECULE
NONAME
27 28 1 0 0 
SMALL
USER_CHARGES


@<TRIPOS>ATOM
  1 F       -0.5660     0.6970    -1.0020 F     1 <1>  -0.3400 
  2 C       -0.2260     1.3020     0.1380 C.3   1 <1>   1.0200 
  3 F        1.0580     1.6290    -0.0130 F     1 <1>  -0.3400 
  4 F       -0.2450     0.3400     1.0630 F     1 <1>  -0.3400 
  5 C       -1.1650     2.5280     0.4690 C.3   1 <1>   0.5600 
  6 O       -2.5250     2.0740     0.6380 O.3   1 <1>  -0.3630 
  7 O       -0.8210     3.1760     1.6640 O.3   1 <1>  -0.6800 
  8 C       -1.1390     3.5800    -0.6310 C.3   1 <1>  -0.0990 
  9 C       -3.5900     2.9090     0.4200 C.ar  1 <1>   0.0830 
 10 C       -2.0550     4.6780    -0.1230 C.2   1 <1>   0.3030 
 11 C       -3.3870     4.2470     0.0420 C.ar  1 <1>   0.0860 
 12 C       -4.8660     2.4120     0.5950 C.ar  1 <1>  -0.1500 
 13 N       -1.6020     5.8170     0.3150 N.2   1 <1>  -0.8000 
 14 C       -4.5100     5.0670    -0.1000 C.ar  1 <1>  -0.1500 
 15 C       -5.9660     3.2380     0.4180 C.ar  1 <1>  -0.1500 
 16 O       -0.3860     5.8940     0.3630 O.3   1 <1>  -0.6500 
 17 C       -5.7900     4.5710     0.0760 C.ar  1 <1>  -0.1430 
 18 C       -6.9980     5.4740    -0.0940 C.3   1 <1>  -0.0970 
 19 H       -0.8490     4.1630     1.4680 H     1 <1>   0.4000 
 20 H       -0.1360     3.9130    -0.8200 H     1 <1>   0.0800 
 21 H       -1.5230     3.1790    -1.5500 H     1 <1>   0.0800 
 22 H       -4.9980     1.3830     0.8770 H     1 <1>   0.1500 
 23 H       -4.3330     6.1000    -0.3470 H     1 <1>   0.1500 
 24 H       -6.9570     2.8420     0.5570 H     1 <1>   0.1500 
 25 H       -7.6290     5.0990    -0.8790 H     1 <1>   0.0800 
 26 H       -6.6940     6.4740    -0.3450 H     1 <1>   0.0800 
 27 H       -7.5600     5.5070     0.8220 H     1 <1>   0.0800 
@<TRIPOS>BOND
  1   1   2  1   
  2   2   3  1   
  3   2   4  1   
  4   2   5  1   
  5   5   6  1   
  6   5   7  1   
  7   5   8  1   
  8   6   9  1   
  9   7  19  1   
 10   8  10  1   
 11   8  20  1   
 12   8  21  1   
 13   9  11  ar  
 14   9  12  ar  
 15  10  11  1   
 16  10  13  2   
 17  11  14  ar  
 18  12  15  ar  
 19  12  22  1   
 20  13  16  1   
 21  14  17  ar  
 22  14  23  1   
 23  15  17  ar  
 24  15  24  1   
 25  17  18  1   
 26  18  25  1   
 27  18  26  1   
 28  18  27  1   
@<TRIPOS>SUBSTRUCTURE
  1 ****   9 GROUP 4 **** **** 0

# MOE 2024.06 (io_trps.svl 2023.06)
