@<TRIPOS>MOLECULE
NONAME
24 24 1 0 0 
SMALL
USER_CHARGES


@<TRIPOS>ATOM
  1 BR      -0.3950    -0.3180    -0.5130 Br    1 <1>  -0.1110 
  2 C       -0.3960     1.6060    -0.2770 C.ar  1 <1>   0.1110 
  3 C        0.7940     2.2790    -0.0850 C.ar  1 <1>   0.3920 
  4 C       -1.5650     2.3280    -0.3050 C.ar  1 <1>   0.1660 
  5 O        1.9480     1.5800    -0.0550 O.3   1 <1>  -0.3630 
  6 N        0.8280     3.5900     0.0690 N.ar  1 <1>  -0.6200 
  7 N       -1.5380     3.6340    -0.1580 N.ar  1 <1>  -0.6200 
  8 C       -2.9300     1.6980    -0.5090 C.3   1 <1>  -0.0970 
  9 C        3.1940     2.2160     0.1440 C.3   1 <1>   0.0400 
 10 C       -0.3490     4.1970     0.0280 C.ar  1 <1>   0.7370 
 11 N       -0.2510     5.5480     0.1880 N.am  1 <1>  -0.5470 
 12 C       -1.1810     6.5290     0.3430 C.2   1 <1>   0.5690 
 13 O       -2.3700     6.3570     0.4020 O.2   1 <1>  -0.5700 
 14 C       -0.6620     7.9400     0.4610 C.3   1 <1>  -0.1790 
 15 H       -2.9750     0.7170    -0.0750 H     1 <1>   0.0800 
 16 H       -3.1440     1.6330    -1.5600 H     1 <1>   0.0800 
 17 H       -3.6850     2.3050    -0.0430 H     1 <1>   0.0800 
 18 H        3.9630     1.4650     0.1320 H     1 <1>   0.0800 
 19 H        3.1820     2.7170     1.0960 H     1 <1>   0.0800 
 20 H        3.3560     2.9220    -0.6520 H     1 <1>   0.0800 
 21 H        0.7180     5.8320     0.2190 H     1 <1>   0.3700 
 22 H       -0.0430     8.0300     1.3340 H     1 <1>   0.0800 
 23 H       -1.4880     8.6230     0.5520 H     1 <1>   0.0800 
 24 H       -0.0960     8.1970    -0.4140 H     1 <1>   0.0800 
@<TRIPOS>BOND
  1   1   2  1   
  2   2   3  ar  
  3   2   4  ar  
  4   3   5  1   
  5   3   6  ar  
  6   4   7  ar  
  7   4   8  1   
  8   5   9  1   
  9   6  10  ar  
 10   7  10  ar  
 11   8  15  1   
 12   8  16  1   
 13   8  17  1   
 14   9  18  1   
 15   9  19  1   
 16   9  20  1   
 17  10  11  1   
 18  11  12  am  
 19  11  21  1   
 20  12  13  2   
 21  12  14  1   
 22  14  22  1   
 23  14  23  1   
 24  14  24  1   
@<TRIPOS>SUBSTRUCTURE
  1 ****  10 GROUP 4 **** **** 0

# MOE 2024.06 (io_trps.svl 2023.06)
