@<TRIPOS>MOLECULE
NONAME
34 34 1 0 0 
SMALL
USER_CHARGES


@<TRIPOS>ATOM
  1 S       -0.1140    -0.7180    -0.9290 S.3   1 <1>  -0.3710 
  2 C       -1.1440     0.6690    -0.4490 C.2   1 <1>   0.6510 
  3 C        1.3710     0.0380    -1.7730 C.3   1 <1>   0.1310 
  4 N       -0.7300     1.8360    -0.7620 N.2   1 <1>  -0.6210 
  5 N       -2.2980     0.3670     0.2430 N.am  1 <1>  -0.4200 
  6 C        2.6580    -0.2460    -1.0010 C.2   1 <1>   0.5690 
  7 C       -1.4540     2.9070    -0.3310 C.2   1 <1>   0.0210 
  8 C       -3.0710     1.4440     0.6620 C.2   1 <1>   0.6160 
  9 C       -2.6940    -1.0380     0.5440 C.3   1 <1>   0.0600 
 10 O        3.2640    -1.2480    -1.3140 O.2   1 <1>  -0.5700 
 11 N        3.1390     0.6010    -0.0250 N.am  1 <1>  -0.6600 
 12 O       -0.9990     4.0240    -0.5790 O.3   1 <1>  -0.8500 
 13 C       -2.6290     2.7220     0.3690 C.2   1 <1>  -0.1360 
 14 O       -4.1230     1.2240     1.2900 O.2   1 <1>  -0.5700 
 15 C        2.3900     1.7900     0.4800 C.3   1 <1>   0.1400 
 16 C        4.3880     0.2690     0.7100 C.3   1 <1>   0.1400 
 17 C        2.6690     3.0220    -0.3780 C.3   1 <1>  -0.2400 
 18 C        5.5870     0.9080     0.0150 C.3   1 <1>  -0.2400 
 19 H        1.2190     1.0880    -1.9110 H     1 <1>   0.0800 
 20 H        1.4290    -0.4240    -2.7390 H     1 <1>   0.0800 
 21 H       -1.9550    -1.4900     1.1810 H     1 <1>   0.0800 
 22 H       -2.7640    -1.5960    -0.3730 H     1 <1>   0.0800 
 23 H       -3.6470    -1.0770     1.0400 H     1 <1>   0.0800 
 24 H       -3.1890     3.5750     0.6870 H     1 <1>   0.1500 
 25 H        2.6650     1.9970     1.4990 H     1 <1>   0.0800 
 26 H        1.3400     1.5800     0.4860 H     1 <1>   0.0800 
 27 H        4.5180    -0.8000     0.7350 H     1 <1>   0.0800 
 28 H        4.3220     0.6110     1.7280 H     1 <1>   0.0800 
 29 H        3.6810     3.3570    -0.2560 H     1 <1>   0.0800 
 30 H        2.0050     3.8130    -0.0720 H     1 <1>   0.0800 
 31 H        2.4740     2.8250    -1.4150 H     1 <1>   0.0800 
 32 H        5.6380     0.5740    -1.0060 H     1 <1>   0.0800 
 33 H        6.4920     0.6160     0.5160 H     1 <1>   0.0800 
 34 H        5.5140     1.9790     0.0400 H     1 <1>   0.0800 
@<TRIPOS>BOND
  1   1   2  1   
  2   1   3  1   
  3   2   4  2   
  4   2   5  1   
  5   3   6  1   
  6   3  19  1   
  7   3  20  1   
  8   4   7  1   
  9   5   8  am  
 10   5   9  1   
 11   6  10  2   
 12   6  11  am  
 13   7  12  1   
 14   7  13  2   
 15   8  13  1   
 16   8  14  2   
 17   9  21  1   
 18   9  22  1   
 19   9  23  1   
 20  11  15  1   
 21  11  16  1   
 22  13  24  1   
 23  15  17  1   
 24  15  25  1   
 25  15  26  1   
 26  16  18  1   
 27  16  27  1   
 28  16  28  1   
 29  17  29  1   
 30  17  30  1   
 31  17  31  1   
 32  18  32  1   
 33  18  33  1   
 34  18  34  1   
@<TRIPOS>SUBSTRUCTURE
  1 ****   4 GROUP 4 **** **** 0

# MOE 2024.06 (io_trps.svl 2023.06)
