@<TRIPOS>MOLECULE
NONAME
52 54 1 0 0 
SMALL
USER_CHARGES


@<TRIPOS>ATOM
  1 CL       0.0710    -0.0860    -1.2610 Cl    1 <1>  -0.1770 
  2 C        1.5860     0.5730    -0.6970 C.ar  1 <1>   0.1770 
  3 C        2.7500    -0.1380    -0.9030 C.ar  1 <1>  -0.1500 
  4 C        1.5920     1.7970    -0.0550 C.ar  1 <1>  -0.1500 
  5 C        3.9630     0.3710    -0.4570 C.ar  1 <1>   0.1000 
  6 C        2.7970     2.3150     0.3900 C.ar  1 <1>  -0.1500 
  7 N        5.1320    -0.3600    -0.6590 N.pl3 1 <1>  -0.8380 
  8 C        3.9690     1.6060     0.1900 C.ar  1 <1>  -0.1500 
  9 C        6.3910     0.3010    -1.1230 C.3   1 <1>   0.2090 
 10 C        5.2840    -1.6870     0.0120 C.3   1 <1>   0.2090 
 11 C        7.4750     0.2960    -0.0230 C.3   1 <1>   0.3430 
 12 C        6.3790    -1.6450     1.0980 C.3   1 <1>   0.3430 
 13 N        7.6710    -1.0680     0.5880 N.4   1 <1>  -0.9590 
 14 C        8.7470    -1.0810     1.6080 C.3   1 <1>   0.4860 
 15 C       10.0580    -0.7470     0.9240 C.ar  1 <1>  -0.1430 
 16 C       10.5480    -1.5590    -0.0960 C.ar  1 <1>   0.0830 
 17 C       10.7720     0.3750     1.3160 C.ar  1 <1>  -0.1500 
 18 O        9.7960    -2.6370    -0.4590 O.3   1 <1>  -0.3630 
 19 C       11.7610    -1.2460    -0.7020 C.ar  1 <1>  -0.1500 
 20 C       11.9680     0.7000     0.7020 C.ar  1 <1>   0.0830 
 21 C       10.3240    -3.6250    -1.3230 C.3   1 <1>   0.0400 
 22 C       12.4790    -0.1350    -0.2980 C.ar  1 <1>   0.0830 
 23 O       12.5790     1.8370     1.1250 O.3   1 <1>  -0.3620 
 24 O       13.6700     0.0870    -0.9020 O.3   1 <1>  -0.3620 
 25 C       12.8950     2.8150     0.1550 C.3   1 <1>   0.0400 
 26 C       14.8170    -0.1280    -0.1080 C.3   1 <1>   0.0400 
 27 H        2.7160    -1.0810    -1.4140 H     1 <1>   0.1500 
 28 H        0.6700     2.3310     0.0900 H     1 <1>   0.1500 
 29 H        2.8160     3.2680     0.8910 H     1 <1>   0.1500 
 30 H        4.8930     2.0180     0.5460 H     1 <1>   0.1500 
 31 H        6.1840     1.3140    -1.4230 H     1 <1>   0.0800 
 32 H        6.7590    -0.2200    -1.9900 H     1 <1>   0.0800 
 33 H        5.5320    -2.4290    -0.7270 H     1 <1>   0.0800 
 34 H        4.3490    -1.9740     0.4640 H     1 <1>   0.0800 
 35 H        7.1790     0.9930     0.7430 H     1 <1>   0.0800 
 36 H        8.4020     0.6460    -0.4470 H     1 <1>   0.0800 
 37 H        6.5430    -2.6430     1.4680 H     1 <1>   0.0800 
 38 H        6.0150    -1.0440     1.9150 H     1 <1>   0.0800 
 39 H        8.0360    -1.6850    -0.1590 H     1 <1>   0.4500 
 40 H        8.8260    -2.0610     2.0490 H     1 <1>   0.0800 
 41 H        8.5370    -0.3660     2.3860 H     1 <1>   0.0800 
 42 H       10.4180     1.0200     2.1020 H     1 <1>   0.1500 
 43 H       12.1790    -1.8460    -1.4880 H     1 <1>   0.1500 
 44 H       10.4960    -3.1920    -2.2930 H     1 <1>   0.0800 
 45 H        9.6090    -4.4240    -1.4040 H     1 <1>   0.0800 
 46 H       11.2420    -4.0030    -0.9070 H     1 <1>   0.0800 
 47 H       13.1050     3.7380     0.6660 H     1 <1>   0.0800 
 48 H       12.0560     2.9420    -0.5050 H     1 <1>   0.0800 
 49 H       13.7630     2.5050    -0.3970 H     1 <1>   0.0800 
 50 H       15.6850     0.0620    -0.7130 H     1 <1>   0.0800 
 51 H       14.8200    -1.1490     0.2300 H     1 <1>   0.0800 
 52 H       14.8010     0.5430     0.7320 H     1 <1>   0.0800 
@<TRIPOS>BOND
  1   1   2  1   
  2   2   3  ar  
  3   2   4  ar  
  4   3   5  ar  
  5   3  27  1   
  6   4   6  ar  
  7   4  28  1   
  8   5   7  1   
  9   5   8  ar  
 10   6   8  ar  
 11   6  29  1   
 12   7   9  1   
 13   7  10  1   
 14   8  30  1   
 15   9  11  1   
 16   9  31  1   
 17   9  32  1   
 18  10  12  1   
 19  10  33  1   
 20  10  34  1   
 21  11  13  1   
 22  11  35  1   
 23  11  36  1   
 24  12  13  1   
 25  12  37  1   
 26  12  38  1   
 27  13  14  1   
 28  13  39  1   
 29  14  15  1   
 30  14  40  1   
 31  14  41  1   
 32  15  16  ar  
 33  15  17  ar  
 34  16  18  1   
 35  16  19  ar  
 36  17  20  ar  
 37  17  42  1   
 38  18  21  1   
 39  19  22  ar  
 40  19  43  1   
 41  20  22  ar  
 42  20  23  1   
 43  21  44  1   
 44  21  45  1   
 45  21  46  1   
 46  22  24  1   
 47  23  25  1   
 48  24  26  1   
 49  25  47  1   
 50  25  48  1   
 51  25  49  1   
 52  26  50  1   
 53  26  51  1   
 54  26  52  1   
@<TRIPOS>SUBSTRUCTURE
  1 ****  11 GROUP 4 **** **** 0

# MOE 2024.06 (io_trps.svl 2023.06)
