@<TRIPOS>MOLECULE
NONAME
35 36 1 0 0 
SMALL
USER_CHARGES


@<TRIPOS>ATOM
  1 CL       0.0430    -1.1070     0.2750 Cl    1 <1>  -0.1770 
  2 C       -1.0240     0.2520    -0.0270 C.ar  1 <1>   0.1770 
  3 C       -0.6570     1.5730     0.2540 C.ar  1 <1>   0.0820 
  4 C       -2.2690    -0.0470    -0.5460 C.ar  1 <1>  -0.1500 
  5 O        0.5600     1.9380     0.7450 O.3   1 <1>  -0.3630 
  6 C       -1.5840     2.5900     0.0310 C.ar  1 <1>  -0.1440 
  7 C       -3.1750     0.9710    -0.7810 C.ar  1 <1>  -0.1500 
  8 C        1.7350     1.4140     0.1760 C.3   1 <1>   0.1200 
  9 C       -2.8330     2.2800    -0.4890 C.ar  1 <1>  -0.1500 
 10 C       -1.2510     4.0410     0.3490 C.3   1 <1>  -0.0960 
 11 C        2.8370     2.4650     0.3290 C.3   1 <1>   0.3430 
 12 N        4.1460     2.0050    -0.2380 N.4   1 <1>  -0.9590 
 13 C        4.7410     0.8420     0.4710 C.3   1 <1>   0.3430 
 14 C        5.1810     3.0670    -0.2030 C.3   1 <1>   0.3430 
 15 C        6.2150     0.8790     0.0900 C.3   1 <1>  -0.1600 
 16 C        6.4970     2.3170    -0.3550 C.3   1 <1>  -0.1600 
 17 H       -2.5290    -1.0680    -0.7590 H     1 <1>   0.1500 
 18 H       -4.1470     0.7450    -1.1850 H     1 <1>   0.1500 
 19 H        1.5490     1.1990    -0.8620 H     1 <1>   0.0800 
 20 H        1.9900     0.5210     0.7160 H     1 <1>   0.0800 
 21 H       -3.5530     3.0590    -0.6700 H     1 <1>   0.1500 
 22 H       -0.9470     4.1300     1.3770 H     1 <1>   0.0800 
 23 H       -2.1030     4.6780     0.1940 H     1 <1>   0.0800 
 24 H       -0.4510     4.3820    -0.2830 H     1 <1>   0.0800 
 25 H        2.9560     2.6920     1.3760 H     1 <1>   0.0800 
 26 H        2.5210     3.3610    -0.1800 H     1 <1>   0.0800 
 27 H        4.0210     1.7380    -1.2240 H     1 <1>   0.4500 
 28 H        4.2780    -0.0880     0.1800 H     1 <1>   0.0800 
 29 H        4.6430     0.9740     1.5370 H     1 <1>   0.0800 
 30 H        5.1610     3.5660     0.7540 H     1 <1>   0.0800 
 31 H        5.0400     3.7920    -0.9890 H     1 <1>   0.0800 
 32 H        6.4020     0.1920    -0.7180 H     1 <1>   0.0800 
 33 H        6.8260     0.5930     0.9290 H     1 <1>   0.0800 
 34 H        7.2640     2.7790     0.2440 H     1 <1>   0.0800 
 35 H        6.8120     2.3370    -1.3840 H     1 <1>   0.0800 
@<TRIPOS>BOND
  1   1   2  1   
  2   2   3  ar  
  3   2   4  ar  
  4   3   5  1   
  5   3   6  ar  
  6   4   7  ar  
  7   4  17  1   
  8   5   8  1   
  9   6   9  ar  
 10   6  10  1   
 11   7   9  ar  
 12   7  18  1   
 13   8  11  1   
 14   8  19  1   
 15   8  20  1   
 16   9  21  1   
 17  10  22  1   
 18  10  23  1   
 19  10  24  1   
 20  11  12  1   
 21  11  25  1   
 22  11  26  1   
 23  12  13  1   
 24  12  14  1   
 25  12  27  1   
 26  13  15  1   
 27  13  28  1   
 28  13  29  1   
 29  14  16  1   
 30  14  30  1   
 31  14  31  1   
 32  15  16  1   
 33  15  32  1   
 34  15  33  1   
 35  16  34  1   
 36  16  35  1   
@<TRIPOS>SUBSTRUCTURE
  1 ****   8 GROUP 4 **** **** 0

# MOE 2024.06 (io_trps.svl 2023.06)
