@<TRIPOS>MOLECULE
NONAME
36 36 1 0 0 
SMALL
USER_CHARGES


@<TRIPOS>ATOM
  1 S       -0.0810    -0.9010    -0.0080 S.o2  1 <1>   1.4470 
  2 O        0.8710    -0.7040     1.0630 O.2   1 <1>  -0.6500 
  3 O       -0.6270    -2.2230    -0.2030 O.2   1 <1>  -0.6500 
  4 N        0.7540    -0.6920    -1.4480 N.am  1 <1>  -0.9140 
  5 C       -1.3460     0.4290     0.0000 C.ar  1 <1>  -0.0090 
  6 C        2.0400    -1.4250    -1.5030 C.3   1 <1>   0.2570 
  7 C       -2.7020     0.1610     0.2420 C.ar  1 <1>  -0.1430 
  8 C       -0.9840     1.7670    -0.2190 C.ar  1 <1>  -0.1430 
  9 C        3.2900    -0.6080    -1.1290 C.2   1 <1>   0.5690 
 10 C       -3.6440     1.1790     0.2150 C.ar  1 <1>  -0.1500 
 11 C       -3.2310    -1.2350     0.5560 C.3   1 <1>  -0.0960 
 12 C       -1.9430     2.7680    -0.2430 C.ar  1 <1>  -0.1500 
 13 C        0.4600     2.2140    -0.4350 C.3   1 <1>  -0.0960 
 14 O        4.1630    -0.4830    -1.9560 O.2   1 <1>  -0.5700 
 15 N        3.4030    -0.0640     0.1130 N.am  1 <1>  -0.7300 
 16 C       -3.2750     2.4830    -0.0340 C.ar  1 <1>  -0.1430 
 17 C        4.5410     0.7400     0.6170 C.3   1 <1>   0.0600 
 18 C       -4.3150     3.5890    -0.0630 C.3   1 <1>  -0.0970 
 19 H        0.1390    -1.1430    -2.1220 H     1 <1>   0.4200 
 20 H        2.1870    -1.7630    -2.5130 H     1 <1>   0.0800 
 21 H        2.0010    -2.3010    -0.8790 H     1 <1>   0.0800 
 22 H       -4.6820     0.9590     0.3920 H     1 <1>   0.1500 
 23 H       -3.1840    -1.8570    -0.3200 H     1 <1>   0.0800 
 24 H       -4.2550    -1.2010     0.8820 H     1 <1>   0.0800 
 25 H       -2.6580    -1.6880     1.3450 H     1 <1>   0.0800 
 26 H       -1.6520     3.7890    -0.4240 H     1 <1>   0.1500 
 27 H        0.7890     1.9570    -1.4260 H     1 <1>   0.0800 
 28 H        1.1170     1.7610     0.2840 H     1 <1>   0.0800 
 29 H        0.5560     3.2790    -0.3240 H     1 <1>   0.0800 
 30 H        2.6120    -0.1980     0.7660 H     1 <1>   0.3700 
 31 H        4.2000     1.7250     0.8830 H     1 <1>   0.0800 
 32 H        5.3020     0.8260    -0.1400 H     1 <1>   0.0800 
 33 H        4.9650     0.2640     1.4850 H     1 <1>   0.0800 
 34 H       -5.2640     3.2050    -0.3930 H     1 <1>   0.0800 
 35 H       -4.0140     4.3710    -0.7370 H     1 <1>   0.0800 
 36 H       -4.4320     4.0040     0.9220 H     1 <1>   0.0800 
@<TRIPOS>BOND
  1   1   2  2   
  2   1   3  2   
  3   1   4  am  
  4   1   5  1   
  5   4   6  1   
  6   4  19  1   
  7   5   7  ar  
  8   5   8  ar  
  9   6   9  1   
 10   6  20  1   
 11   6  21  1   
 12   7  10  ar  
 13   7  11  1   
 14   8  12  ar  
 15   8  13  1   
 16   9  14  2   
 17   9  15  am  
 18  10  16  ar  
 19  10  22  1   
 20  11  23  1   
 21  11  24  1   
 22  11  25  1   
 23  12  16  ar  
 24  12  26  1   
 25  13  27  1   
 26  13  28  1   
 27  13  29  1   
 28  15  17  1   
 29  15  30  1   
 30  16  18  1   
 31  17  31  1   
 32  17  32  1   
 33  17  33  1   
 34  18  34  1   
 35  18  35  1   
 36  18  36  1   
@<TRIPOS>SUBSTRUCTURE
  1 ****   5 GROUP 4 **** **** 0

# MOE 2024.06 (io_trps.svl 2023.06)
