@<TRIPOS>MOLECULE
NONAME
35 36 1 0 0 
SMALL
USER_CHARGES


@<TRIPOS>ATOM
  1 O       -0.3350    -0.7330    -1.1600 O.2   1 <1>  -0.5700 
  2 C       -0.2250    -1.2510    -0.0760 C.2   1 <1>   0.6300 
  3 N       -1.1930    -1.2420     0.8750 N.am  1 <1>  -0.7300 
  4 C        1.0720    -1.9660     0.2640 C.3   1 <1>  -0.1000 
  5 C       -2.5970    -0.7810     0.7930 C.3   1 <1>   0.3640 
  6 C        1.4720    -3.2100    -0.4700 C.3   1 <1>  -0.1950 
  7 C        1.0790    -3.3020     0.9670 C.3   1 <1>  -0.2000 
  8 C       -3.4690    -1.9170     0.2660 C.ar  1 <1>  -0.1440 
  9 C       -2.8030     0.5270     0.0090 C.3   1 <1>  -0.1600 
 10 C        2.9220    -3.4390    -0.8960 C.3   1 <1>  -0.1450 
 11 C       -3.2940    -2.4200    -1.0170 C.ar  1 <1>  -0.1500 
 12 C       -4.4570    -2.4660     1.0720 C.ar  1 <1>  -0.1500 
 13 C       -2.0070     1.7150     0.5740 C.3   1 <1>  -0.2400 
 14 C       -4.0890    -3.4520    -1.4840 C.ar  1 <1>  -0.1500 
 15 C       -5.2530    -3.4980     0.6060 C.ar  1 <1>  -0.1500 
 16 C       -5.0690    -3.9920    -0.6730 C.ar  1 <1>  -0.1500 
 17 H       -1.0130    -1.8140     1.6960 H     1 <1>   0.3700 
 18 H        1.8510    -1.2660     0.5030 H     1 <1>   0.1000 
 19 H       -2.9090    -0.5750     1.8030 H     1 <1>   0.0800 
 20 H        0.7690    -3.5800    -1.2000 H     1 <1>   0.1000 
 21 H        0.1500    -3.7970     1.1940 H     1 <1>   0.1000 
 22 H        1.8380    -3.4900     1.7060 H     1 <1>   0.1000 
 23 H       -3.8500     0.7720     0.0460 H     1 <1>   0.0800 
 24 H       -2.5580     0.3820    -1.0270 H     1 <1>   0.0800 
 25 H        3.6040    -3.0550    -0.1570 H     1 <1>   0.0800 
 26 H        3.1100    -2.9390    -1.8300 H     1 <1>   0.0800 
 27 H        3.1060    -4.4900    -1.0220 H     1 <1>   0.0800 
 28 H       -2.5340    -2.0080    -1.6590 H     1 <1>   0.1500 
 29 H       -4.6160    -2.0950     2.0690 H     1 <1>   0.1500 
 30 H       -0.9500     1.5310     0.4940 H     1 <1>   0.0800 
 31 H       -2.2540     1.8810     1.6070 H     1 <1>   0.0800 
 32 H       -2.2350     2.6060     0.0170 H     1 <1>   0.0800 
 33 H       -3.9410    -3.8320    -2.4800 H     1 <1>   0.1500 
 34 H       -6.0160    -3.9180     1.2380 H     1 <1>   0.1500 
 35 H       -5.6870    -4.7950    -1.0360 H     1 <1>   0.1500 
@<TRIPOS>BOND
  1   1   2  2   
  2   2   3  am  
  3   2   4  1   
  4   3   5  1   
  5   3  17  1   
  6   4   6  1   
  7   4   7  1   
  8   4  18  1   
  9   5   8  1   
 10   5   9  1   
 11   5  19  1   
 12   6   7  1   
 13   6  10  1   
 14   6  20  1   
 15   7  21  1   
 16   7  22  1   
 17   8  11  ar  
 18   8  12  ar  
 19   9  13  1   
 20   9  23  1   
 21   9  24  1   
 22  10  25  1   
 23  10  26  1   
 24  10  27  1   
 25  11  14  ar  
 26  11  28  1   
 27  12  15  ar  
 28  12  29  1   
 29  13  30  1   
 30  13  31  1   
 31  13  32  1   
 32  14  16  ar  
 33  14  33  1   
 34  15  16  ar  
 35  15  34  1   
 36  16  35  1   
@<TRIPOS>SUBSTRUCTURE
  1 ****   3 GROUP 4 **** **** 0

# MOE 2024.06 (io_trps.svl 2023.06)
