@<TRIPOS>MOLECULE
NONAME
45 47 1 0 0 
SMALL
USER_CHARGES


@<TRIPOS>ATOM
  1 O        0.0120     0.8060     1.8260 O.2   1 <1>  -0.5700 
  2 C       -0.4500     1.7430     1.2170 C.2   1 <1>   0.5690 
  3 N        0.2720     2.6770     0.5240 N.am  1 <1>  -0.2370 
  4 C       -1.9500     2.0790     1.2060 C.3   1 <1>   0.2510 
  5 C        1.6360     2.5730     0.1860 C.ar  1 <1>   0.1170 
  6 C       -0.5460     3.7240     0.1960 C.2   1 <1>   0.5690 
  7 N       -2.8090     1.2530     0.3040 N.3   1 <1>  -0.8100 
  8 C       -1.9520     3.5260     0.6970 C.3   1 <1>  -0.0990 
  9 C        2.0690     2.8100    -1.1130 C.ar  1 <1>  -0.1500 
 10 C        2.5930     2.2260     1.1340 C.ar  1 <1>  -0.1500 
 11 O       -0.2230     4.7220    -0.3950 O.2   1 <1>  -0.5700 
 12 C       -4.2390     1.4690     0.6030 C.3   1 <1>   0.1100 
 13 C       -2.4870    -0.1890     0.3630 C.3   1 <1>   0.1100 
 14 C        3.4040     2.6990    -1.4490 C.ar  1 <1>  -0.1500 
 15 C        3.9280     2.1150     0.7950 C.ar  1 <1>  -0.1500 
 16 C       -5.1140     0.7550    -0.4300 C.3   1 <1>  -0.1600 
 17 C       -3.3190    -0.9660    -0.6620 C.3   1 <1>  -0.1600 
 18 C        4.3780     2.3460    -0.5100 C.ar  1 <1>   0.0860 
 19 C       -4.8220    -0.7500    -0.4520 C.3   1 <1>  -0.0800 
 20 C        5.7670     2.2350    -0.9040 C.2   1 <1>   0.4230 
 21 C       -5.6340    -1.4490    -1.5470 C.3   1 <1>  -0.2400 
 22 O        6.1460     2.4020    -2.0350 O.2   1 <1>  -0.5700 
 23 C        6.8330     1.8950     0.1200 C.3   1 <1>  -0.1790 
 24 H       -2.3200     2.0230     2.2150 H     1 <1>   0.0800 
 25 H       -2.1380     4.2150     1.4990 H     1 <1>   0.0800 
 26 H       -2.6480     3.6930    -0.1050 H     1 <1>   0.0800 
 27 H        1.3540     3.0880    -1.8690 H     1 <1>   0.1500 
 28 H        2.2870     2.0350     2.1480 H     1 <1>   0.1500 
 29 H       -4.4720     2.5190     0.5780 H     1 <1>   0.0800 
 30 H       -4.4670     1.0960     1.5880 H     1 <1>   0.0800 
 31 H       -2.6710    -0.5690     1.3540 H     1 <1>   0.0800 
 32 H       -1.4500    -0.3500     0.1260 H     1 <1>   0.0800 
 33 H        3.7080     2.8900    -2.4650 H     1 <1>   0.1500 
 34 H        4.6230     1.8390     1.5660 H     1 <1>   0.1500 
 35 H       -4.9240     1.1840    -1.3990 H     1 <1>   0.0800 
 36 H       -6.1490     0.9200    -0.1920 H     1 <1>   0.0800 
 37 H       -3.0880    -2.0130    -0.5800 H     1 <1>   0.0800 
 38 H       -3.0340    -0.6420    -1.6480 H     1 <1>   0.0800 
 39 H       -5.0990    -1.1680     0.5010 H     1 <1>   0.0800 
 40 H       -5.3810    -1.0550    -2.5160 H     1 <1>   0.0800 
 41 H       -6.6870    -1.3040    -1.3810 H     1 <1>   0.0800 
 42 H       -5.4320    -2.5060    -1.5430 H     1 <1>   0.0800 
 43 H        6.6460     0.9220     0.5350 H     1 <1>   0.0800 
 44 H        6.8420     2.6310     0.9020 H     1 <1>   0.0800 
 45 H        7.8000     1.8850    -0.3510 H     1 <1>   0.0800 
@<TRIPOS>BOND
  1   1   2  2   
  2   2   3  am  
  3   2   4  1   
  4   3   5  1   
  5   3   6  am  
  6   4   7  1   
  7   4   8  1   
  8   4  24  1   
  9   5   9  ar  
 10   5  10  ar  
 11   6   8  1   
 12   6  11  2   
 13   7  12  1   
 14   7  13  1   
 15   8  25  1   
 16   8  26  1   
 17   9  14  ar  
 18   9  27  1   
 19  10  15  ar  
 20  10  28  1   
 21  12  16  1   
 22  12  29  1   
 23  12  30  1   
 24  13  17  1   
 25  13  31  1   
 26  13  32  1   
 27  14  18  ar  
 28  14  33  1   
 29  15  18  ar  
 30  15  34  1   
 31  16  19  1   
 32  16  35  1   
 33  16  36  1   
 34  17  19  1   
 35  17  37  1   
 36  17  38  1   
 37  18  20  1   
 38  19  21  1   
 39  19  39  1   
 40  20  22  2   
 41  20  23  1   
 42  21  40  1   
 43  21  41  1   
 44  21  42  1   
 45  23  43  1   
 46  23  44  1   
 47  23  45  1   
@<TRIPOS>SUBSTRUCTURE
  1 ****   3 GROUP 4 **** **** 0

# MOE 2024.06 (io_trps.svl 2023.06)
