@<TRIPOS>MOLECULE
NONAME
34 35 1 0 0 
SMALL
USER_CHARGES


@<TRIPOS>ATOM
  1 O       -0.8160    -0.7490    -0.3520 O.2   1 <1>  -0.5700 
  2 C       -0.8860    -1.9320    -0.1360 C.2   1 <1>   0.5690 
  3 N       -1.9140    -2.5750     0.4800 N.am  1 <1>  -0.4200 
  4 C        0.2090    -2.9070    -0.5170 C.3   1 <1>  -0.0190 
  5 C       -1.6590    -3.9030     0.6250 C.2   1 <1>   0.5690 
  6 C       -3.1790    -1.9210     0.8850 C.3   1 <1>   0.1400 
  7 C       -0.3250    -4.2660     0.0070 C.3   1 <1>  -0.0190 
  8 C        1.5890    -2.4700     0.0100 C.3   1 <1>  -0.0220 
  9 O       -2.3690    -4.7070     1.1740 O.2   1 <1>  -0.5700 
 10 C       -4.2110    -2.0340    -0.2380 C.3   1 <1>  -0.1600 
 11 C        0.5900    -5.0190     0.9910 C.3   1 <1>  -0.0220 
 12 C        2.5140    -3.6640     0.1720 C.2   1 <1>  -0.2760 
 13 C       -5.5240    -1.3270     0.1370 C.3   1 <1>  -0.2660 
 14 C        2.0480    -4.8290     0.6230 C.2   1 <1>  -0.2880 
 15 C        3.9700    -3.4100    -0.1770 C.3   1 <1>  -0.1020 
 16 C       -6.5620    -1.4330    -0.9570 C.2   1 <1>   0.9060 
 17 O       -7.5320    -2.1740    -0.7780 O.co2 1 <1>  -0.9000 
 18 O       -6.3980    -0.7740    -1.9860 O.co2 1 <1>  -0.9000 
 19 H        0.2560    -2.9510    -1.5900 H     1 <1>   0.0800 
 20 H       -2.9910    -0.8840     1.1030 H     1 <1>   0.0800 
 21 H       -3.5570    -2.3950     1.7750 H     1 <1>   0.0800 
 22 H       -0.5130    -4.9050    -0.8370 H     1 <1>   0.0800 
 23 H        1.4880    -1.9870     0.9670 H     1 <1>   0.0800 
 24 H        2.0060    -1.7510    -0.6750 H     1 <1>   0.0800 
 25 H       -4.4220    -3.0710    -0.4380 H     1 <1>   0.0800 
 26 H       -3.8240    -1.5820    -1.1370 H     1 <1>   0.0800 
 27 H        0.3360    -6.0650     0.9750 H     1 <1>   0.0800 
 28 H        0.4410    -4.6590     1.9940 H     1 <1>   0.0800 
 29 H       -5.3480    -0.2830     0.3110 H     1 <1>   0.0800 
 30 H       -5.9390    -1.7600     1.0280 H     1 <1>   0.0800 
 31 H        2.6590    -5.7020     0.7830 H     1 <1>   0.1500 
 32 H        4.3650    -2.6190     0.4350 H     1 <1>   0.0800 
 33 H        4.0610    -3.1310    -1.2120 H     1 <1>   0.0800 
 34 H        4.5580    -4.2960    -0.0110 H     1 <1>   0.0800 
@<TRIPOS>BOND
  1   1   2  2   
  2   2   3  am  
  3   2   4  1   
  4   3   5  am  
  5   3   6  1   
  6   4   7  1   
  7   4   8  1   
  8   4  19  1   
  9   5   7  1   
 10   5   9  2   
 11   6  10  1   
 12   6  20  1   
 13   6  21  1   
 14   7  11  1   
 15   7  22  1   
 16   8  12  1   
 17   8  23  1   
 18   8  24  1   
 19  10  13  1   
 20  10  25  1   
 21  10  26  1   
 22  11  14  1   
 23  11  27  1   
 24  11  28  1   
 25  12  14  2   
 26  12  15  1   
 27  13  16  1   
 28  13  29  1   
 29  13  30  1   
 30  14  31  1   
 31  15  32  1   
 32  15  33  1   
 33  15  34  1   
 34  16  17  ar  
 35  16  18  ar  
@<TRIPOS>SUBSTRUCTURE
  1 ****   3 GROUP 4 **** **** 0

# MOE 2024.06 (io_trps.svl 2023.06)
