@<TRIPOS>MOLECULE
NONAME
42 44 1 0 0 
SMALL
USER_CHARGES


@<TRIPOS>ATOM
  1 O        0.9130    -2.0550     3.2240 O.2   1 <1>  -0.5700 
  2 C        0.8650    -2.2130     2.0260 C.2   1 <1>   0.5690 
  3 N        1.8620    -1.7450     1.2050 N.am  1 <1>  -0.6600 
  4 C       -0.3390    -2.9700     1.4770 C.3   1 <1>   0.0440 
  5 C        3.0440    -1.0060     1.7500 C.3   1 <1>   0.1400 
  6 C        1.9000    -1.8680    -0.2880 C.3   1 <1>   0.1400 
  7 C       -1.2350    -2.1350     0.5650 C.ar  1 <1>  -0.1440 
  8 C        4.3620    -1.6540     1.2980 C.3   1 <1>   0.2090 
  9 C        3.2190    -2.4960    -0.7750 C.3   1 <1>   0.2090 
 10 C       -1.7030    -2.6610    -0.6300 C.ar  1 <1>  -0.1500 
 11 C       -1.5940    -0.8450     0.9250 C.ar  1 <1>  -0.1500 
 12 N        4.4100    -1.7970    -0.1940 N.pl3 1 <1>  -0.8380 
 13 C       -2.5140    -1.9090    -1.4650 C.ar  1 <1>  -0.1440 
 14 C       -2.4020    -0.0890     0.0950 C.ar  1 <1>  -0.1500 
 15 C        5.4920    -1.4020    -0.9540 C.ar  1 <1>   0.7200 
 16 C       -2.8590    -0.6190    -1.0980 C.ar  1 <1>  -0.1500 
 17 C       -3.0220    -2.4860    -2.7740 C.3   1 <1>  -0.0970 
 18 N        6.3780    -0.5920    -0.3750 N.ar  1 <1>  -0.6200 
 19 N        5.5610    -1.8650    -2.2020 N.ar  1 <1>  -0.6200 
 20 C        7.4020    -0.2270    -1.1080 C.ar  1 <1>   0.1600 
 21 C        6.5950    -1.4840    -2.9100 C.ar  1 <1>   0.1600 
 22 C        7.5610    -0.6520    -2.4030 C.ar  1 <1>  -0.1500 
 23 H       -0.9310    -3.3150     2.3050 H     1 <1>   0.0800 
 24 H        0.0190    -3.8390     0.9590 H     1 <1>   0.0800 
 25 H        3.0170    -0.9850     2.8250 H     1 <1>   0.0800 
 26 H        3.0170     0.0100     1.4000 H     1 <1>   0.0800 
 27 H        1.8040    -0.8870    -0.7200 H     1 <1>   0.0800 
 28 H        1.0850    -2.4630    -0.6510 H     1 <1>   0.0800 
 29 H        4.4430    -2.6290     1.7440 H     1 <1>   0.0800 
 30 H        5.1800    -1.0620     1.6650 H     1 <1>   0.0800 
 31 H        3.2330    -2.4570    -1.8490 H     1 <1>   0.0800 
 32 H        3.2480    -3.5310    -0.4840 H     1 <1>   0.0800 
 33 H       -1.4390    -3.6640    -0.9150 H     1 <1>   0.1500 
 34 H       -1.2450    -0.4220     1.8520 H     1 <1>   0.1500 
 35 H       -2.6750     0.9120     0.3790 H     1 <1>   0.1500 
 36 H       -3.4860    -0.0240    -1.7380 H     1 <1>   0.1500 
 37 H       -4.0390    -2.1790    -2.9440 H     1 <1>   0.0800 
 38 H       -2.9930    -3.5610    -2.7540 H     1 <1>   0.0800 
 39 H       -2.4130    -2.1370    -3.5880 H     1 <1>   0.0800 
 40 H        8.1310     0.4280    -0.6630 H     1 <1>   0.1500 
 41 H        6.6750    -1.8460    -3.9220 H     1 <1>   0.1500 
 42 H        8.4040    -0.3460    -2.9930 H     1 <1>   0.1500 
@<TRIPOS>BOND
  1   1   2  2   
  2   2   3  am  
  3   2   4  1   
  4   3   5  1   
  5   3   6  1   
  6   4   7  1   
  7   4  23  1   
  8   4  24  1   
  9   5   8  1   
 10   5  25  1   
 11   5  26  1   
 12   6   9  1   
 13   6  27  1   
 14   6  28  1   
 15   7  10  ar  
 16   7  11  ar  
 17   8  12  1   
 18   8  29  1   
 19   8  30  1   
 20   9  12  1   
 21   9  31  1   
 22   9  32  1   
 23  10  13  ar  
 24  10  33  1   
 25  11  14  ar  
 26  11  34  1   
 27  12  15  1   
 28  13  16  ar  
 29  13  17  1   
 30  14  16  ar  
 31  14  35  1   
 32  15  18  ar  
 33  15  19  ar  
 34  16  36  1   
 35  17  37  1   
 36  17  38  1   
 37  17  39  1   
 38  18  20  ar  
 39  19  21  ar  
 40  20  22  ar  
 41  20  40  1   
 42  21  22  ar  
 43  21  41  1   
 44  22  42  1   
@<TRIPOS>SUBSTRUCTURE
  1 ****   6 GROUP 4 **** **** 0

# MOE 2024.06 (io_trps.svl 2023.06)
