@<TRIPOS>MOLECULE
NONAME
30 30 1 0 0 
SMALL
USER_CHARGES


@<TRIPOS>ATOM
  1 O        0.5630     0.9010    -1.2810 O.2   1 <1>  -0.5700 
  2 C        1.5710     1.2970    -0.7310 C.2   1 <1>   0.6900 
  3 N        1.5420     2.3900     0.0900 N.am  1 <1>  -0.6600 
  4 N        2.7140     0.6120    -0.9600 N.am  1 <1>  -0.7300 
  5 C        0.2430     2.9050     0.6160 C.3   1 <1>   0.1400 
  6 C        2.6200     3.4240     0.0570 C.3   1 <1>   0.1400 
  7 C        3.7620     0.3290     0.0520 C.3   1 <1>   0.0600 
  8 C       -0.2170     4.1430    -0.1710 C.3   1 <1>   0.1400 
  9 C        2.1590     4.6620    -0.7300 C.3   1 <1>   0.1400 
 10 N        0.8610     5.1770    -0.2040 N.am  1 <1>  -0.6600 
 11 C        0.8320     6.2700     0.6170 C.2   1 <1>   0.6900 
 12 O        1.8400     6.6660     1.1670 O.2   1 <1>  -0.5700 
 13 N       -0.3120     6.9550     0.8470 N.am  1 <1>  -0.7300 
 14 C       -1.3590     7.2380    -0.1650 C.3   1 <1>   0.0600 
 15 H        2.5850    -0.1200    -1.6610 H     1 <1>   0.3700 
 16 H        0.3630     3.1680     1.6520 H     1 <1>   0.0800 
 17 H       -0.5110     2.1400     0.5560 H     1 <1>   0.0800 
 18 H        3.5070     3.0300    -0.4050 H     1 <1>   0.0800 
 19 H        2.8660     3.7160     1.0630 H     1 <1>   0.0800 
 20 H        3.5350     0.8300     0.9770 H     1 <1>   0.0800 
 21 H        4.7160     0.6700    -0.3100 H     1 <1>   0.0800 
 22 H        3.8100    -0.7300     0.2360 H     1 <1>   0.0800 
 23 H       -1.1040     4.5370     0.2910 H     1 <1>   0.0800 
 24 H       -0.4630     3.8510    -1.1770 H     1 <1>   0.0800 
 25 H        2.0390     4.3990    -1.7660 H     1 <1>   0.0800 
 26 H        2.9140     5.4270    -0.6700 H     1 <1>   0.0800 
 27 H       -0.1820     7.6870     1.5470 H     1 <1>   0.3700 
 28 H       -1.1320     6.7370    -1.0910 H     1 <1>   0.0800 
 29 H       -1.4070     8.2970    -0.3500 H     1 <1>   0.0800 
 30 H       -2.3140     6.8980     0.1960 H     1 <1>   0.0800 
@<TRIPOS>BOND
  1   1   2  2   
  2   2   3  am  
  3   2   4  am  
  4   3   5  1   
  5   3   6  1   
  6   4   7  1   
  7   4  15  1   
  8   5   8  1   
  9   5  16  1   
 10   5  17  1   
 11   6   9  1   
 12   6  18  1   
 13   6  19  1   
 14   7  20  1   
 15   7  21  1   
 16   7  22  1   
 17   8  10  1   
 18   8  23  1   
 19   8  24  1   
 20   9  10  1   
 21   9  25  1   
 22   9  26  1   
 23  10  11  am  
 24  11  12  2   
 25  11  13  am  
 26  13  14  1   
 27  13  27  1   
 28  14  28  1   
 29  14  29  1   
 30  14  30  1   
@<TRIPOS>SUBSTRUCTURE
  1 ****  10 GROUP 4 **** **** 0

# MOE 2024.06 (io_trps.svl 2023.06)
