@<TRIPOS>MOLECULE
NONAME
40 40 1 0 0 
SMALL
USER_CHARGES


@<TRIPOS>ATOM
  1 N       -0.3020     0.2480    -0.2440 N.4   1 <1>  -0.9590 
  2 C       -1.4620     0.8450     0.4720 C.3   1 <1>   0.3430 
  3 C       -0.0620    -1.1700     0.1390 C.3   1 <1>   0.3430 
  4 C        0.9330     1.0650    -0.0020 C.3   1 <1>   0.2630 
  5 C       -2.7290     0.0320     0.1980 C.3   1 <1>  -0.1600 
  6 C       -1.3100    -2.0060    -0.1490 C.3   1 <1>  -0.1600 
  7 C       -2.5540    -1.4520     0.5650 C.3   1 <1>   0.4230 
  8 N       -3.7760    -2.2450     0.1960 N.4   1 <1>  -0.9590 
  9 C       -5.0390    -1.7470     0.8200 C.3   1 <1>   0.4810 
 10 C       -3.6670    -3.7080     0.4890 C.3   1 <1>   0.3430 
 11 C       -6.2120    -2.3580     0.0750 C.2   1 <1>  -0.2760 
 12 C       -3.5870    -4.4710    -0.8280 C.3   1 <1>  -0.2400 
 13 C       -7.0070    -3.2930     0.6070 C.2   1 <1>  -0.3000 
 14 C       -6.4500    -1.8090    -1.3290 C.3   1 <1>  -0.1020 
 15 H       -0.4860     0.2870    -1.2600 H     1 <1>   0.4500 
 16 H       -1.6100     1.8630     0.1440 H     1 <1>   0.0800 
 17 H       -1.2640     0.8640     1.5330 H     1 <1>   0.0800 
 18 H        0.1830    -1.2280     1.1880 H     1 <1>   0.0800 
 19 H        0.7730    -1.5650    -0.4200 H     1 <1>   0.0800 
 20 H        1.1870     1.0690     1.0460 H     1 <1>   0.0800 
 21 H        0.7790     2.0840    -0.3210 H     1 <1>   0.0800 
 22 H        1.7660     0.6610    -0.5560 H     1 <1>   0.0800 
 23 H       -2.9910     0.1350    -0.8410 H     1 <1>   0.0800 
 24 H       -3.5090     0.4770     0.7870 H     1 <1>   0.0800 
 25 H       -1.1000    -3.0050     0.1850 H     1 <1>   0.0800 
 26 H       -1.4680    -2.0330    -1.2130 H     1 <1>   0.0800 
 27 H       -2.4000    -1.5270     1.6310 H     1 <1>   0.0800 
 28 H       -3.9440    -2.1760    -0.8140 H     1 <1>   0.4500 
 29 H       -5.1180    -0.6750     0.7550 H     1 <1>   0.0800 
 30 H       -5.0760    -2.0300     1.8590 H     1 <1>   0.0800 
 31 H       -4.5340    -4.0500     1.0320 H     1 <1>   0.0800 
 32 H       -2.7990    -3.9150     1.0930 H     1 <1>   0.0800 
 33 H       -4.4840    -4.3280    -1.4040 H     1 <1>   0.0800 
 34 H       -3.5030    -5.5230    -0.6180 H     1 <1>   0.0800 
 35 H       -2.7310    -4.1820    -1.4080 H     1 <1>   0.0800 
 36 H       -7.8510    -3.7290     0.0960 H     1 <1>   0.1500 
 37 H       -6.9040    -3.7080     1.5970 H     1 <1>   0.1500 
 38 H       -5.6210    -2.0170    -1.9810 H     1 <1>   0.0800 
 39 H       -6.6110    -0.7450    -1.2950 H     1 <1>   0.0800 
 40 H       -7.3280    -2.2580    -1.7620 H     1 <1>   0.0800 
@<TRIPOS>BOND
  1   1   2  1   
  2   1   3  1   
  3   1   4  1   
  4   1  15  1   
  5   2   5  1   
  6   2  16  1   
  7   2  17  1   
  8   3   6  1   
  9   3  18  1   
 10   3  19  1   
 11   4  20  1   
 12   4  21  1   
 13   4  22  1   
 14   5   7  1   
 15   5  23  1   
 16   5  24  1   
 17   6   7  1   
 18   6  25  1   
 19   6  26  1   
 20   7   8  1   
 21   7  27  1   
 22   8   9  1   
 23   8  10  1   
 24   8  28  1   
 25   9  11  1   
 26   9  29  1   
 27   9  30  1   
 28  10  12  1   
 29  10  31  1   
 30  10  32  1   
 31  11  13  2   
 32  11  14  1   
 33  12  33  1   
 34  12  34  1   
 35  12  35  1   
 36  13  36  1   
 37  13  37  1   
 38  14  38  1   
 39  14  39  1   
 40  14  40  1   
@<TRIPOS>SUBSTRUCTURE
  1 ****   7 GROUP 4 **** **** 0

# MOE 2024.06 (io_trps.svl 2023.06)
