@<TRIPOS>MOLECULE
NONAME
40 41 1 0 0 
SMALL
USER_CHARGES


@<TRIPOS>ATOM
  1 O        0.5810     2.9510     2.2160 O.2   1 <1>  -0.5700 
  2 C        0.0320     2.6480     1.1720 C.2   1 <1>   0.5440 
  3 N        0.7740     2.0250     0.2120 N.am  1 <1>  -0.7300 
  4 C       -1.3720     2.9610     0.9590 C.ar  1 <1>   0.0860 
  5 C        2.1810     1.6130     0.3150 C.3   1 <1>   0.2200 
  6 C       -2.2100     2.2440     0.0890 C.ar  1 <1>   0.0830 
  7 C       -1.9420     4.0320     1.6520 C.ar  1 <1>  -0.1500 
  8 C        2.9410     2.1420    -0.9060 C.3   1 <1>  -0.1600 
  9 C        2.2420     0.0840     0.3880 C.3   1 <1>  -0.1600 
 10 O       -1.7180     1.1840    -0.6000 O.3   1 <1>  -0.3630 
 11 C       -3.5490     2.6080    -0.0920 C.ar  1 <1>   0.0830 
 12 C       -3.2650     4.3910     1.4890 C.ar  1 <1>  -0.1500 
 13 C        4.3950     1.6470    -0.9140 C.3   1 <1>  -0.1600 
 14 C        3.6940    -0.4160     0.3820 C.3   1 <1>  -0.1600 
 15 C       -2.0420    -0.0960    -0.1040 C.3   1 <1>   0.0400 
 16 O       -4.3020     1.8840    -0.9710 O.3   1 <1>  -0.3630 
 17 C       -4.0710     3.6830     0.6170 C.ar  1 <1>  -0.1500 
 18 C        4.4590     0.1150    -0.8380 C.3   1 <1>  -0.1600 
 19 C       -5.6040     2.2830    -1.3380 C.3   1 <1>   0.0400 
 20 H        0.2660     1.6780    -0.6070 H     1 <1>   0.3700 
 21 H        2.6180     2.0280     1.2090 H     1 <1>   0.0800 
 22 H       -1.3260     4.5940     2.3340 H     1 <1>   0.1500 
 23 H        2.9310     3.2180    -0.8880 H     1 <1>   0.0800 
 24 H        2.4520     1.8110    -1.8050 H     1 <1>   0.0800 
 25 H        1.7220    -0.3370    -0.4550 H     1 <1>   0.0800 
 26 H        1.7560    -0.2440     1.2900 H     1 <1>   0.0800 
 27 H       -3.6690     5.2220     2.0410 H     1 <1>   0.1500 
 28 H        4.9180     2.0670    -0.0710 H     1 <1>   0.0800 
 29 H        4.8870     1.9860    -1.8090 H     1 <1>   0.0800 
 30 H        3.7060    -1.4920     0.3760 H     1 <1>   0.0800 
 31 H        4.1860    -0.0860     1.2820 H     1 <1>   0.0800 
 32 H       -1.5730    -0.8300    -0.7330 H     1 <1>   0.0800 
 33 H       -3.1100    -0.2230    -0.1260 H     1 <1>   0.0800 
 34 H       -1.6740    -0.1820     0.9030 H     1 <1>   0.0800 
 35 H       -5.0950     3.9860     0.5100 H     1 <1>   0.1500 
 36 H        5.4870    -0.2000    -0.7850 H     1 <1>   0.0800 
 37 H        4.0330    -0.3030    -1.7350 H     1 <1>   0.0800 
 38 H       -5.9620     1.6020    -2.0880 H     1 <1>   0.0800 
 39 H       -5.5640     3.2800    -1.7400 H     1 <1>   0.0800 
 40 H       -6.2410     2.2390    -0.4720 H     1 <1>   0.0800 
@<TRIPOS>BOND
  1   1   2  2   
  2   2   3  am  
  3   2   4  1   
  4   3   5  1   
  5   3  20  1   
  6   4   6  ar  
  7   4   7  ar  
  8   5   8  1   
  9   5   9  1   
 10   5  21  1   
 11   6  10  1   
 12   6  11  ar  
 13   7  12  ar  
 14   7  22  1   
 15   8  13  1   
 16   8  23  1   
 17   8  24  1   
 18   9  14  1   
 19   9  25  1   
 20   9  26  1   
 21  10  15  1   
 22  11  16  1   
 23  11  17  ar  
 24  12  17  ar  
 25  12  27  1   
 26  13  18  1   
 27  13  28  1   
 28  13  29  1   
 29  14  18  1   
 30  14  30  1   
 31  14  31  1   
 32  15  32  1   
 33  15  33  1   
 34  15  34  1   
 35  16  19  1   
 36  17  35  1   
 37  18  36  1   
 38  18  37  1   
 39  19  38  1   
 40  19  39  1   
 41  19  40  1   
@<TRIPOS>SUBSTRUCTURE
  1 ****   3 GROUP 4 **** **** 0

# MOE 2024.06 (io_trps.svl 2023.06)
