@<TRIPOS>MOLECULE
NONAME
39 41 1 0 0 
SMALL
USER_CHARGES


@<TRIPOS>ATOM
  1 O       -0.5910    -0.1100     0.6730 O.2   1 <1>  -0.5700 
  2 C       -0.7950    -1.1780     0.1440 C.2   1 <1>   0.5690 
  3 N       -2.0240    -1.4820    -0.3830 N.am  1 <1>  -0.6600 
  4 C        0.3420    -2.1990     0.0870 C.3   1 <1>  -0.0990 
  5 C       -3.1290    -0.4750    -0.2860 C.3   1 <1>   0.3200 
  6 C       -2.3840    -2.7620    -1.0850 C.3   1 <1>   0.1400 
  7 C        1.7340    -1.6920     0.5220 C.3   1 <1>  -0.0800 
  8 C       -4.4610    -1.1780    -0.0810 C.2   1 <1>  -0.3320 
  9 C       -3.5380    -3.4930    -0.3800 C.3   1 <1>   0.0210 
 10 C        2.3170    -0.6980    -0.4940 C.3   1 <1>  -0.2400 
 11 C        2.7000    -2.8730     0.6850 C.3   1 <1>  -0.2400 
 12 N       -5.6470    -0.5530     0.1770 N.pl3 1 <1>   0.0330 
 13 C       -4.6570    -2.5130    -0.1170 C.2   1 <1>  -0.1810 
 14 C       -6.6160    -1.5180     0.3090 C.ar  1 <1>  -0.1520 
 15 C       -6.0230    -2.7660     0.1310 C.ar  1 <1>   0.0000 
 16 C       -7.9830    -1.4060     0.5730 C.ar  1 <1>  -0.1500 
 17 C       -6.8050    -3.9220     0.2210 C.ar  1 <1>  -0.1500 
 18 C       -8.7410    -2.5520     0.6570 C.ar  1 <1>  -0.1500 
 19 C       -8.1510    -3.8100     0.4810 C.ar  1 <1>  -0.1500 
 20 H        0.4240    -2.5690    -0.9170 H     1 <1>   0.0800 
 21 H        0.0570    -3.0150     0.7230 H     1 <1>   0.0800 
 22 H       -3.1560     0.1040    -1.1920 H     1 <1>   0.0800 
 23 H       -2.9550     0.1910     0.5410 H     1 <1>   0.0800 
 24 H       -1.5440    -3.4270    -1.1550 H     1 <1>   0.0800 
 25 H       -2.6930    -2.5180    -2.0870 H     1 <1>   0.0800 
 26 H        1.6420    -1.1980     1.4760 H     1 <1>   0.0800 
 27 H       -3.1970    -3.9070     0.5510 H     1 <1>   0.0800 
 28 H       -3.8920    -4.2930    -1.0040 H     1 <1>   0.0800 
 29 H        2.4290    -1.1580    -1.4600 H     1 <1>   0.0800 
 30 H        3.2810    -0.3530    -0.1640 H     1 <1>   0.0800 
 31 H        1.6760     0.1600    -0.5950 H     1 <1>   0.0800 
 32 H        2.8200    -3.3990    -0.2450 H     1 <1>   0.0800 
 33 H        2.3300    -3.5590     1.4260 H     1 <1>   0.0800 
 34 H        3.6640    -2.5210     1.0080 H     1 <1>   0.0800 
 35 H       -5.8040     0.4540     0.2770 H     1 <1>   0.2700 
 36 H       -8.4280    -0.4370     0.7080 H     1 <1>   0.1500 
 37 H       -6.3400    -4.8800     0.0860 H     1 <1>   0.1500 
 38 H       -9.7960    -2.4930     0.8600 H     1 <1>   0.1500 
 39 H       -8.7660    -4.6900     0.5530 H     1 <1>   0.1500 
@<TRIPOS>BOND
  1   1   2  2   
  2   2   3  am  
  3   2   4  1   
  4   3   5  1   
  5   3   6  1   
  6   4   7  1   
  7   4  20  1   
  8   4  21  1   
  9   5   8  1   
 10   5  22  1   
 11   5  23  1   
 12   6   9  1   
 13   6  24  1   
 14   6  25  1   
 15   7  10  1   
 16   7  11  1   
 17   7  26  1   
 18   8  12  1   
 19   8  13  2   
 20   9  13  1   
 21   9  27  1   
 22   9  28  1   
 23  10  29  1   
 24  10  30  1   
 25  10  31  1   
 26  11  32  1   
 27  11  33  1   
 28  11  34  1   
 29  12  14  1   
 30  12  35  1   
 31  13  15  1   
 32  14  15  ar  
 33  14  16  ar  
 34  15  17  ar  
 35  16  18  ar  
 36  16  36  1   
 37  17  19  ar  
 38  17  37  1   
 39  18  19  ar  
 40  18  38  1   
 41  19  39  1   
@<TRIPOS>SUBSTRUCTURE
  1 ****   8 GROUP 4 **** **** 0

# MOE 2024.06 (io_trps.svl 2023.06)
