@<TRIPOS>MOLECULE
NONAME
56 59 1 0 0 
SMALL
USER_CHARGES


@<TRIPOS>ATOM
  1 O       -1.4670     2.0980     3.2450 O.2   1 <1>  -0.5700 
  2 C       -1.1270     1.7470     2.1400 C.2   1 <1>   0.5690 
  3 N       -2.0160     1.2580     1.2420 N.am  1 <1>  -0.7300 
  4 C        0.3350     1.8620     1.7450 C.3   1 <1>   0.0440 
  5 C       -3.4880     1.2830     1.4080 C.3   1 <1>   0.1400 
  6 C        0.5230     2.5550     0.3940 C.ar  1 <1>  -0.1430 
  7 C       -4.2740     1.0140     0.0910 C.3   1 <1>   0.1430 
  8 C        0.2290     3.9360     0.2340 C.ar  1 <1>   0.0000 
  9 C        0.9710     1.8130    -0.6680 C.ar  1 <1>  -0.1500 
 10 C       -5.8040     1.0230     0.3530 C.ar  1 <1>  -0.1440 
 11 C       -3.9590     2.1330    -0.9380 C.3   1 <1>  -0.1600 
 12 C       -3.8570    -0.3770    -0.4710 C.3   1 <1>  -0.1600 
 13 C        0.4080     4.5190    -1.0430 C.ar  1 <1>   0.0000 
 14 C       -0.2430     4.7740     1.2720 C.ar  1 <1>  -0.1500 
 15 C        1.1480     2.3960    -1.9250 C.ar  1 <1>  -0.1500 
 16 C       -6.6780     0.7300    -0.6920 C.ar  1 <1>  -0.1500 
 17 C       -6.3690     1.3190     1.5940 C.ar  1 <1>  -0.1500 
 18 C       -2.5830     2.0250    -1.6260 C.3   1 <1>   0.1200 
 19 C       -2.9730    -0.2940    -1.7210 C.3   1 <1>   0.1200 
 20 C        0.8720     3.7200    -2.1050 C.ar  1 <1>  -0.1500 
 21 C        0.1140     5.8850    -1.2280 C.ar  1 <1>  -0.1500 
 22 C       -0.5220     6.0960     1.0650 C.ar  1 <1>  -0.1500 
 23 C       -8.0500     0.7260    -0.5170 C.ar  1 <1>  -0.1500 
 24 C       -7.7410     1.3160     1.7750 C.ar  1 <1>  -0.1500 
 25 O       -2.0540     0.7310    -1.5430 O.3   1 <1>  -0.5600 
 26 C       -0.3420     6.6610    -0.2000 C.ar  1 <1>  -0.1500 
 27 C       -8.5930     1.0220     0.7270 C.ar  1 <1>   0.0830 
 28 O       -9.9230     1.0420     0.9900 O.3   1 <1>  -0.3630 
 29 C      -10.8720     0.7550    -0.0120 C.3   1 <1>   0.0400 
 30 H       -1.7070     1.0460     0.2790 H     1 <1>   0.3700 
 31 H        0.7460     0.8710     1.7190 H     1 <1>   0.0800 
 32 H        0.8660     2.4060     2.5040 H     1 <1>   0.0800 
 33 H       -3.7620     2.2480     1.8000 H     1 <1>   0.0800 
 34 H       -3.7510     0.5410     2.1420 H     1 <1>   0.0800 
 35 H        1.1900     0.7640    -0.5660 H     1 <1>   0.1500 
 36 H       -4.0430     3.0980    -0.4700 H     1 <1>   0.0800 
 37 H       -4.6910     2.1230    -1.7230 H     1 <1>   0.0800 
 38 H       -4.7150    -0.9750    -0.7160 H     1 <1>   0.0800 
 39 H       -3.3260    -0.9350     0.2790 H     1 <1>   0.0800 
 40 H       -0.3910     4.3680     2.2560 H     1 <1>   0.1500 
 41 H        1.4980     1.7860    -2.7400 H     1 <1>   0.1500 
 42 H       -6.2930     0.4970    -1.6690 H     1 <1>   0.1500 
 43 H       -5.7710     1.5590     2.4540 H     1 <1>   0.1500 
 44 H       -1.8790     2.6890    -1.1560 H     1 <1>   0.0800 
 45 H       -2.6550     2.2940    -2.6660 H     1 <1>   0.0800 
 46 H       -3.5530    -0.0880    -2.6060 H     1 <1>   0.0800 
 47 H       -2.4290    -1.2110    -1.8640 H     1 <1>   0.0800 
 48 H        1.0070     4.1750    -3.0700 H     1 <1>   0.1500 
 49 H        0.2570     6.3120    -2.2040 H     1 <1>   0.1500 
 50 H       -0.8820     6.7150     1.8690 H     1 <1>   0.1500 
 51 H       -8.6770     0.4930    -1.3560 H     1 <1>   0.1500 
 52 H       -8.1610     1.5460     2.7370 H     1 <1>   0.1500 
 53 H       -0.5650     7.7030    -0.3460 H     1 <1>   0.1500 
 54 H      -11.8520     0.8310     0.4250 H     1 <1>   0.0800 
 55 H      -10.7090    -0.2460    -0.3710 H     1 <1>   0.0800 
 56 H      -10.7690     1.4730    -0.8060 H     1 <1>   0.0800 
@<TRIPOS>BOND
  1   1   2  2   
  2   2   3  am  
  3   2   4  1   
  4   3   5  1   
  5   3  30  1   
  6   4   6  1   
  7   4  31  1   
  8   4  32  1   
  9   5   7  1   
 10   5  33  1   
 11   5  34  1   
 12   6   8  ar  
 13   6   9  ar  
 14   7  10  1   
 15   7  11  1   
 16   7  12  1   
 17   8  13  ar  
 18   8  14  ar  
 19   9  15  ar  
 20   9  35  1   
 21  10  16  ar  
 22  10  17  ar  
 23  11  18  1   
 24  11  36  1   
 25  11  37  1   
 26  12  19  1   
 27  12  38  1   
 28  12  39  1   
 29  13  20  ar  
 30  13  21  ar  
 31  14  22  ar  
 32  14  40  1   
 33  15  20  ar  
 34  15  41  1   
 35  16  23  ar  
 36  16  42  1   
 37  17  24  ar  
 38  17  43  1   
 39  18  25  1   
 40  18  44  1   
 41  18  45  1   
 42  19  25  1   
 43  19  46  1   
 44  19  47  1   
 45  20  48  1   
 46  21  26  ar  
 47  21  49  1   
 48  22  26  ar  
 49  22  50  1   
 50  23  27  ar  
 51  23  51  1   
 52  24  27  ar  
 53  24  52  1   
 54  26  53  1   
 55  27  28  1   
 56  28  29  1   
 57  29  54  1   
 58  29  55  1   
 59  29  56  1   
@<TRIPOS>SUBSTRUCTURE
  1 ****  11 GROUP 4 **** **** 0

# MOE 2024.06 (io_trps.svl 2023.06)
