@<TRIPOS>MOLECULE
NONAME
37 38 1 0 0 
SMALL
USER_CHARGES


@<TRIPOS>ATOM
  1 BR       0.2940     0.5160    -0.8870 Br    1 <1>  -0.1110 
  2 C       -1.4920     1.1330    -0.5170 C.ar  1 <1>   0.1110 
  3 C       -1.6680     2.1680     0.3810 C.ar  1 <1>  -0.1500 
  4 C       -2.5550     0.5260    -1.1570 C.ar  1 <1>  -0.1500 
  5 C       -2.9560     2.6050     0.6410 C.ar  1 <1>  -0.1500 
  6 C       -3.8360     0.9740    -0.8840 C.ar  1 <1>  -0.1500 
  7 C       -4.0540     2.0200     0.0130 C.ar  1 <1>   0.1170 
  8 N       -5.3360     2.4990     0.3270 N.am  1 <1>  -0.5470 
  9 C       -6.5120     2.4370    -0.3720 C.2   1 <1>   0.5690 
 10 O       -6.6100     1.9400    -1.4670 O.2   1 <1>  -0.5700 
 11 C       -7.7450     3.0500     0.2790 C.3   1 <1>  -0.0190 
 12 C       -9.0350     2.4250    -0.2740 C.3   1 <1>   0.1960 
 13 C       -7.7780     4.5780     0.0950 C.3   1 <1>  -0.1600 
 14 N      -10.2110     2.9810     0.4160 N.am  1 <1>  -0.8490 
 15 C       -9.0700     5.1500     0.6930 C.3   1 <1>  -0.1600 
 16 S      -11.6450     2.1880    -0.0150 S.o2  1 <1>   1.3330 
 17 C      -10.3130     4.4240     0.1640 C.3   1 <1>   0.1960 
 18 O      -11.5620     1.8530    -1.4170 O.2   1 <1>  -0.6500 
 19 O      -12.7560     2.9700     0.4750 O.2   1 <1>  -0.6500 
 20 C      -11.5800     0.6930     0.9500 C.3   1 <1>  -0.1350 
 21 H       -0.8170     2.6170     0.8600 H     1 <1>   0.1500 
 22 H       -2.3850    -0.2780    -1.8500 H     1 <1>   0.1500 
 23 H       -3.1030     3.4120     1.3360 H     1 <1>   0.1500 
 24 H       -4.6670     0.5010    -1.3750 H     1 <1>   0.1500 
 25 H       -5.3840     3.0210     1.1990 H     1 <1>   0.3700 
 26 H       -7.7070     2.8230     1.3290 H     1 <1>   0.0800 
 27 H       -8.9950     1.3580    -0.1310 H     1 <1>   0.0800 
 28 H       -9.1080     2.6110    -1.3350 H     1 <1>   0.0800 
 29 H       -7.7390     4.8080    -0.9570 H     1 <1>   0.0800 
 30 H       -6.9250     5.0330     0.5680 H     1 <1>   0.0800 
 31 H       -9.1460     6.1960     0.4560 H     1 <1>   0.0800 
 32 H       -9.0510     5.0580     1.7650 H     1 <1>   0.0800 
 33 H      -11.1790     4.8230     0.6650 H     1 <1>   0.0800 
 34 H      -10.4280     4.6010    -0.8940 H     1 <1>   0.0800 
 35 H      -10.7350     0.0990     0.6680 H     1 <1>   0.0800 
 36 H      -12.4710     0.1190     0.7910 H     1 <1>   0.0800 
 37 H      -11.5070     0.9340     1.9920 H     1 <1>   0.0800 
@<TRIPOS>BOND
  1   1   2  1   
  2   2   3  ar  
  3   2   4  ar  
  4   3   5  ar  
  5   3  21  1   
  6   4   6  ar  
  7   4  22  1   
  8   5   7  ar  
  9   5  23  1   
 10   6   7  ar  
 11   6  24  1   
 12   7   8  1   
 13   8   9  am  
 14   8  25  1   
 15   9  10  2   
 16   9  11  1   
 17  11  12  1   
 18  11  13  1   
 19  11  26  1   
 20  12  14  1   
 21  12  27  1   
 22  12  28  1   
 23  13  15  1   
 24  13  29  1   
 25  13  30  1   
 26  14  16  am  
 27  14  17  1   
 28  15  17  1   
 29  15  31  1   
 30  15  32  1   
 31  16  18  2   
 32  16  19  2   
 33  16  20  1   
 34  17  33  1   
 35  17  34  1   
 36  20  35  1   
 37  20  36  1   
 38  20  37  1   
@<TRIPOS>SUBSTRUCTURE
  1 ****   9 GROUP 4 **** **** 0

# MOE 2024.06 (io_trps.svl 2023.06)
