@<TRIPOS>MOLECULE
NONAME
44 45 1 0 0 
SMALL
USER_CHARGES


@<TRIPOS>ATOM
  1 O       -0.8030    -1.1520     2.3080 O.2   1 <1>  -0.5700 
  2 C       -0.7990    -1.7640     1.2650 C.2   1 <1>   0.4950 
  3 C       -1.9340    -1.8490     0.3960 C.2   1 <1>   0.0290 
  4 C        0.5180    -2.4400     0.9220 C.3   1 <1>  -0.0990 
  5 C       -1.7970    -2.5810    -0.8340 C.2   1 <1>   0.4950 
  6 C       -3.1100    -1.2300     0.7670 C.2   1 <1>  -0.0500 
  7 C        0.3470    -3.6700     0.0210 C.3   1 <1>   0.0000 
  8 O       -2.6720    -2.7130    -1.6620 O.2   1 <1>  -0.5700 
  9 C       -0.4830    -3.2520    -1.2000 C.3   1 <1>  -0.0990 
 10 N       -4.2670    -1.2180     0.0650 N.pl3 1 <1>  -0.8690 
 11 C       -0.3490    -4.8110     0.7860 C.3   1 <1>  -0.2400 
 12 C        1.7260    -4.1670    -0.4390 C.3   1 <1>  -0.2400 
 13 C       -5.5260    -0.5500     0.4450 C.3   1 <1>   0.2890 
 14 C       -5.9550     0.4480    -0.6510 C.3   1 <1>  -0.0800 
 15 C       -6.5860    -1.6340     0.6670 C.3   1 <1>  -0.1600 
 16 C       -7.3330     1.0530    -0.3230 C.3   1 <1>  -0.1600 
 17 C       -4.9280     1.5780    -0.8430 C.3   1 <1>  -0.2400 
 18 C       -7.9560    -1.0230     0.9910 C.3   1 <1>  -0.1600 
 19 C       -8.3910    -0.0370    -0.1010 C.3   1 <1>  -0.1600 
 20 H        1.1410    -1.7100     0.4380 H     1 <1>   0.0800 
 21 H        1.0100    -2.7270     1.8350 H     1 <1>   0.0800 
 22 H       -3.1300    -0.6980     1.7070 H     1 <1>   0.1500 
 23 H       -0.6920    -4.1170    -1.8050 H     1 <1>   0.0800 
 24 H        0.0750    -2.5630    -1.8090 H     1 <1>   0.0800 
 25 H       -4.3020    -1.7070    -0.8470 H     1 <1>   0.4000 
 26 H        0.2370    -5.1040     1.6390 H     1 <1>   0.0800 
 27 H       -0.4660    -5.6720     0.1510 H     1 <1>   0.0800 
 28 H       -1.3250    -4.5250     1.1370 H     1 <1>   0.0800 
 29 H        2.2520    -3.4000    -0.9810 H     1 <1>   0.0800 
 30 H        1.6240    -5.0240    -1.0820 H     1 <1>   0.0800 
 31 H        2.3270    -4.4520     0.4070 H     1 <1>   0.0800 
 32 H       -5.3770    -0.0150     1.3680 H     1 <1>   0.0800 
 33 H       -6.0430    -0.0920    -1.5780 H     1 <1>   0.0800 
 34 H       -6.6690    -2.2340    -0.2220 H     1 <1>   0.0800 
 35 H       -6.2750    -2.2690     1.4770 H     1 <1>   0.0800 
 36 H       -7.2580     1.6570     0.5660 H     1 <1>   0.0800 
 37 H       -7.6490     1.6920    -1.1290 H     1 <1>   0.0800 
 38 H       -4.7930     2.1250     0.0730 H     1 <1>   0.0800 
 39 H       -5.2560     2.2570    -1.6090 H     1 <1>   0.0800 
 40 H       -3.9780     1.1710    -1.1400 H     1 <1>   0.0800 
 41 H       -8.6880    -1.8070     1.0820 H     1 <1>   0.0800 
 42 H       -7.9030    -0.5090     1.9360 H     1 <1>   0.0800 
 43 H       -9.3260     0.4190     0.1770 H     1 <1>   0.0800 
 44 H       -8.5480    -0.5730    -1.0220 H     1 <1>   0.0800 
@<TRIPOS>BOND
  1   1   2  2   
  2   2   3  1   
  3   2   4  1   
  4   3   5  1   
  5   3   6  2   
  6   4   7  1   
  7   4  20  1   
  8   4  21  1   
  9   5   8  2   
 10   5   9  1   
 11   6  10  1   
 12   6  22  1   
 13   7   9  1   
 14   7  11  1   
 15   7  12  1   
 16   9  23  1   
 17   9  24  1   
 18  10  13  1   
 19  10  25  1   
 20  11  26  1   
 21  11  27  1   
 22  11  28  1   
 23  12  29  1   
 24  12  30  1   
 25  12  31  1   
 26  13  14  1   
 27  13  15  1   
 28  13  32  1   
 29  14  16  1   
 30  14  17  1   
 31  14  33  1   
 32  15  18  1   
 33  15  34  1   
 34  15  35  1   
 35  16  19  1   
 36  16  36  1   
 37  16  37  1   
 38  17  38  1   
 39  17  39  1   
 40  17  40  1   
 41  18  19  1   
 42  18  41  1   
 43  18  42  1   
 44  19  43  1   
 45  19  44  1   
@<TRIPOS>SUBSTRUCTURE
  1 ****   6 GROUP 4 **** **** 0

# MOE 2024.06 (io_trps.svl 2023.06)
