@<TRIPOS>MOLECULE
NONAME
50 53 1 0 0 
SMALL
USER_CHARGES


@<TRIPOS>ATOM
  1 S       -0.0130     0.5520     1.2700 S.o2  1 <1>   1.4470 
  2 O       -0.5820     0.9290     2.5470 O.2   1 <1>  -0.6500 
  3 O        0.1570    -0.8480     0.9520 O.2   1 <1>  -0.6500 
  4 N       -1.0300     1.2060     0.0820 N.am  1 <1>  -0.8490 
  5 C        1.5490     1.4310     0.9900 C.ar  1 <1>  -0.0090 
  6 C       -2.2340     0.3700    -0.1030 C.3   1 <1>   0.1960 
  7 C       -1.4080     2.6010     0.3820 C.3   1 <1>   0.1960 
  8 C        2.1660     1.4250    -0.2350 C.ar  1 <1>  -0.1500 
  9 C        2.1620     2.1500     2.0320 C.ar  1 <1>  -0.1500 
 10 C       -3.1640     0.9210    -1.1990 C.3   1 <1>   0.1400 
 11 C       -2.3020     3.2010    -0.7150 C.3   1 <1>   0.1400 
 12 C        3.3700     2.1130    -0.4820 C.ar  1 <1>   0.0000 
 13 C        3.3310     2.8300     1.8290 C.ar  1 <1>  -0.1500 
 14 N       -3.5000     2.3450    -0.9310 N.am  1 <1>  -0.6600 
 15 C        3.9650     2.8340     0.5730 C.ar  1 <1>   0.0000 
 16 C        4.0020     2.1090    -1.7420 C.ar  1 <1>  -0.1500 
 17 C       -4.7250     2.8570    -1.2570 C.2   1 <1>   0.6900 
 18 C        5.1680     3.5260     0.3280 C.ar  1 <1>  -0.1500 
 19 C        5.1690     2.7900    -1.9530 C.ar  1 <1>  -0.1500 
 20 O       -5.3970     2.3110    -2.1140 O.2   1 <1>  -0.5700 
 21 N       -5.2010     3.9740    -0.6260 N.am  1 <1>  -0.6600 
 22 C        5.7590     3.5070    -0.9060 C.ar  1 <1>  -0.1500 
 23 C       -6.2970     4.7790    -1.2310 C.3   1 <1>   0.1400 
 24 C       -5.0970     4.1540     0.8490 C.3   1 <1>   0.1400 
 25 C       -6.2080     6.2420    -0.7640 C.3   1 <1>   0.1200 
 26 C       -5.0520     5.6500     1.1990 C.3   1 <1>   0.1200 
 27 O       -6.1430     6.3200     0.6350 O.3   1 <1>  -0.5600 
 28 H       -2.7810     0.3070     0.8230 H     1 <1>   0.0800 
 29 H       -1.9410    -0.6290    -0.3800 H     1 <1>   0.0800 
 30 H       -0.5210     3.2040     0.4710 H     1 <1>   0.0800 
 31 H       -1.9370     2.6470     1.3200 H     1 <1>   0.0800 
 32 H        1.7210     0.8770    -1.0480 H     1 <1>   0.1500 
 33 H        1.6920     2.1560     3.0020 H     1 <1>   0.1500 
 34 H       -4.0660     0.3330    -1.2330 H     1 <1>   0.0800 
 35 H       -2.6790     0.8440    -2.1560 H     1 <1>   0.0800 
 36 H       -1.7430     3.2590    -1.6330 H     1 <1>   0.0800 
 37 H       -2.5960     4.1990    -0.4440 H     1 <1>   0.0800 
 38 H        3.7900     3.3760     2.6350 H     1 <1>   0.1500 
 39 H        3.5460     1.5550    -2.5430 H     1 <1>   0.1500 
 40 H        5.6190     4.0750     1.1350 H     1 <1>   0.1500 
 41 H        5.6480     2.7840    -2.9170 H     1 <1>   0.1500 
 42 H        6.6770     4.0370    -1.0880 H     1 <1>   0.1500 
 43 H       -7.2460     4.3640    -0.9380 H     1 <1>   0.0800 
 44 H       -6.2300     4.7370    -2.3040 H     1 <1>   0.0800 
 45 H       -4.2230     3.6610     1.2320 H     1 <1>   0.0800 
 46 H       -5.9580     3.7100     1.3170 H     1 <1>   0.0800 
 47 H       -7.0780     6.7860    -1.0840 H     1 <1>   0.0800 
 48 H       -5.3340     6.7160    -1.1760 H     1 <1>   0.0800 
 49 H       -4.1460     6.0990     0.8340 H     1 <1>   0.0800 
 50 H       -5.1020     5.7840     2.2650 H     1 <1>   0.0800 
@<TRIPOS>BOND
  1   1   2  2   
  2   1   3  2   
  3   1   4  am  
  4   1   5  1   
  5   4   6  1   
  6   4   7  1   
  7   5   8  ar  
  8   5   9  ar  
  9   6  10  1   
 10   6  28  1   
 11   6  29  1   
 12   7  11  1   
 13   7  30  1   
 14   7  31  1   
 15   8  12  ar  
 16   8  32  1   
 17   9  13  ar  
 18   9  33  1   
 19  10  14  1   
 20  10  34  1   
 21  10  35  1   
 22  11  14  1   
 23  11  36  1   
 24  11  37  1   
 25  12  15  ar  
 26  12  16  ar  
 27  13  15  ar  
 28  13  38  1   
 29  14  17  am  
 30  15  18  ar  
 31  16  19  ar  
 32  16  39  1   
 33  17  20  2   
 34  17  21  am  
 35  18  22  ar  
 36  18  40  1   
 37  19  22  ar  
 38  19  41  1   
 39  21  23  1   
 40  21  24  1   
 41  22  42  1   
 42  23  25  1   
 43  23  43  1   
 44  23  44  1   
 45  24  26  1   
 46  24  45  1   
 47  24  46  1   
 48  25  27  1   
 49  25  47  1   
 50  25  48  1   
 51  26  27  1   
 52  26  49  1   
 53  26  50  1   
@<TRIPOS>SUBSTRUCTURE
  1 ****   7 GROUP 4 **** **** 0

# MOE 2024.06 (io_trps.svl 2023.06)
