@<TRIPOS>MOLECULE
NONAME
44 45 1 0 0 
SMALL
USER_CHARGES


@<TRIPOS>ATOM
  1 O       -3.1080     6.2560     0.2360 O.3   1 <1>  -0.3630 
  2 C       -4.3210     6.8710     0.2040 C.ar  1 <1>   0.0830 
  3 C       -1.9180     6.9660     0.0120 C.3   1 <1>   0.1200 
  4 C       -5.4470     6.0850     0.4300 C.ar  1 <1>  -0.1440 
  5 C       -4.4730     8.2340    -0.0430 C.ar  1 <1>  -0.1500 
  6 C       -0.7720     5.9590     0.1270 C.3   1 <1>   0.3430 
  7 C       -6.7040     6.6680     0.4060 C.ar  1 <1>  -0.1500 
  8 C       -5.3200     4.5930     0.7040 C.3   1 <1>  -0.0960 
  9 C       -5.7330     8.8020    -0.0640 C.ar  1 <1>  -0.1500 
 10 N        0.5550     6.6040    -0.0980 N.4   1 <1>  -0.9060 
 11 C       -6.8550     8.0230     0.1580 C.ar  1 <1>  -0.1430 
 12 C        1.6960     5.6950     0.0480 C.3   1 <1>   0.5660 
 13 C       -8.2400     8.6440     0.1370 C.3   1 <1>  -0.0970 
 14 C        2.9200     6.5820     0.1850 C.ar  1 <1>  -0.1430 
 15 C        1.7750     4.7530    -1.1510 C.3   1 <1>  -0.2400 
 16 C        3.4140     7.3340    -0.8760 C.ar  1 <1>  -0.1500 
 17 C        3.5550     6.6570     1.4180 C.ar  1 <1>  -0.1500 
 18 C        4.5180     8.1490    -0.7010 C.ar  1 <1>  -0.1500 
 19 C        4.6590     7.4740     1.5900 C.ar  1 <1>  -0.1500 
 20 C        5.1400     8.2210     0.5310 C.ar  1 <1>  -0.1500 
 21 H       -1.8400     7.7310     0.7650 H     1 <1>   0.0800 
 22 H       -1.9650     7.3920    -0.9750 H     1 <1>   0.0800 
 23 H       -3.6340     8.8770    -0.2210 H     1 <1>   0.1500 
 24 H       -0.9280     5.1800    -0.6020 H     1 <1>   0.0800 
 25 H       -0.8000     5.5190     1.1110 H     1 <1>   0.0800 
 26 H       -7.5770     6.0660     0.5820 H     1 <1>   0.1500 
 27 H       -4.8490     4.1080    -0.1310 H     1 <1>   0.0800 
 28 H       -6.2840     4.1440     0.8600 H     1 <1>   0.0800 
 29 H       -4.7240     4.4340     1.5850 H     1 <1>   0.0800 
 30 H       -5.8420     9.8560    -0.2540 H     1 <1>   0.1500 
 31 H        0.7150     7.3650     0.5740 H     1 <1>   0.4500 
 32 H        0.6160     7.0250    -1.0310 H     1 <1>   0.4500 
 33 H        1.5900     5.1140     0.9510 H     1 <1>   0.0800 
 34 H       -8.9570     7.9470    -0.2570 H     1 <1>   0.0800 
 35 H       -8.2500     9.5250    -0.4800 H     1 <1>   0.0800 
 36 H       -8.5310     8.9160     1.1360 H     1 <1>   0.0800 
 37 H        1.7920     5.2900    -2.0820 H     1 <1>   0.0800 
 38 H        0.9520     4.0620    -1.1510 H     1 <1>   0.0800 
 39 H        2.6820     4.1770    -1.0830 H     1 <1>   0.0800 
 40 H        2.9610     7.3010    -1.8510 H     1 <1>   0.1500 
 41 H        3.2070     6.0850     2.2620 H     1 <1>   0.1500 
 42 H        4.9010     8.7290    -1.5250 H     1 <1>   0.1500 
 43 H        5.1500     7.5280     2.5480 H     1 <1>   0.1500 
 44 H        6.0010     8.8550     0.6650 H     1 <1>   0.1500 
@<TRIPOS>BOND
  1   1   2  1   
  2   1   3  1   
  3   2   4  ar  
  4   2   5  ar  
  5   3   6  1   
  6   3  21  1   
  7   3  22  1   
  8   4   7  ar  
  9   4   8  1   
 10   5   9  ar  
 11   5  23  1   
 12   6  10  1   
 13   6  24  1   
 14   6  25  1   
 15   7  11  ar  
 16   7  26  1   
 17   8  27  1   
 18   8  28  1   
 19   8  29  1   
 20   9  11  ar  
 21   9  30  1   
 22  10  12  1   
 23  10  31  1   
 24  10  32  1   
 25  11  13  1   
 26  12  14  1   
 27  12  15  1   
 28  12  33  1   
 29  13  34  1   
 30  13  35  1   
 31  13  36  1   
 32  14  16  ar  
 33  14  17  ar  
 34  15  37  1   
 35  15  38  1   
 36  15  39  1   
 37  16  18  ar  
 38  16  40  1   
 39  17  19  ar  
 40  17  41  1   
 41  18  20  ar  
 42  18  42  1   
 43  19  20  ar  
 44  19  43  1   
 45  20  44  1   
@<TRIPOS>SUBSTRUCTURE
  1 ****   3 GROUP 4 **** **** 0

# MOE 2024.06 (io_trps.svl 2023.06)
