@<TRIPOS>MOLECULE
NONAME
56 58 1 0 0 
SMALL
USER_CHARGES


@<TRIPOS>ATOM
  1 N       -0.3670     0.3870    -0.0090 N.4   1 <1>  -0.9590 
  2 C       -1.5630     0.9020     0.7110 C.3   1 <1>   0.3430 
  3 C       -0.0600    -1.0290     0.3430 C.3   1 <1>   0.3430 
  4 C        0.8020     1.2800     0.2520 C.3   1 <1>   0.3430 
  5 C       -2.7840     0.0340     0.4000 C.3   1 <1>  -0.1600 
  6 C       -1.2600    -1.9210     0.0210 C.3   1 <1>  -0.1600 
  7 C        1.8850     1.0300    -0.7920 C.3   1 <1>  -0.2400 
  8 C       -2.5380    -1.4460     0.7330 C.3   1 <1>   0.4230 
  9 N       -3.7040    -2.2970     0.3210 N.4   1 <1>  -0.9590 
 10 C       -5.0320    -1.8500     0.8620 C.3   1 <1>   0.4860 
 11 C       -3.5250    -3.7550     0.6580 C.3   1 <1>   0.3430 
 12 C       -6.1230    -2.6090     0.1350 C.ar  1 <1>  -0.1440 
 13 C       -3.4970    -4.6190    -0.6030 C.3   1 <1>  -0.0170 
 14 C       -6.4240    -2.3080    -1.1870 C.ar  1 <1>  -0.1500 
 15 C       -6.8220    -3.6200     0.7810 C.ar  1 <1>  -0.1500 
 16 C       -3.3870    -6.0670    -0.1750 C.ar  1 <1>  -0.1440 
 17 C       -7.3960    -3.0260    -1.8600 C.ar  1 <1>  -0.1500 
 18 C       -7.7950    -4.3350     0.1060 C.ar  1 <1>  -0.1500 
 19 C       -4.5350    -6.7940     0.0990 C.ar  1 <1>  -0.1500 
 20 C       -2.1460    -6.6720    -0.0390 C.ar  1 <1>  -0.1500 
 21 C       -8.0780    -4.0410    -1.2150 C.ar  1 <1>  -0.1500 
 22 C       -4.4440    -8.1100     0.5160 C.ar  1 <1>  -0.1500 
 23 C       -2.0560    -7.9890     0.3780 C.ar  1 <1>  -0.1500 
 24 C       -3.2050    -8.7070     0.6570 C.ar  1 <1>  -0.1500 
 25 H       -0.5390     0.4470    -1.0250 H     1 <1>   0.4500 
 26 H       -1.7600     1.9210     0.4110 H     1 <1>   0.0800 
 27 H       -1.3750     0.9010     1.7740 H     1 <1>   0.0800 
 28 H        0.1780    -1.0990     1.3930 H     1 <1>   0.0800 
 29 H        0.7970    -1.3710    -0.2150 H     1 <1>   0.0800 
 30 H        1.1950     1.1110     1.2430 H     1 <1>   0.0800 
 31 H        0.4950     2.3130     0.1850 H     1 <1>   0.0800 
 32 H       -3.0380     0.1510    -0.6390 H     1 <1>   0.0800 
 33 H       -3.5930     0.4220     0.9920 H     1 <1>   0.0800 
 34 H       -1.0010    -2.9160     0.3340 H     1 <1>   0.0800 
 35 H       -1.4040    -1.9320    -1.0450 H     1 <1>   0.0800 
 36 H        2.3040     0.0440    -0.7050 H     1 <1>   0.0800 
 37 H        2.6850     1.7330    -0.6380 H     1 <1>   0.0800 
 38 H        1.5060     1.1810    -1.7870 H     1 <1>   0.0800 
 39 H       -2.3950    -1.5410     1.7990 H     1 <1>   0.0800 
 40 H       -3.8160    -2.2540    -0.7000 H     1 <1>   0.4500 
 41 H       -5.1850    -0.7990     0.6910 H     1 <1>   0.0800 
 42 H       -5.0930    -2.0390     1.9220 H     1 <1>   0.0800 
 43 H       -4.3360    -4.0980     1.2800 H     1 <1>   0.0800 
 44 H       -2.6150    -3.9120     1.2130 H     1 <1>   0.0800 
 45 H       -2.6600    -4.3640    -1.2260 H     1 <1>   0.0800 
 46 H       -4.4030    -4.4920    -1.1700 H     1 <1>   0.0800 
 47 H       -5.9190    -1.5160    -1.7120 H     1 <1>   0.1500 
 48 H       -6.6260    -3.8660     1.8110 H     1 <1>   0.1500 
 49 H       -7.6300    -2.7960    -2.8860 H     1 <1>   0.1500 
 50 H       -8.3380    -5.1200     0.6060 H     1 <1>   0.1500 
 51 H       -5.5100    -6.3490    -0.0120 H     1 <1>   0.1500 
 52 H       -1.2400    -6.1370    -0.2570 H     1 <1>   0.1500 
 53 H       -8.8360    -4.5990    -1.7410 H     1 <1>   0.1500 
 54 H       -5.3370    -8.6730     0.7270 H     1 <1>   0.1500 
 55 H       -1.0940    -8.4590     0.4820 H     1 <1>   0.1500 
 56 H       -3.1340    -9.7320     0.9800 H     1 <1>   0.1500 
@<TRIPOS>BOND
  1   1   2  1   
  2   1   3  1   
  3   1   4  1   
  4   1  25  1   
  5   2   5  1   
  6   2  26  1   
  7   2  27  1   
  8   3   6  1   
  9   3  28  1   
 10   3  29  1   
 11   4   7  1   
 12   4  30  1   
 13   4  31  1   
 14   5   8  1   
 15   5  32  1   
 16   5  33  1   
 17   6   8  1   
 18   6  34  1   
 19   6  35  1   
 20   7  36  1   
 21   7  37  1   
 22   7  38  1   
 23   8   9  1   
 24   8  39  1   
 25   9  10  1   
 26   9  11  1   
 27   9  40  1   
 28  10  12  1   
 29  10  41  1   
 30  10  42  1   
 31  11  13  1   
 32  11  43  1   
 33  11  44  1   
 34  12  14  ar  
 35  12  15  ar  
 36  13  16  1   
 37  13  45  1   
 38  13  46  1   
 39  14  17  ar  
 40  14  47  1   
 41  15  18  ar  
 42  15  48  1   
 43  16  19  ar  
 44  16  20  ar  
 45  17  21  ar  
 46  17  49  1   
 47  18  21  ar  
 48  18  50  1   
 49  19  22  ar  
 50  19  51  1   
 51  20  23  ar  
 52  20  52  1   
 53  21  53  1   
 54  22  24  ar  
 55  22  54  1   
 56  23  24  ar  
 57  23  55  1   
 58  24  56  1   
@<TRIPOS>SUBSTRUCTURE
  1 ****  11 GROUP 4 **** **** 0

# MOE 2024.06 (io_trps.svl 2023.06)
