@<TRIPOS>MOLECULE
NONAME
62 65 1 0 0 
SMALL
USER_CHARGES


@<TRIPOS>ATOM
  1 O        0.1400     0.5510    -2.1350 O.2   1 <1>  -0.5700 
  2 C        0.0360    -0.1580    -1.1620 C.2   1 <1>   0.4950 
  3 C        1.1330    -0.6610    -0.4070 C.2   1 <1>  -0.1240 
  4 C       -1.3640    -0.5540    -0.7250 C.3   1 <1>  -0.0990 
  5 C        1.0020    -1.5840     0.5780 C.2   1 <1>  -0.0380 
  6 C        2.5160    -0.1040    -0.7500 C.3   1 <1>   0.3400 
  7 C       -1.4170    -1.9800    -0.1360 C.3   1 <1>   0.0000 
  8 N        2.0890    -2.0800     1.2560 N.pl3 1 <1>  -0.6000 
  9 C       -0.3610    -2.1300     0.9840 C.3   1 <1>  -0.0220 
 10 C        3.6620    -0.8460    -0.0540 C.2   1 <1>  -0.1240 
 11 C        2.5820     1.3670    -0.3300 C.ar  1 <1>  -0.1430 
 12 C       -1.1520    -3.0140    -1.2480 C.3   1 <1>  -0.2400 
 13 C       -2.8190    -2.2430     0.4370 C.3   1 <1>  -0.2400 
 14 C        3.3870    -1.7790     0.8990 C.2   1 <1>  -0.0380 
 15 C        4.9480    -0.4100    -0.5040 C.2   1 <1>   0.6160 
 16 C        2.7820     2.3590    -1.2810 C.ar  1 <1>  -0.1500 
 17 C        2.4530     1.7210     1.0060 C.ar  1 <1>  -0.1500 
 18 C        4.4230    -2.6010     1.6500 C.3   1 <1>  -0.1020 
 19 O        5.1830    -0.2910    -1.6920 O.2   1 <1>  -0.5700 
 20 N        5.9060    -0.1060     0.4240 N.am  1 <1>  -0.5470 
 21 C        2.8570     3.6990    -0.9100 C.ar  1 <1>   0.0830 
 22 C        2.5290     3.0480     1.3910 C.ar  1 <1>  -0.1500 
 23 C        7.2240     0.2800     0.3530 C.ar  1 <1>   0.4270 
 24 O        3.0490     4.7030    -1.8140 O.3   1 <1>  -0.3620 
 25 C        2.7320     4.0330     0.4390 C.ar  1 <1>   0.0830 
 26 N        7.8250     0.2350     1.5330 N.ar  1 <1>  -0.6200 
 27 C        7.8670     0.6840    -0.8160 C.ar  1 <1>  -0.1500 
 28 C        3.0710     4.4460    -3.2000 C.3   1 <1>   0.0400 
 29 O        2.8050     5.3180     0.8480 O.3   1 <1>  -0.5330 
 30 C        9.0980     0.5950     1.5490 C.ar  1 <1>   0.1600 
 31 C        9.1910     1.0540    -0.7810 C.ar  1 <1>  -0.1500 
 32 C        9.8260     1.0070     0.4440 C.ar  1 <1>  -0.1430 
 33 C       11.2880     1.4030     0.5550 C.3   1 <1>  -0.0970 
 34 H       -2.0270    -0.4780    -1.5670 H     1 <1>   0.0800 
 35 H       -1.6870     0.1610     0.0100 H     1 <1>   0.0800 
 36 H        2.6480    -0.1930    -1.8150 H     1 <1>   0.0800 
 37 H        1.9360    -2.7790     1.9920 H     1 <1>   0.4000 
 38 H       -0.6810    -1.5980     1.8620 H     1 <1>   0.0800 
 39 H       -0.2720    -3.1700     1.2470 H     1 <1>   0.0800 
 40 H       -0.1700    -2.8930    -1.6700 H     1 <1>   0.0800 
 41 H       -1.8720    -2.9090    -2.0410 H     1 <1>   0.0800 
 42 H       -1.2250    -4.0150    -0.8600 H     1 <1>   0.0800 
 43 H       -3.0530    -1.5360     1.2140 H     1 <1>   0.0800 
 44 H       -2.8790    -3.2340     0.8520 H     1 <1>   0.0800 
 45 H       -3.5650    -2.1550    -0.3330 H     1 <1>   0.0800 
 46 H        2.8760     2.0670    -2.3090 H     1 <1>   0.1500 
 47 H        2.2930     0.9600     1.7500 H     1 <1>   0.1500 
 48 H        4.1350    -3.6370     1.6500 H     1 <1>   0.0800 
 49 H        4.4960    -2.2630     2.6680 H     1 <1>   0.0800 
 50 H        5.3930    -2.5430     1.1930 H     1 <1>   0.0800 
 51 H        5.6120    -0.2080     1.3890 H     1 <1>   0.3700 
 52 H        2.4300     3.3050     2.4290 H     1 <1>   0.1500 
 53 H        7.3350     0.7140    -1.7460 H     1 <1>   0.1500 
 54 H        3.1830     5.3850    -3.7100 H     1 <1>   0.0800 
 55 H        2.1430     3.9830    -3.4830 H     1 <1>   0.0800 
 56 H        3.9070     3.8070    -3.4220 H     1 <1>   0.0800 
 57 H        2.7220     5.4160     1.8100 H     1 <1>   0.4500 
 58 H        9.5910     0.5600     2.5060 H     1 <1>   0.1500 
 59 H        9.7050     1.3690    -1.6720 H     1 <1>   0.1500 
 60 H       11.6490     1.2700     1.5590 H     1 <1>   0.0800 
 61 H       11.4080     2.4360     0.2810 H     1 <1>   0.0800 
 62 H       11.8830     0.7980    -0.1060 H     1 <1>   0.0800 
@<TRIPOS>BOND
  1   1   2  2   
  2   2   3  1   
  3   2   4  1   
  4   3   5  2   
  5   3   6  1   
  6   4   7  1   
  7   4  34  1   
  8   4  35  1   
  9   5   8  1   
 10   5   9  1   
 11   6  10  1   
 12   6  11  1   
 13   6  36  1   
 14   7   9  1   
 15   7  12  1   
 16   7  13  1   
 17   8  14  1   
 18   8  37  1   
 19   9  38  1   
 20   9  39  1   
 21  10  14  2   
 22  10  15  1   
 23  11  16  ar  
 24  11  17  ar  
 25  12  40  1   
 26  12  41  1   
 27  12  42  1   
 28  13  43  1   
 29  13  44  1   
 30  13  45  1   
 31  14  18  1   
 32  15  19  2   
 33  15  20  am  
 34  16  21  ar  
 35  16  46  1   
 36  17  22  ar  
 37  17  47  1   
 38  18  48  1   
 39  18  49  1   
 40  18  50  1   
 41  20  23  1   
 42  20  51  1   
 43  21  24  1   
 44  21  25  ar  
 45  22  25  ar  
 46  22  52  1   
 47  23  26  ar  
 48  23  27  ar  
 49  24  28  1   
 50  25  29  1   
 51  26  30  ar  
 52  27  31  ar  
 53  27  53  1   
 54  28  54  1   
 55  28  55  1   
 56  28  56  1   
 57  29  57  1   
 58  30  32  ar  
 59  30  58  1   
 60  31  32  ar  
 61  31  59  1   
 62  32  33  1   
 63  33  60  1   
 64  33  61  1   
 65  33  62  1   
@<TRIPOS>SUBSTRUCTURE
  1 ****  11 GROUP 4 **** **** 0

# MOE 2024.06 (io_trps.svl 2023.06)
