@<TRIPOS>MOLECULE
NONAME
48 49 1 0 0 
SMALL
USER_CHARGES


@<TRIPOS>ATOM
  1 S       -0.2740     0.0510     0.5790 S.o2  1 <1>   1.4470 
  2 O       -0.7810     0.0450     1.9310 O.2   1 <1>  -0.6500 
  3 O       -1.1820     0.3370    -0.5110 O.2   1 <1>  -0.6500 
  4 N        0.2160    -1.5440     0.3770 N.am  1 <1>  -0.9140 
  5 C        1.2600     1.0200     0.4940 C.ar  1 <1>  -0.0090 
  6 C        0.0850    -2.1030    -0.9480 C.3   1 <1>   0.2760 
  7 C        1.2040     2.4040     0.3570 C.ar  1 <1>   0.0830 
  8 C        2.5120     0.4230     0.5890 C.ar  1 <1>  -0.1500 
  9 C        0.2470    -3.6110    -0.8050 C.3   1 <1>  -0.2400 
 10 C        1.1690    -1.5450    -1.8680 C.3   1 <1>  -0.2400 
 11 O       -0.0170     2.9770     0.3020 O.3   1 <1>  -0.3630 
 12 C        2.3790     3.1480     0.2850 C.ar  1 <1>  -0.1500 
 13 C        3.7040     1.1410     0.5230 C.ar  1 <1>   0.0860 
 14 C       -0.2130     4.3620     0.1210 C.3   1 <1>   0.0400 
 15 C        3.6060     2.5220     0.3630 C.ar  1 <1>  -0.1500 
 16 C        4.9850     0.4660     0.6120 C.2   1 <1>   0.5440 
 17 O        5.1240    -0.6590     0.1750 O.2   1 <1>  -0.5700 
 18 N        6.0600     1.0810     1.1910 N.am  1 <1>  -0.7300 
 19 C        7.4090     0.4650     1.3530 C.3   1 <1>   0.1400 
 20 C        8.1370     0.3020     0.0100 C.3   1 <1>   0.2000 
 21 O        9.4680    -0.0200     0.2450 O.3   1 <1>  -0.5600 
 22 C        8.2140     1.5620    -0.8450 C.3   1 <1>  -0.1600 
 23 C       10.2240     0.2420    -0.8920 C.3   1 <1>   0.1200 
 24 C        9.5030     1.3690    -1.6300 C.3   1 <1>  -0.1600 
 25 H       -0.4290    -2.0440     0.9830 H     1 <1>   0.4200 
 26 H       -0.8930    -1.8980    -1.3560 H     1 <1>   0.0800 
 27 H        2.5810    -0.6440     0.7190 H     1 <1>   0.1500 
 28 H        1.2100    -3.8490    -0.3870 H     1 <1>   0.0800 
 29 H        0.1690    -4.0800    -1.7690 H     1 <1>   0.0800 
 30 H       -0.5240    -4.0140    -0.1740 H     1 <1>   0.0800 
 31 H        2.1480    -1.7320    -1.4620 H     1 <1>   0.0800 
 32 H        1.0370    -0.4900    -2.0210 H     1 <1>   0.0800 
 33 H        1.1080    -2.0210    -2.8300 H     1 <1>   0.0800 
 34 H        2.3530     4.2160     0.1670 H     1 <1>   0.1500 
 35 H       -1.2730     4.5470     0.0960 H     1 <1>   0.0800 
 36 H        0.2310     4.6600    -0.8120 H     1 <1>   0.0800 
 37 H        0.2290     4.8900     0.9480 H     1 <1>   0.0800 
 38 H        4.5030     3.1120     0.2900 H     1 <1>   0.1500 
 39 H        5.9260     1.9710     1.6710 H     1 <1>   0.3700 
 40 H        7.3010    -0.5040     1.8080 H     1 <1>   0.0800 
 41 H        8.0020     1.0870     2.0000 H     1 <1>   0.0800 
 42 H        7.7010    -0.5090    -0.5510 H     1 <1>   0.0800 
 43 H        8.2920     2.4280    -0.2120 H     1 <1>   0.0800 
 44 H        7.3510     1.6580    -1.4800 H     1 <1>   0.0800 
 45 H       10.2550    -0.6560    -1.4860 H     1 <1>   0.0800 
 46 H       11.2180     0.5200    -0.5890 H     1 <1>   0.0800 
 47 H       10.0970     2.2660    -1.6390 H     1 <1>   0.0800 
 48 H        9.3020     1.0690    -2.6430 H     1 <1>   0.0800 
@<TRIPOS>BOND
  1   1   2  2   
  2   1   3  2   
  3   1   4  am  
  4   1   5  1   
  5   4   6  1   
  6   4  25  1   
  7   5   7  ar  
  8   5   8  ar  
  9   6   9  1   
 10   6  10  1   
 11   6  26  1   
 12   7  11  1   
 13   7  12  ar  
 14   8  13  ar  
 15   8  27  1   
 16   9  28  1   
 17   9  29  1   
 18   9  30  1   
 19  10  31  1   
 20  10  32  1   
 21  10  33  1   
 22  11  14  1   
 23  12  15  ar  
 24  12  34  1   
 25  13  15  ar  
 26  13  16  1   
 27  14  35  1   
 28  14  36  1   
 29  14  37  1   
 30  15  38  1   
 31  16  17  2   
 32  16  18  am  
 33  18  19  1   
 34  18  39  1   
 35  19  20  1   
 36  19  40  1   
 37  19  41  1   
 38  20  21  1   
 39  20  22  1   
 40  20  42  1   
 41  21  23  1   
 42  22  24  1   
 43  22  43  1   
 44  22  44  1   
 45  23  24  1   
 46  23  45  1   
 47  23  46  1   
 48  24  47  1   
 49  24  48  1   
@<TRIPOS>SUBSTRUCTURE
  1 ****  13 GROUP 4 **** **** 0

# MOE 2024.06 (io_trps.svl 2023.06)
