@<TRIPOS>MOLECULE
NONAME
51 54 1 0 0 
SMALL
USER_CHARGES


@<TRIPOS>ATOM
  1 O        0.4910     0.4750    -0.1850 O.2   1 <1>  -0.5700 
  2 C        1.0760     1.5010     0.0720 C.2   1 <1>   0.6900 
  3 N        0.6910     2.6790    -0.4740 N.am  1 <1>  -0.5390 
  4 N        2.1290     1.5020     0.9060 N.am  1 <1>  -0.7300 
  5 C        1.2820     3.9010    -0.2200 C.2   1 <1>  -0.0290 
  6 C        2.9740     2.6860     1.1630 C.3   1 <1>   0.5020 
  7 C        2.3880     3.9700     0.5710 C.2   1 <1>  -0.1240 
  8 C        0.5790     5.0900    -0.8820 C.3   1 <1>   0.2480 
  9 C        4.3590     2.4140     0.5780 C.ar  1 <1>  -0.1430 
 10 C        3.1400     5.1240     0.9450 C.2   1 <1>   0.7060 
 11 N       -0.8870     4.9050    -0.8990 N.3   1 <1>  -0.8100 
 12 C        4.5020     2.0700    -0.7650 C.ar  1 <1>  -0.1500 
 13 C        5.4920     2.5240     1.3880 C.ar  1 <1>  -0.1500 
 14 O        3.7690     5.1920     1.9840 O.2   1 <1>  -0.5700 
 15 O        3.1640     6.1670     0.1070 O.3   1 <1>  -0.4300 
 16 C       -1.4620     4.9950     0.4620 C.3   1 <1>   0.1100 
 17 C       -1.5350     5.9040    -1.7700 C.3   1 <1>   0.1100 
 18 C        5.7730     1.8450    -1.2530 C.ar  1 <1>   0.0830 
 19 C        6.7630     2.2930     0.8780 C.ar  1 <1>  -0.1500 
 20 C        3.9850     7.2970     0.3160 C.3   1 <1>   0.1200 
 21 C       -2.9960     4.8730     0.4230 C.3   1 <1>   0.1200 
 22 C       -3.0670     5.7530    -1.7410 C.3   1 <1>   0.1200 
 23 O        6.1380     1.5090    -2.4950 O.3   1 <1>  -0.3630 
 24 C        6.8730     1.9520    -0.4540 C.ar  1 <1>   0.0830 
 25 C        5.3880     6.9880    -0.2070 C.3   1 <1>  -0.2400 
 26 O       -3.5420     5.8400    -0.4280 O.3   1 <1>  -0.5600 
 27 C        7.5590     1.3890    -2.4850 C.3   1 <1>   0.4000 
 28 O        7.9800     1.6880    -1.1560 O.3   1 <1>  -0.3620 
 29 H       -0.1860     2.6670    -1.0030 H     1 <1>   0.3700 
 30 H        2.5180     0.5970     1.1570 H     1 <1>   0.3700 
 31 H        3.0510     2.8000     2.2310 H     1 <1>   0.0800 
 32 H        0.9340     5.1600    -1.8960 H     1 <1>   0.0800 
 33 H        0.8130     6.0130    -0.3810 H     1 <1>   0.0800 
 34 H        3.6540     1.9780    -1.4210 H     1 <1>   0.1500 
 35 H        5.3910     2.8020     2.4240 H     1 <1>   0.1500 
 36 H       -1.2000     5.9360     0.9150 H     1 <1>   0.0800 
 37 H       -1.0680     4.2050     1.0770 H     1 <1>   0.0800 
 38 H       -1.1910     5.7750    -2.7820 H     1 <1>   0.0800 
 39 H       -1.2790     6.9000    -1.4500 H     1 <1>   0.0800 
 40 H        7.6430     2.3760     1.4910 H     1 <1>   0.1500 
 41 H        3.9990     7.5440     1.3650 H     1 <1>   0.0800 
 42 H        3.5560     8.1180    -0.2310 H     1 <1>   0.0800 
 43 H       -3.4080     5.0280     1.4040 H     1 <1>   0.0800 
 44 H       -3.2880     3.8990     0.0720 H     1 <1>   0.0800 
 45 H       -3.3610     4.8020    -2.1510 H     1 <1>   0.0800 
 46 H       -3.5320     6.5370    -2.3110 H     1 <1>   0.0800 
 47 H        5.8250     6.1760     0.3480 H     1 <1>   0.0800 
 48 H        6.0160     7.8520    -0.0910 H     1 <1>   0.0800 
 49 H        5.3490     6.7300    -1.2500 H     1 <1>   0.0800 
 50 H        7.9860     2.1020    -3.1680 H     1 <1>   0.0800 
 51 H        7.8380     0.3810    -2.7340 H     1 <1>   0.0800 
@<TRIPOS>BOND
  1   1   2  2   
  2   2   3  am  
  3   2   4  am  
  4   3   5  1   
  5   3  29  1   
  6   4   6  1   
  7   4  30  1   
  8   5   7  2   
  9   5   8  1   
 10   6   7  1   
 11   6   9  1   
 12   6  31  1   
 13   7  10  1   
 14   8  11  1   
 15   8  32  1   
 16   8  33  1   
 17   9  12  ar  
 18   9  13  ar  
 19  10  14  2   
 20  10  15  1   
 21  11  16  1   
 22  11  17  1   
 23  12  18  ar  
 24  12  34  1   
 25  13  19  ar  
 26  13  35  1   
 27  15  20  1   
 28  16  21  1   
 29  16  36  1   
 30  16  37  1   
 31  17  22  1   
 32  17  38  1   
 33  17  39  1   
 34  18  23  1   
 35  18  24  ar  
 36  19  24  ar  
 37  19  40  1   
 38  20  25  1   
 39  20  41  1   
 40  20  42  1   
 41  21  26  1   
 42  21  43  1   
 43  21  44  1   
 44  22  26  1   
 45  22  45  1   
 46  22  46  1   
 47  23  27  1   
 48  24  28  1   
 49  25  47  1   
 50  25  48  1   
 51  25  49  1   
 52  27  28  1   
 53  27  50  1   
 54  27  51  1   
@<TRIPOS>SUBSTRUCTURE
  1 ****   7 GROUP 4 **** **** 0

# MOE 2024.06 (io_trps.svl 2023.06)
