@<TRIPOS>MOLECULE
NONAME
37 39 1 0 0 
SMALL
USER_CHARGES


@<TRIPOS>ATOM
  1 CL       0.7350    -0.3490    -1.0450 Cl    1 <1>  -0.1770 
  2 C       -0.3660    -1.6090    -0.5210 C.ar  1 <1>   0.1770 
  3 C        0.1490    -2.8390    -0.1130 C.ar  1 <1>   0.1170 
  4 C       -1.7210    -1.3400    -0.5240 C.ar  1 <1>  -0.1500 
  5 N        1.5410    -3.0430    -0.1310 N.am  1 <1>  -0.5470 
  6 C       -0.7630    -3.8040     0.3100 C.ar  1 <1>  -0.1500 
  7 C       -2.6070    -2.3180    -0.1050 C.ar  1 <1>  -0.1500 
  8 C        2.3180    -4.1640    -0.0640 C.2   1 <1>   0.6900 
  9 C       -2.1240    -3.5470     0.3120 C.ar  1 <1>  -0.1500 
 10 O        1.8220    -5.2750    -0.0660 O.2   1 <1>  -0.5700 
 11 N        3.6820    -4.0150    -0.0220 N.am  1 <1>  -0.6600 
 12 C        4.5610    -5.2120    -0.1980 C.3   1 <1>   0.1400 
 13 C        4.3490    -2.7180     0.3140 C.3   1 <1>   0.1400 
 14 C        5.8900    -4.8000    -0.8280 C.3   1 <1>  -0.1600 
 15 C        5.7040    -2.9680     0.9710 C.3   1 <1>  -0.1600 
 16 C        6.6170    -3.7590     0.0360 C.3   1 <1>   0.5600 
 17 O        7.2930    -2.8660    -0.7830 O.3   1 <1>  -0.5600 
 18 O        7.5990    -4.3700     0.8040 O.3   1 <1>  -0.5600 
 19 C        8.5620    -3.3550    -1.0180 C.3   1 <1>   0.1200 
 20 C        8.8130    -4.2980     0.1430 C.3   1 <1>   0.1200 
 21 H       -2.0770    -0.3790    -0.8490 H     1 <1>   0.1500 
 22 H        2.0800    -2.2130    -0.3600 H     1 <1>   0.3700 
 23 H       -0.4140    -4.7640     0.6440 H     1 <1>   0.1500 
 24 H       -3.6670    -2.1240    -0.1030 H     1 <1>   0.1500 
 25 H       -2.8090    -4.3100     0.6400 H     1 <1>   0.1500 
 26 H        4.0730    -5.9340    -0.8310 H     1 <1>   0.0800 
 27 H        4.7310    -5.6690     0.7630 H     1 <1>   0.0800 
 28 H        3.7320    -2.1520     0.9910 H     1 <1>   0.0800 
 29 H        4.4880    -2.1480    -0.5900 H     1 <1>   0.0800 
 30 H        5.6760    -4.3790    -1.7940 H     1 <1>   0.0800 
 31 H        6.5070    -5.6680    -0.9640 H     1 <1>   0.0800 
 32 H        5.5430    -3.5250     1.8760 H     1 <1>   0.0800 
 33 H        6.1710    -2.0350     1.2280 H     1 <1>   0.0800 
 34 H        9.2610    -2.5370    -1.0400 H     1 <1>   0.0800 
 35 H        8.5670    -3.8780    -1.9580 H     1 <1>   0.0800 
 36 H        9.0950    -5.2800    -0.1930 H     1 <1>   0.0800 
 37 H        9.5520    -3.9080     0.8200 H     1 <1>   0.0800 
@<TRIPOS>BOND
  1   1   2  1   
  2   2   3  ar  
  3   2   4  ar  
  4   3   5  1   
  5   3   6  ar  
  6   4   7  ar  
  7   4  21  1   
  8   5   8  am  
  9   5  22  1   
 10   6   9  ar  
 11   6  23  1   
 12   7   9  ar  
 13   7  24  1   
 14   8  10  2   
 15   8  11  am  
 16   9  25  1   
 17  11  12  1   
 18  11  13  1   
 19  12  14  1   
 20  12  26  1   
 21  12  27  1   
 22  13  15  1   
 23  13  28  1   
 24  13  29  1   
 25  14  16  1   
 26  14  30  1   
 27  14  31  1   
 28  15  16  1   
 29  15  32  1   
 30  15  33  1   
 31  16  17  1   
 32  16  18  1   
 33  17  19  1   
 34  18  20  1   
 35  19  20  1   
 36  19  34  1   
 37  19  35  1   
 38  20  36  1   
 39  20  37  1   
@<TRIPOS>SUBSTRUCTURE
  1 ****  11 GROUP 4 **** **** 0

# MOE 2024.06 (io_trps.svl 2023.06)
