@<TRIPOS>MOLECULE
NONAME
46 48 1 0 0 
SMALL
USER_CHARGES


@<TRIPOS>ATOM
  1 O       -0.2630    -0.0370     0.3710 O.2   1 <1>  -0.5700 
  2 C       -0.1770    -1.2440     0.2460 C.2   1 <1>   0.5440 
  3 N        1.0450    -1.8320     0.0490 N.am  1 <1>  -0.5470 
  4 C       -1.3660    -2.0770     0.2920 C.ar  1 <1>   0.0860 
  5 C        2.3750    -1.3890     0.0140 C.ar  1 <1>   0.1170 
  6 C       -1.3110    -3.4270     0.6460 C.ar  1 <1>  -0.1500 
  7 C       -2.6200    -1.5560    -0.0210 C.ar  1 <1>  -0.1500 
  8 C        3.3470    -2.3850    -0.1610 C.ar  1 <1>   0.1000 
  9 C        2.7650    -0.0620     0.1390 C.ar  1 <1>  -0.1500 
 10 C       -2.4430    -4.2220     0.6740 C.ar  1 <1>   0.0830 
 11 C       -3.7650    -2.3330     0.0030 C.ar  1 <1>   0.0830 
 12 N        2.9550    -3.7340    -0.2830 N.pl3 1 <1>  -0.8380 
 13 C        4.6870    -2.0190    -0.2100 C.ar  1 <1>  -0.1500 
 14 C        4.1050     0.2860     0.0890 C.ar  1 <1>  -0.1500 
 15 O       -2.2600    -5.5190     1.0280 O.3   1 <1>  -0.3620 
 16 C       -3.6800    -3.6760     0.3510 C.ar  1 <1>  -0.1500 
 17 O       -4.9260    -1.7120    -0.3260 O.3   1 <1>  -0.3620 
 18 C        3.3370    -4.6210     0.8470 C.3   1 <1>   0.2090 
 19 C        3.2910    -4.3980    -1.5690 C.3   1 <1>   0.2090 
 20 C        5.0660    -0.6930    -0.0860 C.ar  1 <1>  -0.1500 
 21 C       -3.3420    -6.4200     1.1170 C.3   1 <1>   0.0400 
 22 C       -6.1610    -2.3940    -0.3140 C.3   1 <1>   0.0400 
 23 C        3.6830    -5.9620     0.2140 C.3   1 <1>  -0.1600 
 24 C        4.1340    -5.6100    -1.1970 C.3   1 <1>  -0.1600 
 25 H        1.0440    -2.8440    -0.1090 H     1 <1>   0.3700 
 26 H       -0.3740    -3.8790     0.9140 H     1 <1>   0.1500 
 27 H       -2.7050    -0.5180    -0.2900 H     1 <1>   0.1500 
 28 H        2.0270     0.7050     0.2740 H     1 <1>   0.1500 
 29 H        5.4340    -2.7780    -0.3440 H     1 <1>   0.1500 
 30 H        4.3930     1.3180     0.1860 H     1 <1>   0.1500 
 31 H       -4.5600    -4.2840     0.3690 H     1 <1>   0.1500 
 32 H        2.5210    -4.7170     1.5430 H     1 <1>   0.0800 
 33 H        4.1940    -4.2170     1.3590 H     1 <1>   0.0800 
 34 H        3.8210    -3.7350    -2.2330 H     1 <1>   0.0800 
 35 H        2.3770    -4.7120    -2.0430 H     1 <1>   0.0800 
 36 H        6.1070    -0.4240    -0.1250 H     1 <1>   0.1500 
 37 H       -2.9550    -7.3760     1.4220 H     1 <1>   0.0800 
 38 H       -3.8060    -6.5060     0.1510 H     1 <1>   0.0800 
 39 H       -4.0390    -6.0580     1.8520 H     1 <1>   0.0800 
 40 H       -6.9290    -1.6960    -0.5970 H     1 <1>   0.0800 
 41 H       -6.3490    -2.7590     0.6810 H     1 <1>   0.0800 
 42 H       -6.1210    -3.2010    -1.0230 H     1 <1>   0.0800 
 43 H        2.7940    -6.5670     0.1740 H     1 <1>   0.0800 
 44 H        4.4400    -6.4840     0.7720 H     1 <1>   0.0800 
 45 H        5.1710    -5.3250    -1.1910 H     1 <1>   0.0800 
 46 H        3.9950    -6.4210    -1.8890 H     1 <1>   0.0800 
@<TRIPOS>BOND
  1   1   2  2   
  2   2   3  am  
  3   2   4  1   
  4   3   5  1   
  5   3  25  1   
  6   4   6  ar  
  7   4   7  ar  
  8   5   8  ar  
  9   5   9  ar  
 10   6  10  ar  
 11   6  26  1   
 12   7  11  ar  
 13   7  27  1   
 14   8  12  1   
 15   8  13  ar  
 16   9  14  ar  
 17   9  28  1   
 18  10  15  1   
 19  10  16  ar  
 20  11  16  ar  
 21  11  17  1   
 22  12  18  1   
 23  12  19  1   
 24  13  20  ar  
 25  13  29  1   
 26  14  20  ar  
 27  14  30  1   
 28  15  21  1   
 29  16  31  1   
 30  17  22  1   
 31  18  23  1   
 32  18  32  1   
 33  18  33  1   
 34  19  24  1   
 35  19  34  1   
 36  19  35  1   
 37  20  36  1   
 38  21  37  1   
 39  21  38  1   
 40  21  39  1   
 41  22  40  1   
 42  22  41  1   
 43  22  42  1   
 44  23  24  1   
 45  23  43  1   
 46  23  44  1   
 47  24  45  1   
 48  24  46  1   
@<TRIPOS>SUBSTRUCTURE
  1 ****   3 GROUP 4 **** **** 0

# MOE 2024.06 (io_trps.svl 2023.06)
