@<TRIPOS>MOLECULE
NONAME
31 31 1 0 0 
SMALL
USER_CHARGES


@<TRIPOS>ATOM
  1 S        0.2510    -0.0780     0.9090 S.o2  1 <1>   1.4470 
  2 O        1.4790    -0.2210     1.6630 O.2   1 <1>  -0.6500 
  3 O       -0.9800    -0.5900     1.4700 O.2   1 <1>  -0.6500 
  4 N        0.4700    -0.8910    -0.5660 N.am  1 <1>  -0.8490 
  5 C        0.0530     1.6560     0.4140 C.ar  1 <1>  -0.0090 
  6 C        0.9270    -2.2950    -0.3660 C.3   1 <1>   0.2570 
  7 C       -0.7300    -0.8620    -1.4120 C.3   1 <1>   0.1160 
  8 C        0.9570     2.2590    -0.4530 C.ar  1 <1>  -0.1500 
  9 C       -1.0040     2.4260     0.8890 C.ar  1 <1>  -0.1500 
 10 C        2.4480    -2.5100    -0.4610 C.2   1 <1>   0.5690 
 11 C        0.8090     3.5790    -0.8380 C.ar  1 <1>  -0.1500 
 12 C       -1.1610     3.7490     0.5100 C.ar  1 <1>  -0.1500 
 13 O        2.8840    -3.2840    -1.2750 O.2   1 <1>  -0.5700 
 14 N        3.2950    -1.8630     0.3620 N.am  1 <1>  -0.8000 
 15 C       -0.2490     4.3340    -0.3620 C.ar  1 <1>   0.0820 
 16 O       -0.3260     5.6170    -0.7880 O.3   1 <1>  -0.3620 
 17 C       -1.3530     6.4780    -0.3500 C.3   1 <1>   0.0400 
 18 H        0.4910    -2.9280    -1.1190 H     1 <1>   0.0800 
 19 H        0.5870    -2.6660     0.5860 H     1 <1>   0.0800 
 20 H       -1.0360     0.1550    -1.5920 H     1 <1>   0.0800 
 21 H       -1.5420    -1.3900    -0.9400 H     1 <1>   0.0800 
 22 H       -0.5200    -1.3180    -2.3650 H     1 <1>   0.0800 
 23 H        1.7870     1.6850    -0.8320 H     1 <1>   0.1500 
 24 H       -1.7160     1.9830     1.5670 H     1 <1>   0.1500 
 25 H        1.5150     4.0340    -1.5100 H     1 <1>   0.1500 
 26 H       -1.9920     4.3040     0.9020 H     1 <1>   0.1500 
 27 H        4.3020    -1.9950     0.2860 H     1 <1>   0.3700 
 28 H        2.9590    -1.1690     1.0460 H     1 <1>   0.3700 
 29 H       -1.2040     7.4370    -0.8130 H     1 <1>   0.0800 
 30 H       -1.2950     6.5750     0.7190 H     1 <1>   0.0800 
 31 H       -2.3030     6.0720    -0.6510 H     1 <1>   0.0800 
@<TRIPOS>BOND
  1   1   2  2   
  2   1   3  2   
  3   1   4  am  
  4   1   5  1   
  5   4   6  1   
  6   4   7  1   
  7   5   8  ar  
  8   5   9  ar  
  9   6  10  1   
 10   6  18  1   
 11   6  19  1   
 12   7  20  1   
 13   7  21  1   
 14   7  22  1   
 15   8  11  ar  
 16   8  23  1   
 17   9  12  ar  
 18   9  24  1   
 19  10  13  2   
 20  10  14  am  
 21  11  15  ar  
 22  11  25  1   
 23  12  15  ar  
 24  12  26  1   
 25  14  27  1   
 26  14  28  1   
 27  15  16  1   
 28  16  17  1   
 29  17  29  1   
 30  17  30  1   
 31  17  31  1   
@<TRIPOS>SUBSTRUCTURE
  1 ****   5 GROUP 4 **** **** 0

# MOE 2024.06 (io_trps.svl 2023.06)
