@<TRIPOS>MOLECULE
NONAME
32 33 1 0 0 
SMALL
USER_CHARGES


@<TRIPOS>ATOM
  1 BR       1.5340     2.0710    -3.2750 Br    1 <1>  -0.1110 
  2 C        2.0510     2.0160    -1.4170 C.ar  1 <1>   0.1110 
  3 C        1.2770     2.6670    -0.4660 C.ar  1 <1>   0.0830 
  4 C        3.1960     1.3170    -1.0910 C.ar  1 <1>  -0.1500 
  5 O        0.1650     3.3320    -0.8730 O.3   1 <1>  -0.3630 
  6 C        1.6920     2.5980     0.8610 C.ar  1 <1>  -0.1500 
  7 C        3.6160     1.2520     0.2320 C.ar  1 <1>  -0.0090 
  8 C       -0.6920     3.9730     0.0450 C.3   1 <1>   0.0400 
  9 C        2.8440     1.9000     1.1940 C.ar  1 <1>  -0.1500 
 10 S        5.1220     0.3460     0.6830 S.o2  1 <1>   1.4470 
 11 O        4.9400    -1.0560     0.3800 O.2   1 <1>  -0.6500 
 12 O        5.5590     0.7380     2.0060 O.2   1 <1>  -0.6500 
 13 N        6.2680     0.9430    -0.4120 N.am  1 <1>  -0.8490 
 14 C        7.4570     0.0790    -0.4690 C.3   1 <1>   0.1960 
 15 C        6.6860     2.3220    -0.1070 C.3   1 <1>   0.1960 
 16 C        8.4980     0.6290    -1.4630 C.3   1 <1>   0.1200 
 17 C        7.7340     2.8170    -1.1200 C.3   1 <1>   0.1200 
 18 O        8.8340     1.9510    -1.1480 O.3   1 <1>  -0.5600 
 19 H        3.7620     0.8250    -1.8630 H     1 <1>   0.1500 
 20 H        1.1360     3.0790     1.6440 H     1 <1>   0.1500 
 21 H       -1.5050     4.4090    -0.5080 H     1 <1>   0.0800 
 22 H       -0.1440     4.7440     0.5560 H     1 <1>   0.0800 
 23 H       -1.0720     3.2430     0.7370 H     1 <1>   0.0800 
 24 H        3.1500     1.8560     2.2270 H     1 <1>   0.1500 
 25 H        7.1710    -0.9110    -0.7820 H     1 <1>   0.0800 
 26 H        7.9060     0.0020     0.5080 H     1 <1>   0.0800 
 27 H        7.1110     2.3750     0.8820 H     1 <1>   0.0800 
 28 H        5.8320     2.9760    -0.1400 H     1 <1>   0.0800 
 29 H        8.1100     0.6020    -2.4660 H     1 <1>   0.0800 
 30 H        9.3980     0.0420    -1.4220 H     1 <1>   0.0800 
 31 H        8.0920     3.7920    -0.8420 H     1 <1>   0.0800 
 32 H        7.3110     2.8690    -2.1080 H     1 <1>   0.0800 
@<TRIPOS>BOND
  1   1   2  1   
  2   2   3  ar  
  3   2   4  ar  
  4   3   5  1   
  5   3   6  ar  
  6   4   7  ar  
  7   4  19  1   
  8   5   8  1   
  9   6   9  ar  
 10   6  20  1   
 11   7   9  ar  
 12   7  10  1   
 13   8  21  1   
 14   8  22  1   
 15   8  23  1   
 16   9  24  1   
 17  10  11  2   
 18  10  12  2   
 19  10  13  am  
 20  13  14  1   
 21  13  15  1   
 22  14  16  1   
 23  14  25  1   
 24  14  26  1   
 25  15  17  1   
 26  15  27  1   
 27  15  28  1   
 28  16  18  1   
 29  16  29  1   
 30  16  30  1   
 31  17  18  1   
 32  17  31  1   
 33  17  32  1   
@<TRIPOS>SUBSTRUCTURE
  1 ****   7 GROUP 4 **** **** 0

# MOE 2024.06 (io_trps.svl 2023.06)
