@<TRIPOS>MOLECULE
NONAME
40 40 1 0 0 
SMALL
USER_CHARGES


@<TRIPOS>ATOM
  1 O        1.3050     1.3000     1.6740 O.2   1 <1>  -0.5700 
  2 C        1.8740     1.6920     0.6730 C.2   1 <1>   0.7060 
  3 O        2.7730     0.8890     0.0890 O.3   1 <1>  -0.4300 
  4 C        1.5750     2.9460     0.0630 C.2   1 <1>   0.0290 
  5 C        3.1060    -0.3900     0.5890 C.3   1 <1>   0.1200 
  6 C        2.6650     3.6340    -0.5560 C.2   1 <1>   0.7060 
  7 C        0.2950     3.4450     0.0930 C.2   1 <1>  -0.0500 
  8 C        2.1090    -1.4100     0.0420 C.3   1 <1>  -0.2400 
  9 O        2.5190     4.4470    -1.4520 O.2   1 <1>  -0.5700 
 10 O        3.9060     3.4200    -0.1010 O.3   1 <1>  -0.4300 
 11 N       -0.1400     4.6040    -0.4870 N.pl3 1 <1>  -0.6000 
 12 C        5.0270     4.0730    -0.6540 C.3   1 <1>   0.1200 
 13 C       -1.4250     5.1710    -0.3920 C.ar  1 <1>   0.1000 
 14 C        6.2690     3.5740     0.0760 C.3   1 <1>  -0.2400 
 15 C       -2.5700     4.4890    -0.8110 C.ar  1 <1>   0.0830 
 16 C       -1.5760     6.4480     0.1290 C.ar  1 <1>  -0.1500 
 17 O       -2.4460     3.2690    -1.3610 O.3   1 <1>  -0.5320 
 18 C       -3.8230     5.0560    -0.6930 C.ar  1 <1>  -0.1500 
 19 C       -2.8290     7.0300     0.2480 C.ar  1 <1>  -0.1430 
 20 C       -3.9530     6.3290    -0.1630 C.ar  1 <1>  -0.1500 
 21 C       -2.9770     8.4270     0.8230 C.3   1 <1>  -0.0970 
 22 H        4.1010    -0.6210     0.2510 H     1 <1>   0.0800 
 23 H        3.1010    -0.3670     1.6660 H     1 <1>   0.0800 
 24 H       -0.4600     2.8900     0.6330 H     1 <1>   0.1500 
 25 H        2.1220    -1.4040    -1.0330 H     1 <1>   0.0800 
 26 H        1.1170    -1.1910     0.3940 H     1 <1>   0.0800 
 27 H        2.3780    -2.3940     0.3820 H     1 <1>   0.0800 
 28 H        0.5550     5.1750    -1.0000 H     1 <1>   0.4000 
 29 H        5.0760     3.8370    -1.7040 H     1 <1>   0.0800 
 30 H        4.9020     5.1350    -0.5260 H     1 <1>   0.0800 
 31 H        6.3720     2.5110    -0.0510 H     1 <1>   0.0800 
 32 H        6.2030     3.8070     1.1240 H     1 <1>   0.0800 
 33 H        7.1430     4.0530    -0.3260 H     1 <1>   0.0800 
 34 H       -0.7010     6.9840     0.4490 H     1 <1>   0.1500 
 35 H       -1.4960     3.0570    -1.4450 H     1 <1>   0.4500 
 36 H       -4.6870     4.5060    -1.0200 H     1 <1>   0.1500 
 37 H       -4.9300     6.7700    -0.0750 H     1 <1>   0.1500 
 38 H       -3.8620     8.4880     1.4310 H     1 <1>   0.0800 
 39 H       -3.0530     9.1430     0.0250 H     1 <1>   0.0800 
 40 H       -2.1290     8.6790     1.4350 H     1 <1>   0.0800 
@<TRIPOS>BOND
  1   1   2  2   
  2   2   3  1   
  3   2   4  1   
  4   3   5  1   
  5   4   6  1   
  6   4   7  2   
  7   5   8  1   
  8   5  22  1   
  9   5  23  1   
 10   6   9  2   
 11   6  10  1   
 12   7  11  1   
 13   7  24  1   
 14   8  25  1   
 15   8  26  1   
 16   8  27  1   
 17  10  12  1   
 18  11  13  1   
 19  11  28  1   
 20  12  14  1   
 21  12  29  1   
 22  12  30  1   
 23  13  15  ar  
 24  13  16  ar  
 25  14  31  1   
 26  14  32  1   
 27  14  33  1   
 28  15  17  1   
 29  15  18  ar  
 30  16  19  ar  
 31  16  34  1   
 32  17  35  1   
 33  18  20  ar  
 34  18  36  1   
 35  19  20  ar  
 36  19  21  1   
 37  20  37  1   
 38  21  38  1   
 39  21  39  1   
 40  21  40  1   
@<TRIPOS>SUBSTRUCTURE
  1 ****   7 GROUP 4 **** **** 0

# MOE 2024.06 (io_trps.svl 2023.06)
