@<TRIPOS>MOLECULE
NONAME
38 39 1 0 0 
SMALL
USER_CHARGES


@<TRIPOS>ATOM
  1 CL       0.1690    -0.3450    -0.7700 Cl    1 <1>  -0.1770 
  2 C       -1.4360    -0.9840    -0.5190 C.ar  1 <1>   0.1770 
  3 C       -1.5920    -2.3150    -0.1860 C.ar  1 <1>  -0.1500 
  4 C       -2.5280    -0.1520    -0.6570 C.ar  1 <1>  -0.1500 
  5 C       -2.8630    -2.8350     0.0150 C.ar  1 <1>  -0.1440 
  6 C       -3.7950    -0.6660    -0.4550 C.ar  1 <1>  -0.1500 
  7 C       -3.9830    -2.0080    -0.1220 C.ar  1 <1>   0.1170 
  8 C       -2.9910    -4.3110     0.3770 C.3   1 <1>  -0.0960 
  9 N       -5.2650    -2.5430     0.1010 N.am  1 <1>  -0.5470 
 10 C       -6.4820    -2.1600    -0.4040 C.2   1 <1>   0.5690 
 11 O       -6.6260    -1.2510    -1.1880 O.2   1 <1>  -0.5700 
 12 C       -7.7580    -2.9060     0.0280 C.3   1 <1>   0.4040 
 13 N       -9.0260    -2.1190    -0.2210 N.4   1 <1>  -0.9590 
 14 C       -9.1320    -0.9360     0.6840 C.3   1 <1>   0.3430 
 15 C      -10.2490    -2.9690    -0.2060 C.3   1 <1>   0.3430 
 16 C      -10.3260    -0.0760     0.2680 C.3   1 <1>  -0.1600 
 17 C      -11.4590    -2.1380    -0.6360 C.3   1 <1>  -0.1600 
 18 C      -11.6290    -0.8850     0.2340 C.3   1 <1>  -0.1600 
 19 H       -0.7150    -2.9290    -0.0880 H     1 <1>   0.1500 
 20 H       -2.3830     0.8810    -0.9170 H     1 <1>   0.1500 
 21 H       -4.6360    -0.0060    -0.5580 H     1 <1>   0.1500 
 22 H       -2.0310    -4.7960     0.3520 H     1 <1>   0.0800 
 23 H       -3.6310    -4.8130    -0.3270 H     1 <1>   0.0800 
 24 H       -3.3920    -4.4180     1.3680 H     1 <1>   0.0800 
 25 H       -5.2330    -3.3850     0.6740 H     1 <1>   0.3700 
 26 H       -7.6840    -3.1510     1.0730 H     1 <1>   0.0800 
 27 H       -7.7980    -3.8240    -0.5310 H     1 <1>   0.0800 
 28 H       -8.9160    -1.7200    -1.1700 H     1 <1>   0.4500 
 29 H       -8.2320    -0.3430     0.6260 H     1 <1>   0.0800 
 30 H       -9.2620    -1.2620     1.7030 H     1 <1>   0.0800 
 31 H      -10.4150    -3.3540     0.7880 H     1 <1>   0.0800 
 32 H      -10.1320    -3.8030    -0.8810 H     1 <1>   0.0800 
 33 H      -10.1330     0.3520    -0.7010 H     1 <1>   0.0800 
 34 H      -10.4310     0.7400     0.9620 H     1 <1>   0.0800 
 35 H      -12.3470    -2.7430    -0.5640 H     1 <1>   0.0800 
 36 H      -11.3490    -1.8540    -1.6680 H     1 <1>   0.0800 
 37 H      -12.4270    -0.2750    -0.1560 H     1 <1>   0.0800 
 38 H      -11.8990    -1.1750     1.2360 H     1 <1>   0.0800 
@<TRIPOS>BOND
  1   1   2  1   
  2   2   3  ar  
  3   2   4  ar  
  4   3   5  ar  
  5   3  19  1   
  6   4   6  ar  
  7   4  20  1   
  8   5   7  ar  
  9   5   8  1   
 10   6   7  ar  
 11   6  21  1   
 12   7   9  1   
 13   8  22  1   
 14   8  23  1   
 15   8  24  1   
 16   9  10  am  
 17   9  25  1   
 18  10  11  2   
 19  10  12  1   
 20  12  13  1   
 21  12  26  1   
 22  12  27  1   
 23  13  14  1   
 24  13  15  1   
 25  13  28  1   
 26  14  16  1   
 27  14  29  1   
 28  14  30  1   
 29  15  17  1   
 30  15  31  1   
 31  15  32  1   
 32  16  18  1   
 33  16  33  1   
 34  16  34  1   
 35  17  18  1   
 36  17  35  1   
 37  17  36  1   
 38  18  37  1   
 39  18  38  1   
@<TRIPOS>SUBSTRUCTURE
  1 ****  10 GROUP 4 **** **** 0

# MOE 2024.06 (io_trps.svl 2023.06)
