@<TRIPOS>MOLECULE
NONAME
40 41 1 0 0 
SMALL
USER_CHARGES


@<TRIPOS>ATOM
  1 O       -1.8580    -0.4050    -1.0270 O.3   1 <1>  -0.5600 
  2 C       -2.4840    -1.0820     0.0300 C.3   1 <1>   0.1200 
  3 C       -1.4540     0.9000    -0.7130 C.3   1 <1>   0.1200 
  4 C       -3.7440    -0.3230     0.5100 C.3   1 <1>   0.3430 
  5 C       -2.6500     1.7580    -0.2330 C.3   1 <1>   0.3430 
  6 N       -3.9290     0.9700    -0.2390 N.4   1 <1>  -0.9590 
  7 C       -5.1020     1.7750     0.1990 C.3   1 <1>   0.3430 
  8 C       -6.4000     1.0460    -0.1350 C.3   1 <1>  -0.1600 
  9 C       -7.6120     1.9150     0.1940 C.3   1 <1>   0.1200 
 10 O       -8.7550     1.1630    -0.1210 O.3   1 <1>  -0.3630 
 11 C      -10.0040     1.6630     0.0590 C.ar  1 <1>   0.0820 
 12 C      -11.0600     0.8380    -0.2890 C.ar  1 <1>  -0.1500 
 13 C      -10.2650     2.9340     0.5650 C.ar  1 <1>  -0.1500 
 14 C      -12.3690     1.2610    -0.1410 C.ar  1 <1>   0.0820 
 15 C      -11.5730     3.3620     0.7150 C.ar  1 <1>  -0.1500 
 16 O      -13.3390     0.3860    -0.5080 O.3   1 <1>  -0.3630 
 17 C      -12.6250     2.5330     0.3650 C.ar  1 <1>  -0.1500 
 18 C      -14.7050     0.7160    -0.3970 C.3   1 <1>   0.0400 
 19 H       -1.7770    -1.1970     0.8330 H     1 <1>   0.0800 
 20 H       -2.7540    -2.0630    -0.3230 H     1 <1>   0.0800 
 21 H       -1.0210     1.3310    -1.6000 H     1 <1>   0.0800 
 22 H       -0.6900     0.8530     0.0440 H     1 <1>   0.0800 
 23 H       -3.6530    -0.1300     1.5660 H     1 <1>   0.0800 
 24 H       -4.6030    -0.9580     0.3700 H     1 <1>   0.0800 
 25 H       -2.7420     2.6180    -0.8770 H     1 <1>   0.0800 
 26 H       -2.4420     2.1180     0.7610 H     1 <1>   0.0800 
 27 H       -4.0570     0.6860    -1.2230 H     1 <1>   0.4500 
 28 H       -5.0950     2.7240    -0.3140 H     1 <1>   0.0800 
 29 H       -5.0480     1.9630     1.2590 H     1 <1>   0.0800 
 30 H       -6.4770     0.1390     0.4380 H     1 <1>   0.0800 
 31 H       -6.4270     0.8120    -1.1850 H     1 <1>   0.0800 
 32 H       -7.6260     2.8130    -0.4010 H     1 <1>   0.0800 
 33 H       -7.6490     2.1570     1.2430 H     1 <1>   0.0800 
 34 H      -10.8640    -0.1420    -0.6800 H     1 <1>   0.1500 
 35 H       -9.4750     3.6030     0.8460 H     1 <1>   0.1500 
 36 H      -11.7750     4.3440     1.1060 H     1 <1>   0.1500 
 37 H      -13.6290     2.8910     0.4930 H     1 <1>   0.1500 
 38 H      -15.2800    -0.1230    -0.7440 H     1 <1>   0.0800 
 39 H      -14.9060     1.5760    -1.0110 H     1 <1>   0.0800 
 40 H      -14.9330     0.9150     0.6350 H     1 <1>   0.0800 
@<TRIPOS>BOND
  1   1   2  1   
  2   1   3  1   
  3   2   4  1   
  4   2  19  1   
  5   2  20  1   
  6   3   5  1   
  7   3  21  1   
  8   3  22  1   
  9   4   6  1   
 10   4  23  1   
 11   4  24  1   
 12   5   6  1   
 13   5  25  1   
 14   5  26  1   
 15   6   7  1   
 16   6  27  1   
 17   7   8  1   
 18   7  28  1   
 19   7  29  1   
 20   8   9  1   
 21   8  30  1   
 22   8  31  1   
 23   9  10  1   
 24   9  32  1   
 25   9  33  1   
 26  10  11  1   
 27  11  12  ar  
 28  11  13  ar  
 29  12  14  ar  
 30  12  34  1   
 31  13  15  ar  
 32  13  35  1   
 33  14  16  1   
 34  14  17  ar  
 35  15  17  ar  
 36  15  36  1   
 37  16  18  1   
 38  17  37  1   
 39  18  38  1   
 40  18  39  1   
 41  18  40  1   
@<TRIPOS>SUBSTRUCTURE
  1 ****   9 GROUP 4 **** **** 0

# MOE 2024.06 (io_trps.svl 2023.06)
