@<TRIPOS>MOLECULE
NONAME
41 43 1 0 0 
SMALL
USER_CHARGES


@<TRIPOS>ATOM
  1 CL      -0.1700    -0.5800    -0.3390 Cl    1 <1>  -0.1770 
  2 C       -1.2640     0.7680    -0.1780 C.ar  1 <1>   0.1770 
  3 C       -2.2470     0.7340     0.7920 C.ar  1 <1>  -0.1500 
  4 C       -1.1350     1.8530    -1.0220 C.ar  1 <1>  -0.1500 
  5 C       -3.1110     1.8090     0.9170 C.ar  1 <1>  -0.1500 
  6 C       -2.0070     2.9210    -0.8870 C.ar  1 <1>  -0.1500 
  7 C       -3.0040     2.9220     0.0860 C.ar  1 <1>  -0.0090 
  8 S       -4.1410     4.3290     0.2540 S.o2  1 <1>   1.4470 
  9 O       -4.7000     4.3920     1.5870 O.2   1 <1>  -0.6500 
 10 O       -5.0450     4.3060    -0.8760 O.2   1 <1>  -0.6500 
 11 N       -3.1630     5.7040     0.0670 N.am  1 <1>  -0.8490 
 12 C       -2.4140     6.1650     1.2610 C.3   1 <1>   0.2760 
 13 C       -3.9340     6.8180    -0.5340 C.3   1 <1>   0.1960 
 14 C       -1.5000     7.3970     0.9170 C.3   1 <1>   0.3440 
 15 C       -1.5900     5.0440     1.9180 C.3   1 <1>  -0.2400 
 16 C       -3.4650     8.2300    -0.1250 C.3   1 <1>   0.1200 
 17 O       -2.0780     8.2840    -0.0120 O.3   1 <1>  -0.5600 
 18 C       -0.1330     7.0000     0.3550 C.ar  1 <1>  -0.1440 
 19 C        1.0190     7.1690     1.1120 C.ar  1 <1>  -0.1500 
 20 C       -0.0270     6.4520    -0.9160 C.ar  1 <1>  -0.1500 
 21 C        2.2510     6.7880     0.6100 C.ar  1 <1>  -0.1500 
 22 C        1.2040     6.0710    -1.4200 C.ar  1 <1>  -0.1500 
 23 C        2.3450     6.2370    -0.6550 C.ar  1 <1>  -0.1500 
 24 H       -2.3310    -0.1220     1.4370 H     1 <1>   0.1500 
 25 H       -0.3640     1.8600    -1.7720 H     1 <1>   0.1500 
 26 H       -3.8800     1.7870     1.6720 H     1 <1>   0.1500 
 27 H       -1.9110     3.7710    -1.5430 H     1 <1>   0.1500 
 28 H       -3.1280     6.4970     1.9960 H     1 <1>   0.0800 
 29 H       -4.9740     6.7410    -0.2620 H     1 <1>   0.0800 
 30 H       -3.8820     6.7280    -1.6060 H     1 <1>   0.0800 
 31 H       -1.3460     7.9570     1.8220 H     1 <1>   0.0800 
 32 H       -0.9470     4.5640     1.2020 H     1 <1>   0.0800 
 33 H       -2.2210     4.3140     2.3880 H     1 <1>   0.0800 
 34 H       -0.9700     5.4590     2.6920 H     1 <1>   0.0800 
 35 H       -3.8950     8.5150     0.8190 H     1 <1>   0.0800 
 36 H       -3.7670     8.9490    -0.8660 H     1 <1>   0.0800 
 37 H        0.9640     7.5990     2.0960 H     1 <1>   0.1500 
 38 H       -0.9130     6.3270    -1.5140 H     1 <1>   0.1500 
 39 H        3.1390     6.9220     1.2030 H     1 <1>   0.1500 
 40 H        1.2730     5.6480    -2.4070 H     1 <1>   0.1500 
 41 H        3.3030     5.9410    -1.0460 H     1 <1>   0.1500 
@<TRIPOS>BOND
  1   1   2  1   
  2   2   3  ar  
  3   2   4  ar  
  4   3   5  ar  
  5   3  24  1   
  6   4   6  ar  
  7   4  25  1   
  8   5   7  ar  
  9   5  26  1   
 10   6   7  ar  
 11   6  27  1   
 12   7   8  1   
 13   8   9  2   
 14   8  10  2   
 15   8  11  am  
 16  11  12  1   
 17  11  13  1   
 18  12  14  1   
 19  12  15  1   
 20  12  28  1   
 21  13  16  1   
 22  13  29  1   
 23  13  30  1   
 24  14  17  1   
 25  14  18  1   
 26  14  31  1   
 27  15  32  1   
 28  15  33  1   
 29  15  34  1   
 30  16  17  1   
 31  16  35  1   
 32  16  36  1   
 33  18  19  ar  
 34  18  20  ar  
 35  19  21  ar  
 36  19  37  1   
 37  20  22  ar  
 38  20  38  1   
 39  21  23  ar  
 40  21  39  1   
 41  22  23  ar  
 42  22  40  1   
 43  23  41  1   
@<TRIPOS>SUBSTRUCTURE
  1 ****  11 GROUP 4 **** **** 0

# MOE 2024.06 (io_trps.svl 2023.06)
