@<TRIPOS>MOLECULE
NONAME
31 31 1 0 0 
SMALL
USER_CHARGES


@<TRIPOS>ATOM
  1 S       -0.0770     0.3010    -0.0520 S.o2  1 <1>   1.3330 
  2 O        0.7370     1.3010    -0.7000 O.2   1 <1>  -0.6500 
  3 O        0.2640    -1.0990    -0.1250 O.2   1 <1>  -0.6500 
  4 N       -1.6900     0.5070    -0.6530 N.am  1 <1>  -0.6930 
  5 C       -0.2660     0.7710     1.6530 C.3   1 <1>  -0.1350 
  6 C       -2.7560    -0.2850    -0.2370 C.ar  1 <1>   0.1990 
  7 C       -1.9030     1.5380    -1.6970 C.3   1 <1>   0.1160 
  8 C       -3.8540     0.3010     0.3750 C.ar  1 <1>  -0.1500 
  9 C       -2.7500    -1.6630    -0.4190 C.ar  1 <1>  -0.1500 
 10 C       -4.9290    -0.4600     0.8050 C.ar  1 <1>   0.1990 
 11 C       -3.8140    -2.4370     0.0080 C.ar  1 <1>  -0.1500 
 12 N       -6.0020     0.1600     1.4190 N.am  1 <1>  -0.7570 
 13 C       -4.9000    -1.8360     0.6180 C.ar  1 <1>  -0.1500 
 14 S       -7.5620     0.2680     0.7210 S.o2  1 <1>   1.3330 
 15 O       -7.8800    -1.0340     0.1940 O.2   1 <1>  -0.6500 
 16 O       -8.3630     0.8720     1.7520 O.2   1 <1>  -0.6500 
 17 C       -7.3150     1.4370    -0.5970 C.3   1 <1>  -0.1350 
 18 H        0.6790     0.7140     2.1550 H     1 <1>   0.0800 
 19 H       -0.9560     0.1120     2.1430 H     1 <1>   0.0800 
 20 H       -0.6340     1.7750     1.7220 H     1 <1>   0.0800 
 21 H       -1.2520     1.3430    -2.5320 H     1 <1>   0.0800 
 22 H       -1.6760     2.5120    -1.3000 H     1 <1>   0.0800 
 23 H       -2.9220     1.5220    -2.0410 H     1 <1>   0.0800 
 24 H       -3.8710     1.3620     0.5250 H     1 <1>   0.1500 
 25 H       -1.9080    -2.1300    -0.8990 H     1 <1>   0.1500 
 26 H       -3.7980    -3.5040    -0.1390 H     1 <1>   0.1500 
 27 H       -6.1320    -0.0580     2.4040 H     1 <1>   0.4200 
 28 H       -5.7330    -2.4360     0.9450 H     1 <1>   0.1500 
 29 H       -6.6080     1.0520    -1.3050 H     1 <1>   0.0800 
 30 H       -6.9470     2.3650    -0.2050 H     1 <1>   0.0800 
 31 H       -8.2430     1.6210    -1.1020 H     1 <1>   0.0800 
@<TRIPOS>BOND
  1   1   2  2   
  2   1   3  2   
  3   1   4  am  
  4   1   5  1   
  5   4   6  1   
  6   4   7  1   
  7   5  18  1   
  8   5  19  1   
  9   5  20  1   
 10   6   8  ar  
 11   6   9  ar  
 12   7  21  1   
 13   7  22  1   
 14   7  23  1   
 15   8  10  ar  
 16   8  24  1   
 17   9  11  ar  
 18   9  25  1   
 19  10  12  1   
 20  10  13  ar  
 21  11  13  ar  
 22  11  26  1   
 23  12  14  am  
 24  12  27  1   
 25  13  28  1   
 26  14  15  2   
 27  14  16  2   
 28  14  17  1   
 29  17  29  1   
 30  17  30  1   
 31  17  31  1   
@<TRIPOS>SUBSTRUCTURE
  1 ****   8 GROUP 4 **** **** 0

# MOE 2024.06 (io_trps.svl 2023.06)
