@<TRIPOS>MOLECULE
NONAME
40 41 1 0 0 
SMALL
USER_CHARGES


@<TRIPOS>ATOM
  1 O        0.7550    -1.3280    -0.2810 O.3   1 <1>  -0.3630 
  2 C       -0.5450    -1.5060     0.0780 C.ar  1 <1>   0.0820 
  3 C        1.6730    -0.6740     0.5680 C.3   1 <1>   0.1200 
  4 C       -1.3800    -2.1610    -0.8220 C.ar  1 <1>  -0.1440 
  5 C       -1.0620    -1.0630     1.2940 C.ar  1 <1>  -0.1500 
  6 C        3.0290    -0.6430    -0.1270 C.3   1 <1>   0.1200 
  7 C       -2.7130    -2.3640    -0.4990 C.ar  1 <1>  -0.1500 
  8 C       -0.8430    -2.6570    -2.1570 C.3   1 <1>  -0.0960 
  9 C       -2.3940    -1.2720     1.6030 C.ar  1 <1>  -0.1500 
 10 O        3.9500     0.0110     0.7200 O.3   1 <1>  -0.3620 
 11 C       -3.2260    -1.9220     0.7090 C.ar  1 <1>  -0.1430 
 12 C        5.2450     0.1790     0.3450 C.ar  1 <1>   0.0820 
 13 C       -4.6880    -2.1540     1.0470 C.3   1 <1>  -0.0970 
 14 C        6.0730     0.8330     1.2440 C.ar  1 <1>  -0.1500 
 15 C        5.7650    -0.2630    -0.8690 C.ar  1 <1>  -0.1500 
 16 C        7.4070     1.0480     0.9460 C.ar  1 <1>  -0.1500 
 17 C        7.1000    -0.0460    -1.1660 C.ar  1 <1>  -0.1500 
 18 C        7.9280     0.6070    -0.2670 C.ar  1 <1>   0.0820 
 19 O        9.2230     0.7750    -0.6420 O.3   1 <1>  -0.3620 
 20 C       10.1460     1.4270     0.2020 C.3   1 <1>   0.0400 
 21 H        1.7370    -1.2280     1.4880 H     1 <1>   0.0800 
 22 H        1.3190     0.3260     0.7430 H     1 <1>   0.0800 
 23 H       -0.4480    -0.5550     2.0120 H     1 <1>   0.1500 
 24 H        2.9630    -0.0900    -1.0470 H     1 <1>   0.0800 
 25 H        3.3810    -1.6440    -0.3030 H     1 <1>   0.0800 
 26 H       -3.3590    -2.8720    -1.1930 H     1 <1>   0.1500 
 27 H       -0.0480    -3.3600    -1.9890 H     1 <1>   0.0800 
 28 H       -0.4590    -1.8290    -2.7240 H     1 <1>   0.0800 
 29 H       -1.6130    -3.1400    -2.7310 H     1 <1>   0.0800 
 30 H       -2.7800    -0.9260     2.5460 H     1 <1>   0.1500 
 31 H       -4.8090    -3.1300     1.4810 H     1 <1>   0.0800 
 32 H       -5.2910    -2.0900     0.1600 H     1 <1>   0.0800 
 33 H       -5.0360    -1.4160     1.7480 H     1 <1>   0.0800 
 34 H        5.6640     1.1710     2.1790 H     1 <1>   0.1500 
 35 H        5.1560    -0.7720    -1.5900 H     1 <1>   0.1500 
 36 H        8.0190     1.5580     1.6660 H     1 <1>   0.1500 
 37 H        7.5110    -0.3840    -2.1000 H     1 <1>   0.1500 
 38 H       11.0980     1.4450    -0.2950 H     1 <1>   0.0800 
 39 H       10.2240     0.8780     1.1240 H     1 <1>   0.0800 
 40 H        9.8070     2.4330     0.3780 H     1 <1>   0.0800 
@<TRIPOS>BOND
  1   1   2  1   
  2   1   3  1   
  3   2   4  ar  
  4   2   5  ar  
  5   3   6  1   
  6   3  21  1   
  7   3  22  1   
  8   4   7  ar  
  9   4   8  1   
 10   5   9  ar  
 11   5  23  1   
 12   6  10  1   
 13   6  24  1   
 14   6  25  1   
 15   7  11  ar  
 16   7  26  1   
 17   8  27  1   
 18   8  28  1   
 19   8  29  1   
 20   9  11  ar  
 21   9  30  1   
 22  10  12  1   
 23  11  13  1   
 24  12  14  ar  
 25  12  15  ar  
 26  13  31  1   
 27  13  32  1   
 28  13  33  1   
 29  14  16  ar  
 30  14  34  1   
 31  15  17  ar  
 32  15  35  1   
 33  16  18  ar  
 34  16  36  1   
 35  17  18  ar  
 36  17  37  1   
 37  18  19  1   
 38  19  20  1   
 39  20  38  1   
 40  20  39  1   
 41  20  40  1   
@<TRIPOS>SUBSTRUCTURE
  1 ****   6 GROUP 4 **** **** 0

# MOE 2024.06 (io_trps.svl 2023.06)
