@<TRIPOS>MOLECULE
NONAME
47 49 1 0 0 
SMALL
USER_CHARGES


@<TRIPOS>ATOM
  1 O       -1.9690     1.1790    -0.4640 O.3   1 <1>  -0.3630 
  2 C       -1.1520     2.0630     0.1730 C.ar  1 <1>   0.0820 
  3 C       -1.5350     0.4760    -1.6130 C.3   1 <1>   0.0400 
  4 C       -1.5830     2.5570     1.4020 C.ar  1 <1>  -0.1440 
  5 C        0.0640     2.4860    -0.3560 C.ar  1 <1>  -0.1500 
  6 C       -0.7980     3.4660     2.0940 C.ar  1 <1>  -0.1500 
  7 C       -2.9060     2.1050     1.9880 C.3   1 <1>   0.4870 
  8 C        0.8460     3.4000     0.3420 C.ar  1 <1>   0.0820 
  9 C        0.4080     3.8840     1.5630 C.ar  1 <1>  -0.1500 
 10 N       -3.9890     2.4860     1.0500 N.4   1 <1>  -0.9590 
 11 O        2.0400     3.8670    -0.0970 O.3   1 <1>  -0.3620 
 12 C       -4.1030     3.9790     0.8770 C.3   1 <1>   0.3430 
 13 C       -5.3110     1.8640     1.3990 C.3   1 <1>   0.3430 
 14 C        2.6380     3.3880    -1.2820 C.3   1 <1>   0.0400 
 15 C       -5.2090     4.3670    -0.1250 C.3   1 <1>   0.2090 
 16 C       -6.4180     2.2460     0.3960 C.3   1 <1>   0.2090 
 17 N       -6.5150     3.7260     0.2180 N.pl3 1 <1>  -0.8380 
 18 C       -7.5590     4.1260    -0.5870 C.ar  1 <1>   0.4100 
 19 N       -7.4970     3.7450    -1.8560 N.ar  1 <1>  -0.6200 
 20 C       -8.5960     4.8850    -0.0560 C.ar  1 <1>  -0.1500 
 21 C       -8.5060     4.1360    -2.6190 C.ar  1 <1>   0.1600 
 22 C       -9.6370     5.2840    -0.8600 C.ar  1 <1>  -0.1500 
 23 C       -9.5800     4.8910    -2.1830 C.ar  1 <1>  -0.1500 
 24 H       -1.3730     1.1750    -2.4150 H     1 <1>   0.0800 
 25 H       -2.3030    -0.2240    -1.8930 H     1 <1>   0.0800 
 26 H       -0.6290    -0.0560    -1.3790 H     1 <1>   0.0800 
 27 H        0.4040     2.1160    -1.3010 H     1 <1>   0.1500 
 28 H       -1.1060     3.8580     3.0500 H     1 <1>   0.1500 
 29 H       -3.0650     2.5600     2.9510 H     1 <1>   0.0800 
 30 H       -2.8840     1.0340     2.1090 H     1 <1>   0.0800 
 31 H        1.0260     4.5890     2.0940 H     1 <1>   0.1500 
 32 H       -3.6760     2.1020     0.1420 H     1 <1>   0.4500 
 33 H       -3.1640     4.3810     0.5330 H     1 <1>   0.0800 
 34 H       -4.3330     4.4360     1.8240 H     1 <1>   0.0800 
 35 H       -5.6190     2.1950     2.3770 H     1 <1>   0.0800 
 36 H       -5.2180     0.7910     1.4240 H     1 <1>   0.0800 
 37 H        3.5860     3.8810    -1.3990 H     1 <1>   0.0800 
 38 H        2.0010     3.6220    -2.1160 H     1 <1>   0.0800 
 39 H        2.7880     2.3260    -1.1940 H     1 <1>   0.0800 
 40 H       -4.9140     4.0730    -1.1190 H     1 <1>   0.0800 
 41 H       -5.3300     5.4370    -0.1250 H     1 <1>   0.0800 
 42 H       -7.3650     1.8720     0.7480 H     1 <1>   0.0800 
 43 H       -6.2180     1.7810    -0.5560 H     1 <1>   0.0800 
 44 H       -8.5670     5.1500     0.9830 H     1 <1>   0.1500 
 45 H       -8.4760     3.8380    -3.6530 H     1 <1>   0.1500 
 46 H      -10.4550     5.8720    -0.4820 H     1 <1>   0.1500 
 47 H      -10.3610     5.1690    -2.8680 H     1 <1>   0.1500 
@<TRIPOS>BOND
  1   1   2  1   
  2   1   3  1   
  3   2   4  ar  
  4   2   5  ar  
  5   3  24  1   
  6   3  25  1   
  7   3  26  1   
  8   4   6  ar  
  9   4   7  1   
 10   5   8  ar  
 11   5  27  1   
 12   6   9  ar  
 13   6  28  1   
 14   7  10  1   
 15   7  29  1   
 16   7  30  1   
 17   8   9  ar  
 18   8  11  1   
 19   9  31  1   
 20  10  12  1   
 21  10  13  1   
 22  10  32  1   
 23  11  14  1   
 24  12  15  1   
 25  12  33  1   
 26  12  34  1   
 27  13  16  1   
 28  13  35  1   
 29  13  36  1   
 30  14  37  1   
 31  14  38  1   
 32  14  39  1   
 33  15  17  1   
 34  15  40  1   
 35  15  41  1   
 36  16  17  1   
 37  16  42  1   
 38  16  43  1   
 39  17  18  1   
 40  18  19  ar  
 41  18  20  ar  
 42  19  21  ar  
 43  20  22  ar  
 44  20  44  1   
 45  21  23  ar  
 46  21  45  1   
 47  22  23  ar  
 48  22  46  1   
 49  23  47  1   
@<TRIPOS>SUBSTRUCTURE
  1 ****  12 GROUP 4 **** **** 0

# MOE 2024.06 (io_trps.svl 2023.06)
