@<TRIPOS>MOLECULE
NONAME
46 49 1 0 0 
SMALL
USER_CHARGES


@<TRIPOS>ATOM
  1 CL      -1.9690     0.7460     1.4100 Cl    1 <1>  -0.1770 
  2 C       -1.1400     2.0370     0.5690 C.ar  1 <1>   0.1770 
  3 C       -1.7080     2.6290    -0.5540 C.ar  1 <1>  -0.1440 
  4 C        0.0890     2.4400     1.0570 C.ar  1 <1>  -0.1500 
  5 C       -1.0120     3.6450    -1.2000 C.ar  1 <1>  -0.1500 
  6 C       -3.0620     2.1750    -1.0780 C.3   1 <1>   0.2540 
  7 C        0.7570     3.4540     0.4000 C.ar  1 <1>   0.1770 
  8 C        0.2210     4.0600    -0.7220 C.ar  1 <1>  -0.1500 
  9 N       -4.1420     2.6370    -0.1860 N.3   1 <1>  -0.8100 
 10 CL       2.3090     3.9810     0.9960 Cl    1 <1>  -0.1770 
 11 C       -5.4170     1.9510    -0.4650 C.3   1 <1>   0.1100 
 12 C       -4.2980     4.1050    -0.1640 C.3   1 <1>   0.1100 
 13 C       -6.4950     2.3490     0.5620 C.3   1 <1>   0.3430 
 14 C       -5.3620     4.5310     0.8680 C.3   1 <1>   0.3430 
 15 N       -6.6770     3.8430     0.6320 N.4   1 <1>  -0.9590 
 16 C       -7.6900     4.2230     1.6500 C.3   1 <1>   0.4860 
 17 C       -9.0320     3.6630     1.2210 C.ar  1 <1>  -0.1430 
 18 C       -9.7090     4.2340     0.1450 C.ar  1 <1>  -0.1500 
 19 C       -9.5870     2.5740     1.8970 C.ar  1 <1>  -0.1500 
 20 C      -10.9160     3.6820    -0.2300 C.ar  1 <1>   0.0830 
 21 C      -10.8070     2.0380     1.5040 C.ar  1 <1>  -0.1500 
 22 O      -11.7200     4.0590    -1.2270 O.3   1 <1>  -0.3630 
 23 C      -11.4510     2.6150     0.4290 C.ar  1 <1>   0.0830 
 24 C      -12.8500     3.1870    -1.1940 C.3   1 <1>   0.4000 
 25 O      -12.6190     2.2720    -0.1230 O.3   1 <1>  -0.3620 
 26 H        0.5160     1.9750     1.9250 H     1 <1>   0.1500 
 27 H       -1.4220     4.1170    -2.0760 H     1 <1>   0.1500 
 28 H       -3.0660     1.0980    -1.1220 H     1 <1>   0.0800 
 29 H       -3.2230     2.5460    -2.0760 H     1 <1>   0.0800 
 30 H        0.7690     4.8450    -1.2140 H     1 <1>   0.1500 
 31 H       -5.2660     0.8860    -0.4050 H     1 <1>   0.0800 
 32 H       -5.7550     2.1840    -1.4600 H     1 <1>   0.0800 
 33 H       -4.5690     4.4640    -1.1420 H     1 <1>   0.0800 
 34 H       -3.3620     4.5630     0.1110 H     1 <1>   0.0800 
 35 H       -6.1960     1.9740     1.5270 H     1 <1>   0.0800 
 36 H       -7.4270     1.8760     0.2960 H     1 <1>   0.0800 
 37 H       -5.4900     5.6000     0.8220 H     1 <1>   0.0800 
 38 H       -4.9920     4.2810     1.8490 H     1 <1>   0.0800 
 39 H       -7.0410     4.1380    -0.2810 H     1 <1>   0.4500 
 40 H       -7.7610     5.2960     1.7230 H     1 <1>   0.0800 
 41 H       -7.4160     3.8300     2.6160 H     1 <1>   0.0800 
 42 H       -9.3340     5.0820    -0.3990 H     1 <1>   0.1500 
 43 H       -9.0810     2.1310     2.7390 H     1 <1>   0.1500 
 44 H      -11.2530     1.2000     2.0120 H     1 <1>   0.1500 
 45 H      -12.9210     2.6480    -2.1220 H     1 <1>   0.0800 
 46 H      -13.7410     3.7560    -0.9950 H     1 <1>   0.0800 
@<TRIPOS>BOND
  1   1   2  1   
  2   2   3  ar  
  3   2   4  ar  
  4   3   5  ar  
  5   3   6  1   
  6   4   7  ar  
  7   4  26  1   
  8   5   8  ar  
  9   5  27  1   
 10   6   9  1   
 11   6  28  1   
 12   6  29  1   
 13   7   8  ar  
 14   7  10  1   
 15   8  30  1   
 16   9  11  1   
 17   9  12  1   
 18  11  13  1   
 19  11  31  1   
 20  11  32  1   
 21  12  14  1   
 22  12  33  1   
 23  12  34  1   
 24  13  15  1   
 25  13  35  1   
 26  13  36  1   
 27  14  15  1   
 28  14  37  1   
 29  14  38  1   
 30  15  16  1   
 31  15  39  1   
 32  16  17  1   
 33  16  40  1   
 34  16  41  1   
 35  17  18  ar  
 36  17  19  ar  
 37  18  20  ar  
 38  18  42  1   
 39  19  21  ar  
 40  19  43  1   
 41  20  22  1   
 42  20  23  ar  
 43  21  23  ar  
 44  21  44  1   
 45  22  24  1   
 46  23  25  1   
 47  24  25  1   
 48  24  45  1   
 49  24  46  1   
@<TRIPOS>SUBSTRUCTURE
  1 ****  13 GROUP 4 **** **** 0

# MOE 2024.06 (io_trps.svl 2023.06)
