@<TRIPOS>MOLECULE
NONAME
42 43 1 0 0 
SMALL
USER_CHARGES


@<TRIPOS>ATOM
  1 S       -0.5130     0.1380    -0.4430 S.3   1 <1>  -0.0800 
  2 C        0.8940    -0.8880    -0.1900 C.2   1 <1>   0.1040 
  3 C        0.4380     1.5850    -0.2120 C.2   1 <1>  -0.1400 
  4 N        0.7520    -2.2660    -0.2710 N.am  1 <1>  -0.4940 
  5 C        2.0190    -0.1320     0.0370 C.2   1 <1>  -0.0860 
  6 C        1.7250     1.2870     0.0110 C.2   1 <1>  -0.1810 
  7 C       -0.2220     2.9440    -0.2840 C.3   1 <1>   0.0200 
  8 C       -0.3040    -3.1350    -0.2910 C.2   1 <1>   0.6160 
  9 C        3.3320    -0.6770     0.2790 C.2   1 <1>   0.8060 
 10 C        2.7440     2.4040     0.2150 C.3   1 <1>   0.0210 
 11 C        0.7370     4.0010     0.2970 C.3   1 <1>  -0.0800 
 12 O       -0.0420    -4.2590    -0.6570 O.2   1 <1>  -0.5700 
 13 C       -1.6270    -2.7700     0.1660 C.2   1 <1>  -0.1360 
 14 O        4.2760    -0.0370     0.7040 O.2   1 <1>  -0.5700 
 15 O        3.5310    -1.9800     0.0200 O.3   1 <1>  -0.4300 
 16 C        2.1790     3.7770    -0.2030 C.3   1 <1>  -0.1600 
 17 C        0.2560     5.4180    -0.0420 C.3   1 <1>  -0.2400 
 18 C       -2.8500    -3.2310    -0.1700 C.2   1 <1>  -0.2760 
 19 C        4.7830    -2.6050     0.2300 C.3   1 <1>   0.0400 
 20 C       -4.1190    -2.6960     0.4760 C.3   1 <1>  -0.1020 
 21 C       -3.1380    -4.3080    -1.2090 C.3   1 <1>  -0.1020 
 22 H        1.6260    -2.7820    -0.3930 H     1 <1>   0.3700 
 23 H       -0.4480     3.1620    -1.3130 H     1 <1>   0.0800 
 24 H       -1.1410     2.9370     0.2750 H     1 <1>   0.0800 
 25 H        3.0250     2.4280     1.2530 H     1 <1>   0.0800 
 26 H        3.6280     2.2080    -0.3660 H     1 <1>   0.0800 
 27 H        0.7380     3.8930     1.3700 H     1 <1>   0.0800 
 28 H       -1.5720    -2.0000     0.9100 H     1 <1>   0.1500 
 29 H        2.1880     3.8400    -1.2780 H     1 <1>   0.0800 
 30 H        2.8260     4.5500     0.1760 H     1 <1>   0.0800 
 31 H        0.2550     5.5750    -1.1070 H     1 <1>   0.0800 
 32 H        0.9020     6.1490     0.4110 H     1 <1>   0.0800 
 33 H       -0.7410     5.5730     0.3300 H     1 <1>   0.0800 
 34 H        5.5230    -2.1190    -0.3820 H     1 <1>   0.0800 
 35 H        4.6980    -3.6410    -0.0450 H     1 <1>   0.0800 
 36 H        5.0460    -2.5190     1.2700 H     1 <1>   0.0800 
 37 H       -4.6480    -3.4920     0.9680 H     1 <1>   0.0800 
 38 H       -4.7620    -2.2630    -0.2710 H     1 <1>   0.0800 
 39 H       -3.8920    -1.9380     1.2050 H     1 <1>   0.0800 
 40 H       -3.8210    -3.9340    -1.9500 H     1 <1>   0.0800 
 41 H       -3.5770    -5.1680    -0.7370 H     1 <1>   0.0800 
 42 H       -2.2460    -4.6240    -1.7170 H     1 <1>   0.0800 
@<TRIPOS>BOND
  1   1   2  1   
  2   1   3  1   
  3   2   4  1   
  4   2   5  2   
  5   3   6  2   
  6   3   7  1   
  7   4   8  am  
  8   4  22  1   
  9   5   6  1   
 10   5   9  1   
 11   6  10  1   
 12   7  11  1   
 13   7  23  1   
 14   7  24  1   
 15   8  12  2   
 16   8  13  1   
 17   9  14  2   
 18   9  15  1   
 19  10  16  1   
 20  10  25  1   
 21  10  26  1   
 22  11  16  1   
 23  11  17  1   
 24  11  27  1   
 25  13  18  2   
 26  13  28  1   
 27  15  19  1   
 28  16  29  1   
 29  16  30  1   
 30  17  31  1   
 31  17  32  1   
 32  17  33  1   
 33  18  20  1   
 34  18  21  1   
 35  19  34  1   
 36  19  35  1   
 37  19  36  1   
 38  20  37  1   
 39  20  38  1   
 40  20  39  1   
 41  21  40  1   
 42  21  41  1   
 43  21  42  1   
@<TRIPOS>SUBSTRUCTURE
  1 ****   2 GROUP 4 **** **** 0

# MOE 2024.06 (io_trps.svl 2023.06)
