@<TRIPOS>MOLECULE
NONAME
57 60 1 0 0 
SMALL
USER_CHARGES


@<TRIPOS>ATOM
  1 O       -4.1640     0.3790    -1.9250 O.co2 1 <1>  -0.9000 
  2 C       -4.1930     1.6090    -2.0030 C.2   1 <1>   0.9060 
  3 O       -4.9350     2.1850    -2.8100 O.co2 1 <1>  -0.9000 
  4 C       -3.2670     2.4130    -1.0960 C.3   1 <1>  -0.1860 
  5 C       -3.5230     2.3350     0.4480 C.3   1 <1>  -0.0190 
  6 C       -3.0270     3.8940    -1.5120 C.3   1 <1>  -0.0800 
  7 C       -4.5960     1.4220     1.0930 C.2   1 <1>   0.5690 
  8 C       -3.4510     3.7540     1.0800 C.3   1 <1>  -0.0800 
  9 C       -4.2240     4.7810    -1.1050 C.3   1 <1>  -0.1600 
 10 C       -1.7970     4.4110    -0.7340 C.3   1 <1>  -0.1600 
 11 O       -4.1770     0.7120     1.9850 O.2   1 <1>  -0.5700 
 12 N       -5.9490     1.4030     0.8290 N.am  1 <1>  -0.6600 
 13 C       -4.4690     4.7060     0.4200 C.3   1 <1>  -0.1600 
 14 C       -2.0480     4.3370     0.7910 C.3   1 <1>  -0.1600 
 15 C       -6.7760     0.2930     1.4110 C.3   1 <1>   0.1400 
 16 C       -6.6720     2.1830    -0.2170 C.3   1 <1>   0.1400 
 17 C       -8.2870     0.4110     1.1150 C.3   1 <1>   0.2090 
 18 C       -7.5050     1.2640    -1.1270 C.3   1 <1>   0.2090 
 19 N       -8.5790     0.5480    -0.3480 N.pl3 1 <1>  -0.8380 
 20 C       -9.9070     0.8300    -0.6900 C.ar  1 <1>   0.1000 
 21 C      -10.5730     2.0350    -0.4040 C.ar  1 <1>   0.0820 
 22 C      -10.6120    -0.1610    -1.3580 C.ar  1 <1>  -0.1500 
 23 O       -9.9400     3.0570     0.2310 O.3   1 <1>  -0.3620 
 24 C      -11.9050     2.2010    -0.7520 C.ar  1 <1>  -0.1500 
 25 C      -11.9370     0.0120    -1.7190 C.ar  1 <1>  -0.1500 
 26 C       -9.6550     4.1850    -0.5650 C.3   1 <1>   0.1200 
 27 C      -12.5880     1.1930    -1.4120 C.ar  1 <1>  -0.1500 
 28 C       -9.0770     5.2740     0.3350 C.3   1 <1>  -0.2400 
 29 H       -2.3290     1.9170    -1.2620 H     1 <1>   0.0800 
 30 H       -2.6210     1.8630     0.7970 H     1 <1>   0.0800 
 31 H       -2.8570     3.9560    -2.5740 H     1 <1>   0.0800 
 32 H       -3.6170     3.6970     2.1420 H     1 <1>   0.0800 
 33 H       -5.1010     4.4820    -1.6490 H     1 <1>   0.0800 
 34 H       -4.0180     5.7990    -1.3850 H     1 <1>   0.0800 
 35 H       -1.5920     5.4280    -1.0200 H     1 <1>   0.0800 
 36 H       -0.9340     3.8210    -0.9910 H     1 <1>   0.0800 
 37 H       -4.3620     5.6890     0.8450 H     1 <1>   0.0800 
 38 H       -5.4690     4.3850     0.6320 H     1 <1>   0.0800 
 39 H       -1.2950     3.7220     1.2530 H     1 <1>   0.0800 
 40 H       -1.9700     5.3210     1.2180 H     1 <1>   0.0800 
 41 H       -6.6280     0.2660     2.4750 H     1 <1>   0.0800 
 42 H       -6.4210    -0.6390     1.0050 H     1 <1>   0.0800 
 43 H       -5.9970     2.7550    -0.8020 H     1 <1>   0.0800 
 44 H       -7.3310     2.8750     0.2680 H     1 <1>   0.0800 
 45 H       -8.6800     1.2630     1.6410 H     1 <1>   0.0800 
 46 H       -8.7870    -0.4650     1.4850 H     1 <1>   0.0800 
 47 H       -6.8500     0.5430    -1.5880 H     1 <1>   0.0800 
 48 H       -7.9470     1.8460    -1.9150 H     1 <1>   0.0800 
 49 H      -10.0990    -1.0760    -1.5910 H     1 <1>   0.1500 
 50 H      -12.4090     3.1160    -0.5040 H     1 <1>   0.1500 
 51 H      -12.4580    -0.7750    -2.2360 H     1 <1>   0.1500 
 52 H      -10.5640     4.5230    -1.0300 H     1 <1>   0.0800 
 53 H       -8.9500     3.8930    -1.3230 H     1 <1>   0.0800 
 54 H      -13.6200     1.3280    -1.6840 H     1 <1>   0.1500 
 55 H       -9.7960     5.5510     1.0850 H     1 <1>   0.0800 
 56 H       -8.8400     6.1410    -0.2530 H     1 <1>   0.0800 
 57 H       -8.1780     4.9280     0.8120 H     1 <1>   0.0800 
@<TRIPOS>BOND
  1   1   2  ar  
  2   2   3  ar  
  3   2   4  1   
  4   4   5  1   
  5   4   6  1   
  6   4  29  1   
  7   5   7  1   
  8   5   8  1   
  9   5  30  1   
 10   6   9  1   
 11   6  10  1   
 12   6  31  1   
 13   7  11  2   
 14   7  12  am  
 15   8  13  1   
 16   8  14  1   
 17   8  32  1   
 18   9  13  1   
 19   9  33  1   
 20   9  34  1   
 21  10  14  1   
 22  10  35  1   
 23  10  36  1   
 24  12  15  1   
 25  12  16  1   
 26  13  37  1   
 27  13  38  1   
 28  14  39  1   
 29  14  40  1   
 30  15  17  1   
 31  15  41  1   
 32  15  42  1   
 33  16  18  1   
 34  16  43  1   
 35  16  44  1   
 36  17  19  1   
 37  17  45  1   
 38  17  46  1   
 39  18  19  1   
 40  18  47  1   
 41  18  48  1   
 42  19  20  1   
 43  20  21  ar  
 44  20  22  ar  
 45  21  23  1   
 46  21  24  ar  
 47  22  25  ar  
 48  22  49  1   
 49  23  26  1   
 50  24  27  ar  
 51  24  50  1   
 52  25  27  ar  
 53  25  51  1   
 54  26  28  1   
 55  26  52  1   
 56  26  53  1   
 57  27  54  1   
 58  28  55  1   
 59  28  56  1   
 60  28  57  1   
@<TRIPOS>SUBSTRUCTURE
  1 ****  16 GROUP 4 **** **** 0

# MOE 2024.06 (io_trps.svl 2023.06)
