@<TRIPOS>MOLECULE
NONAME
46 48 1 0 0 
SMALL
USER_CHARGES


@<TRIPOS>ATOM
  1 O       -0.7590     0.8720     2.4920 O.2   1 <1>  -0.5700 
  2 C       -0.1600     1.1530     1.4810 C.2   1 <1>   0.5690 
  3 N       -0.7540     1.2330     0.2470 N.am  1 <1>  -0.5470 
  4 C        1.3290     1.5140     1.5810 C.3   1 <1>   0.1710 
  5 C       -2.0610     0.9520    -0.1780 C.ar  1 <1>   0.1170 
  6 N        2.3150     0.4220     1.3210 N.3   1 <1>  -0.8100 
  7 C       -2.9320     0.1360     0.5360 C.ar  1 <1>  -0.1500 
  8 C       -2.5000     1.4950    -1.3790 C.ar  1 <1>  -0.1500 
  9 C        3.6780     0.8660     1.6890 C.3   1 <1>   0.1100 
 10 C        2.2000    -0.2450     0.0050 C.3   1 <1>   0.1100 
 11 C       -4.2080    -0.1280     0.0700 C.ar  1 <1>  -0.1430 
 12 C       -3.7730     1.2390    -1.8590 C.ar  1 <1>  -0.1430 
 13 C        4.7540     0.1010     0.9200 C.3   1 <1>  -0.1600 
 14 C        3.1050     0.4310    -1.0220 C.3   1 <1>  -0.1600 
 15 C       -4.6230     0.4250    -1.1300 C.ar  1 <1>  -0.1500 
 16 C       -5.1470    -1.0190     0.8630 C.3   1 <1>  -0.0970 
 17 C       -4.2430     1.8380    -3.1730 C.3   1 <1>  -0.0970 
 18 C        4.5690     0.3150    -0.5890 C.3   1 <1>   0.5600 
 19 O        5.2380     1.4640    -0.9960 O.3   1 <1>  -0.5600 
 20 O        5.1690    -0.7250    -1.2850 O.3   1 <1>  -0.5600 
 21 C        6.4970     1.1250    -1.4590 C.3   1 <1>   0.1200 
 22 C        6.4830    -0.3890    -1.5370 C.3   1 <1>   0.1200 
 23 H       -0.1330     1.5380    -0.4980 H     1 <1>   0.3700 
 24 H        1.4890     1.8770     2.5810 H     1 <1>   0.0800 
 25 H        1.5260     2.3310     0.9110 H     1 <1>   0.0800 
 26 H       -2.6080    -0.3020     1.4620 H     1 <1>   0.1500 
 27 H       -1.8400     2.1260    -1.9430 H     1 <1>   0.1500 
 28 H        3.8160     0.7270     2.7480 H     1 <1>   0.0800 
 29 H        3.7940     1.9150     1.4710 H     1 <1>   0.0800 
 30 H        1.1830    -0.2680    -0.3390 H     1 <1>   0.0800 
 31 H        2.5090    -1.2720     0.1150 H     1 <1>   0.0800 
 32 H        4.6600    -0.9430     1.1550 H     1 <1>   0.0800 
 33 H        5.7270     0.4320     1.2280 H     1 <1>   0.0800 
 34 H        2.8260     1.4650    -1.0980 H     1 <1>   0.0800 
 35 H        2.9750    -0.0290    -1.9840 H     1 <1>   0.0800 
 36 H       -5.6130     0.2190    -1.4960 H     1 <1>   0.1500 
 37 H       -4.8180    -1.1040     1.8830 H     1 <1>   0.0800 
 38 H       -5.1740    -2.0000     0.4240 H     1 <1>   0.0800 
 39 H       -6.1400    -0.6070     0.8590 H     1 <1>   0.0800 
 40 H       -3.6380     2.6840    -3.4450 H     1 <1>   0.0800 
 41 H       -5.2640     2.1650    -3.0860 H     1 <1>   0.0800 
 42 H       -4.1800     1.1000    -3.9520 H     1 <1>   0.0800 
 43 H        7.2390     1.4840    -0.7690 H     1 <1>   0.0800 
 44 H        6.6400     1.5710    -2.4280 H     1 <1>   0.0800 
 45 H        6.7640    -0.7530    -2.5090 H     1 <1>   0.0800 
 46 H        7.1070    -0.8280    -0.7770 H     1 <1>   0.0800 
@<TRIPOS>BOND
  1   1   2  2   
  2   2   3  am  
  3   2   4  1   
  4   3   5  1   
  5   3  23  1   
  6   4   6  1   
  7   4  24  1   
  8   4  25  1   
  9   5   7  ar  
 10   5   8  ar  
 11   6   9  1   
 12   6  10  1   
 13   7  11  ar  
 14   7  26  1   
 15   8  12  ar  
 16   8  27  1   
 17   9  13  1   
 18   9  28  1   
 19   9  29  1   
 20  10  14  1   
 21  10  30  1   
 22  10  31  1   
 23  11  15  ar  
 24  11  16  1   
 25  12  15  ar  
 26  12  17  1   
 27  13  18  1   
 28  13  32  1   
 29  13  33  1   
 30  14  18  1   
 31  14  34  1   
 32  14  35  1   
 33  15  36  1   
 34  16  37  1   
 35  16  38  1   
 36  16  39  1   
 37  17  40  1   
 38  17  41  1   
 39  17  42  1   
 40  18  19  1   
 41  18  20  1   
 42  19  21  1   
 43  20  22  1   
 44  21  22  1   
 45  21  43  1   
 46  21  44  1   
 47  22  45  1   
 48  22  46  1   
@<TRIPOS>SUBSTRUCTURE
  1 ****   3 GROUP 4 **** **** 0

# MOE 2024.06 (io_trps.svl 2023.06)
