@<TRIPOS>MOLECULE
NONAME
44 47 1 0 0 
SMALL
USER_CHARGES


@<TRIPOS>ATOM
  1 N        0.2890    -0.3380    -0.3840 N.ar  1 <1>  -0.6200 
  2 C        0.2390     0.9230    -0.7610 C.ar  1 <1>   0.7710 
  3 C        1.4530    -0.8500     0.0110 C.ar  1 <1>   0.4100 
  4 N        1.3040     1.7470    -0.7600 N.ar  1 <1>  -0.1260 
  5 N       -0.9530     1.3650    -1.1550 N.pl3 1 <1>  -0.9000 
  6 N        1.4420    -2.1740     0.3540 N.pl3 1 <1>  -0.8380 
  7 C        2.6260    -0.0290     0.0600 C.ar  1 <1>   0.2270 
  8 C        2.5160     1.2740    -0.3380 C.ar  1 <1>   0.1560 
  9 C        0.2360    -2.8630     0.9080 C.3   1 <1>   0.2090 
 10 C        2.6360    -3.0670     0.2610 C.3   1 <1>   0.2090 
 11 N        3.9190    -0.2520     0.4620 N.2   1 <1>  -0.5650 
 12 N        3.7250     1.8510    -0.1980 N.pl3 1 <1>   0.0330 
 13 C       -0.1170    -4.0750     0.0440 C.3   1 <1>  -0.1600 
 14 C        2.3030    -4.2940    -0.5910 C.3   1 <1>  -0.1600 
 15 C        4.5250     0.8700     0.2930 C.2   1 <1>   0.0360 
 16 C        1.0690    -5.0490    -0.0700 C.3   1 <1>  -0.0800 
 17 C        0.7440    -6.2480    -0.9800 C.3   1 <1>  -0.0170 
 18 C       -0.4000    -7.0920    -0.4330 C.ar  1 <1>  -0.1430 
 19 C       -0.1830    -7.9530     0.6320 C.ar  1 <1>  -0.1500 
 20 C       -1.6670    -7.0090    -0.9910 C.ar  1 <1>  -0.1500 
 21 C       -1.2190    -8.7220     1.1340 C.ar  1 <1>  -0.1500 
 22 C       -2.7040    -7.7760    -0.4890 C.ar  1 <1>  -0.1500 
 23 C       -2.4810    -8.6330     0.5740 C.ar  1 <1>  -0.1500 
 24 H        1.1550     2.7020    -1.0700 H     1 <1>   0.4570 
 25 H       -1.2300     2.2910    -1.4860 H     1 <1>   0.4000 
 26 H       -1.7240     0.6880    -1.1390 H     1 <1>   0.4000 
 27 H       -0.6080    -2.1980     0.9570 H     1 <1>   0.0800 
 28 H        0.4520    -3.1890     1.9110 H     1 <1>   0.0800 
 29 H        2.9300    -3.3700     1.2520 H     1 <1>   0.0800 
 30 H        3.4650    -2.5620    -0.1980 H     1 <1>   0.0800 
 31 H        4.0230     2.8120    -0.3940 H     1 <1>   0.2700 
 32 H       -0.4110    -3.7300    -0.9310 H     1 <1>   0.0800 
 33 H       -0.9600    -4.5750     0.4860 H     1 <1>   0.0800 
 34 H        3.1540    -4.9510    -0.5980 H     1 <1>   0.0800 
 35 H        2.1320    -3.9690    -1.6020 H     1 <1>   0.0800 
 36 H        5.5680     1.0390     0.5160 H     1 <1>   0.1500 
 37 H        1.2940    -5.4240     0.9140 H     1 <1>   0.0800 
 38 H        1.6140    -6.8730    -1.0710 H     1 <1>   0.0800 
 39 H        0.4980    -5.8980    -1.9670 H     1 <1>   0.0800 
 40 H        0.7950    -8.0290     1.0730 H     1 <1>   0.1500 
 41 H       -1.8510    -6.3450    -1.8170 H     1 <1>   0.1500 
 42 H       -1.0430    -9.3880     1.9600 H     1 <1>   0.1500 
 43 H       -3.6840    -7.7060    -0.9270 H     1 <1>   0.1500 
 44 H       -3.2870    -9.2290     0.9630 H     1 <1>   0.1500 
@<TRIPOS>BOND
  1   1   2  ar  
  2   1   3  ar  
  3   2   4  ar  
  4   2   5  1   
  5   3   6  1   
  6   3   7  ar  
  7   4   8  ar  
  8   4  24  1   
  9   5  25  1   
 10   5  26  1   
 11   6   9  1   
 12   6  10  1   
 13   7   8  ar  
 14   7  11  1   
 15   8  12  1   
 16   9  13  1   
 17   9  27  1   
 18   9  28  1   
 19  10  14  1   
 20  10  29  1   
 21  10  30  1   
 22  11  15  2   
 23  12  15  1   
 24  12  31  1   
 25  13  16  1   
 26  13  32  1   
 27  13  33  1   
 28  14  16  1   
 29  14  34  1   
 30  14  35  1   
 31  15  36  1   
 32  16  17  1   
 33  16  37  1   
 34  17  18  1   
 35  17  38  1   
 36  17  39  1   
 37  18  19  ar  
 38  18  20  ar  
 39  19  21  ar  
 40  19  40  1   
 41  20  22  ar  
 42  20  41  1   
 43  21  23  ar  
 44  21  42  1   
 45  22  23  ar  
 46  22  43  1   
 47  23  44  1   
@<TRIPOS>SUBSTRUCTURE
  1 ****   6 GROUP 4 **** **** 0

# MOE 2024.06 (io_trps.svl 2023.06)
