@<TRIPOS>MOLECULE
NONAME
44 45 1 0 0 
SMALL
USER_CHARGES


@<TRIPOS>ATOM
  1 I       -0.2490    -0.0460     1.6320 I     1 <1>  -0.0810 
  2 C        1.5210     0.9510     1.0020 C.ar  1 <1>   0.0810 
  3 C        2.7410     0.3480     1.2350 C.ar  1 <1>  -0.1500 
  4 C        1.4020     2.1770     0.3760 C.ar  1 <1>  -0.1500 
  5 C        3.9160     0.9790     0.8280 C.ar  1 <1>   0.0860 
  6 C        2.5600     2.8180    -0.0250 C.ar  1 <1>  -0.1500 
  7 C        5.2070     0.3520     1.0510 C.2   1 <1>   0.5440 
  8 C        3.7940     2.2270     0.2020 C.ar  1 <1>  -0.1500 
  9 O        5.3740    -0.4280     1.9680 O.2   1 <1>  -0.5700 
 10 N        6.2680     0.5970     0.2220 N.am  1 <1>  -0.7300 
 11 C        7.6020     0.0100     0.4210 C.3   1 <1>   0.2200 
 12 C        8.6650     0.9270    -0.1720 C.3   1 <1>  -0.1600 
 13 C        7.6560    -1.3500    -0.2660 C.3   1 <1>  -0.1600 
 14 C       10.0740     0.3340    -0.0200 C.3   1 <1>   0.5030 
 15 C        9.0280    -2.0140    -0.1090 C.3   1 <1>   0.5030 
 16 N       10.1160    -1.0770    -0.4430 N.4   1 <1>  -0.9060 
 17 C       10.6040     0.4650     1.4110 C.3   1 <1>  -0.2400 
 18 C       11.0380     1.0680    -0.9500 C.3   1 <1>  -0.2400 
 19 C        9.2370    -2.5830     1.2970 C.3   1 <1>  -0.2400 
 20 C        9.1550    -3.1620    -1.1090 C.3   1 <1>  -0.2400 
 21 H        2.7890    -0.6060     1.7310 H     1 <1>   0.1500 
 22 H        0.4350     2.6190     0.2080 H     1 <1>   0.1500 
 23 H        2.5000     3.7780    -0.5090 H     1 <1>   0.1500 
 24 H        4.6790     2.7530    -0.1060 H     1 <1>   0.1500 
 25 H        6.1100     1.1300    -0.6340 H     1 <1>   0.3700 
 26 H        7.7660    -0.1040     1.4800 H     1 <1>   0.0800 
 27 H        8.6270     1.8820     0.3220 H     1 <1>   0.0800 
 28 H        8.4520     1.0870    -1.2140 H     1 <1>   0.0800 
 29 H        7.4250    -1.2290    -1.3090 H     1 <1>   0.0800 
 30 H        6.9030    -1.9910     0.1610 H     1 <1>   0.0800 
 31 H       10.9900    -1.4820    -0.1050 H     1 <1>   0.4500 
 32 H       10.1810    -1.0700    -1.4620 H     1 <1>   0.4500 
 33 H        9.9160     0.0890     2.1410 H     1 <1>   0.0800 
 34 H       10.7550     1.5050     1.6450 H     1 <1>   0.0800 
 35 H       11.5500    -0.0330     1.5250 H     1 <1>   0.0800 
 36 H       10.7310     0.9880    -1.9780 H     1 <1>   0.0800 
 37 H       12.0410     0.6900    -0.8510 H     1 <1>   0.0800 
 38 H       11.0610     2.1160    -0.7010 H     1 <1>   0.0800 
 39 H        9.0270    -1.8680     2.0660 H     1 <1>   0.0800 
 40 H       10.2360    -2.9610     1.4230 H     1 <1>   0.0800 
 41 H        8.5570    -3.4030     1.4560 H     1 <1>   0.0800 
 42 H        9.0420    -2.8170    -2.1220 H     1 <1>   0.0800 
 43 H        8.3830    -3.8900    -0.9290 H     1 <1>   0.0800 
 44 H       10.1020    -3.6630    -1.0100 H     1 <1>   0.0800 
@<TRIPOS>BOND
  1   1   2  1   
  2   2   3  ar  
  3   2   4  ar  
  4   3   5  ar  
  5   3  21  1   
  6   4   6  ar  
  7   4  22  1   
  8   5   7  1   
  9   5   8  ar  
 10   6   8  ar  
 11   6  23  1   
 12   7   9  2   
 13   7  10  am  
 14   8  24  1   
 15  10  11  1   
 16  10  25  1   
 17  11  12  1   
 18  11  13  1   
 19  11  26  1   
 20  12  14  1   
 21  12  27  1   
 22  12  28  1   
 23  13  15  1   
 24  13  29  1   
 25  13  30  1   
 26  14  16  1   
 27  14  17  1   
 28  14  18  1   
 29  15  16  1   
 30  15  19  1   
 31  15  20  1   
 32  16  31  1   
 33  16  32  1   
 34  17  33  1   
 35  17  34  1   
 36  17  35  1   
 37  18  36  1   
 38  18  37  1   
 39  18  38  1   
 40  19  39  1   
 41  19  40  1   
 42  19  41  1   
 43  20  42  1   
 44  20  43  1   
 45  20  44  1   
@<TRIPOS>SUBSTRUCTURE
  1 ****  10 GROUP 4 **** **** 0

# MOE 2024.06 (io_trps.svl 2023.06)
