@<TRIPOS>MOLECULE
NONAME
51 54 1 0 0 
SMALL
USER_CHARGES


@<TRIPOS>ATOM
  1 N       -0.5250    -0.3450     0.4380 N.4   1 <1>  -0.9590 
  2 C       -1.5610    -1.3440     0.9050 C.3   1 <1>   0.4230 
  3 C        0.8130    -0.9950     0.1510 C.3   1 <1>   0.3430 
  4 C       -0.3820     0.8250     1.3920 C.3   1 <1>   0.3430 
  5 C       -1.7380    -2.4890    -0.1300 C.3   1 <1>  -0.0800 
  6 C       -2.9400    -0.6600     1.1170 C.3   1 <1>  -0.0800 
  7 C        1.9310     0.0100    -0.2480 C.3   1 <1>   0.3430 
  8 C        0.7370     1.8300     0.9970 C.3   1 <1>   0.3430 
  9 C       -2.2790    -1.9360    -1.4700 C.3   1 <1>  -0.1600 
 10 C       -2.7490    -3.5170     0.4200 C.3   1 <1>  -0.1600 
 11 C       -3.4850    -0.1010    -0.2190 C.3   1 <1>  -0.1600 
 12 C       -3.9430    -1.6990     1.6590 C.3   1 <1>  -0.1600 
 13 N        2.0690     1.1720     0.7150 N.4   1 <1>  -0.9590 
 14 C       -3.6360    -1.2440    -1.2420 C.3   1 <1>  -0.0800 
 15 C       -4.1130    -2.8470     0.6510 C.3   1 <1>  -0.0800 
 16 C        3.0940     2.1810     0.3080 C.3   1 <1>   0.4230 
 17 C       -4.6310    -2.2780    -0.6830 C.3   1 <1>  -0.1600 
 18 C        2.8540     2.7140    -1.1060 C.3   1 <1>  -0.2400 
 19 C        4.4800     1.5550     0.4260 C.3   1 <1>  -0.2400 
 20 H       -0.9230    -0.0010    -0.4490 H     1 <1>   0.4500 
 21 H       -1.2460    -1.7750     1.8420 H     1 <1>   0.0800 
 22 H        0.7050    -1.7080    -0.6510 H     1 <1>   0.0800 
 23 H        1.1390    -1.5410     1.0210 H     1 <1>   0.0800 
 24 H       -0.1730     0.4530     2.3820 H     1 <1>   0.0800 
 25 H       -1.3130     1.3650     1.4450 H     1 <1>   0.0800 
 26 H       -0.8180    -3.0180    -0.2910 H     1 <1>   0.0800 
 27 H       -2.8810     0.1230     1.8500 H     1 <1>   0.0800 
 28 H        1.7060     0.3850    -1.2330 H     1 <1>   0.0800 
 29 H        2.8670    -0.5200    -0.3140 H     1 <1>   0.0800 
 30 H        0.8520     2.5530     1.7890 H     1 <1>   0.0800 
 31 H        0.4110     2.3680     0.1220 H     1 <1>   0.0800 
 32 H       -1.5870    -1.2500    -1.9220 H     1 <1>   0.0800 
 33 H       -2.4120    -2.7490    -2.1650 H     1 <1>   0.0800 
 34 H       -2.3900    -3.9400     1.3430 H     1 <1>   0.0800 
 35 H       -2.8640    -4.3290    -0.2800 H     1 <1>   0.0800 
 36 H       -2.8460     0.6660    -0.6160 H     1 <1>   0.0800 
 37 H       -4.4490     0.3500    -0.0520 H     1 <1>   0.0800 
 38 H       -4.8990    -1.2320     1.8320 H     1 <1>   0.0800 
 39 H       -3.6050    -2.0910     2.6030 H     1 <1>   0.0800 
 40 H        2.4300     0.7980     1.6060 H     1 <1>   0.4500 
 41 H       -4.0140    -0.8560    -2.1740 H     1 <1>   0.0800 
 42 H       -4.8160    -3.5700     1.0340 H     1 <1>   0.0800 
 43 H        3.0520     3.0150     0.9930 H     1 <1>   0.0800 
 44 H       -4.7660    -3.0780    -1.3920 H     1 <1>   0.0800 
 45 H       -5.5930    -1.8190    -0.5330 H     1 <1>   0.0800 
 46 H        2.9970     1.9560    -1.8550 H     1 <1>   0.0800 
 47 H        3.5680     3.4940    -1.3080 H     1 <1>   0.0800 
 48 H        1.8770     3.1480    -1.2090 H     1 <1>   0.0800 
 49 H        4.6290     0.7660    -0.2880 H     1 <1>   0.0800 
 50 H        4.6520     1.1830     1.4200 H     1 <1>   0.0800 
 51 H        5.2250     2.3080     0.2320 H     1 <1>   0.0800 
@<TRIPOS>BOND
  1   1   2  1   
  2   1   3  1   
  3   1   4  1   
  4   1  20  1   
  5   2   5  1   
  6   2   6  1   
  7   2  21  1   
  8   3   7  1   
  9   3  22  1   
 10   3  23  1   
 11   4   8  1   
 12   4  24  1   
 13   4  25  1   
 14   5   9  1   
 15   5  10  1   
 16   5  26  1   
 17   6  11  1   
 18   6  12  1   
 19   6  27  1   
 20   7  13  1   
 21   7  28  1   
 22   7  29  1   
 23   8  13  1   
 24   8  30  1   
 25   8  31  1   
 26   9  14  1   
 27   9  32  1   
 28   9  33  1   
 29  10  15  1   
 30  10  34  1   
 31  10  35  1   
 32  11  14  1   
 33  11  36  1   
 34  11  37  1   
 35  12  15  1   
 36  12  38  1   
 37  12  39  1   
 38  13  16  1   
 39  13  40  1   
 40  14  17  1   
 41  14  41  1   
 42  15  17  1   
 43  15  42  1   
 44  16  18  1   
 45  16  19  1   
 46  16  43  1   
 47  17  44  1   
 48  17  45  1   
 49  18  46  1   
 50  18  47  1   
 51  18  48  1   
 52  19  49  1   
 53  19  50  1   
 54  19  51  1   
@<TRIPOS>SUBSTRUCTURE
  1 ****   1 GROUP 4 **** **** 0

# MOE 2024.06 (io_trps.svl 2023.06)
