@<TRIPOS>MOLECULE
NONAME
35 36 1 0 0 
SMALL
USER_CHARGES


@<TRIPOS>ATOM
  1 O        0.3600    -0.1180    -0.4990 O.3   1 <1>  -0.5600 
  2 C        1.4480    -0.7830     0.0430 C.3   1 <1>   0.1200 
  3 C       -0.8690    -0.7370    -0.2750 C.3   1 <1>   0.0400 
  4 C        2.6890     0.0420    -0.3050 C.3   1 <1>   0.3430 
  5 N        3.9400    -0.5750     0.2360 N.4   1 <1>  -0.9060 
  6 C        5.1640     0.1880    -0.1170 C.3   1 <1>   0.4230 
  7 C        6.4010    -0.6830     0.1260 C.3   1 <1>  -0.0170 
  8 C        5.2480     1.4670     0.7200 C.3   1 <1>  -0.1600 
  9 C        7.6870     0.1110    -0.0330 C.ar  1 <1>  -0.1430 
 10 C        6.4330     2.3190     0.2510 C.3   1 <1>  -0.0170 
 11 C        7.7000     1.5000     0.0380 C.ar  1 <1>  -0.1430 
 12 C        8.8730    -0.5770    -0.2400 C.ar  1 <1>  -0.1500 
 13 C        8.9010     2.1780    -0.1030 C.ar  1 <1>  -0.1500 
 14 C       10.0660     0.1070    -0.3800 C.ar  1 <1>  -0.1500 
 15 C       10.0800     1.4870    -0.3100 C.ar  1 <1>  -0.1500 
 16 H        1.4970    -1.7650    -0.3960 H     1 <1>   0.0800 
 17 H        1.3090    -0.8460     1.1090 H     1 <1>   0.0800 
 18 H       -1.6350    -0.1380    -0.7370 H     1 <1>   0.0800 
 19 H       -1.0530    -0.8010     0.7840 H     1 <1>   0.0800 
 20 H       -0.8650    -1.7180    -0.7200 H     1 <1>   0.0800 
 21 H        2.5620     1.0320     0.1010 H     1 <1>   0.0800 
 22 H        2.7570     0.1210    -1.3780 H     1 <1>   0.0800 
 23 H        4.0300    -1.5280    -0.1360 H     1 <1>   0.4500 
 24 H        3.8830    -0.6480     1.2590 H     1 <1>   0.4500 
 25 H        5.1380     0.4550    -1.1620 H     1 <1>   0.0800 
 26 H        6.4080    -1.4980    -0.5760 H     1 <1>   0.0800 
 27 H        6.3860    -1.0830     1.1240 H     1 <1>   0.0800 
 28 H        5.3960     1.2180     1.7570 H     1 <1>   0.0800 
 29 H        4.3560     2.0590     0.6300 H     1 <1>   0.0800 
 30 H        6.6240     3.0940     0.9760 H     1 <1>   0.0800 
 31 H        6.1860     2.8000    -0.6800 H     1 <1>   0.0800 
 32 H        8.8820    -1.6520    -0.2930 H     1 <1>   0.1500 
 33 H        8.9280     3.2530    -0.0520 H     1 <1>   0.1500 
 34 H       10.9840    -0.4320    -0.5400 H     1 <1>   0.1500 
 35 H       11.0080     2.0220    -0.4180 H     1 <1>   0.1500 
@<TRIPOS>BOND
  1   1   2  1   
  2   1   3  1   
  3   2   4  1   
  4   2  16  1   
  5   2  17  1   
  6   3  18  1   
  7   3  19  1   
  8   3  20  1   
  9   4   5  1   
 10   4  21  1   
 11   4  22  1   
 12   5   6  1   
 13   5  23  1   
 14   5  24  1   
 15   6   7  1   
 16   6   8  1   
 17   6  25  1   
 18   7   9  1   
 19   7  26  1   
 20   7  27  1   
 21   8  10  1   
 22   8  28  1   
 23   8  29  1   
 24   9  11  ar  
 25   9  12  ar  
 26  10  11  1   
 27  10  30  1   
 28  10  31  1   
 29  11  13  ar  
 30  12  14  ar  
 31  12  32  1   
 32  13  15  ar  
 33  13  33  1   
 34  14  15  ar  
 35  14  34  1   
 36  15  35  1   
@<TRIPOS>SUBSTRUCTURE
  1 ****   6 GROUP 4 **** **** 0

# MOE 2024.06 (io_trps.svl 2023.06)
