@<TRIPOS>MOLECULE
NONAME
46 48 1 0 0 
SMALL
USER_CHARGES


@<TRIPOS>ATOM
  1 O       -0.7020    -0.0180    -0.4500 O.2   1 <1>  -0.5750 
  2 C       -1.7050    -0.6790    -0.2750 C.2   1 <1>   0.6860 
  3 N       -1.6040    -2.0170     0.0910 N.am  1 <1>  -0.4260 
  4 N       -2.9530    -0.0930    -0.4330 N.am  1 <1>  -0.4420 
  5 C       -2.7350    -2.7730     0.3700 C.2   1 <1>   0.6990 
  6 C       -0.2450    -2.6310     0.2240 C.3   1 <1>   0.0520 
  7 C       -4.0690    -0.8580    -0.1520 C.2   1 <1>   0.4200 
  8 C       -3.0800     1.3350    -0.8530 C.3   1 <1>   0.0520 
  9 O       -2.6330    -3.9370     0.7210 O.2   1 <1>  -0.5750 
 10 C       -4.0180    -2.1470     0.2380 C.2   1 <1>   0.2700 
 11 N       -5.3700    -0.4750    -0.2130 N.pl3 1 <1>  -0.7040 
 12 N       -5.3550    -2.5600     0.4270 N.pl3 1 <1>  -0.7670 
 13 C       -6.1410    -1.5130     0.1180 C.cat 1 <1>   1.0690 
 14 C       -5.6840    -3.8960     1.0070 C.3   1 <1>   0.2670 
 15 N       -7.4910    -1.4450     0.1070 N.pl3 1 <1>  -0.5970 
 16 C       -8.3710    -2.6540    -0.0060 C.3   1 <1>   0.1600 
 17 C       -8.2050    -0.1240     0.0930 C.3   1 <1>   0.1600 
 18 C       -9.6550    -2.3410    -0.7880 C.3   1 <1>  -0.0880 
 19 C       -9.6100    -0.2460     0.6970 C.3   1 <1>  -0.0880 
 20 C      -10.4810    -1.2380    -0.0990 C.3   1 <1>  -0.1680 
 21 C      -10.5020    -3.6050    -0.9840 C.3   1 <1>  -0.2470 
 22 C      -10.2950     1.1230     0.7820 C.3   1 <1>  -0.2470 
 23 H        0.1580    -2.4070     1.1960 H     1 <1>   0.0720 
 24 H        0.4180    -2.2350    -0.5270 H     1 <1>   0.0720 
 25 H       -0.2900    -3.6990     0.0990 H     1 <1>   0.0720 
 26 H       -2.1870     1.6610    -1.3600 H     1 <1>   0.0720 
 27 H       -3.2260     1.9560     0.0140 H     1 <1>   0.0720 
 28 H       -3.9070     1.4560    -1.5280 H     1 <1>   0.0720 
 29 H       -5.7240     0.4290    -0.5070 H     1 <1>   0.4440 
 30 H       -4.9230    -4.1980     1.7060 H     1 <1>   0.0720 
 31 H       -5.7440    -4.6330     0.2240 H     1 <1>   0.0720 
 32 H       -6.6170    -3.8630     1.5410 H     1 <1>   0.0720 
 33 H       -8.6370    -2.9930     0.9810 H     1 <1>   0.0720 
 34 H       -7.8450    -3.4430    -0.5150 H     1 <1>   0.0720 
 35 H       -8.2880     0.2250    -0.9230 H     1 <1>   0.0720 
 36 H       -7.6480     0.6000     0.6620 H     1 <1>   0.0720 
 37 H       -9.3660    -1.9930    -1.7660 H     1 <1>   0.0720 
 38 H       -9.5030    -0.6160     1.7040 H     1 <1>   0.0720 
 39 H      -11.1950    -1.6740     0.5800 H     1 <1>   0.0720 
 40 H      -11.0430    -0.7200    -0.8570 H     1 <1>   0.0720 
 41 H      -10.8030    -4.0160    -0.0360 H     1 <1>   0.0720 
 42 H       -9.9470    -4.3530    -1.5230 H     1 <1>   0.0720 
 43 H      -11.3870    -3.3730    -1.5500 H     1 <1>   0.0720 
 44 H      -10.4110     1.5570    -0.1960 H     1 <1>   0.0720 
 45 H       -9.7200     1.7980     1.3920 H     1 <1>   0.0720 
 46 H      -11.2700     1.0210     1.2260 H     1 <1>   0.0720 
@<TRIPOS>BOND
  1   1   2  2   
  2   2   3  am  
  3   2   4  am  
  4   3   5  am  
  5   3   6  1   
  6   4   7  1   
  7   4   8  1   
  8   5   9  2   
  9   5  10  1   
 10   6  23  1   
 11   6  24  1   
 12   6  25  1   
 13   7  10  2   
 14   7  11  1   
 15   8  26  1   
 16   8  27  1   
 17   8  28  1   
 18  10  12  1   
 19  11  13  ar  
 20  11  29  1   
 21  12  13  ar  
 22  12  14  1   
 23  13  15  ar  
 24  14  30  1   
 25  14  31  1   
 26  14  32  1   
 27  15  16  1   
 28  15  17  1   
 29  16  18  1   
 30  16  33  1   
 31  16  34  1   
 32  17  19  1   
 33  17  35  1   
 34  17  36  1   
 35  18  20  1   
 36  18  21  1   
 37  18  37  1   
 38  19  20  1   
 39  19  22  1   
 40  19  38  1   
 41  20  39  1   
 42  20  40  1   
 43  21  41  1   
 44  21  42  1   
 45  21  43  1   
 46  22  44  1   
 47  22  45  1   
 48  22  46  1   
@<TRIPOS>SUBSTRUCTURE
  1 ****  13 GROUP 4 **** **** 0

# MOE 2024.06 (io_trps.svl 2023.06)
