@<TRIPOS>MOLECULE
NONAME
44 45 1 0 0 
SMALL
USER_CHARGES


@<TRIPOS>ATOM
  1 O        0.5720    -0.1870    -0.7020 O.3   1 <1>  -0.3630 
  2 C       -0.6780    -0.6890    -0.5410 C.ar  1 <1>   0.0830 
  3 C        1.6840    -0.7860    -0.0870 C.3   1 <1>   0.1200 
  4 C       -0.9720    -1.8160     0.2190 C.ar  1 <1>  -0.1500 
  5 C       -1.7060    -0.0200    -1.1840 C.ar  1 <1>  -0.1500 
  6 C        2.9100     0.0390    -0.4740 C.3   1 <1>  -0.1600 
  7 C       -2.2790    -2.2570     0.3280 C.ar  1 <1>  -0.1500 
  8 C       -3.0120    -0.4650    -1.0720 C.ar  1 <1>  -0.1500 
  9 C        4.1730    -0.5310     0.1670 C.3   1 <1>   0.3430 
 10 C       -3.3120    -1.5880    -0.3150 C.ar  1 <1>  -0.1440 
 11 N        5.3670     0.2370    -0.2810 N.4   1 <1>  -0.9590 
 12 C       -4.7590    -2.0650    -0.2030 C.3   1 <1>   0.0630 
 13 C        6.6460    -0.3930     0.1270 C.3   1 <1>   0.3430 
 14 C        5.4240     1.6320     0.2280 C.3   1 <1>   0.3430 
 15 C       -5.2400    -2.0180     1.2510 C.3   1 <1>  -0.2400 
 16 C       -4.9170    -3.4740    -0.7830 C.3   1 <1>  -0.2400 
 17 C        7.6740     0.7210    -0.0040 C.3   1 <1>  -0.1600 
 18 C        6.8860     2.0320     0.0760 C.3   1 <1>  -0.1600 
 19 H        1.7620    -1.7980    -0.4470 H     1 <1>   0.0800 
 20 H        1.5240    -0.7750     0.9780 H     1 <1>   0.0800 
 21 H       -0.2070    -2.3650     0.7330 H     1 <1>   0.1500 
 22 H       -1.4810     0.8500    -1.7720 H     1 <1>   0.1500 
 23 H        2.7500     1.0500    -0.1440 H     1 <1>   0.0800 
 24 H        3.0070     0.0210    -1.5450 H     1 <1>   0.0800 
 25 H       -2.4910    -3.1300     0.9190 H     1 <1>   0.1500 
 26 H       -3.7930     0.0720    -1.5810 H     1 <1>   0.1500 
 27 H        4.2790    -1.5640    -0.1250 H     1 <1>   0.0800 
 28 H        4.0900    -0.4900     1.2420 H     1 <1>   0.0800 
 29 H        5.3650     0.2870    -1.3090 H     1 <1>   0.4500 
 30 H       -5.3860    -1.4030    -0.7770 H     1 <1>   0.0800 
 31 H        6.8930    -1.2400    -0.4930 H     1 <1>   0.0800 
 32 H        6.5870    -0.7070     1.1580 H     1 <1>   0.0800 
 33 H        5.1520     1.6520     1.2710 H     1 <1>   0.0800 
 34 H        4.7710     2.2880    -0.3260 H     1 <1>   0.0800 
 35 H       -4.6790    -2.7010     1.8630 H     1 <1>   0.0800 
 36 H       -6.2810    -2.2790     1.3070 H     1 <1>   0.0800 
 37 H       -5.1140    -1.0240     1.6430 H     1 <1>   0.0800 
 38 H       -4.3500    -4.1890    -0.2150 H     1 <1>   0.0800 
 39 H       -4.5680    -3.4910    -1.8000 H     1 <1>   0.0800 
 40 H       -5.9510    -3.7680    -0.7710 H     1 <1>   0.0800 
 41 H        8.1770     0.6440    -0.9530 H     1 <1>   0.0800 
 42 H        8.4110     0.6480     0.7770 H     1 <1>   0.0800 
 43 H        7.1970     2.6350     0.9120 H     1 <1>   0.0800 
 44 H        7.0160     2.6060    -0.8250 H     1 <1>   0.0800 
@<TRIPOS>BOND
  1   1   2  1   
  2   1   3  1   
  3   2   4  ar  
  4   2   5  ar  
  5   3   6  1   
  6   3  19  1   
  7   3  20  1   
  8   4   7  ar  
  9   4  21  1   
 10   5   8  ar  
 11   5  22  1   
 12   6   9  1   
 13   6  23  1   
 14   6  24  1   
 15   7  10  ar  
 16   7  25  1   
 17   8  10  ar  
 18   8  26  1   
 19   9  11  1   
 20   9  27  1   
 21   9  28  1   
 22  10  12  1   
 23  11  13  1   
 24  11  14  1   
 25  11  29  1   
 26  12  15  1   
 27  12  16  1   
 28  12  30  1   
 29  13  17  1   
 30  13  31  1   
 31  13  32  1   
 32  14  18  1   
 33  14  33  1   
 34  14  34  1   
 35  15  35  1   
 36  15  36  1   
 37  15  37  1   
 38  16  38  1   
 39  16  39  1   
 40  16  40  1   
 41  17  18  1   
 42  17  41  1   
 43  17  42  1   
 44  18  43  1   
 45  18  44  1   
@<TRIPOS>SUBSTRUCTURE
  1 ****   1 GROUP 4 **** **** 0

# MOE 2024.06 (io_trps.svl 2023.06)
