@<TRIPOS>MOLECULE
NONAME
26 26 1 0 0 
SMALL
USER_CHARGES


@<TRIPOS>ATOM
  1 CL      -0.9590     0.4690     2.2180 Cl    1 <1>  -0.1770 
  2 C       -0.6870     1.7580     1.0690 C.ar  1 <1>   0.1770 
  3 C       -1.3600     1.7770    -0.1450 C.ar  1 <1>  -0.1440 
  4 C        0.2110     2.7530     1.4110 C.ar  1 <1>  -0.1500 
  5 C       -1.1200     2.8290    -1.0180 C.ar  1 <1>  -0.1500 
  6 C       -2.3450     0.6910    -0.5380 C.3   1 <1>   0.2840 
  7 C        0.4460     3.7940     0.5290 C.ar  1 <1>  -0.1500 
  8 C       -0.2220     3.8300    -0.6840 C.ar  1 <1>  -0.1500 
  9 N       -3.7060     1.1470    -0.2090 N.am  1 <1>  -0.7300 
 10 C       -4.6880     1.4290    -1.0990 C.2   1 <1>   0.5690 
 11 O       -4.5390     1.2740    -2.2880 O.2   1 <1>  -0.5700 
 12 C       -6.0230     1.9670    -0.5830 C.3   1 <1>   0.1810 
 13 O       -6.0320     2.1080     0.8200 O.3   1 <1>  -0.5600 
 14 C       -7.2280     2.6040     1.3290 C.3   1 <1>   0.0400 
 15 H        0.7180     2.7110     2.3580 H     1 <1>   0.1500 
 16 H       -1.6390     2.8700    -1.9620 H     1 <1>   0.1500 
 17 H       -2.1410    -0.2300    -0.0210 H     1 <1>   0.0800 
 18 H       -2.2690     0.4970    -1.5940 H     1 <1>   0.0800 
 19 H        1.1430     4.5730     0.7850 H     1 <1>   0.1500 
 20 H       -0.0450     4.6400    -1.3710 H     1 <1>   0.1500 
 21 H       -3.8960     1.3580     0.7750 H     1 <1>   0.3700 
 22 H       -6.8060     1.2870    -0.8650 H     1 <1>   0.0800 
 23 H       -6.2050     2.9290    -1.0260 H     1 <1>   0.0800 
 24 H       -7.1340     2.6730     2.3980 H     1 <1>   0.0800 
 25 H       -8.0290     1.9290     1.0780 H     1 <1>   0.0800 
 26 H       -7.4120     3.5820     0.9180 H     1 <1>   0.0800 
@<TRIPOS>BOND
  1   1   2  1   
  2   2   3  ar  
  3   2   4  ar  
  4   3   5  ar  
  5   3   6  1   
  6   4   7  ar  
  7   4  15  1   
  8   5   8  ar  
  9   5  16  1   
 10   6   9  1   
 11   6  17  1   
 12   6  18  1   
 13   7   8  ar  
 14   7  19  1   
 15   8  20  1   
 16   9  10  am  
 17   9  21  1   
 18  10  11  2   
 19  10  12  1   
 20  12  13  1   
 21  12  22  1   
 22  12  23  1   
 23  13  14  1   
 24  14  24  1   
 25  14  25  1   
 26  14  26  1   
@<TRIPOS>SUBSTRUCTURE
  1 ****   9 GROUP 4 **** **** 0

# MOE 2024.06 (io_trps.svl 2023.06)
