@<TRIPOS>MOLECULE
NONAME
25 25 1 0 0 
SMALL
USER_CHARGES


@<TRIPOS>ATOM
  1 F       -0.3400    -1.3960    -0.6810 F     1 <1>  -0.3400 
  2 C        0.5600    -2.2880    -0.2840 C.3   1 <1>   1.1640 
  3 F        0.5570    -3.2510    -1.1960 F     1 <1>  -0.3400 
  4 F        0.0820    -2.8290     0.8290 F     1 <1>  -0.3400 
  5 C        1.9490    -1.6960    -0.0830 C.ar  1 <1>  -0.1440 
  6 C        2.9680    -2.5330     0.3430 C.ar  1 <1>   0.1600 
  7 C        2.2450    -0.3570    -0.3050 C.ar  1 <1>  -0.1500 
  8 N        4.2190    -2.1640     0.5570 N.ar  1 <1>  -0.6200 
  9 C        3.5420     0.0390    -0.0830 C.ar  1 <1>  -0.1500 
 10 C        4.4880    -0.8900     0.3390 C.ar  1 <1>   0.4100 
 11 N        5.7860    -0.5490     0.5700 N.pl3 1 <1>  -0.8690 
 12 C        6.5830     0.0980    -0.4710 C.3   1 <1>   0.2890 
 13 C        7.7000    -0.8600    -0.8670 C.3   1 <1>  -0.2400 
 14 C        7.1390     1.3950     0.1010 C.3   1 <1>  -0.2400 
 15 H        2.7470    -3.5730     0.5200 H     1 <1>   0.1500 
 16 H        1.5010     0.3500    -0.6330 H     1 <1>   0.1500 
 17 H        3.8420     1.0600    -0.2220 H     1 <1>   0.1500 
 18 H        6.2790    -1.3490     0.9720 H     1 <1>   0.4000 
 19 H        5.9700     0.3110    -1.3320 H     1 <1>   0.0800 
 20 H        8.3290    -1.0790    -0.0230 H     1 <1>   0.0800 
 21 H        8.3030    -0.4180    -1.6390 H     1 <1>   0.0800 
 22 H        7.2790    -1.7730    -1.2480 H     1 <1>   0.0800 
 23 H        7.7470     1.1940     0.9650 H     1 <1>   0.0800 
 24 H        6.3310     2.0450     0.3840 H     1 <1>   0.0800 
 25 H        7.7390     1.8970    -0.6350 H     1 <1>   0.0800 
@<TRIPOS>BOND
  1   1   2  1   
  2   2   3  1   
  3   2   4  1   
  4   2   5  1   
  5   5   6  ar  
  6   5   7  ar  
  7   6   8  ar  
  8   6  15  1   
  9   7   9  ar  
 10   7  16  1   
 11   8  10  ar  
 12   9  10  ar  
 13   9  17  1   
 14  10  11  1   
 15  11  12  1   
 16  11  18  1   
 17  12  13  1   
 18  12  14  1   
 19  12  19  1   
 20  13  20  1   
 21  13  21  1   
 22  13  22  1   
 23  14  23  1   
 24  14  24  1   
 25  14  25  1   
@<TRIPOS>SUBSTRUCTURE
  1 ****  10 GROUP 4 **** **** 0

# MOE 2024.06 (io_trps.svl 2023.06)
