@<TRIPOS>MOLECULE
NONAME
45 47 1 0 0 
SMALL
USER_CHARGES


@<TRIPOS>ATOM
  1 S        0.3850    -0.3030    -0.1400 S.3   1 <1>  -0.2860 
  2 C       -1.3850    -0.6000    -0.1920 C.2   1 <1>   0.2420 
  3 C        1.0480    -1.5720    -1.3300 C.3   1 <1>   0.1310 
  4 N       -1.9160    -1.5360    -0.8930 N.2   1 <1>  -0.3380 
  5 N       -2.2670     0.1260     0.4890 N.pl3 1 <1>   0.0480 
  6 C        2.5660    -1.5330    -1.4040 C.2   1 <1>   0.5690 
  7 N       -3.2270    -1.4460    -0.6800 N.2   1 <1>  -0.3380 
  8 C       -3.4390    -0.4530     0.1460 C.2   1 <1>   0.1860 
  9 C       -2.0150     1.2760     1.3860 C.3   1 <1>   0.0160 
 10 O        3.1030    -1.9690    -2.3930 O.2   1 <1>  -0.5700 
 11 N        3.2790    -1.0270    -0.3630 N.am  1 <1>  -0.7300 
 12 C       -4.7460    -0.0550     0.6070 C.2   1 <1>   0.1400 
 13 C        4.7450    -0.9210    -0.2920 C.3   1 <1>   0.2200 
 14 O       -4.9140     0.9610     1.4480 O.3   1 <1>  -0.2800 
 15 C       -5.9670    -0.5780     0.3130 C.2   1 <1>  -0.1500 
 16 C        5.2150    -1.7780     0.8890 C.3   1 <1>  -0.1600 
 17 C        5.1040     0.5680    -0.1950 C.3   1 <1>  -0.1600 
 18 C       -6.2020     1.0960     1.6940 C.2   1 <1>  -0.0100 
 19 C       -6.9110     0.1690     1.0190 C.2   1 <1>  -0.1500 
 20 C        6.7250    -1.7200     1.1760 C.3   1 <1>  -0.1600 
 21 C        6.5990     0.8280    -0.4400 C.3   1 <1>  -0.1600 
 22 C        7.1510    -0.3890     1.8100 C.3   1 <1>  -0.1600 
 23 C        7.4880     0.7270     0.8090 C.3   1 <1>  -0.1600 
 24 H        0.6210    -1.3580    -2.2920 H     1 <1>   0.0800 
 25 H        0.7160    -2.5350    -0.9900 H     1 <1>   0.0800 
 26 H       -0.9640     1.4880     1.4420 H     1 <1>   0.0800 
 27 H       -2.3830     1.0450     2.3700 H     1 <1>   0.0800 
 28 H       -2.5300     2.1400     1.0070 H     1 <1>   0.0800 
 29 H        2.7730    -0.6300     0.4300 H     1 <1>   0.3700 
 30 H        5.1680    -1.3210    -1.2000 H     1 <1>   0.0800 
 31 H       -6.1770    -1.4090    -0.3370 H     1 <1>   0.1500 
 32 H        4.9600    -2.8000     0.6670 H     1 <1>   0.0800 
 33 H        4.6780    -1.4950     1.7770 H     1 <1>   0.0800 
 34 H        4.8010     0.9760     0.7530 H     1 <1>   0.0800 
 35 H        4.5600     1.0840    -0.9680 H     1 <1>   0.0800 
 36 H       -6.5280     1.8760     2.3610 H     1 <1>   0.1500 
 37 H       -7.9760     0.0120     1.0050 H     1 <1>   0.1500 
 38 H        7.2930    -1.9180     0.2830 H     1 <1>   0.0800 
 39 H        6.9500    -2.5060     1.8760 H     1 <1>   0.0800 
 40 H        6.7140     1.8190    -0.8450 H     1 <1>   0.0800 
 41 H        6.9590     0.1460    -1.1920 H     1 <1>   0.0800 
 42 H        8.0260    -0.5610     2.4130 H     1 <1>   0.0800 
 43 H        6.3800    -0.0480     2.4800 H     1 <1>   0.0800 
 44 H        7.4490     1.6650     1.3360 H     1 <1>   0.0800 
 45 H        8.5040     0.5980     0.4790 H     1 <1>   0.0800 
@<TRIPOS>BOND
  1   1   2  1   
  2   1   3  1   
  3   2   4  2   
  4   2   5  1   
  5   3   6  1   
  6   3  24  1   
  7   3  25  1   
  8   4   7  1   
  9   5   8  1   
 10   5   9  1   
 11   6  10  2   
 12   6  11  am  
 13   7   8  2   
 14   8  12  1   
 15   9  26  1   
 16   9  27  1   
 17   9  28  1   
 18  11  13  1   
 19  11  29  1   
 20  12  14  1   
 21  12  15  2   
 22  13  16  1   
 23  13  17  1   
 24  13  30  1   
 25  14  18  1   
 26  15  19  1   
 27  15  31  1   
 28  16  20  1   
 29  16  32  1   
 30  16  33  1   
 31  17  21  1   
 32  17  34  1   
 33  17  35  1   
 34  18  19  2   
 35  18  36  1   
 36  19  37  1   
 37  20  22  1   
 38  20  38  1   
 39  20  39  1   
 40  21  23  1   
 41  21  40  1   
 42  21  41  1   
 43  22  23  1   
 44  22  42  1   
 45  22  43  1   
 46  23  44  1   
 47  23  45  1   
@<TRIPOS>SUBSTRUCTURE
  1 ****   1 GROUP 4 **** **** 0

# MOE 2024.06 (io_trps.svl 2023.06)
