@<TRIPOS>MOLECULE
NONAME
40 41 1 0 0 
SMALL
USER_CHARGES


@<TRIPOS>ATOM
  1 O       -1.3970     0.6630    -0.1730 O.3   1 <1>  -0.3630 
  2 C       -0.7850     1.8710    -0.0160 C.ar  1 <1>   0.0830 
  3 C       -0.8040    -0.3460    -0.9690 C.3   1 <1>   0.0400 
  4 C       -1.2740     2.7130     0.9790 C.ar  1 <1>  -0.1440 
  5 C        0.2820     2.2900    -0.8070 C.ar  1 <1>  -0.1500 
  6 C       -0.6970     3.9580     1.1730 C.ar  1 <1>  -0.1500 
  7 C       -2.4340     2.2770     1.8490 C.3   1 <1>   0.4870 
  8 C        0.8510     3.5360    -0.6080 C.ar  1 <1>  -0.1500 
  9 C        0.3600     4.3770     0.3840 C.ar  1 <1>   0.0830 
 10 N       -3.6140     2.0540     0.9740 N.4   1 <1>  -0.9590 
 11 O        0.8520     5.6140     0.6450 O.3   1 <1>  -0.3620 
 12 C       -4.0600     3.3160     0.3120 C.3   1 <1>   0.3430 
 13 C       -4.7050     1.3330     1.6850 C.3   1 <1>   0.3430 
 14 C        1.9750     6.1140    -0.0480 C.3   1 <1>   0.0400 
 15 C       -5.1780     3.0100    -0.6810 C.3   1 <1>  -0.1600 
 16 C       -5.8280     1.0030     0.7060 C.3   1 <1>  -0.1600 
 17 C       -6.3170     2.2760     0.0190 C.3   1 <1>   0.2000 
 18 O       -7.2620     1.9340    -0.9160 O.3   1 <1>  -0.6800 
 19 H       -0.8020    -0.0300    -1.9970 H     1 <1>   0.0800 
 20 H       -1.3860    -1.2440    -0.8670 H     1 <1>   0.0800 
 21 H        0.1990    -0.5230    -0.6220 H     1 <1>   0.0800 
 22 H        0.6840     1.6670    -1.5840 H     1 <1>   0.1500 
 23 H       -1.0500     4.6280     1.9370 H     1 <1>   0.1500 
 24 H       -2.6500     3.0280     2.5910 H     1 <1>   0.0800 
 25 H       -2.1670     1.3610     2.3500 H     1 <1>   0.0800 
 26 H        1.6720     3.8340    -1.2340 H     1 <1>   0.1500 
 27 H       -3.2360     1.4370     0.2340 H     1 <1>   0.4500 
 28 H       -3.2340     3.7740    -0.2110 H     1 <1>   0.0800 
 29 H       -4.4180     4.0120     1.0540 H     1 <1>   0.0800 
 30 H       -5.0920     1.9490     2.4810 H     1 <1>   0.0800 
 31 H       -4.3260     0.4190     2.1160 H     1 <1>   0.0800 
 32 H        2.2000     7.0910     0.3410 H     1 <1>   0.0800 
 33 H        1.7400     6.1850    -1.0950 H     1 <1>   0.0800 
 34 H        2.8100     5.4550     0.1170 H     1 <1>   0.0800 
 35 H       -4.7810     2.4180    -1.4870 H     1 <1>   0.0800 
 36 H       -5.5460     3.9350    -1.0880 H     1 <1>   0.0800 
 37 H       -6.6430     0.5550     1.2470 H     1 <1>   0.0800 
 38 H       -5.4700     0.2940    -0.0190 H     1 <1>   0.0800 
 39 H       -6.7960     2.9260     0.7340 H     1 <1>   0.0800 
 40 H       -6.8940     1.3580    -1.6140 H     1 <1>   0.4000 
@<TRIPOS>BOND
  1   1   2  1   
  2   1   3  1   
  3   2   4  ar  
  4   2   5  ar  
  5   3  19  1   
  6   3  20  1   
  7   3  21  1   
  8   4   6  ar  
  9   4   7  1   
 10   5   8  ar  
 11   5  22  1   
 12   6   9  ar  
 13   6  23  1   
 14   7  10  1   
 15   7  24  1   
 16   7  25  1   
 17   8   9  ar  
 18   8  26  1   
 19   9  11  1   
 20  10  12  1   
 21  10  13  1   
 22  10  27  1   
 23  11  14  1   
 24  12  15  1   
 25  12  28  1   
 26  12  29  1   
 27  13  16  1   
 28  13  30  1   
 29  13  31  1   
 30  14  32  1   
 31  14  33  1   
 32  14  34  1   
 33  15  17  1   
 34  15  35  1   
 35  15  36  1   
 36  16  17  1   
 37  16  37  1   
 38  16  38  1   
 39  17  18  1   
 40  17  39  1   
 41  18  40  1   
@<TRIPOS>SUBSTRUCTURE
  1 ****   4 GROUP 4 **** **** 0

# MOE 2024.06 (io_trps.svl 2023.06)
