@<TRIPOS>MOLECULE
NONAME
29 29 1 0 0 
SMALL
USER_CHARGES


@<TRIPOS>ATOM
  1 S        0.1520     0.2910    -1.0790 S.3   1 <1>  -0.3320 
  2 C       -1.4380     1.0950    -0.8360 C.ar  1 <1>   0.4120 
  3 C        1.2800     1.0110     0.1960 C.3   1 <1>   0.0700 
  4 N       -2.4240     0.2300    -0.6690 N.ar  1 <1>  -0.6200 
  5 C       -1.5570     2.4840    -0.8430 C.ar  1 <1>   0.0730 
  6 C        2.2580    -0.0820     0.6190 C.3   1 <1>  -0.2400 
  7 C       -3.6140     0.7580    -0.4630 C.ar  1 <1>   0.1660 
  8 C       -0.4300     3.3310    -1.0930 C.1   1 <1>   0.4840 
  9 C       -2.8230     3.0140    -0.6220 C.ar  1 <1>  -0.1440 
 10 C       -3.8580     2.1200    -0.4270 C.ar  1 <1>  -0.1500 
 11 C       -4.7440    -0.2290    -0.2570 C.3   1 <1>  -0.0970 
 12 N        0.4540     4.0210    -1.3060 N.1   1 <1>  -0.5570 
 13 C       -3.0770     4.5140    -0.5820 C.3   1 <1>   0.2630 
 14 O       -2.5170     4.9980     0.5930 O.3   1 <1>  -0.5600 
 15 C       -2.4980     6.3860     0.6890 C.3   1 <1>   0.0400 
 16 H        0.6740     1.3400     1.0220 H     1 <1>   0.0800 
 17 H        1.7930     1.8440    -0.2520 H     1 <1>   0.0800 
 18 H        1.7220    -0.9180     1.0310 H     1 <1>   0.0800 
 19 H        2.9340     0.2980     1.3630 H     1 <1>   0.0800 
 20 H        2.8290    -0.4150    -0.2300 H     1 <1>   0.0800 
 21 H       -4.8550     2.4790    -0.2430 H     1 <1>   0.1500 
 22 H       -4.5300    -0.8450     0.5970 H     1 <1>   0.0800 
 23 H       -4.8320    -0.8590    -1.1230 H     1 <1>   0.0800 
 24 H       -5.6790     0.2750    -0.0960 H     1 <1>   0.0800 
 25 H       -4.1310     4.7330    -0.5730 H     1 <1>   0.0800 
 26 H       -2.6150     5.0040    -1.4230 H     1 <1>   0.0800 
 27 H       -2.0690     6.6490     1.6400 H     1 <1>   0.0800 
 28 H       -3.5040     6.7640     0.6300 H     1 <1>   0.0800 
 29 H       -1.8900     6.7890    -0.1030 H     1 <1>   0.0800 
@<TRIPOS>BOND
  1   1   2  1   
  2   1   3  1   
  3   2   4  ar  
  4   2   5  ar  
  5   3   6  1   
  6   3  16  1   
  7   3  17  1   
  8   4   7  ar  
  9   5   8  1   
 10   5   9  ar  
 11   6  18  1   
 12   6  19  1   
 13   6  20  1   
 14   7  10  ar  
 15   7  11  1   
 16   8  12  3   
 17   9  10  ar  
 18   9  13  1   
 19  10  21  1   
 20  11  22  1   
 21  11  23  1   
 22  11  24  1   
 23  13  14  1   
 24  13  25  1   
 25  13  26  1   
 26  14  15  1   
 27  15  27  1   
 28  15  28  1   
 29  15  29  1   
@<TRIPOS>SUBSTRUCTURE
  1 ****   5 GROUP 4 **** **** 0

# MOE 2024.06 (io_trps.svl 2023.06)
