@<TRIPOS>MOLECULE
NONAME
37 38 1 0 0 
SMALL
USER_CHARGES


@<TRIPOS>ATOM
  1 S        0.9760     0.0840    -0.7380 S.3   1 <1>  -0.0800 
  2 C        1.9000    -0.7070     0.5420 C.2   1 <1>  -0.0450 
  3 C       -0.4810    -0.8070    -0.3520 C.2   1 <1>  -0.1400 
  4 C        3.2860    -0.3420     0.7040 C.2   1 <1>   0.7150 
  5 C        1.0790    -1.5760     1.1880 C.2   1 <1>  -0.1500 
  6 C       -0.2530    -1.6360     0.6840 C.2   1 <1>  -0.1500 
  7 C       -1.7010    -0.5120    -1.2070 C.3   1 <1>   0.0200 
  8 O        3.6020     0.8350     0.6840 O.2   1 <1>  -0.5700 
  9 N        4.2760    -1.2880     0.8880 N.am  1 <1>  -0.6600 
 10 C       -2.9170    -1.3430    -0.7890 C.3   1 <1>  -0.2400 
 11 C        5.6590    -0.8730     1.2620 C.3   1 <1>   0.2840 
 12 C        4.1010    -2.7310     0.5680 C.3   1 <1>   0.1400 
 13 C        6.5810    -0.9480     0.0560 C.ar  1 <1>  -0.1430 
 14 C        3.9900    -2.9350    -0.9430 C.3   1 <1>  -0.2400 
 15 C        6.4480    -0.0730    -1.0040 C.ar  1 <1>  -0.1500 
 16 C        7.5900    -1.8850    -0.0510 C.ar  1 <1>  -0.1500 
 17 C        7.3010    -0.1760    -2.0890 C.ar  1 <1>   0.1600 
 18 C        8.3910    -1.9010    -1.1810 C.ar  1 <1>   0.1600 
 19 N        8.2700    -1.0700    -2.2030 N.ar  1 <1>  -0.6200 
 20 H        1.3710    -2.1840     2.0250 H     1 <1>   0.1500 
 21 H       -0.9790    -2.2960     1.1250 H     1 <1>   0.1500 
 22 H       -1.4650    -0.7180    -2.2360 H     1 <1>   0.0800 
 23 H       -1.9390     0.5350    -1.1230 H     1 <1>   0.0800 
 24 H       -2.7020    -2.3920    -0.8850 H     1 <1>   0.0800 
 25 H       -3.7580    -1.1050    -1.4150 H     1 <1>   0.0800 
 26 H       -3.1790    -1.1310     0.2330 H     1 <1>   0.0800 
 27 H        6.0200    -1.5160     2.0460 H     1 <1>   0.0800 
 28 H        5.6620     0.1320     1.6480 H     1 <1>   0.0800 
 29 H        3.2220    -3.1130     1.0530 H     1 <1>   0.0800 
 30 H        4.9440    -3.2890     0.9390 H     1 <1>   0.0800 
 31 H        3.1310    -2.4240    -1.3370 H     1 <1>   0.0800 
 32 H        3.8850    -3.9830    -1.1580 H     1 <1>   0.0800 
 33 H        4.8740    -2.5770    -1.4400 H     1 <1>   0.0800 
 34 H        5.6820     0.6830    -0.9920 H     1 <1>   0.1500 
 35 H        7.7610    -2.6020     0.7300 H     1 <1>   0.1500 
 36 H        7.1780     0.5150    -2.9060 H     1 <1>   0.1500 
 37 H        9.1730    -2.6380    -1.2480 H     1 <1>   0.1500 
@<TRIPOS>BOND
  1   1   2  1   
  2   1   3  1   
  3   2   4  1   
  4   2   5  2   
  5   3   6  2   
  6   3   7  1   
  7   4   8  2   
  8   4   9  am  
  9   5   6  1   
 10   5  20  1   
 11   6  21  1   
 12   7  10  1   
 13   7  22  1   
 14   7  23  1   
 15   9  11  1   
 16   9  12  1   
 17  10  24  1   
 18  10  25  1   
 19  10  26  1   
 20  11  13  1   
 21  11  27  1   
 22  11  28  1   
 23  12  14  1   
 24  12  29  1   
 25  12  30  1   
 26  13  15  ar  
 27  13  16  ar  
 28  14  31  1   
 29  14  32  1   
 30  14  33  1   
 31  15  17  ar  
 32  15  34  1   
 33  16  18  ar  
 34  16  35  1   
 35  17  19  ar  
 36  17  36  1   
 37  18  19  ar  
 38  18  37  1   
@<TRIPOS>SUBSTRUCTURE
  1 ****   4 GROUP 4 **** **** 0

# MOE 2024.06 (io_trps.svl 2023.06)
