@<TRIPOS>MOLECULE
NONAME
43 44 1 0 0 
SMALL
USER_CHARGES


@<TRIPOS>ATOM
  1 S        0.5040     0.2050     1.5070 S.3   1 <1>  -0.3320 
  2 C        1.8760    -0.7000     0.7670 C.ar  1 <1>   0.1020 
  3 C        0.5720     1.9180     0.8220 C.3   1 <1>  -0.0100 
  4 C        2.8600    -0.0690     0.0270 C.ar  1 <1>  -0.1500 
  5 C        1.9050    -2.0680     0.9690 C.ar  1 <1>  -0.1500 
  6 C        3.8970    -0.8140    -0.5220 C.ar  1 <1>   0.1000 
  7 C        2.9280    -2.8170     0.4120 C.ar  1 <1>  -0.1500 
  8 N        4.9090    -0.2040    -1.2510 N.pl3 1 <1>  -0.8690 
  9 C        3.9130    -2.1910    -0.3320 C.ar  1 <1>  -0.1500 
 10 C        5.8100     0.7060    -0.5380 C.3   1 <1>   0.2890 
 11 C        6.2120     1.8280    -1.4880 C.3   1 <1>  -0.1600 
 12 C        7.0320    -0.0710    -0.0600 C.3   1 <1>  -0.1600 
 13 C        7.2420     2.7420    -0.8320 C.3   1 <1>   0.3430 
 14 C        8.0460     0.8720     0.5780 C.3   1 <1>   0.3430 
 15 N        8.4260     1.9450    -0.3930 N.4   1 <1>  -0.9590 
 16 C        9.4790     2.8470     0.1530 C.3   1 <1>   0.3430 
 17 C       10.8250     2.1230     0.2220 C.3   1 <1>  -0.1600 
 18 C       11.9370     3.0790     0.6690 C.3   1 <1>  -0.2400 
 19 H       -0.2960     2.4440     1.1780 H     1 <1>   0.0800 
 20 H        0.5610     1.8460    -0.2510 H     1 <1>   0.0800 
 21 H        1.4720     2.3840     1.1780 H     1 <1>   0.0800 
 22 H        2.8400     0.9870    -0.1400 H     1 <1>   0.1500 
 23 H        1.1320    -2.5380     1.5510 H     1 <1>   0.1500 
 24 H        2.9520    -3.8830     0.5580 H     1 <1>   0.1500 
 25 H        5.4080    -0.8550    -1.8660 H     1 <1>   0.4000 
 26 H        4.7010    -2.7790    -0.7650 H     1 <1>   0.1500 
 27 H        5.2960     1.1260     0.3130 H     1 <1>   0.0800 
 28 H        5.3400     2.4040    -1.7400 H     1 <1>   0.0800 
 29 H        6.6180     1.4220    -2.3980 H     1 <1>   0.0800 
 30 H        7.4930    -0.5920    -0.8800 H     1 <1>   0.0800 
 31 H        6.7220    -0.7980     0.6700 H     1 <1>   0.0800 
 32 H        6.7960     3.2330     0.0190 H     1 <1>   0.0800 
 33 H        7.5470     3.5000    -1.5370 H     1 <1>   0.0800 
 34 H        8.9170     0.3080     0.8710 H     1 <1>   0.0800 
 35 H        7.6190     1.3150     1.4640 H     1 <1>   0.0800 
 36 H        8.8170     1.4880    -1.2290 H     1 <1>   0.4500 
 37 H        9.1990     3.1970     1.1350 H     1 <1>   0.0800 
 38 H        9.5860     3.7060    -0.4900 H     1 <1>   0.0800 
 39 H       11.0810     1.7330    -0.7480 H     1 <1>   0.0800 
 40 H       10.7810     1.3080     0.9230 H     1 <1>   0.0800 
 41 H       12.0400     3.8980    -0.0220 H     1 <1>   0.0800 
 42 H       12.8770     2.5550     0.7100 H     1 <1>   0.0800 
 43 H       11.7320     3.4750     1.6490 H     1 <1>   0.0800 
@<TRIPOS>BOND
  1   1   2  1   
  2   1   3  1   
  3   2   4  ar  
  4   2   5  ar  
  5   3  19  1   
  6   3  20  1   
  7   3  21  1   
  8   4   6  ar  
  9   4  22  1   
 10   5   7  ar  
 11   5  23  1   
 12   6   8  1   
 13   6   9  ar  
 14   7   9  ar  
 15   7  24  1   
 16   8  10  1   
 17   8  25  1   
 18   9  26  1   
 19  10  11  1   
 20  10  12  1   
 21  10  27  1   
 22  11  13  1   
 23  11  28  1   
 24  11  29  1   
 25  12  14  1   
 26  12  30  1   
 27  12  31  1   
 28  13  15  1   
 29  13  32  1   
 30  13  33  1   
 31  14  15  1   
 32  14  34  1   
 33  14  35  1   
 34  15  16  1   
 35  15  36  1   
 36  16  17  1   
 37  16  37  1   
 38  16  38  1   
 39  17  18  1   
 40  17  39  1   
 41  17  40  1   
 42  18  41  1   
 43  18  42  1   
 44  18  43  1   
@<TRIPOS>SUBSTRUCTURE
  1 ****  10 GROUP 4 **** **** 0

# MOE 2024.06 (io_trps.svl 2023.06)
