@<TRIPOS>MOLECULE
NONAME
47 48 1 0 0 
SMALL
USER_CHARGES


@<TRIPOS>ATOM
  1 F        4.9580     2.5200    -1.8000 F     1 <1>  -0.1900 
  2 C        5.9330     2.6150    -0.9270 C.ar  1 <1>   0.1900 
  3 C        5.7790     3.4460     0.1850 C.ar  1 <1>   0.1170 
  4 C        7.0880     1.8990    -1.1700 C.ar  1 <1>  -0.1500 
  5 N        4.6050     4.1760     0.4360 N.am  1 <1>  -0.5470 
  6 C        6.8570     3.5470     1.0570 C.ar  1 <1>  -0.1500 
  7 C        8.1440     2.0130    -0.2810 C.ar  1 <1>  -0.1500 
  8 C        3.3550     3.6530     0.5810 C.2   1 <1>   0.5690 
  9 C        8.0260     2.8380     0.8270 C.ar  1 <1>  -0.1500 
 10 O        3.1480     2.4750     0.7230 O.2   1 <1>  -0.5700 
 11 C        2.1640     4.5830     0.5640 C.3   1 <1>  -0.0990 
 12 C        0.9370     3.7950     0.1000 C.3   1 <1>   0.3430 
 13 N       -0.3060     4.6270     0.1160 N.4   1 <1>  -0.9590 
 14 C       -1.5030     3.7250     0.0160 C.3   1 <1>   0.3430 
 15 C       -0.3140     5.6550    -0.9700 C.3   1 <1>   0.3430 
 16 C       -2.8120     4.5170     0.1120 C.3   1 <1>  -0.0190 
 17 C       -1.5820     6.5050    -0.8690 C.3   1 <1>  -0.1600 
 18 C       -3.9750     3.5570    -0.0560 C.2   1 <1>   0.6590 
 19 C       -2.8530     5.6450    -0.9370 C.3   1 <1>  -0.1600 
 20 O       -3.8110     2.4430    -0.4780 O.2   1 <1>  -0.5700 
 21 O       -5.1640     4.0240     0.2920 O.3   1 <1>  -0.4300 
 22 C       -6.3280     3.2380     0.1780 C.3   1 <1>   0.1200 
 23 C       -7.5110     4.0750     0.6540 C.3   1 <1>  -0.2400 
 24 H        7.1590     1.2670    -2.0380 H     1 <1>   0.1500 
 25 H        4.7240     5.1860     0.5020 H     1 <1>   0.3700 
 26 H        6.7810     4.1760     1.9260 H     1 <1>   0.1500 
 27 H        9.0550     1.4630    -0.4510 H     1 <1>   0.1500 
 28 H        8.8490     2.9250     1.5160 H     1 <1>   0.1500 
 29 H        2.3690     5.3960    -0.1060 H     1 <1>   0.0800 
 30 H        2.0140     4.9550     1.5610 H     1 <1>   0.0800 
 31 H        0.8110     2.9500     0.7600 H     1 <1>   0.0800 
 32 H        1.1110     3.4050    -0.8910 H     1 <1>   0.0800 
 33 H       -0.3600     5.1130     1.0210 H     1 <1>   0.4500 
 34 H       -1.4780     2.9870     0.8030 H     1 <1>   0.0800 
 35 H       -1.4820     3.1990    -0.9260 H     1 <1>   0.0800 
 36 H       -0.2830     5.1680    -1.9320 H     1 <1>   0.0800 
 37 H        0.5500     6.2940    -0.8870 H     1 <1>   0.0800 
 38 H       -2.8870     4.9400     1.0970 H     1 <1>   0.0800 
 39 H       -1.5930     7.2140    -1.6800 H     1 <1>   0.0800 
 40 H       -1.5660     7.0680     0.0480 H     1 <1>   0.0800 
 41 H       -3.7210     6.2630    -0.7760 H     1 <1>   0.0800 
 42 H       -2.9390     5.2140    -1.9220 H     1 <1>   0.0800 
 43 H       -6.2090     2.3570     0.7860 H     1 <1>   0.0800 
 44 H       -6.4490     2.9510    -0.8540 H     1 <1>   0.0800 
 45 H       -7.3760     4.3620     1.6810 H     1 <1>   0.0800 
 46 H       -8.4160     3.4990     0.5770 H     1 <1>   0.0800 
 47 H       -7.6150     4.9550     0.0440 H     1 <1>   0.0800 
@<TRIPOS>BOND
  1   1   2  1   
  2   2   3  ar  
  3   2   4  ar  
  4   3   5  1   
  5   3   6  ar  
  6   4   7  ar  
  7   4  24  1   
  8   5   8  am  
  9   5  25  1   
 10   6   9  ar  
 11   6  26  1   
 12   7   9  ar  
 13   7  27  1   
 14   8  10  2   
 15   8  11  1   
 16   9  28  1   
 17  11  12  1   
 18  11  29  1   
 19  11  30  1   
 20  12  13  1   
 21  12  31  1   
 22  12  32  1   
 23  13  14  1   
 24  13  15  1   
 25  13  33  1   
 26  14  16  1   
 27  14  34  1   
 28  14  35  1   
 29  15  17  1   
 30  15  36  1   
 31  15  37  1   
 32  16  18  1   
 33  16  19  1   
 34  16  38  1   
 35  17  19  1   
 36  17  39  1   
 37  17  40  1   
 38  18  20  2   
 39  18  21  1   
 40  19  41  1   
 41  19  42  1   
 42  21  22  1   
 43  22  23  1   
 44  22  43  1   
 45  22  44  1   
 46  23  45  1   
 47  23  46  1   
 48  23  47  1   
@<TRIPOS>SUBSTRUCTURE
  1 ****  12 GROUP 4 **** **** 0

# MOE 2024.06 (io_trps.svl 2023.06)
