@<TRIPOS>MOLECULE
NONAME
58 61 1 0 0 
SMALL
USER_CHARGES


@<TRIPOS>ATOM
  1 S       -1.8250     2.0100     2.3240 S.3   1 <1>  -0.0800 
  2 C       -2.1010     1.2430     0.7480 C.2   1 <1>   0.3250 
  3 C       -0.1060     2.0400     2.0270 C.ar  1 <1>   0.0400 
  4 N       -1.0100     1.0450     0.0970 N.2   1 <1>  -0.5650 
  5 C       -3.4540     0.9210     0.3470 C.ar  1 <1>   0.0530 
  6 C        0.1130     1.4790     0.7860 C.ar  1 <1>   0.2270 
  7 C        0.9030     2.5210     2.8400 C.ar  1 <1>  -0.1500 
  8 C       -4.5790     1.1730     1.1390 C.ar  1 <1>  -0.1500 
  9 C       -3.6900     0.3250    -0.8940 C.ar  1 <1>  -0.1500 
 10 C        1.4220     1.3950     0.3320 C.ar  1 <1>  -0.1500 
 11 C        2.2060     2.4320     2.3750 C.ar  1 <1>  -0.1430 
 12 C       -5.8530     0.8500     0.7140 C.ar  1 <1>  -0.1500 
 13 C       -4.9630     0.0010    -1.3220 C.ar  1 <1>  -0.1500 
 14 C        2.4560     1.8690     1.1240 C.ar  1 <1>  -0.1500 
 15 C        3.3650     2.9390     3.2130 C.3   1 <1>  -0.0970 
 16 C       -6.0710     0.2600    -0.5240 C.ar  1 <1>   0.1170 
 17 N       -7.3820    -0.0430    -0.9000 N.am  1 <1>  -0.5470 
 18 C       -7.9540    -0.4820    -2.0610 C.2   1 <1>   0.5690 
 19 O       -7.3510    -0.7190    -3.0800 O.2   1 <1>  -0.5700 
 20 C       -9.4730    -0.6710    -2.0280 C.3   1 <1>   0.1710 
 21 N      -10.1400     0.0810    -0.9210 N.3   1 <1>  -0.8100 
 22 C      -11.4660    -0.4790    -0.6280 C.3   1 <1>   0.1100 
 23 C      -10.2270     1.5170    -1.2360 C.3   1 <1>   0.1100 
 24 C      -12.0500     0.2070     0.6090 C.3   1 <1>  -0.1600 
 25 C      -10.7570     2.2750    -0.0180 C.3   1 <1>  -0.1600 
 26 C      -12.1310     1.7340     0.4240 C.3   1 <1>  -0.0190 
 27 C      -12.6650     2.4150     1.6840 C.2   1 <1>   0.6590 
 28 O      -11.9700     3.0760     2.4130 O.2   1 <1>  -0.5700 
 29 O      -13.9560     2.2280     1.9250 O.3   1 <1>  -0.4300 
 30 C      -14.5800     2.7920     3.0550 C.3   1 <1>   0.1200 
 31 C      -16.0480     2.3770     3.0400 C.3   1 <1>  -0.2400 
 32 H        0.6690     2.9480     3.7990 H     1 <1>   0.1500 
 33 H       -4.4690     1.6290     2.1060 H     1 <1>   0.1500 
 34 H       -2.8540     0.1120    -1.5380 H     1 <1>   0.1500 
 35 H        1.6100     0.9610    -0.6330 H     1 <1>   0.1500 
 36 H       -6.6930     1.0600     1.3520 H     1 <1>   0.1500 
 37 H       -5.0880    -0.4580    -2.2850 H     1 <1>   0.1500 
 38 H        3.4690     1.8010     0.7650 H     1 <1>   0.1500 
 39 H        3.0170     3.3410     4.1480 H     1 <1>   0.0800 
 40 H        3.8890     3.7140     2.6820 H     1 <1>   0.0800 
 41 H        4.0480     2.1350     3.4190 H     1 <1>   0.0800 
 42 H       -8.1110     0.1450    -0.2020 H     1 <1>   0.3700 
 43 H       -9.6500    -1.7240    -1.9040 H     1 <1>   0.0800 
 44 H       -9.8840    -0.3770    -2.9780 H     1 <1>   0.0800 
 45 H      -11.3790    -1.5350    -0.4320 H     1 <1>   0.0800 
 46 H      -12.1200    -0.3410    -1.4740 H     1 <1>   0.0800 
 47 H      -10.8810     1.6710    -2.0800 H     1 <1>   0.0800 
 48 H       -9.2530     1.9020    -1.4910 H     1 <1>   0.0800 
 49 H      -11.4310    -0.0230     1.4590 H     1 <1>   0.0800 
 50 H      -13.0320    -0.1870     0.8010 H     1 <1>   0.0800 
 51 H      -10.8400     3.3210    -0.2550 H     1 <1>   0.0800 
 52 H      -10.0480     2.1770     0.7860 H     1 <1>   0.0800 
 53 H      -12.8340     1.9390    -0.3630 H     1 <1>   0.0800 
 54 H      -14.4800     3.8630     3.0010 H     1 <1>   0.0800 
 55 H      -14.0830     2.4260     3.9380 H     1 <1>   0.0800 
 56 H      -16.5270     2.7400     2.1480 H     1 <1>   0.0800 
 57 H      -16.5510     2.7950     3.8930 H     1 <1>   0.0800 
 58 H      -16.1310     1.3060     3.0850 H     1 <1>   0.0800 
@<TRIPOS>BOND
  1   1   2  1   
  2   1   3  1   
  3   2   4  2   
  4   2   5  1   
  5   3   6  ar  
  6   3   7  ar  
  7   4   6  1   
  8   5   8  ar  
  9   5   9  ar  
 10   6  10  ar  
 11   7  11  ar  
 12   7  32  1   
 13   8  12  ar  
 14   8  33  1   
 15   9  13  ar  
 16   9  34  1   
 17  10  14  ar  
 18  10  35  1   
 19  11  14  ar  
 20  11  15  1   
 21  12  16  ar  
 22  12  36  1   
 23  13  16  ar  
 24  13  37  1   
 25  14  38  1   
 26  15  39  1   
 27  15  40  1   
 28  15  41  1   
 29  16  17  1   
 30  17  18  am  
 31  17  42  1   
 32  18  19  2   
 33  18  20  1   
 34  20  21  1   
 35  20  43  1   
 36  20  44  1   
 37  21  22  1   
 38  21  23  1   
 39  22  24  1   
 40  22  45  1   
 41  22  46  1   
 42  23  25  1   
 43  23  47  1   
 44  23  48  1   
 45  24  26  1   
 46  24  49  1   
 47  24  50  1   
 48  25  26  1   
 49  25  51  1   
 50  25  52  1   
 51  26  27  1   
 52  26  53  1   
 53  27  28  2   
 54  27  29  1   
 55  29  30  1   
 56  30  31  1   
 57  30  54  1   
 58  30  55  1   
 59  31  56  1   
 60  31  57  1   
 61  31  58  1   
@<TRIPOS>SUBSTRUCTURE
  1 ****  12 GROUP 4 **** **** 0

# MOE 2024.06 (io_trps.svl 2023.06)
