@<TRIPOS>MOLECULE
NONAME
50 52 1 0 0 
SMALL
USER_CHARGES


@<TRIPOS>ATOM
  1 O       -1.9550    -0.5650    -1.0750 O.3   1 <1>  -0.3630 
  2 C       -2.4000     0.4880    -0.3490 C.ar  1 <1>   0.0830 
  3 C       -0.7450    -0.4970    -1.7990 C.3   1 <1>   0.0400 
  4 C       -3.5530     0.2810     0.3900 C.ar  1 <1>  -0.1500 
  5 C       -1.7760     1.7300    -0.3120 C.ar  1 <1>  -0.1500 
  6 C       -4.0970     1.3010     1.1540 C.ar  1 <1>  -0.1430 
  7 C       -2.3090     2.7470     0.4590 C.ar  1 <1>  -0.1500 
  8 C       -3.4650     2.5360     1.1900 C.ar  1 <1>  -0.1500 
  9 C       -5.3780     1.0680     1.9290 C.3   1 <1>   0.4860 
 10 N       -6.4920     0.9210     0.9560 N.4   1 <1>  -0.9590 
 11 C       -6.6760     2.1670     0.1210 C.3   1 <1>   0.3430 
 12 C       -7.7810     0.5190     1.6250 C.3   1 <1>   0.3430 
 13 C       -7.8210     2.0390    -0.9060 C.3   1 <1>   0.2090 
 14 C       -8.9330     0.3270     0.6170 C.3   1 <1>   0.2090 
 15 N       -9.0690     1.5060    -0.2830 N.pl3 1 <1>  -0.8380 
 16 C      -10.1260     2.3820    -0.0310 C.ar  1 <1>   0.1000 
 17 C      -11.3810     2.2010    -0.6230 C.ar  1 <1>  -0.1430 
 18 C       -9.9360     3.4440     0.8460 C.ar  1 <1>  -0.1500 
 19 C      -12.4240     3.0700    -0.3100 C.ar  1 <1>  -0.1430 
 20 C      -11.6050     1.0520    -1.6080 C.3   1 <1>  -0.0970 
 21 C      -10.9670     4.3110     1.1430 C.ar  1 <1>  -0.1500 
 22 C      -12.2080     4.1210     0.5680 C.ar  1 <1>  -0.1500 
 23 C      -13.8190     2.9110    -0.9020 C.3   1 <1>  -0.0970 
 24 H       -0.5790    -1.4510    -2.2660 H     1 <1>   0.0800 
 25 H        0.0600    -0.2800    -1.1180 H     1 <1>   0.0800 
 26 H       -0.8290     0.2670    -2.5520 H     1 <1>   0.0800 
 27 H       -4.0010    -0.6960     0.3490 H     1 <1>   0.1500 
 28 H       -0.8790     1.9210    -0.8720 H     1 <1>   0.1500 
 29 H       -1.8180     3.7060     0.4890 H     1 <1>   0.1500 
 30 H       -3.8570     3.3450     1.7840 H     1 <1>   0.1500 
 31 H       -5.5660     1.8970     2.5920 H     1 <1>   0.0800 
 32 H       -5.2770     0.1710     2.5200 H     1 <1>   0.0800 
 33 H       -6.2210     0.1750     0.3030 H     1 <1>   0.4500 
 34 H       -5.7630     2.3950    -0.4070 H     1 <1>   0.0800 
 35 H       -6.8960     3.0010     0.7650 H     1 <1>   0.0800 
 36 H       -8.0780     1.2830     2.3240 H     1 <1>   0.0800 
 37 H       -7.6430    -0.3970     2.1740 H     1 <1>   0.0800 
 38 H       -7.5200     1.3810    -1.7030 H     1 <1>   0.0800 
 39 H       -8.0210     3.0030    -1.3420 H     1 <1>   0.0800 
 40 H       -9.8560     0.1790     1.1530 H     1 <1>   0.0800 
 41 H       -8.7590    -0.5520     0.0220 H     1 <1>   0.0800 
 42 H       -8.9810     3.5960     1.3050 H     1 <1>   0.1500 
 43 H      -10.6870     0.7540    -2.0790 H     1 <1>   0.0800 
 44 H      -12.2780     1.3410    -2.3940 H     1 <1>   0.0800 
 45 H      -12.0170     0.2060    -1.0890 H     1 <1>   0.0800 
 46 H      -10.8130     5.1320     1.8210 H     1 <1>   0.1500 
 47 H      -13.0060     4.8010     0.8090 H     1 <1>   0.1500 
 48 H      -14.1570     1.8970    -0.7920 H     1 <1>   0.0800 
 49 H      -13.8050     3.1680    -1.9460 H     1 <1>   0.0800 
 50 H      -14.5250     3.5510    -0.4060 H     1 <1>   0.0800 
@<TRIPOS>BOND
  1   1   2  1   
  2   1   3  1   
  3   2   4  ar  
  4   2   5  ar  
  5   3  24  1   
  6   3  25  1   
  7   3  26  1   
  8   4   6  ar  
  9   4  27  1   
 10   5   7  ar  
 11   5  28  1   
 12   6   8  ar  
 13   6   9  1   
 14   7   8  ar  
 15   7  29  1   
 16   8  30  1   
 17   9  10  1   
 18   9  31  1   
 19   9  32  1   
 20  10  11  1   
 21  10  12  1   
 22  10  33  1   
 23  11  13  1   
 24  11  34  1   
 25  11  35  1   
 26  12  14  1   
 27  12  36  1   
 28  12  37  1   
 29  13  15  1   
 30  13  38  1   
 31  13  39  1   
 32  14  15  1   
 33  14  40  1   
 34  14  41  1   
 35  15  16  1   
 36  16  17  ar  
 37  16  18  ar  
 38  17  19  ar  
 39  17  20  1   
 40  18  21  ar  
 41  18  42  1   
 42  19  22  ar  
 43  19  23  1   
 44  20  43  1   
 45  20  44  1   
 46  20  45  1   
 47  21  22  ar  
 48  21  46  1   
 49  22  47  1   
 50  23  48  1   
 51  23  49  1   
 52  23  50  1   
@<TRIPOS>SUBSTRUCTURE
  1 ****  11 GROUP 4 **** **** 0

# MOE 2024.06 (io_trps.svl 2023.06)
