@<TRIPOS>MOLECULE
NONAME
32 32 1 0 0 
SMALL
USER_CHARGES


@<TRIPOS>ATOM
  1 S       -0.0160    -2.7440     0.5910 S.3   1 <1>  -0.4600 
  2 C       -0.7150    -1.2190     1.3290 C.3   1 <1>   0.1310 
  3 C        0.0700    -2.3480    -1.1790 C.3   1 <1>  -0.0100 
  4 C       -2.1720    -1.0270     0.9350 C.2   1 <1>   0.5690 
  5 O       -2.5930     0.1000     0.8470 O.2   1 <1>  -0.5700 
  6 N       -2.9180    -2.1490     0.6950 N.am  1 <1>  -0.5470 
  7 C       -4.2580    -2.3370     0.3230 C.ar  1 <1>   0.1170 
  8 C       -5.2190    -1.3340     0.3800 C.ar  1 <1>  -0.1500 
  9 C       -4.6510    -3.5950    -0.1170 C.ar  1 <1>  -0.1500 
 10 C       -6.5270    -1.5810     0.0030 C.ar  1 <1>  -0.1500 
 11 C       -5.9590    -3.8430    -0.4940 C.ar  1 <1>  -0.1500 
 12 C       -6.9130    -2.8380    -0.4390 C.ar  1 <1>  -0.1430 
 13 C       -8.3520    -3.1260    -0.8590 C.3   1 <1>   0.0630 
 14 C       -8.7570    -2.2580    -2.0540 C.3   1 <1>  -0.2400 
 15 C       -9.3160    -2.9210     0.3140 C.3   1 <1>  -0.2400 
 16 H       -0.1200    -0.3920     0.9870 H     1 <1>   0.0800 
 17 H       -0.6290    -1.3120     2.3950 H     1 <1>   0.0800 
 18 H        0.4850    -3.2010    -1.6860 H     1 <1>   0.0800 
 19 H        0.7060    -1.4890    -1.2980 H     1 <1>   0.0800 
 20 H       -0.9260    -2.1420    -1.5290 H     1 <1>   0.0800 
 21 H       -2.3630    -3.0070     0.7360 H     1 <1>   0.3700 
 22 H       -4.9550    -0.3510     0.7210 H     1 <1>   0.1500 
 23 H       -3.9300    -4.3900    -0.1690 H     1 <1>   0.1500 
 24 H       -7.2450    -0.7820     0.0570 H     1 <1>   0.1500 
 25 H       -6.2310    -4.8280    -0.8320 H     1 <1>   0.1500 
 26 H       -8.4240    -4.1570    -1.1640 H     1 <1>   0.0800 
 27 H       -8.7510    -1.2160    -1.7900 H     1 <1>   0.0800 
 28 H       -9.7440    -2.5220    -2.3900 H     1 <1>   0.0800 
 29 H       -8.0670    -2.4090    -2.8650 H     1 <1>   0.0800 
 30 H       -9.3220    -1.8930     0.6290 H     1 <1>   0.0800 
 31 H       -9.0130    -3.5310     1.1460 H     1 <1>   0.0800 
 32 H      -10.3140    -3.1990     0.0300 H     1 <1>   0.0800 
@<TRIPOS>BOND
  1   1   2  1   
  2   1   3  1   
  3   2   4  1   
  4   2  16  1   
  5   2  17  1   
  6   3  18  1   
  7   3  19  1   
  8   3  20  1   
  9   4   5  2   
 10   4   6  am  
 11   6   7  1   
 12   6  21  1   
 13   7   8  ar  
 14   7   9  ar  
 15   8  10  ar  
 16   8  22  1   
 17   9  11  ar  
 18   9  23  1   
 19  10  12  ar  
 20  10  24  1   
 21  11  12  ar  
 22  11  25  1   
 23  12  13  1   
 24  13  14  1   
 25  13  15  1   
 26  13  26  1   
 27  14  27  1   
 28  14  28  1   
 29  14  29  1   
 30  15  30  1   
 31  15  31  1   
 32  15  32  1   
@<TRIPOS>SUBSTRUCTURE
  1 ****   7 GROUP 4 **** **** 0

# MOE 2024.06 (io_trps.svl 2023.06)
