@<TRIPOS>MOLECULE
NONAME
47 48 1 0 0 
SMALL
USER_CHARGES


@<TRIPOS>ATOM
  1 O        1.5720     8.2660    -0.2250 O.3   1 <1>  -0.3630 
  2 C        2.8230     7.7480    -0.1360 C.ar  1 <1>   0.0830 
  3 C        0.4340     7.4780     0.0180 C.3   1 <1>   0.1200 
  4 C        3.0940     6.4250     0.2040 C.ar  1 <1>  -0.1500 
  5 C        3.8720     8.6110    -0.4050 C.ar  1 <1>  -0.1500 
  6 C       -0.7920     8.3720    -0.1760 C.3   1 <1>  -0.1600 
  7 C        4.4030     5.9740     0.2730 C.ar  1 <1>  -0.1440 
  8 C        5.1790     8.1650    -0.3390 C.ar  1 <1>  -0.1500 
  9 C       -2.1030     7.6080     0.0570 C.3   1 <1>  -0.1600 
 10 C        5.4430     6.8480    -0.0010 C.ar  1 <1>  -0.1500 
 11 C        4.6990     4.5310     0.6420 C.3   1 <1>  -0.0970 
 12 C       -3.3020     8.5380    -0.1420 C.3   1 <1>   0.3430 
 13 N       -4.5740     7.8350     0.1820 N.4   1 <1>  -0.9590 
 14 C       -4.9380     6.8130    -0.8450 C.3   1 <1>   0.3430 
 15 C       -5.6780     8.8220     0.3740 C.3   1 <1>   0.3430 
 16 C       -6.1840     6.0490    -0.3960 C.3   1 <1>  -0.1600 
 17 C       -6.9390     8.1000     0.8510 C.3   1 <1>  -0.1600 
 18 C       -7.3630     6.9960    -0.1280 C.3   1 <1>  -0.0800 
 19 C       -8.5650     6.2200     0.4210 C.3   1 <1>  -0.2400 
 20 H        0.4890     7.1080     1.0280 H     1 <1>   0.0800 
 21 H        0.4340     6.6610    -0.6830 H     1 <1>   0.0800 
 22 H        2.3020     5.7350     0.4160 H     1 <1>   0.1500 
 23 H        3.6590     9.6310    -0.6670 H     1 <1>   0.1500 
 24 H       -0.7720     8.7630    -1.1800 H     1 <1>   0.0800 
 25 H       -0.7230     9.1970     0.5130 H     1 <1>   0.0800 
 26 H        5.9900     8.8400    -0.5500 H     1 <1>   0.1500 
 27 H       -2.1060     7.2220     1.0620 H     1 <1>   0.0800 
 28 H       -2.1480     6.7860    -0.6350 H     1 <1>   0.0800 
 29 H        6.4630     6.5090     0.0470 H     1 <1>   0.1500 
 30 H        3.9510     4.1540     1.3160 H     1 <1>   0.0800 
 31 H        5.6570     4.4550     1.1240 H     1 <1>   0.0800 
 32 H        4.7070     3.9240    -0.2450 H     1 <1>   0.0800 
 33 H       -3.3250     8.8970    -1.1590 H     1 <1>   0.0800 
 34 H       -3.1860     9.3900     0.5100 H     1 <1>   0.0800 
 35 H       -4.4530     7.3440     1.0770 H     1 <1>   0.4500 
 36 H       -4.1280     6.1150    -0.9830 H     1 <1>   0.0800 
 37 H       -5.1340     7.2960    -1.7890 H     1 <1>   0.0800 
 38 H       -5.8830     9.3260    -0.5570 H     1 <1>   0.0800 
 39 H       -5.3920     9.5610     1.1050 H     1 <1>   0.0800 
 40 H       -5.9530     5.4810     0.4890 H     1 <1>   0.0800 
 41 H       -6.4580     5.3480    -1.1650 H     1 <1>   0.0800 
 42 H       -7.7350     8.8190     0.9440 H     1 <1>   0.0800 
 43 H       -6.7640     7.6870     1.8290 H     1 <1>   0.0800 
 44 H       -7.6560     7.4540    -1.0590 H     1 <1>   0.0800 
 45 H       -8.3250     5.7420     1.3540 H     1 <1>   0.0800 
 46 H       -8.8740     5.4640    -0.2800 H     1 <1>   0.0800 
 47 H       -9.3970     6.8830     0.5830 H     1 <1>   0.0800 
@<TRIPOS>BOND
  1   1   2  1   
  2   1   3  1   
  3   2   4  ar  
  4   2   5  ar  
  5   3   6  1   
  6   3  20  1   
  7   3  21  1   
  8   4   7  ar  
  9   4  22  1   
 10   5   8  ar  
 11   5  23  1   
 12   6   9  1   
 13   6  24  1   
 14   6  25  1   
 15   7  10  ar  
 16   7  11  1   
 17   8  10  ar  
 18   8  26  1   
 19   9  12  1   
 20   9  27  1   
 21   9  28  1   
 22  10  29  1   
 23  11  30  1   
 24  11  31  1   
 25  11  32  1   
 26  12  13  1   
 27  12  33  1   
 28  12  34  1   
 29  13  14  1   
 30  13  15  1   
 31  13  35  1   
 32  14  16  1   
 33  14  36  1   
 34  14  37  1   
 35  15  17  1   
 36  15  38  1   
 37  15  39  1   
 38  16  18  1   
 39  16  40  1   
 40  16  41  1   
 41  17  18  1   
 42  17  42  1   
 43  17  43  1   
 44  18  19  1   
 45  18  44  1   
 46  19  45  1   
 47  19  46  1   
 48  19  47  1   
@<TRIPOS>SUBSTRUCTURE
  1 ****   6 GROUP 4 **** **** 0

# MOE 2024.06 (io_trps.svl 2023.06)
