@<TRIPOS>MOLECULE
NONAME
48 50 1 0 0 
SMALL
USER_CHARGES


@<TRIPOS>ATOM
  1 CL      -0.8540     1.3770     1.7460 Cl    1 <1>  -0.1240 
  2 C       -1.7400     0.2940     0.7090 C.2   1 <1>   0.1640 
  3 S       -3.2490    -0.3330     1.3340 S.3   1 <1>  -0.0800 
  4 C       -1.4760    -0.1680    -0.5230 C.2   1 <1>  -0.1500 
  5 C       -3.5240    -1.2520    -0.1510 C.2   1 <1>  -0.0220 
  6 C       -2.4950    -1.0510    -1.0070 C.2   1 <1>  -0.1500 
  7 S       -5.0210    -2.2630    -0.2630 S.o2  1 <1>   1.5000 
  8 O       -5.3740    -2.4480    -1.6540 O.2   1 <1>  -0.6500 
  9 O       -4.8810    -3.4260     0.5850 O.2   1 <1>  -0.6500 
 10 N       -6.2310    -1.2910     0.4190 N.am  1 <1>  -0.8490 
 11 C       -6.6090    -0.1640    -0.4550 C.3   1 <1>   0.1960 
 12 C       -7.4200    -2.0840     0.7710 C.3   1 <1>   0.1960 
 13 C       -7.6500     0.7460     0.2170 C.3   1 <1>   0.1400 
 14 C       -8.4970    -1.2280     1.4620 C.3   1 <1>   0.1400 
 15 N       -8.8550    -0.0420     0.6220 N.am  1 <1>  -0.6600 
 16 C      -10.1070     0.2880     0.1560 C.2   1 <1>   0.5690 
 17 O      -10.2580     1.2140    -0.6070 O.2   1 <1>  -0.5700 
 18 C      -11.3490    -0.5110     0.5770 C.3   1 <1>  -0.0190 
 19 C      -11.5130    -1.7760    -0.2890 C.3   1 <1>  -0.1600 
 20 C      -12.6470     0.3230     0.5150 C.3   1 <1>  -0.1600 
 21 C      -12.7430    -2.5880     0.1250 C.3   1 <1>   0.1400 
 22 C      -13.8690    -0.5020     0.9230 C.3   1 <1>   0.1400 
 23 N      -13.9520    -1.7220     0.0710 N.am  1 <1>  -0.6600 
 24 C      -15.0120    -2.0490    -0.7360 C.2   1 <1>   0.5690 
 25 O      -15.0380    -3.0670    -1.3860 O.2   1 <1>  -0.5700 
 26 C      -16.2100    -1.1350    -0.8460 C.3   1 <1>  -0.1790 
 27 H       -0.6070     0.0760    -1.1090 H     1 <1>   0.1500 
 28 H       -2.4130    -1.5020    -1.9820 H     1 <1>   0.1500 
 29 H       -7.0180    -0.5310    -1.3830 H     1 <1>   0.0800 
 30 H       -5.7380     0.4240    -0.6860 H     1 <1>   0.0800 
 31 H       -7.1380    -2.8770     1.4440 H     1 <1>   0.0800 
 32 H       -7.8350    -2.5350    -0.1150 H     1 <1>   0.0800 
 33 H       -7.9170     1.5350    -0.4650 H     1 <1>   0.0800 
 34 H       -7.2140     1.2010     1.0890 H     1 <1>   0.0800 
 35 H       -8.1140    -0.8840     2.4080 H     1 <1>   0.0800 
 36 H       -9.3510    -1.8450     1.6590 H     1 <1>   0.0800 
 37 H      -11.2240    -0.8030     1.6020 H     1 <1>   0.0800 
 38 H      -10.6410    -2.3980    -0.2130 H     1 <1>   0.0800 
 39 H      -11.6180    -1.4930    -1.3230 H     1 <1>   0.0800 
 40 H      -12.7990     0.6920    -0.4850 H     1 <1>   0.0800 
 41 H      -12.5580     1.1760     1.1650 H     1 <1>   0.0800 
 42 H      -12.6230    -2.9610     1.1280 H     1 <1>   0.0800 
 43 H      -12.8490    -3.4350    -0.5320 H     1 <1>   0.0800 
 44 H      -14.7530     0.1020     0.8310 H     1 <1>   0.0800 
 45 H      -13.7810    -0.8030     1.9530 H     1 <1>   0.0800 
 46 H      -16.6850    -1.0390     0.1110 H     1 <1>   0.0800 
 47 H      -16.9180    -1.5490    -1.5410 H     1 <1>   0.0800 
 48 H      -15.9020    -0.1720    -1.2040 H     1 <1>   0.0800 
@<TRIPOS>BOND
  1   1   2  1   
  2   2   3  1   
  3   2   4  2   
  4   3   5  1   
  5   4   6  1   
  6   4  27  1   
  7   5   6  2   
  8   5   7  1   
  9   6  28  1   
 10   7   8  2   
 11   7   9  2   
 12   7  10  am  
 13  10  11  1   
 14  10  12  1   
 15  11  13  1   
 16  11  29  1   
 17  11  30  1   
 18  12  14  1   
 19  12  31  1   
 20  12  32  1   
 21  13  15  1   
 22  13  33  1   
 23  13  34  1   
 24  14  15  1   
 25  14  35  1   
 26  14  36  1   
 27  15  16  am  
 28  16  17  2   
 29  16  18  1   
 30  18  19  1   
 31  18  20  1   
 32  18  37  1   
 33  19  21  1   
 34  19  38  1   
 35  19  39  1   
 36  20  22  1   
 37  20  40  1   
 38  20  41  1   
 39  21  23  1   
 40  21  42  1   
 41  21  43  1   
 42  22  23  1   
 43  22  44  1   
 44  22  45  1   
 45  23  24  am  
 46  24  25  2   
 47  24  26  1   
 48  26  46  1   
 49  26  47  1   
 50  26  48  1   
@<TRIPOS>SUBSTRUCTURE
  1 ****  15 GROUP 4 **** **** 0

# MOE 2024.06 (io_trps.svl 2023.06)
