@<TRIPOS>MOLECULE
NONAME
41 43 1 0 0 
SMALL
USER_CHARGES


@<TRIPOS>ATOM
  1 O        1.9220    -0.0810     0.5980 O.co2 1 <1>  -0.9000 
  2 C        2.1600    -1.0910     1.2620 C.2   1 <1>   0.9060 
  3 O        2.8670    -1.0500     2.2790 O.co2 1 <1>  -0.9000 
  4 C        1.6060    -2.4510     0.8510 C.3   1 <1>  -0.1860 
  5 C        2.6880    -3.5750     0.7420 C.3   1 <1>  -0.0190 
  6 C        0.7050    -2.4370    -0.4010 C.3   1 <1>  -0.1600 
  7 C        4.0560    -3.1620     0.1480 C.2   1 <1>   0.5690 
  8 C        2.1110    -4.8480     0.0530 C.3   1 <1>  -0.1600 
  9 C       -0.0850    -3.7540    -0.5440 C.3   1 <1>  -0.1600 
 10 O        4.4460    -3.6630    -0.8840 O.2   1 <1>  -0.5700 
 11 N        4.8240    -2.2800     0.8530 N.am  1 <1>  -0.5470 
 12 C        0.5850    -4.9490     0.1590 C.3   1 <1>  -0.1600 
 13 C        6.1030    -1.7600     0.6270 C.ar  1 <1>   0.1170 
 14 C        7.0930    -2.4530    -0.0660 C.ar  1 <1>  -0.1500 
 15 C        6.3990    -0.4990     1.1370 C.ar  1 <1>  -0.1500 
 16 C        8.3410    -1.8830    -0.2310 C.ar  1 <1>  -0.1440 
 17 C        7.6520     0.0680     0.9690 C.ar  1 <1>  -0.1500 
 18 C        8.6190    -0.6400     0.2800 C.ar  1 <1>  -0.1440 
 19 C        9.5350    -2.4630    -0.9450 C.3   1 <1>  -0.0170 
 20 C       10.0370    -0.2270    -0.0250 C.3   1 <1>  -0.0170 
 21 C       10.6850    -1.5270    -0.5340 C.3   1 <1>  -0.1600 
 22 H        0.9680    -2.7080     1.6750 H     1 <1>   0.0800 
 23 H        2.9060    -3.8510     1.7580 H     1 <1>   0.0800 
 24 H        1.3290    -2.2830    -1.2650 H     1 <1>   0.0800 
 25 H        0.0180    -1.6080    -0.3500 H     1 <1>   0.0800 
 26 H        2.5740    -5.7220     0.4760 H     1 <1>   0.0800 
 27 H        2.3460    -4.8390    -0.9970 H     1 <1>   0.0800 
 28 H       -0.1960    -3.9680    -1.5930 H     1 <1>   0.0800 
 29 H       -1.0710    -3.6230    -0.1330 H     1 <1>   0.0800 
 30 H        4.2780    -1.7590     1.5670 H     1 <1>   0.3700 
 31 H        0.3050    -4.9640     1.1980 H     1 <1>   0.0800 
 32 H        0.2430    -5.8670    -0.2860 H     1 <1>   0.0800 
 33 H        6.8820    -3.4260    -0.4680 H     1 <1>   0.1500 
 34 H        5.6270     0.0370     1.6650 H     1 <1>   0.1500 
 35 H        7.8630     1.0440     1.3680 H     1 <1>   0.1500 
 36 H        9.3670    -2.4200    -2.0070 H     1 <1>   0.0800 
 37 H        9.7190    -3.4780    -0.6430 H     1 <1>   0.0800 
 38 H       10.5350     0.1490     0.8500 H     1 <1>   0.0800 
 39 H       10.0300     0.5230    -0.7960 H     1 <1>   0.0800 
 40 H       11.3630    -1.3440    -1.3500 H     1 <1>   0.0800 
 41 H       11.2260    -1.9820     0.2770 H     1 <1>   0.0800 
@<TRIPOS>BOND
  1   1   2  ar  
  2   2   3  ar  
  3   2   4  1   
  4   4   5  1   
  5   4   6  1   
  6   4  22  1   
  7   5   7  1   
  8   5   8  1   
  9   5  23  1   
 10   6   9  1   
 11   6  24  1   
 12   6  25  1   
 13   7  10  2   
 14   7  11  am  
 15   8  12  1   
 16   8  26  1   
 17   8  27  1   
 18   9  12  1   
 19   9  28  1   
 20   9  29  1   
 21  11  13  1   
 22  11  30  1   
 23  12  31  1   
 24  12  32  1   
 25  13  14  ar  
 26  13  15  ar  
 27  14  16  ar  
 28  14  33  1   
 29  15  17  ar  
 30  15  34  1   
 31  16  18  ar  
 32  16  19  1   
 33  17  18  ar  
 34  17  35  1   
 35  18  20  1   
 36  19  21  1   
 37  19  36  1   
 38  19  37  1   
 39  20  21  1   
 40  20  38  1   
 41  20  39  1   
 42  21  40  1   
 43  21  41  1   
@<TRIPOS>SUBSTRUCTURE
  1 ****  11 GROUP 4 **** **** 0

# MOE 2024.06 (io_trps.svl 2023.06)
