@<TRIPOS>MOLECULE
NONAME
40 41 1 0 0 
SMALL
USER_CHARGES


@<TRIPOS>ATOM
  1 CL      -1.4480     0.7120     3.4370 Cl    1 <1>  -0.1770 
  2 C       -1.6780     1.6760     2.0000 C.ar  1 <1>   0.1770 
  3 C       -2.9400     1.7930     1.4570 C.ar  1 <1>  -0.1500 
  4 C       -0.5890     2.3040     1.4310 C.ar  1 <1>  -0.1500 
  5 C       -3.1400     2.5570     0.3100 C.ar  1 <1>   0.1170 
  6 C       -0.7750     3.0640     0.2900 C.ar  1 <1>  -0.1500 
  7 N       -4.4060     2.6890    -0.2820 N.am  1 <1>  -0.5470 
  8 C       -2.0380     3.1940    -0.2720 C.ar  1 <1>  -0.1430 
  9 C       -5.6640     2.5560     0.2180 C.2   1 <1>   0.6900 
 10 C       -2.1900     4.0470    -1.5270 C.3   1 <1>  -0.0960 
 11 O       -5.9010     2.2940     1.3810 O.2   1 <1>  -0.5700 
 12 N       -6.7090     2.6930    -0.6450 N.am  1 <1>  -0.6600 
 13 C       -7.1080     1.4710    -1.3960 C.3   1 <1>   0.1400 
 14 C       -7.8760     3.4960    -0.1750 C.3   1 <1>   0.1400 
 15 C       -8.0570     0.6040    -0.5380 C.3   1 <1>   0.3430 
 16 C       -8.8310     2.6280     0.6720 C.3   1 <1>   0.3430 
 17 N       -9.2600     1.3740    -0.0540 N.4   1 <1>  -0.9590 
 18 C      -10.1060     0.5080     0.8080 C.3   1 <1>   0.3430 
 19 C      -11.4830     1.1400     0.9790 C.3   1 <1>  -0.2400 
 20 H       -3.7540     1.2830     1.9330 H     1 <1>   0.1500 
 21 H        0.3840     2.1970     1.8750 H     1 <1>   0.1500 
 22 H        0.0750     3.5540    -0.1540 H     1 <1>   0.1500 
 23 H       -4.3970     3.0780    -1.2190 H     1 <1>   0.3700 
 24 H       -2.5120     3.4390    -2.3520 H     1 <1>   0.0800 
 25 H       -1.2550     4.5070    -1.7960 H     1 <1>   0.0800 
 26 H       -2.9080     4.8300    -1.3580 H     1 <1>   0.0800 
 27 H       -6.2310     0.8960    -1.6440 H     1 <1>   0.0800 
 28 H       -7.5900     1.7520    -2.3170 H     1 <1>   0.0800 
 29 H       -8.3980     3.9070    -1.0210 H     1 <1>   0.0800 
 30 H       -7.5230     4.3180     0.4260 H     1 <1>   0.0800 
 31 H       -7.4990     0.2400     0.3100 H     1 <1>   0.0800 
 32 H       -8.3740    -0.2490    -1.1160 H     1 <1>   0.0800 
 33 H       -9.6930     3.2150     0.9390 H     1 <1>   0.0800 
 34 H       -8.3190     2.3600     1.5830 H     1 <1>   0.0800 
 35 H       -9.8160     1.6510    -0.8730 H     1 <1>   0.4500 
 36 H       -9.6380     0.3680     1.7700 H     1 <1>   0.0800 
 37 H      -10.2240    -0.4600     0.3470 H     1 <1>   0.0800 
 38 H      -11.4280     2.0660     1.5220 H     1 <1>   0.0800 
 39 H      -12.1070     0.4700     1.5440 H     1 <1>   0.0800 
 40 H      -11.9530     1.3020     0.0250 H     1 <1>   0.0800 
@<TRIPOS>BOND
  1   1   2  1   
  2   2   3  ar  
  3   2   4  ar  
  4   3   5  ar  
  5   3  20  1   
  6   4   6  ar  
  7   4  21  1   
  8   5   7  1   
  9   5   8  ar  
 10   6   8  ar  
 11   6  22  1   
 12   7   9  am  
 13   7  23  1   
 14   8  10  1   
 15   9  11  2   
 16   9  12  am  
 17  10  24  1   
 18  10  25  1   
 19  10  26  1   
 20  12  13  1   
 21  12  14  1   
 22  13  15  1   
 23  13  27  1   
 24  13  28  1   
 25  14  16  1   
 26  14  29  1   
 27  14  30  1   
 28  15  17  1   
 29  15  31  1   
 30  15  32  1   
 31  16  17  1   
 32  16  33  1   
 33  16  34  1   
 34  17  18  1   
 35  17  35  1   
 36  18  19  1   
 37  18  36  1   
 38  18  37  1   
 39  19  38  1   
 40  19  39  1   
 41  19  40  1   
@<TRIPOS>SUBSTRUCTURE
  1 ****   9 GROUP 4 **** **** 0

# MOE 2024.06 (io_trps.svl 2023.06)
