@<TRIPOS>MOLECULE
NONAME
48 50 1 0 0 
SMALL
USER_CHARGES


@<TRIPOS>ATOM
  1 O       -7.9030    -0.8640     0.8460 O.2   1 <1>  -0.5700 
  2 C       -8.3660    -0.2100    -0.0610 C.2   1 <1>   0.5690 
  3 N       -7.7550    -0.2370    -1.2800 N.am  1 <1>  -0.7300 
  4 C       -9.5950     0.7070     0.1680 C.3   1 <1>   0.0610 
  5 C       -6.7200    -1.2130    -1.7350 C.3   1 <1>   0.1400 
  6 C       -9.0160     2.0880     0.5690 C.3   1 <1>  -0.1600 
  7 C      -10.4500     0.7700    -1.1340 C.3   1 <1>  -0.1600 
  8 C      -10.4360     0.1260     1.3370 C.3   1 <1>  -0.1600 
  9 C       -5.3050    -0.8670    -1.2220 C.3   1 <1>   0.3430 
 10 C       -9.9200     3.3320     0.5750 C.3   1 <1>  -0.1600 
 11 C      -11.9140     1.2270    -0.9720 C.3   1 <1>  -0.0800 
 12 C      -11.8540     0.6960     1.4640 C.3   1 <1>  -0.0800 
 13 N       -5.2190    -0.9530     0.2680 N.4   1 <1>  -0.9590 
 14 C      -11.4390     3.1340     0.6760 C.3   1 <1>  -0.0800 
 15 C      -12.0430     2.7260    -0.6780 C.3   1 <1>  -0.1600 
 16 C      -12.5990     0.4450     0.1510 C.3   1 <1>  -0.1600 
 17 C      -11.8700     2.1950     1.8200 C.3   1 <1>  -0.1600 
 18 C       -4.2220    -0.0070     0.8430 C.3   1 <1>   0.2630 
 19 C       -5.0100    -2.3480     0.7570 C.3   1 <1>   0.2630 
 20 H       -8.1850     0.3250    -2.0220 H     1 <1>   0.3700 
 21 H       -6.7060    -1.2210    -2.8110 H     1 <1>   0.0800 
 22 H       -6.9930    -2.2020    -1.4080 H     1 <1>   0.0800 
 23 H       -8.1910     2.3160    -0.0820 H     1 <1>   0.0800 
 24 H       -8.5920     1.9910     1.5540 H     1 <1>   0.0800 
 25 H       -9.9680     1.3990    -1.8610 H     1 <1>   0.0800 
 26 H      -10.4930    -0.2230    -1.5480 H     1 <1>   0.0800 
 27 H       -9.9170     0.2560     2.2700 H     1 <1>   0.0800 
 28 H      -10.5330    -0.9360     1.1890 H     1 <1>   0.0800 
 29 H       -5.0690     0.1330    -1.5430 H     1 <1>   0.0800 
 30 H       -4.5850    -1.5350    -1.6650 H     1 <1>   0.0800 
 31 H       -9.7150     3.9060    -0.3120 H     1 <1>   0.0800 
 32 H       -9.6130     3.9510     1.4010 H     1 <1>   0.0800 
 33 H      -12.4340     1.0270    -1.8940 H     1 <1>   0.0800 
 34 H      -12.3570     0.1600     2.2520 H     1 <1>   0.0800 
 35 H       -6.1710    -0.6810     0.6120 H     1 <1>   0.4500 
 36 H      -11.8400     4.1080     0.9040 H     1 <1>   0.0800 
 37 H      -13.0910     2.9730    -0.6640 H     1 <1>   0.0800 
 38 H      -11.6020     3.2970    -1.4760 H     1 <1>   0.0800 
 39 H      -12.6020    -0.6060    -0.0790 H     1 <1>   0.0800 
 40 H      -13.6240     0.7600     0.2480 H     1 <1>   0.0800 
 41 H      -12.8810     2.4500     2.0850 H     1 <1>   0.0800 
 42 H      -11.2650     2.3740     2.6920 H     1 <1>   0.0800 
 43 H       -3.2280    -0.2610     0.5110 H     1 <1>   0.0800 
 44 H       -4.2490    -0.0480     1.9200 H     1 <1>   0.0800 
 45 H       -4.4450     1.0020     0.5350 H     1 <1>   0.0800 
 46 H       -4.0630    -2.7300     0.4140 H     1 <1>   0.0800 
 47 H       -5.7990    -2.9890     0.3990 H     1 <1>   0.0800 
 48 H       -5.0240    -2.3680     1.8340 H     1 <1>   0.0800 
@<TRIPOS>BOND
  1   1   2  2   
  2   2   3  am  
  3   2   4  1   
  4   3   5  1   
  5   3  20  1   
  6   4   6  1   
  7   4   7  1   
  8   4   8  1   
  9   5   9  1   
 10   5  21  1   
 11   5  22  1   
 12   6  10  1   
 13   6  23  1   
 14   6  24  1   
 15   7  11  1   
 16   7  25  1   
 17   7  26  1   
 18   8  12  1   
 19   8  27  1   
 20   8  28  1   
 21   9  13  1   
 22   9  29  1   
 23   9  30  1   
 24  10  14  1   
 25  10  31  1   
 26  10  32  1   
 27  11  15  1   
 28  11  16  1   
 29  11  33  1   
 30  12  16  1   
 31  12  17  1   
 32  12  34  1   
 33  13  18  1   
 34  13  19  1   
 35  13  35  1   
 36  14  15  1   
 37  14  17  1   
 38  14  36  1   
 39  15  37  1   
 40  15  38  1   
 41  16  39  1   
 42  16  40  1   
 43  17  41  1   
 44  17  42  1   
 45  18  43  1   
 46  18  44  1   
 47  18  45  1   
 48  19  46  1   
 49  19  47  1   
 50  19  48  1   
@<TRIPOS>SUBSTRUCTURE
  1 ****   4 GROUP 4 **** **** 0

# MOE 2024.06 (io_trps.svl 2023.06)
