@<TRIPOS>MOLECULE
NONAME
49 51 1 0 0 
SMALL
USER_CHARGES


@<TRIPOS>ATOM
  1 S        0.0270    -0.5050    -2.1890 S.o2  1 <1>   1.4470 
  2 O        0.8110    -1.6090    -2.7020 O.2   1 <1>  -0.6500 
  3 O       -0.6870     0.3420    -3.1190 O.2   1 <1>  -0.6500 
  4 N        1.0990     0.4830    -1.3210 N.am  1 <1>  -0.8490 
  5 C       -1.1230    -1.0980    -0.9190 C.ar  1 <1>  -0.0090 
  6 C        1.8540     1.3650    -2.2130 C.3   1 <1>   0.1960 
  7 C        1.9850    -0.2980    -0.4520 C.3   1 <1>   0.1960 
  8 C       -1.4850    -2.4380    -0.8500 C.ar  1 <1>  -0.1500 
  9 C       -1.6700    -0.2280     0.0120 C.ar  1 <1>  -0.1500 
 10 C        2.6970     2.3500    -1.3980 C.3   1 <1>  -0.1600 
 11 C        2.8190     0.6350     0.4270 C.3   1 <1>  -0.1600 
 12 C       -2.3630    -2.9190     0.1200 C.ar  1 <1>   0.0820 
 13 C       -2.5460    -0.6810     0.9810 C.ar  1 <1>  -0.1500 
 14 C        3.6380     1.6190    -0.4250 C.3   1 <1>  -0.0190 
 15 O       -2.6800    -4.2460     0.1820 O.3   1 <1>  -0.3630 
 16 C       -2.9080    -2.0150     1.0490 C.ar  1 <1>   0.0820 
 17 C        4.4220     2.6050     0.4400 C.2   1 <1>   0.5690 
 18 C       -2.1310    -5.2030    -0.6980 C.3   1 <1>   0.0400 
 19 O       -3.7850    -2.3090     2.0510 O.3   1 <1>  -0.3620 
 20 O        3.8350     3.2650     1.2640 O.2   1 <1>  -0.5700 
 21 N        5.7650     2.7070     0.2480 N.am  1 <1>  -0.5790 
 22 C       -4.6020    -3.4580     2.0350 C.3   1 <1>   0.0400 
 23 C        6.6650     3.6020     0.9900 C.3   1 <1>   0.0490 
 24 C        7.8200     4.1990     0.2590 C.3   1 <1>  -0.2000 
 25 C        8.0480     3.1230     1.2780 C.3   1 <1>  -0.2000 
 26 H        1.1740     1.9290    -2.8300 H     1 <1>   0.0800 
 27 H        2.4850     0.7770    -2.8610 H     1 <1>   0.0800 
 28 H        2.6350    -0.9180    -1.0500 H     1 <1>   0.0800 
 29 H        1.3990    -0.9420     0.1830 H     1 <1>   0.0800 
 30 H       -1.0560    -3.0980    -1.5800 H     1 <1>   0.1500 
 31 H       -1.4070     0.8170    -0.0210 H     1 <1>   0.1500 
 32 H        2.0350     2.9950    -0.8460 H     1 <1>   0.0800 
 33 H        3.2710     2.9670    -2.0660 H     1 <1>   0.0800 
 34 H        3.4790     0.0520     1.0440 H     1 <1>   0.0800 
 35 H        2.1570     1.1780     1.0800 H     1 <1>   0.0800 
 36 H       -2.9610     0.0070     1.6960 H     1 <1>   0.1500 
 37 H        4.3390     1.0480    -1.0070 H     1 <1>   0.0800 
 38 H       -2.5260    -6.1670    -0.4320 H     1 <1>   0.0800 
 39 H       -1.0610    -5.2060    -0.5910 H     1 <1>   0.0800 
 40 H       -2.4190    -4.9580    -1.7060 H     1 <1>   0.0800 
 41 H        6.2230     2.1370    -0.4600 H     1 <1>   0.3700 
 42 H       -5.3660    -3.3350     2.7800 H     1 <1>   0.0800 
 43 H       -3.9980    -4.3160     2.2720 H     1 <1>   0.0800 
 44 H       -5.0480    -3.5580     1.0620 H     1 <1>   0.0800 
 45 H        6.1580     4.1990     1.7340 H     1 <1>   0.1000 
 46 H        8.1180     5.2030     0.5040 H     1 <1>   0.1000 
 47 H        7.9530     3.9710    -0.7840 H     1 <1>   0.1000 
 48 H        8.3400     2.1420     0.9500 H     1 <1>   0.1000 
 49 H        8.5020     3.3980     2.2140 H     1 <1>   0.1000 
@<TRIPOS>BOND
  1   1   2  2   
  2   1   3  2   
  3   1   4  am  
  4   1   5  1   
  5   4   6  1   
  6   4   7  1   
  7   5   8  ar  
  8   5   9  ar  
  9   6  10  1   
 10   6  26  1   
 11   6  27  1   
 12   7  11  1   
 13   7  28  1   
 14   7  29  1   
 15   8  12  ar  
 16   8  30  1   
 17   9  13  ar  
 18   9  31  1   
 19  10  14  1   
 20  10  32  1   
 21  10  33  1   
 22  11  14  1   
 23  11  34  1   
 24  11  35  1   
 25  12  15  1   
 26  12  16  ar  
 27  13  16  ar  
 28  13  36  1   
 29  14  17  1   
 30  14  37  1   
 31  15  18  1   
 32  16  19  1   
 33  17  20  2   
 34  17  21  am  
 35  18  38  1   
 36  18  39  1   
 37  18  40  1   
 38  19  22  1   
 39  21  23  1   
 40  21  41  1   
 41  22  42  1   
 42  22  43  1   
 43  22  44  1   
 44  23  24  1   
 45  23  25  1   
 46  23  45  1   
 47  24  25  1   
 48  24  46  1   
 49  24  47  1   
 50  25  48  1   
 51  25  49  1   
@<TRIPOS>SUBSTRUCTURE
  1 ****   7 GROUP 4 **** **** 0

# MOE 2024.06 (io_trps.svl 2023.06)
