@<TRIPOS>MOLECULE
NONAME
39 40 1 0 0 
SMALL
USER_CHARGES


@<TRIPOS>ATOM
  1 O       -0.6750    -0.0350    -0.0050 O.2   1 <1>  -0.5700 
  2 C       -1.6620    -0.7430    -0.0050 C.2   1 <1>   0.7060 
  3 O       -2.8610    -0.1630    -0.0080 O.3   1 <1>  -0.2330 
  4 C       -1.6030    -2.1650    -0.0030 C.2   1 <1>  -0.1360 
  5 C       -4.0240    -0.8580    -0.0080 C.ar  1 <1>   0.0820 
  6 C       -2.7180    -2.9330    -0.0030 C.2   1 <1>  -0.1670 
  7 C       -3.9950    -2.2650    -0.0060 C.ar  1 <1>   0.0280 
  8 C       -5.2250    -0.1500    -0.0110 C.ar  1 <1>  -0.1440 
  9 C       -2.6880    -4.4660     0.0000 C.3   1 <1>  -0.0220 
 10 C       -5.2250    -2.9300    -0.0060 C.ar  1 <1>  -0.1500 
 11 C       -6.4280    -0.8450    -0.0120 C.ar  1 <1>   0.0830 
 12 C       -5.2560     1.3800    -0.0140 C.3   1 <1>  -0.0960 
 13 C       -1.2860    -5.0930     0.0030 C.3   1 <1>  -0.1600 
 14 C       -6.4170    -2.2390    -0.0090 C.ar  1 <1>  -0.1500 
 15 O       -7.5780    -0.1270    -0.0150 O.3   1 <1>  -0.3630 
 16 C       -1.3600    -6.6260     0.0060 C.3   1 <1>  -0.1600 
 17 C       -8.8500    -0.7320    -0.0150 C.3   1 <1>   0.1200 
 18 C        0.0410    -7.2430     0.0090 C.3   1 <1>  -0.2400 
 19 C       -9.8980     0.3760    -0.0190 C.3   1 <1>  -0.2400 
 20 H       -0.6060    -2.5590     0.0000 H     1 <1>   0.1500 
 21 H       -3.2130    -4.8180    -0.8710 H     1 <1>   0.0800 
 22 H       -3.2160    -4.8150     0.8710 H     1 <1>   0.0800 
 23 H       -5.2610    -4.0030    -0.0040 H     1 <1>   0.1500 
 24 H       -4.2750     1.8160    -0.0150 H     1 <1>   0.0800 
 25 H       -5.7790     1.7310     0.8570 H     1 <1>   0.0800 
 26 H       -5.7780     1.7270    -0.8880 H     1 <1>   0.0800 
 27 H       -0.7490    -4.7660     0.8780 H     1 <1>   0.0800 
 28 H       -0.7470    -4.7690    -0.8710 H     1 <1>   0.0800 
 29 H       -7.3320    -2.7990    -0.0090 H     1 <1>   0.1500 
 30 H       -1.8930    -6.9660    -0.8660 H     1 <1>   0.0800 
 31 H       -1.8950    -6.9630     0.8770 H     1 <1>   0.0800 
 32 H       -8.9390    -1.3380     0.8700 H     1 <1>   0.0800 
 33 H       -8.9370    -1.3410    -0.8990 H     1 <1>   0.0800 
 34 H        0.5890    -6.9390    -0.8660 H     1 <1>   0.0800 
 35 H       -0.0300    -8.3170     0.0110 H     1 <1>   0.0800 
 36 H        0.5870    -6.9360     0.8840 H     1 <1>   0.0800 
 37 H       -9.7910     0.9890     0.8580 H     1 <1>   0.0800 
 38 H      -10.8830    -0.0540    -0.0200 H     1 <1>   0.0800 
 39 H       -9.7880     0.9860    -0.8980 H     1 <1>   0.0800 
@<TRIPOS>BOND
  1   1   2  2   
  2   2   3  1   
  3   2   4  1   
  4   3   5  1   
  5   4   6  2   
  6   4  20  1   
  7   5   7  ar  
  8   5   8  ar  
  9   6   7  1   
 10   6   9  1   
 11   7  10  ar  
 12   8  11  ar  
 13   8  12  1   
 14   9  13  1   
 15   9  21  1   
 16   9  22  1   
 17  10  14  ar  
 18  10  23  1   
 19  11  14  ar  
 20  11  15  1   
 21  12  24  1   
 22  12  25  1   
 23  12  26  1   
 24  13  16  1   
 25  13  27  1   
 26  13  28  1   
 27  14  29  1   
 28  15  17  1   
 29  16  18  1   
 30  16  30  1   
 31  16  31  1   
 32  17  19  1   
 33  17  32  1   
 34  17  33  1   
 35  18  34  1   
 36  18  35  1   
 37  18  36  1   
 38  19  37  1   
 39  19  38  1   
 40  19  39  1   
@<TRIPOS>SUBSTRUCTURE
  1 ****   7 GROUP 4 **** **** 0

# MOE 2024.06 (io_trps.svl 2023.06)
