@<TRIPOS>MOLECULE
NONAME
41 44 1 0 0 
SMALL
USER_CHARGES


@<TRIPOS>ATOM
  1 O        0.3010     0.6810    -0.8570 O.2   1 <1>  -0.5700 
  2 C        0.4640     1.6990    -0.2360 C.2   1 <1>   0.5690 
  3 N        1.6530     2.2640     0.2080 N.am  1 <1>  -0.2370 
  4 C       -0.6510     2.5760     0.2450 C.3   1 <1>  -0.0190 
  5 C        2.9140     1.6220     0.2470 C.ar  1 <1>   0.1170 
  6 C        1.3890     3.5660     0.6120 C.2   1 <1>   0.5690 
  7 C       -2.0990     2.9750    -0.1010 C.3   1 <1>   0.4180 
  8 C        0.0410     3.9200     0.0720 C.3   1 <1>  -0.0190 
  9 C        4.0870     2.3290     0.0050 C.ar  1 <1>  -0.1500 
 10 C        3.0160     0.2650     0.5270 C.ar  1 <1>  -0.1500 
 11 O        2.0820     4.3170     1.2470 O.2   1 <1>  -0.5700 
 12 O       -1.9390     4.2200    -0.7010 O.3   1 <1>  -0.5600 
 13 C       -2.6630     3.4830     1.2090 C.2   1 <1>  -0.2880 
 14 C       -2.9640     2.0520    -0.9430 C.3   1 <1>  -0.2400 
 15 C       -1.1400     4.8700     0.2360 C.3   1 <1>   0.4180 
 16 C        5.3280     1.7140     0.0410 C.ar  1 <1>  -0.1440 
 17 C        4.2480    -0.3600     0.5640 C.ar  1 <1>  -0.1500 
 18 C       -2.0220     4.6250     1.4470 C.2   1 <1>  -0.2880 
 19 C       -0.9480     6.3260    -0.1660 C.3   1 <1>  -0.2400 
 20 C        5.4110     0.3550     0.3230 C.ar  1 <1>  -0.1430 
 21 C        6.5750     2.5450    -0.2270 C.3   1 <1>  -0.0970 
 22 C        6.7490    -0.3700     0.3730 C.3   1 <1>  -0.0970 
 23 H       -0.6820     2.3030     1.2880 H     1 <1>   0.0800 
 24 H        0.2890     4.0590    -0.9710 H     1 <1>   0.0800 
 25 H        4.0290     3.3810    -0.2110 H     1 <1>   0.1500 
 26 H        2.1320    -0.3160     0.7160 H     1 <1>   0.1500 
 27 H       -3.3970     2.9250     1.7630 H     1 <1>   0.1500 
 28 H       -2.4800     1.8530    -1.8820 H     1 <1>   0.0800 
 29 H       -3.9210     2.5090    -1.1190 H     1 <1>   0.0800 
 30 H       -3.1110     1.1210    -0.4280 H     1 <1>   0.0800 
 31 H        4.2950    -1.4120     0.7820 H     1 <1>   0.1500 
 32 H       -2.0490     5.3200     2.2680 H     1 <1>   0.1500 
 33 H       -0.3040     6.8120     0.5420 H     1 <1>   0.0800 
 34 H       -1.8980     6.8290    -0.1720 H     1 <1>   0.0800 
 35 H       -0.5040     6.3910    -1.1420 H     1 <1>   0.0800 
 36 H        6.3220     3.5740    -0.4080 H     1 <1>   0.0800 
 37 H        7.0910     2.1670    -1.0910 H     1 <1>   0.0800 
 38 H        7.2330     2.5060     0.6210 H     1 <1>   0.0800 
 39 H        7.3710     0.0590     1.1380 H     1 <1>   0.0800 
 40 H        7.2490    -0.2860    -0.5750 H     1 <1>   0.0800 
 41 H        6.6150    -1.4130     0.5920 H     1 <1>   0.0800 
@<TRIPOS>BOND
  1   1   2  2   
  2   2   3  am  
  3   2   4  1   
  4   3   5  1   
  5   3   6  am  
  6   4   7  1   
  7   4   8  1   
  8   4  23  1   
  9   5   9  ar  
 10   5  10  ar  
 11   6   8  1   
 12   6  11  2   
 13   7  12  1   
 14   7  13  1   
 15   7  14  1   
 16   8  15  1   
 17   8  24  1   
 18   9  16  ar  
 19   9  25  1   
 20  10  17  ar  
 21  10  26  1   
 22  12  15  1   
 23  13  18  2   
 24  13  27  1   
 25  14  28  1   
 26  14  29  1   
 27  14  30  1   
 28  15  18  1   
 29  15  19  1   
 30  16  20  ar  
 31  16  21  1   
 32  17  20  ar  
 33  17  31  1   
 34  18  32  1   
 35  19  33  1   
 36  19  34  1   
 37  19  35  1   
 38  20  22  1   
 39  21  36  1   
 40  21  37  1   
 41  21  38  1   
 42  22  39  1   
 43  22  40  1   
 44  22  41  1   
@<TRIPOS>SUBSTRUCTURE
  1 ****   3 GROUP 4 **** **** 0

# MOE 2024.06 (io_trps.svl 2023.06)
