@<TRIPOS>MOLECULE
NONAME
42 43 1 0 0 
SMALL
USER_CHARGES


@<TRIPOS>ATOM
  1 O       -0.9260    -0.9960     0.7650 O.3   1 <1>  -0.5600 
  2 C       -1.7110    -0.2120     1.6230 C.3   1 <1>   0.1200 
  3 C       -0.8420    -0.5050    -0.5460 C.3   1 <1>   0.1200 
  4 C       -3.1600    -0.0890     1.0960 C.3   1 <1>   0.3430 
  5 C       -2.2450    -0.3520    -1.1790 C.3   1 <1>   0.3430 
  6 N       -3.3270    -0.7820    -0.2300 N.4   1 <1>  -0.9590 
  7 C       -4.6890    -0.6660    -0.8190 C.3   1 <1>   0.3430 
  8 C       -5.7040    -1.4170     0.0390 C.3   1 <1>  -0.1600 
  9 C       -7.0830    -1.4060    -0.6190 C.3   1 <1>   0.1200 
 10 O       -7.9530    -2.0980     0.2390 O.3   1 <1>  -0.3630 
 11 C       -9.2670    -2.2860    -0.0590 C.ar  1 <1>   0.0830 
 12 C      -10.0490    -3.0190     0.8380 C.ar  1 <1>  -0.1430 
 13 C       -9.8410    -1.7760    -1.2210 C.ar  1 <1>  -0.1500 
 14 C      -11.3930    -3.2450     0.5510 C.ar  1 <1>  -0.1430 
 15 C       -9.4390    -3.5810     2.1230 C.3   1 <1>  -0.0970 
 16 C      -11.1760    -1.9980    -1.4930 C.ar  1 <1>  -0.1500 
 17 C      -11.9470    -2.7300    -0.6110 C.ar  1 <1>  -0.1500 
 18 C      -12.2920    -4.0520     1.4800 C.3   1 <1>  -0.0970 
 19 H       -1.2540     0.7590     1.7180 H     1 <1>   0.0800 
 20 H       -1.7070    -0.6810     2.5920 H     1 <1>   0.0800 
 21 H       -0.2510    -1.1990    -1.1180 H     1 <1>   0.0800 
 22 H       -0.3250     0.4400    -0.5280 H     1 <1>   0.0800 
 23 H       -3.4100     0.9550     1.0020 H     1 <1>   0.0800 
 24 H       -3.8290    -0.5180     1.8240 H     1 <1>   0.0800 
 25 H       -2.2870    -0.9420    -2.0800 H     1 <1>   0.0800 
 26 H       -2.3890     0.6790    -1.4600 H     1 <1>   0.0800 
 27 H       -3.1240    -1.7750    -0.0340 H     1 <1>   0.4500 
 28 H       -4.6880    -1.0940    -1.8100 H     1 <1>   0.0800 
 29 H       -4.9710     0.3720    -0.9000 H     1 <1>   0.0800 
 30 H       -5.7930    -0.9520     1.0040 H     1 <1>   0.0800 
 31 H       -5.3940    -2.4400     0.1580 H     1 <1>   0.0800 
 32 H       -7.0700    -1.9170    -1.5670 H     1 <1>   0.0800 
 33 H       -7.4550    -0.4020    -0.7340 H     1 <1>   0.0800 
 34 H       -9.2740    -1.2060    -1.9300 H     1 <1>   0.1500 
 35 H      -10.0990    -3.4210     2.9550 H     1 <1>   0.0800 
 36 H       -9.2680    -4.6360     2.0100 H     1 <1>   0.0800 
 37 H       -8.5050    -3.1100     2.3670 H     1 <1>   0.0800 
 38 H      -11.6190    -1.6030    -2.3900 H     1 <1>   0.1500 
 39 H      -12.9850    -2.8960    -0.8370 H     1 <1>   0.1500 
 40 H      -12.4610    -3.5070     2.3910 H     1 <1>   0.0800 
 41 H      -11.8350    -4.9960     1.7130 H     1 <1>   0.0800 
 42 H      -13.2440    -4.2480     1.0220 H     1 <1>   0.0800 
@<TRIPOS>BOND
  1   1   2  1   
  2   1   3  1   
  3   2   4  1   
  4   2  19  1   
  5   2  20  1   
  6   3   5  1   
  7   3  21  1   
  8   3  22  1   
  9   4   6  1   
 10   4  23  1   
 11   4  24  1   
 12   5   6  1   
 13   5  25  1   
 14   5  26  1   
 15   6   7  1   
 16   6  27  1   
 17   7   8  1   
 18   7  28  1   
 19   7  29  1   
 20   8   9  1   
 21   8  30  1   
 22   8  31  1   
 23   9  10  1   
 24   9  32  1   
 25   9  33  1   
 26  10  11  1   
 27  11  12  ar  
 28  11  13  ar  
 29  12  14  ar  
 30  12  15  1   
 31  13  16  ar  
 32  13  34  1   
 33  14  17  ar  
 34  14  18  1   
 35  15  35  1   
 36  15  36  1   
 37  15  37  1   
 38  16  17  ar  
 39  16  38  1   
 40  17  39  1   
 41  18  40  1   
 42  18  41  1   
 43  18  42  1   
@<TRIPOS>SUBSTRUCTURE
  1 ****   9 GROUP 4 **** **** 0

# MOE 2024.06 (io_trps.svl 2023.06)
