@<TRIPOS>MOLECULE
NONAME
40 41 1 0 0 
SMALL
USER_CHARGES


@<TRIPOS>ATOM
  1 O       -0.7750     0.5050     0.5410 O.2   1 <1>  -0.5700 
  2 C       -1.1700     1.5550     0.0650 C.2   1 <1>   0.7150 
  3 N       -2.4560     1.6020    -0.4370 N.am  1 <1>  -0.6600 
  4 C       -0.3050     2.7160     0.0260 C.2   1 <1>   0.0550 
  5 C       -3.2470     0.3520    -0.6730 C.3   1 <1>   0.1400 
  6 C       -3.2920     2.8400    -0.3960 C.3   1 <1>   0.1400 
  7 O        0.5070     3.0050     1.0390 O.3   1 <1>  -0.2800 
  8 C       -0.1410     3.6700    -0.9350 C.2   1 <1>  -0.1500 
  9 C       -4.3720     0.2150     0.3620 C.3   1 <1>   0.1400 
 10 C       -4.4300     2.6970     0.6300 C.3   1 <1>   0.1400 
 11 C        1.1750     4.0990     0.7540 C.2   1 <1>  -0.0100 
 12 C        0.8180     4.5660    -0.4610 C.2   1 <1>  -0.1500 
 13 N       -5.2190     1.4500     0.3830 N.am  1 <1>  -0.6600 
 14 C       -6.5680     1.3920     0.1370 C.2   1 <1>   0.5690 
 15 O       -7.1190     0.3460    -0.1150 O.2   1 <1>  -0.5700 
 16 C       -7.4000     2.6620     0.1690 C.3   1 <1>  -0.0990 
 17 C       -8.8860     2.4050    -0.0670 C.3   1 <1>   0.1200 
 18 O       -9.5350     3.6340    -0.0250 O.3   1 <1>  -0.5600 
 19 C      -10.9040     3.5490    -0.2290 C.3   1 <1>   0.1200 
 20 C      -11.4670     4.9630    -0.1570 C.3   1 <1>  -0.2400 
 21 H       -2.6120    -0.5160    -0.6260 H     1 <1>   0.0800 
 22 H       -3.6770     0.3860    -1.6590 H     1 <1>   0.0800 
 23 H       -3.7120     3.0140    -1.3710 H     1 <1>   0.0800 
 24 H       -2.6980     3.6960    -0.1320 H     1 <1>   0.0800 
 25 H       -0.6360     3.7340    -1.8880 H     1 <1>   0.1500 
 26 H       -3.9400     0.0620     1.3360 H     1 <1>   0.0800 
 27 H       -4.9640    -0.6520     0.1260 H     1 <1>   0.0800 
 28 H       -5.0520     3.5710     0.5850 H     1 <1>   0.0800 
 29 H       -4.0060     2.6500     1.6190 H     1 <1>   0.0800 
 30 H        1.8860     4.4780     1.4680 H     1 <1>   0.1500 
 31 H        1.1830     5.4360    -0.9780 H     1 <1>   0.1500 
 32 H       -7.0430     3.3250    -0.5960 H     1 <1>   0.0800 
 33 H       -7.2830     3.1250     1.1300 H     1 <1>   0.0800 
 34 H       -9.2880     1.7680     0.7030 H     1 <1>   0.0800 
 35 H       -9.0440     1.9570    -1.0340 H     1 <1>   0.0800 
 36 H      -11.3330     2.9280     0.5390 H     1 <1>   0.0800 
 37 H      -11.0860     3.1160    -1.1990 H     1 <1>   0.0800 
 38 H      -11.2670     5.3890     0.8100 H     1 <1>   0.0800 
 39 H      -12.5300     4.9400    -0.3110 H     1 <1>   0.0800 
 40 H      -11.0210     5.5760    -0.9190 H     1 <1>   0.0800 
@<TRIPOS>BOND
  1   1   2  2   
  2   2   3  am  
  3   2   4  1   
  4   3   5  1   
  5   3   6  1   
  6   4   7  1   
  7   4   8  2   
  8   5   9  1   
  9   5  21  1   
 10   5  22  1   
 11   6  10  1   
 12   6  23  1   
 13   6  24  1   
 14   7  11  1   
 15   8  12  1   
 16   8  25  1   
 17   9  13  1   
 18   9  26  1   
 19   9  27  1   
 20  10  13  1   
 21  10  28  1   
 22  10  29  1   
 23  11  12  2   
 24  11  30  1   
 25  12  31  1   
 26  13  14  am  
 27  14  15  2   
 28  14  16  1   
 29  16  17  1   
 30  16  32  1   
 31  16  33  1   
 32  17  18  1   
 33  17  34  1   
 34  17  35  1   
 35  18  19  1   
 36  19  20  1   
 37  19  36  1   
 38  19  37  1   
 39  20  38  1   
 40  20  39  1   
 41  20  40  1   
@<TRIPOS>SUBSTRUCTURE
  1 ****  10 GROUP 4 **** **** 0

# MOE 2024.06 (io_trps.svl 2023.06)
