@<TRIPOS>MOLECULE
NONAME
47 49 1 0 0 
SMALL
USER_CHARGES


@<TRIPOS>ATOM
  1 S        0.4120    -0.3960    -0.5350 S.o2  1 <1>   1.4470 
  2 O        1.0090    -1.2360    -1.5470 O.2   1 <1>  -0.6500 
  3 O        1.1300    -0.1600     0.6980 O.2   1 <1>  -0.6500 
  4 N        0.2730     1.1670    -1.2670 N.am  1 <1>  -0.6930 
  5 C       -1.3020    -0.9070    -0.2310 C.ar  1 <1>  -0.0090 
  6 C       -0.7810     2.0310    -0.9900 C.ar  1 <1>   0.1990 
  7 C        1.2750     1.5370    -2.3150 C.3   1 <1>   0.2570 
  8 C       -1.9590    -1.7740    -1.0960 C.ar  1 <1>  -0.1500 
  9 C       -2.0120    -0.4180     0.8590 C.ar  1 <1>  -0.1500 
 10 C       -0.7030     3.0290    -0.0140 C.ar  1 <1>  -0.1430 
 11 C       -1.9600     1.8900    -1.7150 C.ar  1 <1>  -0.1500 
 12 C        2.6740     1.9080    -1.8050 C.2   1 <1>   0.5690 
 13 C       -3.2760    -2.1430    -0.8800 C.ar  1 <1>  -0.1500 
 14 C       -3.3290    -0.7810     1.0800 C.ar  1 <1>  -0.1500 
 15 C       -1.7980     3.8450     0.2200 C.ar  1 <1>  -0.1500 
 16 C        0.5610     3.2560     0.8070 C.3   1 <1>  -0.0960 
 17 C       -3.0470     2.7070    -1.4760 C.ar  1 <1>  -0.1500 
 18 O        3.3780     2.5640    -2.5380 O.2   1 <1>  -0.5700 
 19 N        3.0990     1.5140    -0.5710 N.am  1 <1>  -0.5790 
 20 C       -3.9690    -1.6480     0.2110 C.ar  1 <1>  -0.1430 
 21 C       -2.9670     3.6870    -0.5040 C.ar  1 <1>  -0.1500 
 22 C        4.4030     1.8080     0.0330 C.3   1 <1>   0.0490 
 23 C       -5.4140    -2.0460     0.4510 C.3   1 <1>  -0.0970 
 24 C        4.9990     0.7770     0.9310 C.3   1 <1>  -0.2000 
 25 C        4.4470     2.0480     1.5050 C.3   1 <1>  -0.2000 
 26 H        0.9010     2.3830    -2.8630 H     1 <1>   0.0800 
 27 H        1.3780     0.7290    -3.0160 H     1 <1>   0.0800 
 28 H       -1.4360    -2.1700    -1.9500 H     1 <1>   0.1500 
 29 H       -1.5310     0.2610     1.5430 H     1 <1>   0.1500 
 30 H       -2.0250     1.1290    -2.4710 H     1 <1>   0.1500 
 31 H       -3.7590    -2.8170    -1.5660 H     1 <1>   0.1500 
 32 H       -3.8540    -0.3830     1.9310 H     1 <1>   0.1500 
 33 H       -1.7520     4.6170     0.9690 H     1 <1>   0.1500 
 34 H        0.8640     2.3470     1.2910 H     1 <1>   0.0800 
 35 H        0.4000     3.9970     1.5680 H     1 <1>   0.0800 
 36 H        1.3560     3.5990     0.1700 H     1 <1>   0.0800 
 37 H       -3.9550     2.5810    -2.0410 H     1 <1>   0.1500 
 38 H        2.4710     0.9660     0.0320 H     1 <1>   0.3700 
 39 H       -3.8110     4.3270    -0.3120 H     1 <1>   0.1500 
 40 H        5.0560     2.3780    -0.6100 H     1 <1>   0.1000 
 41 H       -5.6060    -3.0260     0.0510 H     1 <1>   0.0800 
 42 H       -6.0700    -1.3410    -0.0260 H     1 <1>   0.0800 
 43 H       -5.6290    -2.0640     1.5040 H     1 <1>   0.0800 
 44 H        6.0660     0.6410     0.9240 H     1 <1>   0.1000 
 45 H        4.4630    -0.1440     1.0860 H     1 <1>   0.1000 
 46 H        3.5320     2.0060     2.0680 H     1 <1>   0.1000 
 47 H        5.1400     2.7760     1.8890 H     1 <1>   0.1000 
@<TRIPOS>BOND
  1   1   2  2   
  2   1   3  2   
  3   1   4  am  
  4   1   5  1   
  5   4   6  1   
  6   4   7  1   
  7   5   8  ar  
  8   5   9  ar  
  9   6  10  ar  
 10   6  11  ar  
 11   7  12  1   
 12   7  26  1   
 13   7  27  1   
 14   8  13  ar  
 15   8  28  1   
 16   9  14  ar  
 17   9  29  1   
 18  10  15  ar  
 19  10  16  1   
 20  11  17  ar  
 21  11  30  1   
 22  12  18  2   
 23  12  19  am  
 24  13  20  ar  
 25  13  31  1   
 26  14  20  ar  
 27  14  32  1   
 28  15  21  ar  
 29  15  33  1   
 30  16  34  1   
 31  16  35  1   
 32  16  36  1   
 33  17  21  ar  
 34  17  37  1   
 35  19  22  1   
 36  19  38  1   
 37  20  23  1   
 38  21  39  1   
 39  22  24  1   
 40  22  25  1   
 41  22  40  1   
 42  23  41  1   
 43  23  42  1   
 44  23  43  1   
 45  24  25  1   
 46  24  44  1   
 47  24  45  1   
 48  25  46  1   
 49  25  47  1   
@<TRIPOS>SUBSTRUCTURE
  1 ****   4 GROUP 4 **** **** 0

# MOE 2024.06 (io_trps.svl 2023.06)
