@<TRIPOS>MOLECULE
Structure918
19 20 1 0 0 
SMALL
USER_CHARGES


@<TRIPOS>ATOM
  1 O       -0.1970    -0.4790    -0.7320 O.co2 1 <1>  -0.9000 
  2 C        0.0640    -1.3910     0.0680 C.2   1 <1>   0.9790 
  3 O       -0.6450    -1.5270     1.0780 O.co2 1 <1>  -0.9000 
  4 C        1.2110    -2.2260    -0.1640 C.ar  1 <1>  -0.1790 
  5 C        1.2570    -3.5860     0.0820 C.ar  1 <1>   0.2780 
  6 C        2.3620    -1.6580    -0.6650 C.ar  1 <1>   0.1600 
  7 N        2.3510    -4.2950    -0.1160 N.ar  1 <1>  -0.6200 
  8 C        0.0390    -4.3510     0.5870 C.3   1 <1>  -0.0680 
  9 N        3.4680    -2.3380    -0.8800 N.ar  1 <1>  -0.6200 
 10 C        3.3870    -3.6220    -0.5820 C.ar  1 <1>   0.4700 
 11 C       -0.3560    -5.6860     0.0240 C.3   1 <1>  -0.2000 
 12 C       -1.1660    -4.4720    -0.2990 C.3   1 <1>  -0.2000 
 13 H        2.3570    -0.6030    -0.8920 H     1 <1>   0.1500 
 14 H       -0.1460    -4.1610     1.6300 H     1 <1>   0.1000 
 15 H        4.2820    -4.1970    -0.7440 H     1 <1>   0.1500 
 16 H       -0.7600    -6.4210     0.6960 H     1 <1>   0.1000 
 17 H        0.2650    -6.1170    -0.7410 H     1 <1>   0.1000 
 18 H       -1.1080    -4.0390    -1.2830 H     1 <1>   0.1000 
 19 H       -2.1220    -4.3060     0.1640 H     1 <1>   0.1000 
@<TRIPOS>BOND
  1   1   2  ar  
  2   2   3  ar  
  3   2   4  1   
  4   4   5  ar  
  5   4   6  ar  
  6   5   7  ar  
  7   5   8  1   
  8   6   9  ar  
  9   6  13  1   
 10   7  10  ar  
 11   8  11  1   
 12   8  12  1   
 13   8  14  1   
 14   9  10  ar  
 15  10  15  1   
 16  11  12  1   
 17  11  16  1   
 18  11  17  1   
 19  12  18  1   
 20  12  19  1   
@<TRIPOS>SUBSTRUCTURE
  1 ****   5 GROUP 4 **** **** 0

# MOE 2024.06 (io_trps.svl 2023.06)
