@<TRIPOS>MOLECULE
NONAME
42 45 1 0 0 
SMALL
USER_CHARGES


@<TRIPOS>ATOM
  1 O       -1.0980    -1.0660     1.5290 O.3   1 <1>  -0.5600 
  2 C       -1.9170    -2.1460     1.8860 C.3   1 <1>   0.1200 
  3 C       -1.7850    -0.0010     0.9310 C.3   1 <1>   0.1200 
  4 C       -2.6560    -2.7100     0.6580 C.3   1 <1>   0.2090 
  5 C       -2.5170    -0.4610    -0.3420 C.3   1 <1>   0.2090 
  6 N       -3.4080    -1.6270    -0.0510 N.pl3 1 <1>  -0.8380 
  7 C       -4.3190    -1.9860    -1.0430 C.ar  1 <1>   0.4100 
  8 N       -4.0290    -3.0170    -1.7740 N.ar  1 <1>  -0.5660 
  9 C       -5.5410    -1.1870    -1.2160 C.ar  1 <1>   0.4100 
 10 C       -4.9660    -3.2550    -2.7420 C.ar  1 <1>   0.5450 
 11 N       -6.4190    -1.4100    -2.1440 N.ar  1 <1>  -0.5660 
 12 N       -5.7440    -0.1710    -0.2930 N.pl3 1 <1>  -0.6000 
 13 N       -4.9760    -4.1790    -3.6290 N.2   1 <1>  -0.4100 
 14 C       -6.0980    -2.4870    -2.9230 C.ar  1 <1>   0.5450 
 15 C       -6.7140     0.8280    -0.1330 C.ar  1 <1>   0.1000 
 16 O       -6.0600    -4.0040    -4.3400 O.3   1 <1>   0.2420 
 17 N       -6.7460    -2.9750    -3.9140 N.2   1 <1>  -0.4100 
 18 C       -6.9880     1.3190     1.1460 C.ar  1 <1>  -0.1430 
 19 C       -7.3990     1.3680    -1.2170 C.ar  1 <1>  -0.1500 
 20 C       -7.9300     2.3210     1.3120 C.ar  1 <1>  -0.1500 
 21 C       -6.2720     0.7670     2.3730 C.3   1 <1>  -0.0970 
 22 C       -8.3410     2.3680    -1.0500 C.ar  1 <1>  -0.1430 
 23 C       -8.6050     2.8420     0.2220 C.ar  1 <1>  -0.1500 
 24 C       -9.0830     2.9380    -2.2450 C.3   1 <1>  -0.0970 
 25 H       -2.6210    -1.8140     2.6280 H     1 <1>   0.0800 
 26 H       -1.2890    -2.9040     2.3190 H     1 <1>   0.0800 
 27 H       -1.0630     0.7590     0.6890 H     1 <1>   0.0800 
 28 H       -2.4830     0.4010     1.6440 H     1 <1>   0.0800 
 29 H       -3.3410    -3.4790     0.9700 H     1 <1>   0.0800 
 30 H       -1.9400    -3.1530    -0.0130 H     1 <1>   0.0800 
 31 H       -1.7890    -0.7450    -1.0840 H     1 <1>   0.0800 
 32 H       -3.0940     0.3570    -0.7400 H     1 <1>   0.0800 
 33 H       -5.0790    -0.2550     0.4800 H     1 <1>   0.4000 
 34 H       -7.1890     1.0040    -2.2040 H     1 <1>   0.1500 
 35 H       -8.1510     2.7040     2.2920 H     1 <1>   0.1500 
 36 H       -5.2230     0.9950     2.3220 H     1 <1>   0.0800 
 37 H       -6.4030    -0.2990     2.4260 H     1 <1>   0.0800 
 38 H       -6.6690     1.1980     3.2750 H     1 <1>   0.0800 
 39 H       -9.3360     3.6170     0.3690 H     1 <1>   0.1500 
 40 H       -8.5620     2.7150    -3.1580 H     1 <1>   0.0800 
 41 H       -9.1690     4.0060    -2.1530 H     1 <1>   0.0800 
 42 H      -10.0680     2.5110    -2.2960 H     1 <1>   0.0800 
@<TRIPOS>BOND
  1   1   2  1   
  2   1   3  1   
  3   2   4  1   
  4   2  25  1   
  5   2  26  1   
  6   3   5  1   
  7   3  27  1   
  8   3  28  1   
  9   4   6  1   
 10   4  29  1   
 11   4  30  1   
 12   5   6  1   
 13   5  31  1   
 14   5  32  1   
 15   6   7  1   
 16   7   8  ar  
 17   7   9  ar  
 18   8  10  ar  
 19   9  11  ar  
 20   9  12  1   
 21  10  13  2   
 22  10  14  ar  
 23  11  14  ar  
 24  12  15  1   
 25  12  33  1   
 26  13  16  1   
 27  14  17  2   
 28  15  18  ar  
 29  15  19  ar  
 30  16  17  1   
 31  18  20  ar  
 32  18  21  1   
 33  19  22  ar  
 34  19  34  1   
 35  20  23  ar  
 36  20  35  1   
 37  21  36  1   
 38  21  37  1   
 39  21  38  1   
 40  22  23  ar  
 41  22  24  1   
 42  23  39  1   
 43  24  40  1   
 44  24  41  1   
 45  24  42  1   
@<TRIPOS>SUBSTRUCTURE
  1 ****   9 GROUP 4 **** **** 0

# MOE 2024.06 (io_trps.svl 2023.06)
