@<TRIPOS>MOLECULE
NONAME
47 49 1 0 0 
SMALL
USER_CHARGES


@<TRIPOS>ATOM
  1 CL      -1.3080    -0.0670    -0.8180 Cl    1 <1>  -0.1770 
  2 C       -0.1750    -1.1730    -0.0750 C.ar  1 <1>   0.1770 
  3 C       -0.1720    -2.5210    -0.4120 C.ar  1 <1>  -0.1440 
  4 C        0.7090    -0.6540     0.8530 C.ar  1 <1>  -0.1500 
  5 C        0.7660    -3.3440     0.1990 C.ar  1 <1>  -0.1500 
  6 C       -1.1560    -3.0820    -1.4380 C.3   1 <1>   0.2840 
  7 C        1.6290    -1.4900     1.4610 C.ar  1 <1>  -0.1500 
  8 C        1.6560    -2.8340     1.1300 C.ar  1 <1>  -0.1500 
  9 N       -1.6950    -4.4010    -1.0250 N.am  1 <1>  -0.4690 
 10 C       -1.2290    -5.5630    -1.5770 C.2   1 <1>   0.6900 
 11 C       -2.8220    -4.7370    -0.2950 C.2   1 <1>   0.2180 
 12 O       -0.2410    -5.6480    -2.2940 O.2   1 <1>  -0.5700 
 13 N       -2.0240    -6.6030    -1.2140 N.am  1 <1>  -0.4690 
 14 N       -3.6670    -3.9290     0.4700 N.am  1 <1>  -0.4690 
 15 C       -3.0520    -6.0670    -0.4170 C.2   1 <1>   0.1230 
 16 C       -1.7900    -8.0310    -1.5260 C.3   1 <1>   0.1400 
 17 C       -4.8150    -4.4920     1.0200 C.2   1 <1>   0.6900 
 18 C       -3.2850    -2.5380     0.8460 C.3   1 <1>   0.0600 
 19 C       -4.1910    -6.6730     0.1890 C.2   1 <1>   0.6160 
 20 C       -1.1900    -8.7730    -0.3230 C.3   1 <1>  -0.1600 
 21 O       -5.6220    -3.7880     1.6010 O.2   1 <1>  -0.5700 
 22 N       -5.0500    -5.8560     0.9090 N.am  1 <1>  -0.4200 
 23 O       -4.4370    -7.8670     0.0800 O.2   1 <1>  -0.5700 
 24 C        0.1650    -8.2030     0.1260 C.3   1 <1>  -0.1600 
 25 C       -6.2700    -6.4460     1.5400 C.3   1 <1>   0.0600 
 26 C        0.7700    -9.0450     1.2520 C.3   1 <1>  -0.2400 
 27 H        0.6780     0.3930     1.0940 H     1 <1>   0.1500 
 28 H        0.8170    -4.3920    -0.0470 H     1 <1>   0.1500 
 29 H       -0.6450    -3.1870    -2.3790 H     1 <1>   0.0800 
 30 H       -1.9820    -2.4170    -1.6020 H     1 <1>   0.0800 
 31 H        2.3220    -1.0980     2.1860 H     1 <1>   0.1500 
 32 H        2.3740    -3.4870     1.5960 H     1 <1>   0.1500 
 33 H       -1.1190    -8.1030    -2.3650 H     1 <1>   0.0800 
 34 H       -2.7240    -8.4870    -1.8070 H     1 <1>   0.0800 
 35 H       -3.4060    -1.8850     0.0010 H     1 <1>   0.0800 
 36 H       -2.2650    -2.5220     1.1830 H     1 <1>   0.0800 
 37 H       -3.8980    -2.1680     1.6490 H     1 <1>   0.0800 
 38 H       -1.0610    -9.8040    -0.6020 H     1 <1>   0.0800 
 39 H       -1.8880    -8.7490     0.4950 H     1 <1>   0.0800 
 40 H        0.0410    -7.1930     0.4760 H     1 <1>   0.0800 
 41 H        0.8440    -8.1830    -0.7100 H     1 <1>   0.0800 
 42 H       -6.5480    -5.8900     2.4180 H     1 <1>   0.0800 
 43 H       -6.0880    -7.4660     1.8330 H     1 <1>   0.0800 
 44 H       -7.0830    -6.4220     0.8370 H     1 <1>   0.0800 
 45 H        0.1130    -9.0620     2.1040 H     1 <1>   0.0800 
 46 H        1.7140    -8.6270     1.5560 H     1 <1>   0.0800 
 47 H        0.9350   -10.0550     0.9210 H     1 <1>   0.0800 
@<TRIPOS>BOND
  1   1   2  1   
  2   2   3  ar  
  3   2   4  ar  
  4   3   5  ar  
  5   3   6  1   
  6   4   7  ar  
  7   4  27  1   
  8   5   8  ar  
  9   5  28  1   
 10   6   9  1   
 11   6  29  1   
 12   6  30  1   
 13   7   8  ar  
 14   7  31  1   
 15   8  32  1   
 16   9  10  am  
 17   9  11  1   
 18  10  12  2   
 19  10  13  am  
 20  11  14  1   
 21  11  15  2   
 22  13  15  1   
 23  13  16  1   
 24  14  17  am  
 25  14  18  1   
 26  15  19  1   
 27  16  20  1   
 28  16  33  1   
 29  16  34  1   
 30  17  21  2   
 31  17  22  am  
 32  18  35  1   
 33  18  36  1   
 34  18  37  1   
 35  19  22  am  
 36  19  23  2   
 37  20  24  1   
 38  20  38  1   
 39  20  39  1   
 40  22  25  1   
 41  24  26  1   
 42  24  40  1   
 43  24  41  1   
 44  25  42  1   
 45  25  43  1   
 46  25  44  1   
 47  26  45  1   
 48  26  46  1   
 49  26  47  1   
@<TRIPOS>SUBSTRUCTURE
  1 ****  11 GROUP 4 **** **** 0

# MOE 2024.06 (io_trps.svl 2023.06)
