@<TRIPOS>MOLECULE
NONAME
50 52 1 0 0 
SMALL
USER_CHARGES


@<TRIPOS>ATOM
  1 CL       9.4030    -2.2210     2.8350 Cl    1 <1>  -0.1770 
  2 C        8.4430    -1.0950     1.9110 C.ar  1 <1>   0.1770 
  3 C        8.2940    -1.2870     0.5500 C.ar  1 <1>  -0.1500 
  4 C        7.8530    -0.0230     2.5530 C.ar  1 <1>  -0.1500 
  5 C        7.5450    -0.3810    -0.1820 C.ar  1 <1>  -0.1500 
  6 C        7.1070     0.8800     1.8160 C.ar  1 <1>  -0.1500 
  7 C        6.9540     0.7080     0.4460 C.ar  1 <1>  -0.1430 
  8 C        6.1780     1.7290    -0.3680 C.3   1 <1>   0.2840 
  9 N        7.1410     2.7680    -0.7410 N.am  1 <1>  -0.7300 
 10 C        7.4470     3.1540    -2.0020 C.2   1 <1>   0.5690 
 11 O        6.7290     2.9260    -2.9460 O.2   1 <1>  -0.5700 
 12 C        8.7980     3.8490    -2.1960 C.3   1 <1>   0.1710 
 13 N        9.8270     3.3580    -1.2330 N.3   1 <1>  -0.8100 
 14 C       11.0190     4.2310    -1.1730 C.3   1 <1>   0.1100 
 15 C       10.2480     1.9720    -1.5600 C.3   1 <1>   0.1100 
 16 C       12.0460     3.7190    -0.1420 C.3   1 <1>   0.2090 
 17 C       11.2540     1.4220    -0.5350 C.3   1 <1>   0.2090 
 18 N       12.4490     2.3110    -0.4320 N.pl3 1 <1>  -0.8380 
 19 C       13.4980     1.8210     0.3580 C.ar  1 <1>   0.1000 
 20 C       13.4050     1.5590     1.7360 C.ar  1 <1>   0.0830 
 21 C       14.7100     1.5790    -0.2740 C.ar  1 <1>  -0.1500 
 22 O       12.2350     1.7800     2.4000 O.3   1 <1>  -0.3630 
 23 C       14.5070     1.0870     2.4350 C.ar  1 <1>  -0.1500 
 24 C       15.8040     1.0990     0.4230 C.ar  1 <1>  -0.1500 
 25 C       11.6850     0.6920     3.1090 C.3   1 <1>   0.0400 
 26 C       15.7050     0.8530     1.7800 C.ar  1 <1>  -0.1500 
 27 H        8.7590    -2.1320     0.0740 H     1 <1>   0.1500 
 28 H        7.9800     0.1010     3.6130 H     1 <1>   0.1500 
 29 H        7.4290    -0.5180    -1.2440 H     1 <1>   0.1500 
 30 H        6.6530     1.7230     2.3100 H     1 <1>   0.1500 
 31 H        5.3860     2.1620     0.2170 H     1 <1>   0.0800 
 32 H        5.7530     1.2770    -1.2490 H     1 <1>   0.0800 
 33 H        7.9100     2.8910    -0.0720 H     1 <1>   0.3700 
 34 H        8.6440     4.9020    -2.0490 H     1 <1>   0.0800 
 35 H        9.1340     3.6950    -3.2060 H     1 <1>   0.0800 
 36 H       10.7190     5.2260    -0.8970 H     1 <1>   0.0800 
 37 H       11.4910     4.2750    -2.1400 H     1 <1>   0.0800 
 38 H       10.7030     1.9480    -2.5350 H     1 <1>   0.0800 
 39 H        9.3910     1.3230    -1.5750 H     1 <1>   0.0800 
 40 H       11.6170     3.7760     0.8430 H     1 <1>   0.0800 
 41 H       12.9200     4.3460    -0.1630 H     1 <1>   0.0800 
 42 H       11.5700     0.4380    -0.8310 H     1 <1>   0.0800 
 43 H       10.7660     1.3470     0.4200 H     1 <1>   0.0800 
 44 H       14.7820     1.7750    -1.3280 H     1 <1>   0.1500 
 45 H       14.4390     0.9080     3.4910 H     1 <1>   0.1500 
 46 H       16.7320     0.9200    -0.0920 H     1 <1>   0.1500 
 47 H       10.6760     0.9460     3.3800 H     1 <1>   0.0800 
 48 H       12.2670     0.5150     3.9950 H     1 <1>   0.0800 
 49 H       11.6870    -0.1760     2.4740 H     1 <1>   0.0800 
 50 H       16.5550     0.4850     2.3260 H     1 <1>   0.1500 
@<TRIPOS>BOND
  1   1   2  1   
  2   2   3  ar  
  3   2   4  ar  
  4   3   5  ar  
  5   3  27  1   
  6   4   6  ar  
  7   4  28  1   
  8   5   7  ar  
  9   5  29  1   
 10   6   7  ar  
 11   6  30  1   
 12   7   8  1   
 13   8   9  1   
 14   8  31  1   
 15   8  32  1   
 16   9  10  am  
 17   9  33  1   
 18  10  11  2   
 19  10  12  1   
 20  12  13  1   
 21  12  34  1   
 22  12  35  1   
 23  13  14  1   
 24  13  15  1   
 25  14  16  1   
 26  14  36  1   
 27  14  37  1   
 28  15  17  1   
 29  15  38  1   
 30  15  39  1   
 31  16  18  1   
 32  16  40  1   
 33  16  41  1   
 34  17  18  1   
 35  17  42  1   
 36  17  43  1   
 37  18  19  1   
 38  19  20  ar  
 39  19  21  ar  
 40  20  22  1   
 41  20  23  ar  
 42  21  24  ar  
 43  21  44  1   
 44  22  25  1   
 45  23  26  ar  
 46  23  45  1   
 47  24  26  ar  
 48  24  46  1   
 49  25  47  1   
 50  25  48  1   
 51  25  49  1   
 52  26  50  1   
@<TRIPOS>SUBSTRUCTURE
  1 ****  17 GROUP 4 **** **** 0

# MOE 2024.06 (io_trps.svl 2023.06)
