@<TRIPOS>MOLECULE
NONAME
38 39 1 0 0 
SMALL
USER_CHARGES


@<TRIPOS>ATOM
  1 I       -5.1710    -0.6460     1.1520 I     1 <1>  -0.0810 
  2 C       -3.6560     0.7240     0.5490 C.ar  1 <1>   0.0810 
  3 C       -3.7040     1.2460    -0.7300 C.ar  1 <1>  -0.1500 
  4 C       -2.6640     1.0560     1.4540 C.ar  1 <1>  -0.1500 
  5 C       -2.7150     2.1360    -1.1120 C.ar  1 <1>  -0.1500 
  6 C       -1.6800     1.9480     1.0590 C.ar  1 <1>  -0.1500 
  7 C       -1.7040     2.4900    -0.2270 C.ar  1 <1>   0.0830 
  8 O       -0.7790     3.3690    -0.6900 O.3   1 <1>  -0.3630 
  9 C        0.2900     3.8000     0.1200 C.3   1 <1>   0.1200 
 10 C        1.1370     4.7790    -0.6930 C.3   1 <1>  -0.1600 
 11 C        2.3240     5.2970     0.1300 C.3   1 <1>  -0.1600 
 12 C        3.1830     6.2800    -0.6730 C.3   1 <1>   0.0210 
 13 C        4.3400     6.7780     0.1750 C.2   1 <1>  -0.1810 
 14 C        4.3400     7.8930     1.0120 C.2   1 <1>   0.1080 
 15 C        5.5810     6.2560     0.2990 C.2   1 <1>  -0.3320 
 16 N        5.4770     8.0620     1.6070 N.2   1 <1>  -0.7070 
 17 C        3.1780     8.8360     1.2320 C.3   1 <1>  -0.0590 
 18 N        6.2440     7.0510     1.1650 N.pl3 1 <1>   0.3000 
 19 C        6.2060     5.0330    -0.3500 C.3   1 <1>  -0.0600 
 20 H       -4.4900     0.9670    -1.4100 H     1 <1>   0.1500 
 21 H       -2.6590     0.6300     2.4410 H     1 <1>   0.1500 
 22 H       -2.7190     2.5630    -2.0980 H     1 <1>   0.1500 
 23 H       -0.9100     2.2060     1.7610 H     1 <1>   0.1500 
 24 H        0.8700     2.9390     0.4040 H     1 <1>   0.0800 
 25 H       -0.1170     4.2830     0.9910 H     1 <1>   0.0800 
 26 H        0.5200     5.6070    -0.9960 H     1 <1>   0.0800 
 27 H        1.5010     4.2770    -1.5740 H     1 <1>   0.0800 
 28 H        2.9410     4.4710     0.4390 H     1 <1>   0.0800 
 29 H        1.9640     5.7890     1.0160 H     1 <1>   0.0800 
 30 H        2.5880     7.1160    -0.9960 H     1 <1>   0.0800 
 31 H        3.5680     5.7950    -1.5520 H     1 <1>   0.0800 
 32 H        2.2770     8.2790     1.4070 H     1 <1>   0.0800 
 33 H        3.0530     9.4610     0.3690 H     1 <1>   0.0800 
 34 H        3.3730     9.4580     2.0870 H     1 <1>   0.0800 
 35 H        7.2150     6.9300     1.4750 H     1 <1>   0.2700 
 36 H        5.4900     4.5230    -0.9680 H     1 <1>   0.0800 
 37 H        6.5500     4.3500     0.4050 H     1 <1>   0.0800 
 38 H        7.0390     5.3260    -0.9640 H     1 <1>   0.0800 
@<TRIPOS>BOND
  1   1   2  1   
  2   2   3  ar  
  3   2   4  ar  
  4   3   5  ar  
  5   3  20  1   
  6   4   6  ar  
  7   4  21  1   
  8   5   7  ar  
  9   5  22  1   
 10   6   7  ar  
 11   6  23  1   
 12   7   8  1   
 13   8   9  1   
 14   9  10  1   
 15   9  24  1   
 16   9  25  1   
 17  10  11  1   
 18  10  26  1   
 19  10  27  1   
 20  11  12  1   
 21  11  28  1   
 22  11  29  1   
 23  12  13  1   
 24  12  30  1   
 25  12  31  1   
 26  13  14  1   
 27  13  15  2   
 28  14  16  2   
 29  14  17  1   
 30  15  18  1   
 31  15  19  1   
 32  16  18  1   
 33  17  32  1   
 34  17  33  1   
 35  17  34  1   
 36  18  35  1   
 37  19  36  1   
 38  19  37  1   
 39  19  38  1   
@<TRIPOS>SUBSTRUCTURE
  1 ****   9 GROUP 4 **** **** 0

# MOE 2024.06 (io_trps.svl 2023.06)
