@<TRIPOS>MOLECULE
NONAME
36 36 1 0 0 
SMALL
USER_CHARGES


@<TRIPOS>ATOM
  1 S       -0.4130     0.2190     1.3900 S.o2  1 <1>   1.4470 
  2 O       -0.2990    -1.0340     2.1070 O.2   1 <1>  -0.6500 
  3 O       -1.2530     1.2700     1.9230 O.2   1 <1>  -0.6500 
  4 N       -1.0080    -0.1560    -0.1580 N.am  1 <1>  -0.8490 
  5 C        1.2320     0.8990     1.0400 C.ar  1 <1>  -0.0090 
  6 C       -2.4570    -0.3710    -0.1490 C.3   1 <1>   0.1160 
  7 C       -0.3330    -1.3070    -0.7670 C.3   1 <1>   0.1160 
  8 C        2.3880     0.2920     1.5180 C.ar  1 <1>  -0.1500 
  9 C        1.3790     2.0450     0.2700 C.ar  1 <1>  -0.1500 
 10 C        3.6410     0.8080     1.2350 C.ar  1 <1>  -0.1500 
 11 C        2.6290     2.5650    -0.0160 C.ar  1 <1>  -0.1500 
 12 C        3.7820     1.9520     0.4570 C.ar  1 <1>   0.1170 
 13 N        5.0210     2.5250     0.1440 N.am  1 <1>  -0.5470 
 14 C        6.3040     2.0100     0.0730 C.2   1 <1>   0.6300 
 15 O        6.4710     0.8230     0.3000 O.2   1 <1>  -0.5700 
 16 C        7.3940     2.9340    -0.2930 C.2   1 <1>   0.7200 
 17 O        7.1490     4.0970    -0.5530 O.2   1 <1>  -0.5700 
 18 O        8.6890     2.5880    -0.3650 O.3   1 <1>  -0.4300 
 19 C        9.2200     1.3090    -0.1060 C.3   1 <1>   0.1200 
 20 C       10.7320     1.3830    -0.2910 C.3   1 <1>  -0.2400 
 21 H       -2.9580     0.5140     0.2070 H     1 <1>   0.0800 
 22 H       -2.7100    -1.1950     0.4980 H     1 <1>   0.0800 
 23 H       -2.8090    -0.5800    -1.1440 H     1 <1>   0.0800 
 24 H        0.7280    -1.1310    -0.8170 H     1 <1>   0.0800 
 25 H       -0.6970    -1.4590    -1.7690 H     1 <1>   0.0800 
 26 H       -0.5110    -2.2000    -0.1900 H     1 <1>   0.0800 
 27 H        2.3080    -0.5960     2.1220 H     1 <1>   0.1500 
 28 H        0.4970     2.5340    -0.1100 H     1 <1>   0.1500 
 29 H        4.5090     0.3120     1.6300 H     1 <1>   0.1500 
 30 H        2.7040     3.4530    -0.6170 H     1 <1>   0.1500 
 31 H        4.9850     3.5120    -0.1300 H     1 <1>   0.3700 
 32 H        8.7860     0.6070    -0.7990 H     1 <1>   0.0800 
 33 H        8.9740     1.0280     0.9050 H     1 <1>   0.0800 
 34 H       10.9680     1.6730    -1.2990 H     1 <1>   0.0800 
 35 H       11.1680     0.4190    -0.1000 H     1 <1>   0.0800 
 36 H       11.1550     2.0930     0.3970 H     1 <1>   0.0800 
@<TRIPOS>BOND
  1   1   2  2   
  2   1   3  2   
  3   1   4  am  
  4   1   5  1   
  5   4   6  1   
  6   4   7  1   
  7   5   8  ar  
  8   5   9  ar  
  9   6  21  1   
 10   6  22  1   
 11   6  23  1   
 12   7  24  1   
 13   7  25  1   
 14   7  26  1   
 15   8  10  ar  
 16   8  27  1   
 17   9  11  ar  
 18   9  28  1   
 19  10  12  ar  
 20  10  29  1   
 21  11  12  ar  
 22  11  30  1   
 23  12  13  1   
 24  13  14  am  
 25  13  31  1   
 26  14  15  2   
 27  14  16  1   
 28  16  17  2   
 29  16  18  1   
 30  18  19  1   
 31  19  20  1   
 32  19  32  1   
 33  19  33  1   
 34  20  34  1   
 35  20  35  1   
 36  20  36  1   
@<TRIPOS>SUBSTRUCTURE
  1 ****  12 GROUP 4 **** **** 0

# MOE 2024.06 (io_trps.svl 2023.06)
