@<TRIPOS>MOLECULE
NONAME
37 37 1 0 0 
SMALL
USER_CHARGES


@<TRIPOS>ATOM
  1 S        0.2900    -0.2170    -0.4180 S.3   1 <1>  -0.3710 
  2 C        1.6390     0.8380     0.0360 C.2   1 <1>   0.6410 
  3 C       -1.2150     0.7780     0.0020 C.3   1 <1>   0.0700 
  4 N        2.8630     0.3020    -0.1810 N.pl3 1 <1>  -0.5500 
  5 N        1.4060     1.9990     0.5240 N.2   1 <1>  -0.6610 
  6 C       -2.4790    -0.0290    -0.3300 C.3   1 <1>  -0.0800 
  7 C        3.9800     1.0040     0.1230 C.2   1 <1>   0.1770 
  8 C        2.5080     2.7420     0.8440 C.2   1 <1>   0.7670 
  9 C       -3.7160     0.8700    -0.2140 C.3   1 <1>  -0.2400 
 10 C       -2.6400    -1.2440     0.5950 C.3   1 <1>  -0.2400 
 11 O        5.1300     0.3760    -0.1320 O.3   1 <1>  -0.3570 
 12 C        3.8160     2.2460     0.6450 C.2   1 <1>  -0.1360 
 13 O        2.3360     3.8570     1.3130 O.2   1 <1>  -0.5700 
 14 C        6.3790     0.9790     0.1380 C.3   1 <1>   0.1200 
 15 C        7.5080     0.0040    -0.2300 C.3   1 <1>  -0.0800 
 16 C        7.4350    -1.2910     0.5930 C.3   1 <1>  -0.2400 
 17 C        8.8720     0.6730    -0.0190 C.3   1 <1>  -0.2400 
 18 H       -1.1600     1.6790    -0.5830 H     1 <1>   0.0800 
 19 H       -1.1600     1.0230     1.0490 H     1 <1>   0.0800 
 20 H        2.9290    -0.6360    -0.5760 H     1 <1>   0.4000 
 21 H       -2.4060    -0.3720    -1.3490 H     1 <1>   0.0800 
 22 H       -3.8240     1.2390     0.7910 H     1 <1>   0.0800 
 23 H       -4.6040     0.3210    -0.4750 H     1 <1>   0.0800 
 24 H       -3.6320     1.7100    -0.8810 H     1 <1>   0.0800 
 25 H       -2.6910    -0.9340     1.6240 H     1 <1>   0.0800 
 26 H       -1.8110    -1.9200     0.4820 H     1 <1>   0.0800 
 27 H       -3.5400    -1.7810     0.3530 H     1 <1>   0.0800 
 28 H        4.6250     2.8900     0.9230 H     1 <1>   0.1500 
 29 H        6.4190     1.2220     1.1850 H     1 <1>   0.0800 
 30 H        6.4510     1.8770    -0.4500 H     1 <1>   0.0800 
 31 H        7.4140    -0.2400    -1.2750 H     1 <1>   0.0800 
 32 H        7.5110    -1.0780     1.6440 H     1 <1>   0.0800 
 33 H        8.2350    -1.9550     0.3170 H     1 <1>   0.0800 
 34 H        6.5030    -1.7980     0.4130 H     1 <1>   0.0800 
 35 H        9.0120     0.9360     1.0150 H     1 <1>   0.0800 
 36 H        8.9490     1.5660    -0.6150 H     1 <1>   0.0800 
 37 H        9.6630     0.0060    -0.3110 H     1 <1>   0.0800 
@<TRIPOS>BOND
  1   1   2  1   
  2   1   3  1   
  3   2   4  1   
  4   2   5  2   
  5   3   6  1   
  6   3  18  1   
  7   3  19  1   
  8   4   7  1   
  9   4  20  1   
 10   5   8  1   
 11   6   9  1   
 12   6  10  1   
 13   6  21  1   
 14   7  11  1   
 15   7  12  2   
 16   8  12  1   
 17   8  13  2   
 18   9  22  1   
 19   9  23  1   
 20   9  24  1   
 21  10  25  1   
 22  10  26  1   
 23  10  27  1   
 24  11  14  1   
 25  12  28  1   
 26  14  15  1   
 27  14  29  1   
 28  14  30  1   
 29  15  16  1   
 30  15  17  1   
 31  15  31  1   
 32  16  32  1   
 33  16  33  1   
 34  16  34  1   
 35  17  35  1   
 36  17  36  1   
 37  17  37  1   
@<TRIPOS>SUBSTRUCTURE
  1 ****   4 GROUP 4 **** **** 0

# MOE 2024.06 (io_trps.svl 2023.06)
