@<TRIPOS>MOLECULE
NONAME
30 30 1 0 0 
SMALL
USER_CHARGES


@<TRIPOS>ATOM
  1 S       -0.0630     0.4520     0.8740 S.o2  1 <1>   1.4470 
  2 O       -0.2620     0.8210     2.2600 O.2   1 <1>  -0.6500 
  3 O       -0.2680    -0.9260     0.4840 O.2   1 <1>  -0.6500 
  4 N       -1.1650     1.3850    -0.0120 N.am  1 <1>  -0.8490 
  5 C        1.5560     1.0210     0.2820 C.ar  1 <1>  -0.0090 
  6 C       -2.5100     0.7470     0.0400 C.3   1 <1>   0.2570 
  7 C       -1.1590     2.7930     0.3930 C.3   1 <1>   0.1960 
  8 C        2.5770     1.3400     1.1700 C.ar  1 <1>  -0.1500 
  9 C        1.8160     1.1440    -1.0780 C.ar  1 <1>  -0.1500 
 10 C       -3.6830     1.4990    -0.6110 C.2   1 <1>   0.5690 
 11 C       -1.2220     3.6750    -0.8510 C.3   1 <1>  -0.2400 
 12 C        3.8120     1.7730     0.7190 C.ar  1 <1>  -0.1500 
 13 C        3.0480     1.5770    -1.5380 C.ar  1 <1>  -0.1500 
 14 O       -3.9120     1.3710    -1.7870 O.2   1 <1>  -0.5700 
 15 N       -4.4850     2.2940     0.1320 N.am  1 <1>  -0.8000 
 16 C        4.0480     1.8920    -0.6380 C.ar  1 <1>  -0.1500 
 17 H       -2.7700     0.5610     1.0680 H     1 <1>   0.0800 
 18 H       -2.4520    -0.2090    -0.4490 H     1 <1>   0.0800 
 19 H       -0.2440     3.0320     0.9120 H     1 <1>   0.0800 
 20 H       -1.9740     3.0070     1.0640 H     1 <1>   0.0800 
 21 H        2.4040     1.2480     2.2300 H     1 <1>   0.1500 
 22 H        1.0400     0.8980    -1.7850 H     1 <1>   0.1500 
 23 H       -0.3830     3.4680    -1.4910 H     1 <1>   0.0800 
 24 H       -1.1810     4.7100    -0.5620 H     1 <1>   0.0800 
 25 H       -2.1300     3.5160    -1.4030 H     1 <1>   0.0800 
 26 H        4.5900     2.0150     1.4240 H     1 <1>   0.1500 
 27 H        3.2270     1.6660    -2.5960 H     1 <1>   0.1500 
 28 H       -5.2650     2.7690    -0.3260 H     1 <1>   0.3700 
 29 H       -4.3890     2.4440     1.1360 H     1 <1>   0.3700 
 30 H        5.0080     2.2280    -0.9920 H     1 <1>   0.1500 
@<TRIPOS>BOND
  1   1   2  2   
  2   1   3  2   
  3   1   4  am  
  4   1   5  1   
  5   4   6  1   
  6   4   7  1   
  7   5   8  ar  
  8   5   9  ar  
  9   6  10  1   
 10   6  17  1   
 11   6  18  1   
 12   7  11  1   
 13   7  19  1   
 14   7  20  1   
 15   8  12  ar  
 16   8  21  1   
 17   9  13  ar  
 18   9  22  1   
 19  10  14  2   
 20  10  15  am  
 21  11  23  1   
 22  11  24  1   
 23  11  25  1   
 24  12  16  ar  
 25  12  26  1   
 26  13  16  ar  
 27  13  27  1   
 28  15  28  1   
 29  15  29  1   
 30  16  30  1   
@<TRIPOS>SUBSTRUCTURE
  1 ****   4 GROUP 4 **** **** 0

# MOE 2024.06 (io_trps.svl 2023.06)
