@<TRIPOS>MOLECULE
NONAME
40 41 1 0 0 
SMALL
USER_CHARGES


@<TRIPOS>ATOM
  1 F       -0.6510    -0.3790     1.3380 F     1 <1>  -0.1900 
  2 C       -1.6320    -0.0370     0.5470 C.ar  1 <1>   0.1900 
  3 C       -2.6970     0.6650     1.0760 C.ar  1 <1>  -0.1500 
  4 C       -1.5640    -0.3920    -0.7860 C.ar  1 <1>  -0.1500 
  5 C       -3.7470     1.0280     0.2430 C.ar  1 <1>   0.1170 
  6 C       -2.6070    -0.0240    -1.6200 C.ar  1 <1>  -0.1500 
  7 N       -4.8270     1.7420     0.7740 N.am  1 <1>  -0.5470 
  8 C       -3.6850     0.6800    -1.1060 C.ar  1 <1>  -0.1500 
  9 C       -6.1070     1.8720     0.3300 C.2   1 <1>   0.6900 
 10 O       -6.6250     2.9600     0.4830 O.2   1 <1>  -0.5700 
 11 N       -6.8000     0.8380    -0.2530 N.am  1 <1>  -0.6600 
 12 C       -6.5280    -0.5960     0.0400 C.3   1 <1>   0.1400 
 13 C       -8.0450     1.0930    -1.0250 C.3   1 <1>   0.1400 
 14 C       -7.7220    -1.2090     0.7760 C.3   1 <1>  -0.1600 
 15 C       -9.2450     0.5010    -0.2810 C.3   1 <1>  -0.1600 
 16 C       -9.0460    -0.9980     0.0120 C.3   1 <1>  -0.0190 
 17 C      -10.2540    -1.5820     0.7440 C.2   1 <1>   0.6590 
 18 O      -10.2030    -1.9680     1.8840 O.2   1 <1>  -0.5700 
 19 O      -11.3740    -1.6420     0.0350 O.3   1 <1>  -0.4300 
 20 C      -12.5660    -2.1500     0.5870 C.3   1 <1>   0.1200 
 21 C      -13.6530    -2.0710    -0.4800 C.3   1 <1>  -0.2400 
 22 H       -2.7080     0.9180     2.1190 H     1 <1>   0.1500 
 23 H       -0.7160    -0.9390    -1.1580 H     1 <1>   0.1500 
 24 H       -2.5790    -0.2830    -2.6650 H     1 <1>   0.1500 
 25 H       -4.5880     2.5160     1.3890 H     1 <1>   0.3700 
 26 H       -4.4880     0.9700    -1.7610 H     1 <1>   0.1500 
 27 H       -5.6510    -0.7030     0.6540 H     1 <1>   0.0800 
 28 H       -6.3540    -1.1170    -0.8860 H     1 <1>   0.0800 
 29 H       -7.9530     0.6390    -1.9960 H     1 <1>   0.0800 
 30 H       -8.1920     2.1510    -1.1670 H     1 <1>   0.0800 
 31 H       -7.7910    -0.7590     1.7520 H     1 <1>   0.0800 
 32 H       -7.5490    -2.2610     0.9170 H     1 <1>   0.0800 
 33 H      -10.1300     0.6430    -0.8770 H     1 <1>   0.0800 
 34 H       -9.3800     1.0400     0.6410 H     1 <1>   0.0800 
 35 H       -8.9730    -1.5180    -0.9270 H     1 <1>   0.0800 
 36 H      -12.8230    -1.5550     1.4470 H     1 <1>   0.0800 
 37 H      -12.3930    -3.1690     0.8910 H     1 <1>   0.0800 
 38 H      -13.8040    -1.0490    -0.7800 H     1 <1>   0.0800 
 39 H      -14.5770    -2.4520    -0.0840 H     1 <1>   0.0800 
 40 H      -13.3780    -2.6620    -1.3350 H     1 <1>   0.0800 
@<TRIPOS>BOND
  1   1   2  1   
  2   2   3  ar  
  3   2   4  ar  
  4   3   5  ar  
  5   3  22  1   
  6   4   6  ar  
  7   4  23  1   
  8   5   7  1   
  9   5   8  ar  
 10   6   8  ar  
 11   6  24  1   
 12   7   9  am  
 13   7  25  1   
 14   8  26  1   
 15   9  10  2   
 16   9  11  am  
 17  11  12  1   
 18  11  13  1   
 19  12  14  1   
 20  12  27  1   
 21  12  28  1   
 22  13  15  1   
 23  13  29  1   
 24  13  30  1   
 25  14  16  1   
 26  14  31  1   
 27  14  32  1   
 28  15  16  1   
 29  15  33  1   
 30  15  34  1   
 31  16  17  1   
 32  16  35  1   
 33  17  18  2   
 34  17  19  1   
 35  19  20  1   
 36  20  21  1   
 37  20  36  1   
 38  20  37  1   
 39  21  38  1   
 40  21  39  1   
 41  21  40  1   
@<TRIPOS>SUBSTRUCTURE
  1 ****  12 GROUP 4 **** **** 0

# MOE 2024.06 (io_trps.svl 2023.06)
