@<TRIPOS>MOLECULE
NONAME
44 46 1 0 0 
SMALL
USER_CHARGES


@<TRIPOS>ATOM
  1 O       -0.4450     0.0550     0.1670 O.2   1 <1>  -0.5700 
  2 C       -1.4510     0.7020    -0.0350 C.2   1 <1>   0.6900 
  3 N       -1.4210     1.9840    -0.5440 N.am  1 <1>  -0.4200 
  4 N       -2.6520     0.1350     0.2540 N.am  1 <1>  -0.5470 
  5 C       -2.5990     2.6840    -0.7590 C.2   1 <1>   0.5440 
  6 C       -0.1080     2.6160    -0.8500 C.3   1 <1>   0.1400 
  7 C       -3.8740     0.7710     0.0740 C.ar  1 <1>   0.1170 
  8 O       -2.5570     3.8110    -1.2180 O.2   1 <1>  -0.5700 
  9 C       -3.8680     2.0700    -0.4380 C.ar  1 <1>   0.0860 
 10 C        0.4050     3.3710     0.3760 C.3   1 <1>  -0.2400 
 11 C       -5.0690     0.1430     0.3920 C.ar  1 <1>  -0.1500 
 12 C       -5.0990     2.7060    -0.6090 C.ar  1 <1>  -0.1500 
 13 C       -6.3000     0.7680     0.2170 C.ar  1 <1>   0.0860 
 14 C       -6.2820     2.0730    -0.2870 C.ar  1 <1>  -0.1500 
 15 C       -7.5380     0.0850     0.5520 C.2   1 <1>   0.5440 
 16 O       -7.5380    -0.8200     1.3630 O.2   1 <1>  -0.5700 
 17 N       -8.7160     0.4340    -0.0470 N.am  1 <1>  -0.7300 
 18 C      -10.0320    -0.1660     0.2310 C.3   1 <1>   0.2200 
 19 C      -10.5140    -0.9040    -1.0230 C.3   1 <1>  -0.1600 
 20 C      -11.0060     0.9460     0.6310 C.3   1 <1>  -0.1600 
 21 C      -11.9340    -1.4570    -0.8310 C.3   1 <1>  -0.1600 
 22 C      -12.4270     0.3960     0.8270 C.3   1 <1>  -0.1600 
 23 C      -12.9120    -0.3460    -0.4260 C.3   1 <1>  -0.1600 
 24 H       -2.5960    -0.8100     0.6360 H     1 <1>   0.3700 
 25 H       -0.2140     3.2950    -1.6800 H     1 <1>   0.0800 
 26 H        0.6030     1.8600    -1.1380 H     1 <1>   0.0800 
 27 H       -0.2870     4.1460     0.6530 H     1 <1>   0.0800 
 28 H        1.3520     3.8260     0.1500 H     1 <1>   0.0800 
 29 H        0.5400     2.6940     1.2010 H     1 <1>   0.0800 
 30 H       -5.0500    -0.8580     0.7870 H     1 <1>   0.1500 
 31 H       -5.1130     3.7120    -0.9970 H     1 <1>   0.1500 
 32 H       -7.2090     2.6040    -0.4200 H     1 <1>   0.1500 
 33 H       -8.7130     1.1100    -0.8070 H     1 <1>   0.3700 
 34 H       -9.9520    -0.8710     1.0430 H     1 <1>   0.0800 
 35 H       -9.8430    -1.7180    -1.2340 H     1 <1>   0.0800 
 36 H      -10.5120    -0.2310    -1.8620 H     1 <1>   0.0800 
 37 H      -11.0280     1.7020    -0.1340 H     1 <1>   0.0800 
 38 H      -10.6720     1.3960     1.5490 H     1 <1>   0.0800 
 39 H      -11.9190    -2.2140    -0.0650 H     1 <1>   0.0800 
 40 H      -12.2680    -1.9190    -1.7430 H     1 <1>   0.0800 
 41 H      -13.1000     1.2050     1.0510 H     1 <1>   0.0800 
 42 H      -12.4340    -0.2800     1.6650 H     1 <1>   0.0800 
 43 H      -13.8830    -0.7720    -0.2390 H     1 <1>   0.0800 
 44 H      -13.0130     0.3540    -1.2390 H     1 <1>   0.0800 
@<TRIPOS>BOND
  1   1   2  2   
  2   2   3  am  
  3   2   4  am  
  4   3   5  am  
  5   3   6  1   
  6   4   7  1   
  7   4  24  1   
  8   5   8  2   
  9   5   9  1   
 10   6  10  1   
 11   6  25  1   
 12   6  26  1   
 13   7   9  ar  
 14   7  11  ar  
 15   9  12  ar  
 16  10  27  1   
 17  10  28  1   
 18  10  29  1   
 19  11  13  ar  
 20  11  30  1   
 21  12  14  ar  
 22  12  31  1   
 23  13  14  ar  
 24  13  15  1   
 25  14  32  1   
 26  15  16  2   
 27  15  17  am  
 28  17  18  1   
 29  17  33  1   
 30  18  19  1   
 31  18  20  1   
 32  18  34  1   
 33  19  21  1   
 34  19  35  1   
 35  19  36  1   
 36  20  22  1   
 37  20  37  1   
 38  20  38  1   
 39  21  23  1   
 40  21  39  1   
 41  21  40  1   
 42  22  23  1   
 43  22  41  1   
 44  22  42  1   
 45  23  43  1   
 46  23  44  1   
@<TRIPOS>SUBSTRUCTURE
  1 ****  13 GROUP 4 **** **** 0

# MOE 2024.06 (io_trps.svl 2023.06)
