@<TRIPOS>MOLECULE
NONAME
29 28 1 0 0 
SMALL
USER_CHARGES


@<TRIPOS>ATOM
  1 F        0.1230     0.2710     1.0310 F     1 <1>  -0.3400 
  2 C        1.2890     0.9010     0.9360 C.3   1 <1>   1.0200 
  3 F        1.3970     1.6170     2.0470 F     1 <1>  -0.3400 
  4 F        2.2020    -0.0600     1.0230 F     1 <1>  -0.3400 
  5 C        1.3920     1.6800    -0.3940 C.3   1 <1>   0.2200 
  6 N        2.7850     1.8750    -1.0220 N.am  1 <1>  -0.7300 
  7 C        0.5390     2.9530    -0.2710 C.3   1 <1>   1.0200 
  8 C        3.8450     2.3760    -0.3590 C.2   1 <1>   0.6900 
  9 F        0.4310     3.5470    -1.4550 F     1 <1>  -0.3400 
 10 F       -0.7080     2.7180     0.1150 F     1 <1>  -0.3400 
 11 F        1.0140     3.8800     0.5470 F     1 <1>  -0.3400 
 12 O        3.7370     2.6750     0.8080 O.2   1 <1>  -0.5700 
 13 N        4.9930     2.5270    -1.0540 N.am  1 <1>  -0.7300 
 14 C        6.2910     3.0230    -0.5480 C.3   1 <1>   0.2200 
 15 C        6.8520     2.1120     0.5560 C.3   1 <1>  -0.1600 
 16 C        6.1510     4.4710    -0.0800 C.3   1 <1>  -0.2400 
 17 C        7.0430     0.6550     0.1050 C.3   1 <1>  -0.2400 
 18 H        0.8630     1.0640    -1.0950 H     1 <1>   0.0800 
 19 H        2.8130     1.9620    -2.0380 H     1 <1>   0.3700 
 20 H        5.0720     2.0110    -1.9250 H     1 <1>   0.3700 
 21 H        6.9860     3.0130    -1.3700 H     1 <1>   0.0800 
 22 H        6.2050     2.1400     1.4150 H     1 <1>   0.0800 
 23 H        7.8060     2.5010     0.8660 H     1 <1>   0.0800 
 24 H        5.5150     4.5350     0.7840 H     1 <1>   0.0800 
 25 H        5.7400     5.0780    -0.8670 H     1 <1>   0.0800 
 26 H        7.1150     4.8650     0.1850 H     1 <1>   0.0800 
 27 H        6.0950     0.2050    -0.1300 H     1 <1>   0.0800 
 28 H        7.4970     0.0860     0.8960 H     1 <1>   0.0800 
 29 H        7.6790     0.6070    -0.7610 H     1 <1>   0.0800 
@<TRIPOS>BOND
  1   1   2  1   
  2   2   3  1   
  3   2   4  1   
  4   2   5  1   
  5   5   6  1   
  6   5   7  1   
  7   5  18  1   
  8   6   8  am  
  9   6  19  1   
 10   7   9  1   
 11   7  10  1   
 12   7  11  1   
 13   8  12  2   
 14   8  13  am  
 15  13  14  1   
 16  13  20  1   
 17  14  15  1   
 18  14  16  1   
 19  14  21  1   
 20  15  17  1   
 21  15  22  1   
 22  15  23  1   
 23  16  24  1   
 24  16  25  1   
 25  16  26  1   
 26  17  27  1   
 27  17  28  1   
 28  17  29  1   
@<TRIPOS>SUBSTRUCTURE
  1 ****   8 GROUP 4 **** **** 0

# MOE 2024.06 (io_trps.svl 2023.06)
