@<TRIPOS>MOLECULE
NONAME
37 38 1 0 0 
SMALL
USER_CHARGES


@<TRIPOS>ATOM
  1 O        1.2050    -1.6260    -1.6160 O.3   1 <1>  -0.5600 
  2 C        2.0400    -0.4980    -1.6770 C.3   1 <1>   0.1200 
  3 C        0.4750    -1.7470    -0.4270 C.3   1 <1>   0.1200 
  4 C        2.9060    -0.3400    -0.4040 C.3   1 <1>   0.3430 
  5 C        1.4200    -1.9490     0.7790 C.3   1 <1>   0.3430 
  6 N        2.8320    -1.5650     0.4560 N.4   1 <1>  -0.9590 
  7 C        3.7470    -1.5530     1.6240 C.3   1 <1>   0.4860 
  8 C        5.1700    -1.3960     1.1230 C.ar  1 <1>  -0.1430 
  9 C        5.7210    -2.3530     0.2740 C.ar  1 <1>   0.0830 
 10 C        5.9150    -0.2940     1.5120 C.ar  1 <1>  -0.1500 
 11 O        4.9100    -3.4130    -0.0290 O.3   1 <1>  -0.3630 
 12 C        7.0240    -2.1750    -0.2210 C.ar  1 <1>   0.0830 
 13 C        7.2060    -0.1320     1.0480 C.ar  1 <1>  -0.1500 
 14 C        5.4420    -4.7050    -0.2500 C.3   1 <1>   0.0400 
 15 O        7.5400    -3.0750    -1.1070 O.3   1 <1>  -0.3630 
 16 C        7.7560    -1.0620     0.1860 C.ar  1 <1>  -0.1500 
 17 C        8.8360    -2.9450    -1.6520 C.3   1 <1>   0.0400 
 18 H        1.4280     0.3750    -1.8280 H     1 <1>   0.0800 
 19 H        2.6740    -0.6150    -2.5380 H     1 <1>   0.0800 
 20 H       -0.1870    -2.5900    -0.5270 H     1 <1>   0.0800 
 21 H       -0.1240    -0.8610    -0.3010 H     1 <1>   0.0800 
 22 H        2.5600     0.5160     0.1500 H     1 <1>   0.0800 
 23 H        3.9260    -0.1490    -0.6970 H     1 <1>   0.0800 
 24 H        1.3890    -2.9850     1.0750 H     1 <1>   0.0800 
 25 H        1.0540    -1.3640     1.6070 H     1 <1>   0.0800 
 26 H        3.2060    -2.3210    -0.1490 H     1 <1>   0.4500 
 27 H        3.6680    -2.4840     2.1620 H     1 <1>   0.0800 
 28 H        3.4950    -0.7440     2.2890 H     1 <1>   0.0800 
 29 H        5.5070     0.4470     2.1790 H     1 <1>   0.1500 
 30 H        7.7870     0.7220     1.3550 H     1 <1>   0.1500 
 31 H        5.7790    -4.7740    -1.2700 H     1 <1>   0.0800 
 32 H        4.6650    -5.4280    -0.0790 H     1 <1>   0.0800 
 33 H        6.2590    -4.8750     0.4300 H     1 <1>   0.0800 
 34 H        8.7590    -0.8940    -0.1570 H     1 <1>   0.1500 
 35 H        8.8960    -2.0210    -2.2000 H     1 <1>   0.0800 
 36 H        9.0040    -3.7720    -2.3180 H     1 <1>   0.0800 
 37 H        9.5570    -2.9690    -0.8540 H     1 <1>   0.0800 
@<TRIPOS>BOND
  1   1   2  1   
  2   1   3  1   
  3   2   4  1   
  4   2  18  1   
  5   2  19  1   
  6   3   5  1   
  7   3  20  1   
  8   3  21  1   
  9   4   6  1   
 10   4  22  1   
 11   4  23  1   
 12   5   6  1   
 13   5  24  1   
 14   5  25  1   
 15   6   7  1   
 16   6  26  1   
 17   7   8  1   
 18   7  27  1   
 19   7  28  1   
 20   8   9  ar  
 21   8  10  ar  
 22   9  11  1   
 23   9  12  ar  
 24  10  13  ar  
 25  10  29  1   
 26  11  14  1   
 27  12  15  1   
 28  12  16  ar  
 29  13  16  ar  
 30  13  30  1   
 31  14  31  1   
 32  14  32  1   
 33  14  33  1   
 34  15  17  1   
 35  16  34  1   
 36  17  35  1   
 37  17  36  1   
 38  17  37  1   
@<TRIPOS>SUBSTRUCTURE
  1 ****   9 GROUP 4 **** **** 0

# MOE 2024.06 (io_trps.svl 2023.06)
