@<TRIPOS>MOLECULE
NONAME
46 48 1 0 0 
SMALL
USER_CHARGES


@<TRIPOS>ATOM
  1 F        5.4560     1.2850     3.4200 F     1 <1>  -0.3400 
  2 C        5.6920     0.9510     2.1570 C.3   1 <1>   1.1640 
  3 F        6.8390     1.5350     1.8340 F     1 <1>  -0.3400 
  4 F        5.9340    -0.3560     2.1680 F     1 <1>  -0.3400 
  5 C        4.5540     1.3300     1.2010 C.ar  1 <1>  -0.1440 
  6 C        4.5890     0.9260    -0.1380 C.ar  1 <1>   0.1170 
  7 C        3.4800     2.0920     1.6550 C.ar  1 <1>  -0.1500 
  8 N        5.6430     0.1420    -0.6420 N.am  1 <1>  -0.5470 
  9 C        3.5450     1.3010    -0.9790 C.ar  1 <1>  -0.1500 
 10 C        2.4520     2.4540     0.8040 C.ar  1 <1>  -0.1500 
 11 C        6.2240     0.0840    -1.8780 C.2   1 <1>   0.5690 
 12 C        2.4860     2.0570    -0.5180 C.ar  1 <1>  -0.1500 
 13 O        5.8920     0.7630    -2.8190 O.2   1 <1>  -0.5700 
 14 C        7.3750    -0.9100    -2.0350 C.3   1 <1>   0.1710 
 15 N        8.0380    -1.2490    -0.7410 N.3   1 <1>  -0.8100 
 16 C        8.9170    -0.1410    -0.2870 C.3   1 <1>   0.1100 
 17 C        8.8360    -2.4900    -0.8570 C.3   1 <1>   0.1100 
 18 C        9.5960    -0.4440     1.0640 C.3   1 <1>   0.2090 
 19 C        9.5230    -2.8760     0.4700 C.3   1 <1>   0.2090 
 20 N       10.3160    -1.7510     1.0470 N.pl3 1 <1>  -0.8380 
 21 C       11.6920    -1.7400     0.8510 C.ar  1 <1>   0.1000 
 22 C       12.5350    -1.9990     1.9230 C.ar  1 <1>  -0.1500 
 23 C       12.2550    -1.4720    -0.3920 C.ar  1 <1>  -0.1500 
 24 C       13.9090    -1.9910     1.7620 C.ar  1 <1>  -0.1500 
 25 C       13.6270    -1.4640    -0.5590 C.ar  1 <1>  -0.1500 
 26 C       14.4580    -1.7240     0.5190 C.ar  1 <1>  -0.1500 
 27 H        3.4270     2.4200     2.6810 H     1 <1>   0.1500 
 28 H        6.1420    -0.4730     0.0150 H     1 <1>   0.3700 
 29 H        3.5560     0.9970    -2.0100 H     1 <1>   0.1500 
 30 H        1.6280     3.0440     1.1680 H     1 <1>   0.1500 
 31 H        1.6910     2.3360    -1.1880 H     1 <1>   0.1500 
 32 H        8.0950    -0.5090    -2.7270 H     1 <1>   0.0800 
 33 H        6.9610    -1.8020    -2.4680 H     1 <1>   0.0800 
 34 H        8.3440     0.7630    -0.1840 H     1 <1>   0.0800 
 35 H        9.6830     0.0420    -1.0200 H     1 <1>   0.0800 
 36 H        9.5900    -2.3710    -1.6150 H     1 <1>   0.0800 
 37 H        8.1940    -3.3000    -1.1530 H     1 <1>   0.0800 
 38 H        8.8500    -0.4680     1.8380 H     1 <1>   0.0800 
 39 H       10.2900     0.3440     1.3000 H     1 <1>   0.0800 
 40 H       10.1700    -3.7200     0.3060 H     1 <1>   0.0800 
 41 H        8.7720    -3.1700     1.1810 H     1 <1>   0.0800 
 42 H       12.0980    -2.2050     2.8820 H     1 <1>   0.1500 
 43 H       11.6130    -1.2700    -1.2260 H     1 <1>   0.1500 
 44 H       14.5490    -2.1940     2.6020 H     1 <1>   0.1500 
 45 H       14.0510    -1.2540    -1.5250 H     1 <1>   0.1500 
 46 H       15.5260    -1.7180     0.3910 H     1 <1>   0.1500 
@<TRIPOS>BOND
  1   1   2  1   
  2   2   3  1   
  3   2   4  1   
  4   2   5  1   
  5   5   6  ar  
  6   5   7  ar  
  7   6   8  1   
  8   6   9  ar  
  9   7  10  ar  
 10   7  27  1   
 11   8  11  am  
 12   8  28  1   
 13   9  12  ar  
 14   9  29  1   
 15  10  12  ar  
 16  10  30  1   
 17  11  13  2   
 18  11  14  1   
 19  12  31  1   
 20  14  15  1   
 21  14  32  1   
 22  14  33  1   
 23  15  16  1   
 24  15  17  1   
 25  16  18  1   
 26  16  34  1   
 27  16  35  1   
 28  17  19  1   
 29  17  36  1   
 30  17  37  1   
 31  18  20  1   
 32  18  38  1   
 33  18  39  1   
 34  19  20  1   
 35  19  40  1   
 36  19  41  1   
 37  20  21  1   
 38  21  22  ar  
 39  21  23  ar  
 40  22  24  ar  
 41  22  42  1   
 42  23  25  ar  
 43  23  43  1   
 44  24  26  ar  
 45  24  44  1   
 46  25  26  ar  
 47  25  45  1   
 48  26  46  1   
@<TRIPOS>SUBSTRUCTURE
  1 ****  16 GROUP 4 **** **** 0

# MOE 2024.06 (io_trps.svl 2023.06)
