@<TRIPOS>MOLECULE
NONAME
40 41 1 0 0 
SMALL
USER_CHARGES


@<TRIPOS>ATOM
  1 F        0.7420    -0.3220    -0.9670 F     1 <1>  -0.1900 
  2 C        0.3560    -1.4480    -0.4150 C.ar  1 <1>   0.1900 
  3 C        1.3270    -2.3900    -0.0630 C.ar  1 <1>   0.1170 
  4 C       -0.9970    -1.6370    -0.2150 C.ar  1 <1>  -0.1500 
  5 N        2.6870    -2.1110    -0.3090 N.am  1 <1>  -0.5470 
  6 C        0.8810    -3.5820     0.5080 C.ar  1 <1>  -0.1500 
  7 C       -1.3830    -2.8310     0.3600 C.ar  1 <1>   0.1900 
  8 C        3.8270    -2.6450     0.2090 C.2   1 <1>   0.6900 
  9 C       -0.4710    -3.8060     0.7240 C.ar  1 <1>  -0.1500 
 10 F       -2.6550    -3.0480     0.5660 F     1 <1>  -0.1900 
 11 O        3.8150    -3.4850     1.0860 O.2   1 <1>  -0.5700 
 12 N        5.0130    -2.2100    -0.2840 N.am  1 <1>  -0.7300 
 13 C        6.3100    -2.6710     0.2280 C.3   1 <1>   0.2200 
 14 C        7.3570    -1.5740     0.0570 C.3   1 <1>  -0.1600 
 15 C        6.7270    -3.9370    -0.5150 C.3   1 <1>  -0.1600 
 16 C        8.7220    -2.0730     0.5270 C.3   1 <1>   0.3430 
 17 C        8.0940    -4.4060    -0.0300 C.3   1 <1>   0.3430 
 18 N        9.1010    -3.3170    -0.2170 N.4   1 <1>  -0.9590 
 19 C       10.4540    -3.8030     0.1630 C.3   1 <1>   0.3430 
 20 C       11.5170    -2.8770    -0.4170 C.3   1 <1>  -0.2400 
 21 H       -1.7180    -0.8920    -0.4940 H     1 <1>   0.1500 
 22 H        2.8320    -1.2680    -0.8590 H     1 <1>   0.3700 
 23 H        1.5830    -4.3460     0.7880 H     1 <1>   0.1500 
 24 H       -0.8150    -4.7230     1.1680 H     1 <1>   0.1500 
 25 H        5.0170    -1.6350    -1.1250 H     1 <1>   0.3700 
 26 H        6.2080    -2.8960     1.2790 H     1 <1>   0.0800 
 27 H        7.0770    -0.7210     0.6490 H     1 <1>   0.0800 
 28 H        7.4230    -1.2670    -0.9720 H     1 <1>   0.0800 
 29 H        6.7550    -3.7660    -1.5760 H     1 <1>   0.0800 
 30 H        6.0070    -4.7140    -0.3180 H     1 <1>   0.0800 
 31 H        8.6840    -2.2800     1.5850 H     1 <1>   0.0800 
 32 H        9.4580    -1.3020     0.3620 H     1 <1>   0.0800 
 33 H        8.3890    -5.2820    -0.5850 H     1 <1>   0.0800 
 34 H        8.0320    -4.6720     1.0140 H     1 <1>   0.0800 
 35 H        9.1270    -3.0890    -1.2200 H     1 <1>   0.4500 
 36 H       10.6070    -4.7950    -0.2340 H     1 <1>   0.0800 
 37 H       10.5480    -3.8530     1.2360 H     1 <1>   0.0800 
 38 H       11.4220    -2.8040    -1.4860 H     1 <1>   0.0800 
 39 H       12.4900    -3.2820    -0.2000 H     1 <1>   0.0800 
 40 H       11.4700    -1.8960     0.0210 H     1 <1>   0.0800 
@<TRIPOS>BOND
  1   1   2  1   
  2   2   3  ar  
  3   2   4  ar  
  4   3   5  1   
  5   3   6  ar  
  6   4   7  ar  
  7   4  21  1   
  8   5   8  am  
  9   5  22  1   
 10   6   9  ar  
 11   6  23  1   
 12   7   9  ar  
 13   7  10  1   
 14   8  11  2   
 15   8  12  am  
 16   9  24  1   
 17  12  13  1   
 18  12  25  1   
 19  13  14  1   
 20  13  15  1   
 21  13  26  1   
 22  14  16  1   
 23  14  27  1   
 24  14  28  1   
 25  15  17  1   
 26  15  29  1   
 27  15  30  1   
 28  16  18  1   
 29  16  31  1   
 30  16  32  1   
 31  17  18  1   
 32  17  33  1   
 33  17  34  1   
 34  18  19  1   
 35  18  35  1   
 36  19  20  1   
 37  19  36  1   
 38  19  37  1   
 39  20  38  1   
 40  20  39  1   
 41  20  40  1   
@<TRIPOS>SUBSTRUCTURE
  1 ****   8 GROUP 4 **** **** 0

# MOE 2024.06 (io_trps.svl 2023.06)
