@<TRIPOS>MOLECULE
NONAME
51 54 1 0 0 
SMALL
USER_CHARGES


@<TRIPOS>ATOM
  1 O        1.8150     0.0660    -0.2000 O.2   1 <1>  -0.5700 
  2 C        2.4130    -0.8360    -0.7560 C.2   1 <1>   0.5440 
  3 N        3.4830    -0.4770    -1.5460 N.am  1 <1>  -0.6600 
  4 C        2.0530    -2.2260    -0.5340 C.ar  1 <1>   0.0860 
  5 C        3.4840     0.8730    -2.1800 C.3   1 <1>   0.1400 
  6 C        4.8440    -0.9600    -1.1840 C.3   1 <1>   0.1400 
  7 C        1.3800    -2.6200     0.6250 C.ar  1 <1>  -0.1500 
  8 C        2.3630    -3.2250    -1.4600 C.ar  1 <1>  -0.1500 
  9 C        4.1600     1.8910    -1.2440 C.3   1 <1>   0.3430 
 10 C        5.5420     0.0700    -0.2690 C.3   1 <1>   0.3430 
 11 C        1.0480    -3.9410     0.8620 C.ar  1 <1>  -0.1500 
 12 C        2.0360    -4.5480    -1.2310 C.ar  1 <1>  -0.1500 
 13 N        5.5560     1.4630    -0.8540 N.4   1 <1>  -0.9590 
 14 C        1.3800    -4.9200    -0.0700 C.ar  1 <1>   0.0830 
 15 C        6.2010     2.4090     0.1090 C.3   1 <1>   0.3430 
 16 O        1.0990    -6.2330     0.0820 O.3   1 <1>  -0.3630 
 17 C        6.5320     3.7720    -0.5320 C.3   1 <1>  -0.0800 
 18 C        0.3970    -6.7180     1.2050 C.3   1 <1>   0.0400 
 19 C        7.7260     4.5260     0.3330 C.3   1 <1>   0.0580 
 20 C        5.2170     4.8670    -0.5840 C.3   1 <1>  -0.1600 
 21 C        7.9820     5.8690     1.1910 C.2   1 <1>  -0.2880 
 22 C        6.6570     5.3060     0.1720 C.3   1 <1>  -0.1600 
 23 C        5.6970     6.2280     0.2240 C.3   1 <1>   0.0580 
 24 C        6.9190     6.7590     1.1340 C.2   1 <1>  -0.2880 
 25 H        2.4700     1.1840    -2.3720 H     1 <1>   0.0800 
 26 H        3.9970     0.8310    -3.1250 H     1 <1>   0.0800 
 27 H        5.4210    -1.1160    -2.0790 H     1 <1>   0.0800 
 28 H        4.7760    -1.9030    -0.6680 H     1 <1>   0.0800 
 29 H        1.1100    -1.8720     1.3510 H     1 <1>   0.1500 
 30 H        2.8600    -2.9620    -2.3770 H     1 <1>   0.1500 
 31 H        3.5480     1.9920    -0.3620 H     1 <1>   0.0800 
 32 H        4.1910     2.8470    -1.7380 H     1 <1>   0.0800 
 33 H        6.5510    -0.2580    -0.0790 H     1 <1>   0.0800 
 34 H        5.0190     0.0850     0.6740 H     1 <1>   0.0800 
 35 H        0.5320    -4.1920     1.7690 H     1 <1>   0.1500 
 36 H        2.2820    -5.3070    -1.9530 H     1 <1>   0.1500 
 37 H        6.1240     1.4370    -1.7100 H     1 <1>   0.4500 
 38 H        7.1250     1.9750     0.4560 H     1 <1>   0.0800 
 39 H        5.5680     2.5590     0.9690 H     1 <1>   0.0800 
 40 H        6.9000     3.5910    -1.5340 H     1 <1>   0.0800 
 41 H        0.2830    -7.7810     1.0940 H     1 <1>   0.0800 
 42 H       -0.5700    -6.2490     1.2420 H     1 <1>   0.0800 
 43 H        0.9660    -6.5030     2.0920 H     1 <1>   0.0800 
 44 H        8.5430     4.5600    -0.3760 H     1 <1>   0.0800 
 45 H        4.3390     4.4620    -0.1030 H     1 <1>   0.0800 
 46 H        4.9510     5.1050    -1.6050 H     1 <1>   0.0800 
 47 H        8.9160     5.9750     1.7200 H     1 <1>   0.1500 
 48 H        7.1300     5.8140    -0.7690 H     1 <1>   0.0800 
 49 H        6.2120     4.8400     1.2070 H     1 <1>   0.0800 
 50 H        5.6270     6.9940    -0.5360 H     1 <1>   0.0800 
 51 H        6.8250     7.7230     1.6080 H     1 <1>   0.1500 
@<TRIPOS>BOND
  1   1   2  2   
  2   2   3  am  
  3   2   4  1   
  4   3   5  1   
  5   3   6  1   
  6   4   7  ar  
  7   4   8  ar  
  8   5   9  1   
  9   5  25  1   
 10   5  26  1   
 11   6  10  1   
 12   6  27  1   
 13   6  28  1   
 14   7  11  ar  
 15   7  29  1   
 16   8  12  ar  
 17   8  30  1   
 18   9  13  1   
 19   9  31  1   
 20   9  32  1   
 21  10  13  1   
 22  10  33  1   
 23  10  34  1   
 24  11  14  ar  
 25  11  35  1   
 26  12  14  ar  
 27  12  36  1   
 28  13  15  1   
 29  13  37  1   
 30  14  16  1   
 31  15  17  1   
 32  15  38  1   
 33  15  39  1   
 34  16  18  1   
 35  17  19  1   
 36  17  20  1   
 37  17  40  1   
 38  18  41  1   
 39  18  42  1   
 40  18  43  1   
 41  19  21  1   
 42  19  22  1   
 43  19  44  1   
 44  20  23  1   
 45  20  45  1   
 46  20  46  1   
 47  21  24  2   
 48  21  47  1   
 49  22  23  1   
 50  22  48  1   
 51  22  49  1   
 52  23  24  1   
 53  23  50  1   
 54  24  51  1   
@<TRIPOS>SUBSTRUCTURE
  1 ****  10 GROUP 4 **** **** 0

# MOE 2024.06 (io_trps.svl 2023.06)
