@<TRIPOS>MOLECULE
NONAME
41 42 1 0 0 
SMALL
USER_CHARGES


@<TRIPOS>ATOM
  1 BR       0.1470     4.6780    -0.4810 Br    1 <1>  -0.1110 
  2 C       -0.9340     3.1300    -0.0750 C.ar  1 <1>   0.1110 
  3 C       -0.4170     2.1060     0.7100 C.ar  1 <1>   0.0830 
  4 C       -2.2180     3.0840    -0.5840 C.ar  1 <1>  -0.1500 
  5 O        0.8360     2.1520     1.2090 O.3   1 <1>  -0.3630 
  6 C       -1.2240     1.0160     0.9990 C.ar  1 <1>  -0.1500 
  7 C       -3.0110     1.9840    -0.2940 C.ar  1 <1>  -0.1500 
  8 C        1.8560     1.6880     0.3570 C.3   1 <1>   0.1200 
  9 C       -2.5150     0.9560     0.4960 C.ar  1 <1>  -0.1500 
 10 C        3.1910     1.8130     1.0880 C.3   1 <1>  -0.1600 
 11 C        4.3350     1.3280     0.2020 C.3   1 <1>   0.1200 
 12 O        5.5330     1.4420     0.9250 O.3   1 <1>  -0.3630 
 13 C        6.6470     1.0420     0.2560 C.ar  1 <1>   0.0830 
 14 C        7.3660     1.9660    -0.5040 C.ar  1 <1>   0.0830 
 15 C        7.0730    -0.2830     0.3520 C.ar  1 <1>   0.0830 
 16 O        6.8970     3.2460    -0.5770 O.3   1 <1>  -0.3630 
 17 C        8.5210     1.5530    -1.1630 C.ar  1 <1>  -0.1500 
 18 O        6.3260    -1.1490     1.0970 O.3   1 <1>  -0.3630 
 19 C        8.2310    -0.6750    -0.3150 C.ar  1 <1>  -0.1500 
 20 C        7.6810     4.2860    -1.1180 C.3   1 <1>   0.0400 
 21 C        8.9480     0.2400    -1.0650 C.ar  1 <1>  -0.1500 
 22 C        6.8240    -2.4160     1.4640 C.3   1 <1>   0.0400 
 23 H       -2.5890     3.8900    -1.1900 H     1 <1>   0.1500 
 24 H       -0.8390     0.2250     1.6170 H     1 <1>   0.1500 
 25 H       -4.0150     1.9280    -0.6800 H     1 <1>   0.1500 
 26 H        1.8530     2.2860    -0.5380 H     1 <1>   0.0800 
 27 H        1.6490     0.6610     0.1090 H     1 <1>   0.0800 
 28 H       -3.1370     0.1070     0.7210 H     1 <1>   0.1500 
 29 H        3.1630     1.2180     1.9840 H     1 <1>   0.0800 
 30 H        3.3590     2.8440     1.3460 H     1 <1>   0.0800 
 31 H        4.4200     1.9320    -0.6860 H     1 <1>   0.0800 
 32 H        4.2050     0.2940    -0.0680 H     1 <1>   0.0800 
 33 H        9.0970     2.2350    -1.7580 H     1 <1>   0.1500 
 34 H        8.5870    -1.6860    -0.2660 H     1 <1>   0.1500 
 35 H        7.1490     5.2100    -0.9770 H     1 <1>   0.0800 
 36 H        7.8250     4.1050    -2.1680 H     1 <1>   0.0800 
 37 H        8.6210     4.3210    -0.5960 H     1 <1>   0.0800 
 38 H        9.8420    -0.0710    -1.5770 H     1 <1>   0.1500 
 39 H        6.1170    -2.8690     2.1350 H     1 <1>   0.0800 
 40 H        7.7700    -2.2890     1.9610 H     1 <1>   0.0800 
 41 H        6.9280    -3.0210     0.5810 H     1 <1>   0.0800 
@<TRIPOS>BOND
  1   1   2  1   
  2   2   3  ar  
  3   2   4  ar  
  4   3   5  1   
  5   3   6  ar  
  6   4   7  ar  
  7   4  23  1   
  8   5   8  1   
  9   6   9  ar  
 10   6  24  1   
 11   7   9  ar  
 12   7  25  1   
 13   8  10  1   
 14   8  26  1   
 15   8  27  1   
 16   9  28  1   
 17  10  11  1   
 18  10  29  1   
 19  10  30  1   
 20  11  12  1   
 21  11  31  1   
 22  11  32  1   
 23  12  13  1   
 24  13  14  ar  
 25  13  15  ar  
 26  14  16  1   
 27  14  17  ar  
 28  15  18  1   
 29  15  19  ar  
 30  16  20  1   
 31  17  21  ar  
 32  17  33  1   
 33  18  22  1   
 34  19  21  ar  
 35  19  34  1   
 36  20  35  1   
 37  20  36  1   
 38  20  37  1   
 39  21  38  1   
 40  22  39  1   
 41  22  40  1   
 42  22  41  1   
@<TRIPOS>SUBSTRUCTURE
  1 ****  11 GROUP 4 **** **** 0

# MOE 2024.06 (io_trps.svl 2023.06)
