@<TRIPOS>MOLECULE
NONAME
23 23 1 0 0 
SMALL
USER_CHARGES


@<TRIPOS>ATOM
  1 S        0.0840    -0.0220    -0.0020 S.3   1 <1>   0.1810 
  2 N        1.2190     1.2550    -0.0010 N.2   1 <1>  -0.5100 
  3 C       -1.2960     1.0370    -0.0010 C.2   1 <1>   0.0960 
  4 C        0.5500     2.3430     0.0010 C.2   1 <1>   0.3440 
  5 S       -2.8930     0.2180    -0.0020 S.3   1 <1>  -0.2860 
  6 C       -0.8790     2.3150     0.0000 C.2   1 <1>   0.0190 
  7 S        1.4040     3.9220     0.0030 S.3   1 <1>  -0.2850 
  8 C       -4.1790     1.5460    -0.0020 C.3   1 <1>   0.0700 
  9 C       -1.6680     3.5030     0.0020 C.1   1 <1>   0.5380 
 10 C        3.1930     3.4630     0.0020 C.3   1 <1>   0.0700 
 11 C       -5.5470     0.8690    -0.0030 C.3   1 <1>  -0.2400 
 12 N       -2.3510     4.4160     0.0020 N.1   1 <1>  -0.5570 
 13 C        4.0100     4.7530     0.0040 C.3   1 <1>  -0.2400 
 14 H       -4.0360     2.1420    -0.8860 H     1 <1>   0.0800 
 15 H       -4.0360     2.1400     0.8840 H     1 <1>   0.0800 
 16 H        3.3740     2.8750    -0.8810 H     1 <1>   0.0800 
 17 H        3.3740     2.8730     0.8840 H     1 <1>   0.0800 
 18 H       -5.6580     0.2560    -0.8790 H     1 <1>   0.0800 
 19 H       -6.3230     1.6130    -0.0020 H     1 <1>   0.0800 
 20 H       -5.6580     0.2540     0.8730 H     1 <1>   0.0800 
 21 H        3.7850     5.3360    -0.8720 H     1 <1>   0.0800 
 22 H        5.0600     4.5210     0.0040 H     1 <1>   0.0800 
 23 H        3.7850     5.3330     0.8810 H     1 <1>   0.0800 
@<TRIPOS>BOND
  1   1   2  1   
  2   1   3  1   
  3   2   4  2   
  4   3   5  1   
  5   3   6  2   
  6   4   6  1   
  7   4   7  1   
  8   5   8  1   
  9   6   9  1   
 10   7  10  1   
 11   8  11  1   
 12   8  14  1   
 13   8  15  1   
 14   9  12  3   
 15  10  13  1   
 16  10  16  1   
 17  10  17  1   
 18  11  18  1   
 19  11  19  1   
 20  11  20  1   
 21  13  21  1   
 22  13  22  1   
 23  13  23  1   
@<TRIPOS>SUBSTRUCTURE
  1 ****   6 GROUP 4 **** **** 0

# MOE 2024.06 (io_trps.svl 2023.06)
