@<TRIPOS>MOLECULE
NONAME
44 46 1 0 0 
SMALL
USER_CHARGES


@<TRIPOS>ATOM
  1 BR       1.8160    -0.9750     1.8340 Br    1 <1>  -0.1110 
  2 C        0.6170    -2.1290     0.8680 C.ar  1 <1>   0.1110 
  3 C       -0.5130    -2.5970     1.5100 C.ar  1 <1>  -0.1500 
  4 C        0.9160    -2.4570    -0.4390 C.ar  1 <1>  -0.1500 
  5 C       -1.3820    -3.4260     0.8150 C.ar  1 <1>  -0.1440 
  6 C        0.0490    -3.2860    -1.1300 C.ar  1 <1>  -0.1500 
  7 C       -1.1020    -3.7730    -0.5080 C.ar  1 <1>   0.0830 
  8 C       -2.6300    -3.9530     1.4970 C.3   1 <1>   0.4870 
  9 O       -1.9930    -4.5830    -1.1430 O.3   1 <1>  -0.3630 
 10 N       -3.8140    -3.4890     0.7360 N.4   1 <1>  -0.9590 
 11 C       -1.6900    -5.1590    -2.4000 C.3   1 <1>   0.0400 
 12 C       -3.9560    -1.9870     0.7480 C.3   1 <1>   0.3430 
 13 C       -5.0850    -4.1710     1.1640 C.3   1 <1>   0.3430 
 14 C       -5.1720    -1.5080    -0.0700 C.3   1 <1>   0.2090 
 15 C       -6.3060    -3.7000     0.3460 C.3   1 <1>   0.2090 
 16 N       -6.4210    -2.2090     0.3590 N.pl3 1 <1>  -0.8380 
 17 C       -7.6070    -1.7010    -0.1910 C.ar  1 <1>   0.1000 
 18 C       -7.9540    -1.7810    -1.5450 C.ar  1 <1>   0.1900 
 19 C       -8.5130    -1.0690     0.6520 C.ar  1 <1>  -0.1500 
 20 F       -7.1350    -2.3670    -2.3890 F     1 <1>  -0.1900 
 21 C       -9.1320    -1.2670    -2.0490 C.ar  1 <1>  -0.1500 
 22 C       -9.7010    -0.5470     0.1650 C.ar  1 <1>  -0.1500 
 23 C      -10.0140    -0.6440    -1.1820 C.ar  1 <1>  -0.1500 
 24 H       -0.6880    -2.3100     2.5330 H     1 <1>   0.1500 
 25 H        1.8080    -2.0730    -0.9030 H     1 <1>   0.1500 
 26 H        0.2900    -3.5350    -2.1470 H     1 <1>   0.1500 
 27 H       -2.6780    -3.6040     2.5160 H     1 <1>   0.0800 
 28 H       -2.5950    -5.0310     1.5020 H     1 <1>   0.0800 
 29 H       -3.6050    -3.7660    -0.2380 H     1 <1>   0.4500 
 30 H       -2.4870    -5.8290    -2.6680 H     1 <1>   0.0800 
 31 H       -0.7670    -5.7070    -2.3230 H     1 <1>   0.0800 
 32 H       -1.6100    -4.3780    -3.1370 H     1 <1>   0.0800 
 33 H       -3.0650    -1.5310     0.3480 H     1 <1>   0.0800 
 34 H       -4.0780    -1.6440     1.7610 H     1 <1>   0.0800 
 35 H       -5.2780    -3.9580     2.2020 H     1 <1>   0.0800 
 36 H       -4.9830    -5.2380     1.0560 H     1 <1>   0.0800 
 37 H       -4.9940    -1.6860    -1.1170 H     1 <1>   0.0800 
 38 H       -5.2980    -0.4480     0.0670 H     1 <1>   0.0800 
 39 H       -7.2010    -4.1260     0.7650 H     1 <1>   0.0800 
 40 H       -6.2170    -4.0500    -0.6680 H     1 <1>   0.0800 
 41 H       -8.2810    -0.9890     1.6980 H     1 <1>   0.1500 
 42 H       -9.3560    -1.3530    -3.0980 H     1 <1>   0.1500 
 43 H      -10.3880    -0.0630     0.8380 H     1 <1>   0.1500 
 44 H      -10.9390    -0.2360    -1.5530 H     1 <1>   0.1500 
@<TRIPOS>BOND
  1   1   2  1   
  2   2   3  ar  
  3   2   4  ar  
  4   3   5  ar  
  5   3  24  1   
  6   4   6  ar  
  7   4  25  1   
  8   5   7  ar  
  9   5   8  1   
 10   6   7  ar  
 11   6  26  1   
 12   7   9  1   
 13   8  10  1   
 14   8  27  1   
 15   8  28  1   
 16   9  11  1   
 17  10  12  1   
 18  10  13  1   
 19  10  29  1   
 20  11  30  1   
 21  11  31  1   
 22  11  32  1   
 23  12  14  1   
 24  12  33  1   
 25  12  34  1   
 26  13  15  1   
 27  13  35  1   
 28  13  36  1   
 29  14  16  1   
 30  14  37  1   
 31  14  38  1   
 32  15  16  1   
 33  15  39  1   
 34  15  40  1   
 35  16  17  1   
 36  17  18  ar  
 37  17  19  ar  
 38  18  20  1   
 39  18  21  ar  
 40  19  22  ar  
 41  19  41  1   
 42  21  23  ar  
 43  21  42  1   
 44  22  23  ar  
 45  22  43  1   
 46  23  44  1   
@<TRIPOS>SUBSTRUCTURE
  1 ****  12 GROUP 4 **** **** 0

# MOE 2024.06 (io_trps.svl 2023.06)
