@<TRIPOS>MOLECULE
NONAME
46 47 1 0 0 
SMALL
USER_CHARGES


@<TRIPOS>ATOM
  1 O       -0.1550    -0.6300     1.0400 O.2   1 <1>  -0.5700 
  2 C       -0.8820    -1.6060     1.0680 C.2   1 <1>   0.5440 
  3 N       -0.3270    -2.8480     1.3150 N.am  1 <1>  -0.6600 
  4 C       -2.3000    -1.4290     0.8260 C.ar  1 <1>   0.0860 
  5 C       -1.0010    -4.1320     0.9760 C.3   1 <1>   0.1400 
  6 C        1.0820    -2.9940     1.7740 C.3   1 <1>   0.1400 
  7 C       -2.7480    -0.7730    -0.3170 C.ar  1 <1>  -0.1500 
  8 C       -3.2580    -1.8960     1.7210 C.ar  1 <1>  -0.1500 
  9 C       -0.1960    -4.8620    -0.1020 C.3   1 <1>  -0.1600 
 10 C        1.9010    -3.7060     0.6950 C.3   1 <1>  -0.1600 
 11 C       -4.1020    -0.5940    -0.5890 C.ar  1 <1>   0.0820 
 12 C       -4.6060    -1.7340     1.4690 C.ar  1 <1>  -0.1500 
 13 C        1.2770    -5.0620     0.3110 C.3   1 <1>  -0.0190 
 14 O       -4.5040     0.0540    -1.7220 O.3   1 <1>  -0.3630 
 15 C       -5.0510    -1.0930     0.3240 C.ar  1 <1>   0.0820 
 16 C        2.1070    -5.7650    -0.7630 C.2   1 <1>   0.6590 
 17 C       -3.5990     0.7420    -2.5590 C.3   1 <1>   0.0400 
 18 O       -6.4070    -1.0220     0.2220 O.3   1 <1>  -0.3630 
 19 O        1.7160    -5.9190    -1.8920 O.2   1 <1>  -0.5700 
 20 O        3.2940    -6.2060    -0.3660 O.3   1 <1>  -0.4300 
 21 C       -7.0890    -0.4000    -0.8430 C.3   1 <1>   0.0400 
 22 C        4.1650    -6.8690    -1.2520 C.3   1 <1>   0.1200 
 23 C        5.4330    -7.2320    -0.4860 C.3   1 <1>  -0.2400 
 24 H       -1.9980    -3.9640     0.6110 H     1 <1>   0.0800 
 25 H       -1.0660    -4.7390     1.8630 H     1 <1>   0.0800 
 26 H        1.0950    -3.5660     2.6850 H     1 <1>   0.0800 
 27 H        1.5180    -2.0310     1.9830 H     1 <1>   0.0800 
 28 H       -1.9910    -0.4100    -0.9850 H     1 <1>   0.1500 
 29 H       -2.9370    -2.3890     2.6220 H     1 <1>   0.1500 
 30 H       -0.2430    -4.2900    -1.0130 H     1 <1>   0.0800 
 31 H       -0.6490    -5.8180    -0.2970 H     1 <1>   0.0800 
 32 H        2.9030    -3.8550     1.0580 H     1 <1>   0.0800 
 33 H        1.9580    -3.0700    -0.1720 H     1 <1>   0.0800 
 34 H       -5.3340    -2.1040     2.1690 H     1 <1>   0.1500 
 35 H        1.2940    -5.6960     1.1790 H     1 <1>   0.0800 
 36 H       -4.1660     1.2430    -3.3230 H     1 <1>   0.0800 
 37 H       -2.9290     0.0320    -3.0100 H     1 <1>   0.0800 
 38 H       -3.0590     1.4650    -1.9720 H     1 <1>   0.0800 
 39 H       -8.1440    -0.4860    -0.6620 H     1 <1>   0.0800 
 40 H       -6.8320    -0.9000    -1.7600 H     1 <1>   0.0800 
 41 H       -6.8060     0.6370    -0.8780 H     1 <1>   0.0800 
 42 H        4.3840    -6.2060    -2.0730 H     1 <1>   0.0800 
 43 H        3.6690    -7.7500    -1.6230 H     1 <1>   0.0800 
 44 H        5.9090    -6.3430    -0.1150 H     1 <1>   0.0800 
 45 H        6.1180    -7.7390    -1.1410 H     1 <1>   0.0800 
 46 H        5.1960    -7.8850     0.3340 H     1 <1>   0.0800 
@<TRIPOS>BOND
  1   1   2  2   
  2   2   3  am  
  3   2   4  1   
  4   3   5  1   
  5   3   6  1   
  6   4   7  ar  
  7   4   8  ar  
  8   5   9  1   
  9   5  24  1   
 10   5  25  1   
 11   6  10  1   
 12   6  26  1   
 13   6  27  1   
 14   7  11  ar  
 15   7  28  1   
 16   8  12  ar  
 17   8  29  1   
 18   9  13  1   
 19   9  30  1   
 20   9  31  1   
 21  10  13  1   
 22  10  32  1   
 23  10  33  1   
 24  11  14  1   
 25  11  15  ar  
 26  12  15  ar  
 27  12  34  1   
 28  13  16  1   
 29  13  35  1   
 30  14  17  1   
 31  15  18  1   
 32  16  19  2   
 33  16  20  1   
 34  17  36  1   
 35  17  37  1   
 36  17  38  1   
 37  18  21  1   
 38  20  22  1   
 39  21  39  1   
 40  21  40  1   
 41  21  41  1   
 42  22  23  1   
 43  22  42  1   
 44  22  43  1   
 45  23  44  1   
 46  23  45  1   
 47  23  46  1   
@<TRIPOS>SUBSTRUCTURE
  1 ****   3 GROUP 4 **** **** 0

# MOE 2024.06 (io_trps.svl 2023.06)
