@<TRIPOS>MOLECULE
NONAME
28 29 1 0 0 
SMALL
USER_CHARGES


@<TRIPOS>ATOM
  1 S        0.2320     0.3750    -0.0250 S.3   1 <1>  -0.0800 
  2 C       -1.0480    -0.7800    -0.0040 C.2   1 <1>   0.4340 
  3 C        1.3140    -0.9840    -0.0230 C.2   1 <1>   0.4420 
  4 S       -2.7130    -0.1370     0.0050 S.3   1 <1>  -0.2860 
  5 N       -0.6700    -1.9920     0.0040 N.2   1 <1>  -0.3380 
  6 N        0.6940    -2.1110    -0.0070 N.2   1 <1>  -0.3380 
  7 N        2.6600    -0.6890    -0.0370 N.am  1 <1>  -0.4940 
  8 C       -3.7480    -1.6640     0.0280 C.3   1 <1>   0.0700 
  9 C        3.7420    -1.5220    -0.0400 C.2   1 <1>   0.7150 
 10 C       -5.2150    -1.2400     0.0380 C.3   1 <1>  -0.2400 
 11 O        3.5890    -2.7250    -0.0280 O.2   1 <1>  -0.5700 
 12 C        5.0500    -0.9290    -0.0560 C.2   1 <1>  -0.2370 
 13 N        6.2240    -1.6230    -0.0610 N.pl3 1 <1>   0.3140 
 14 C        5.4190     0.3860    -0.0700 C.2   1 <1>  -0.1500 
 15 N        7.2900    -0.8110    -0.0770 N.2   1 <1>  -0.7070 
 16 C        6.4260    -3.0840    -0.0510 C.3   1 <1>   0.0160 
 17 C        6.8000     0.3890    -0.0820 C.2   1 <1>   0.1390 
 18 H        2.8930     0.2970    -0.0480 H     1 <1>   0.3700 
 19 H       -3.4850    -2.2170     0.9130 H     1 <1>   0.0800 
 20 H       -3.5010    -2.2330    -0.8510 H     1 <1>   0.0800 
 21 H       -5.4250    -0.6470     0.9110 H     1 <1>   0.0800 
 22 H       -5.8470    -2.1090     0.0510 H     1 <1>   0.0800 
 23 H       -5.4400    -0.6630    -0.8420 H     1 <1>   0.0800 
 24 H        4.8080     1.2700    -0.0720 H     1 <1>   0.1500 
 25 H        5.9650    -3.5110    -0.9210 H     1 <1>   0.0800 
 26 H        5.9810    -3.4970     0.8350 H     1 <1>   0.0800 
 27 H        7.4780    -3.2980    -0.0580 H     1 <1>   0.0800 
 28 H        7.4160     1.2730    -0.0950 H     1 <1>   0.1500 
@<TRIPOS>BOND
  1   1   2  1   
  2   1   3  1   
  3   2   4  1   
  4   2   5  2   
  5   3   6  2   
  6   3   7  1   
  7   4   8  1   
  8   5   6  1   
  9   7   9  am  
 10   7  18  1   
 11   8  10  1   
 12   8  19  1   
 13   8  20  1   
 14   9  11  2   
 15   9  12  1   
 16  10  21  1   
 17  10  22  1   
 18  10  23  1   
 19  12  13  1   
 20  12  14  2   
 21  13  15  1   
 22  13  16  1   
 23  14  17  1   
 24  14  24  1   
 25  15  17  2   
 26  16  25  1   
 27  16  26  1   
 28  16  27  1   
 29  17  28  1   
@<TRIPOS>SUBSTRUCTURE
  1 ****   7 GROUP 4 **** **** 0

# MOE 2024.06 (io_trps.svl 2023.06)
