@<TRIPOS>MOLECULE
NONAME
46 49 1 0 0 
SMALL
USER_CHARGES


@<TRIPOS>ATOM
  1 O       -1.6770     2.0460    -0.9850 O.2   1 <1>  -0.5700 
  2 C       -2.7980     1.6350    -0.8300 C.2   1 <1>   0.5940 
  3 C       -3.1500     0.2550    -0.6620 C.2   1 <1>  -0.2370 
  4 C       -3.9490     2.6320    -0.8080 C.3   1 <1>  -0.0990 
  5 N       -2.3220    -0.8470    -0.7350 N.pl3 1 <1>   0.0480 
  6 C       -4.4140    -0.1780    -0.3990 C.2   1 <1>  -0.1810 
  7 C       -5.1200     2.1740     0.0910 C.3   1 <1>  -0.1600 
  8 C       -3.0860    -1.9700    -0.5120 C.ar  1 <1>  -0.1520 
  9 C       -0.8730    -0.8570    -1.0470 C.3   1 <1>   0.0960 
 10 C       -4.4040    -1.5770    -0.3030 C.ar  1 <1>   0.0000 
 11 C       -5.6040     0.7510    -0.2500 C.3   1 <1>   0.0210 
 12 C       -2.7410    -3.3250    -0.4640 C.ar  1 <1>  -0.1500 
 13 C       -0.0280    -0.5110     0.1840 C.3   1 <1>   0.2000 
 14 C       -5.3900    -2.5410    -0.0560 C.ar  1 <1>  -0.1500 
 15 C       -3.7180    -4.2600    -0.2180 C.ar  1 <1>  -0.1500 
 16 O        1.3040    -0.6870    -0.1610 O.3   1 <1>  -0.5600 
 17 C       -0.2100    -1.4580     1.3560 C.3   1 <1>   0.1200 
 18 C       -5.0500    -3.8730    -0.0130 C.ar  1 <1>  -0.1430 
 19 C        1.8330    -1.7840     0.5050 C.3   1 <1>   0.5600 
 20 O        0.7730    -2.4010     1.1460 O.3   1 <1>  -0.5600 
 21 C       -6.0930    -4.9430     0.2530 C.3   1 <1>  -0.0970 
 22 C        2.8540    -1.3070     1.5290 C.3   1 <1>  -0.2400 
 23 C        2.4100    -2.7480    -0.5170 C.3   1 <1>  -0.2400 
 24 H       -4.2950     2.7590    -1.8170 H     1 <1>   0.0800 
 25 H       -3.5790     3.5810    -0.4620 H     1 <1>   0.0800 
 26 H       -5.9400     2.8650     0.0090 H     1 <1>   0.0800 
 27 H       -4.7860     2.1800     1.1140 H     1 <1>   0.0800 
 28 H       -0.6810    -0.1420    -1.8250 H     1 <1>   0.0800 
 29 H       -0.6020    -1.8320    -1.4060 H     1 <1>   0.0800 
 30 H       -6.2530     0.3920     0.5290 H     1 <1>   0.0800 
 31 H       -6.1550     0.7590    -1.1740 H     1 <1>   0.0800 
 32 H       -1.7200    -3.6310    -0.6140 H     1 <1>   0.1500 
 33 H       -0.1800     0.5140     0.4730 H     1 <1>   0.0800 
 34 H       -6.4010    -2.2160     0.0980 H     1 <1>   0.1500 
 35 H       -3.4630    -5.3040    -0.1790 H     1 <1>   0.1500 
 36 H       -1.1710    -1.9350     1.3980 H     1 <1>   0.0800 
 37 H       -0.0140    -0.9560     2.2870 H     1 <1>   0.0800 
 38 H       -7.0650    -4.5060     0.3910 H     1 <1>   0.0800 
 39 H       -5.8340    -5.4920     1.1410 H     1 <1>   0.0800 
 40 H       -6.1380    -5.6240    -0.5780 H     1 <1>   0.0800 
 41 H        2.4080    -0.6080     2.2100 H     1 <1>   0.0800 
 42 H        3.6740    -0.8300     1.0260 H     1 <1>   0.0800 
 43 H        3.2330    -2.1480     2.0800 H     1 <1>   0.0800 
 44 H        1.6460    -3.0530    -1.2070 H     1 <1>   0.0800 
 45 H        2.8020    -3.6140    -0.0170 H     1 <1>   0.0800 
 46 H        3.2070    -2.2720    -1.0570 H     1 <1>   0.0800 
@<TRIPOS>BOND
  1   1   2  2   
  2   2   3  1   
  3   2   4  1   
  4   3   5  1   
  5   3   6  2   
  6   4   7  1   
  7   4  24  1   
  8   4  25  1   
  9   5   8  1   
 10   5   9  1   
 11   6  10  1   
 12   6  11  1   
 13   7  11  1   
 14   7  26  1   
 15   7  27  1   
 16   8  10  ar  
 17   8  12  ar  
 18   9  13  1   
 19   9  28  1   
 20   9  29  1   
 21  10  14  ar  
 22  11  30  1   
 23  11  31  1   
 24  12  15  ar  
 25  12  32  1   
 26  13  16  1   
 27  13  17  1   
 28  13  33  1   
 29  14  18  ar  
 30  14  34  1   
 31  15  18  ar  
 32  15  35  1   
 33  16  19  1   
 34  17  20  1   
 35  17  36  1   
 36  17  37  1   
 37  18  21  1   
 38  19  20  1   
 39  19  22  1   
 40  19  23  1   
 41  21  38  1   
 42  21  39  1   
 43  21  40  1   
 44  22  41  1   
 45  22  42  1   
 46  22  43  1   
 47  23  44  1   
 48  23  45  1   
 49  23  46  1   
@<TRIPOS>SUBSTRUCTURE
  1 ****   5 GROUP 4 **** **** 0

# MOE 2024.06 (io_trps.svl 2023.06)
