@<TRIPOS>MOLECULE
NONAME
26 27 1 0 0 
SMALL
USER_CHARGES


@<TRIPOS>ATOM
  1 F       -0.4000     0.1820     0.3960 F     1 <1>  -0.1900 
  2 C       -0.9900     1.3450     0.2820 C.ar  1 <1>   0.1900 
  3 C       -0.2950     2.5100     0.5480 C.ar  1 <1>   0.1900 
  4 C       -2.3130     1.3820    -0.1040 C.ar  1 <1>  -0.1500 
  5 F        0.9580     2.4690     0.9150 F     1 <1>  -0.1900 
  6 C       -0.9190     3.7370     0.4300 C.ar  1 <1>  -0.1500 
  7 C       -2.9720     2.6080    -0.2300 C.ar  1 <1>   0.0860 
  8 C       -2.2530     3.7870     0.0440 C.ar  1 <1>  -0.1440 
  9 C       -4.3660     2.6170    -0.6290 C.2   1 <1>   0.5440 
 10 C       -2.9230     5.1510    -0.0790 C.3   1 <1>  -0.0960 
 11 O       -4.7260     3.2070    -1.6290 O.2   1 <1>  -0.5700 
 12 N       -5.2860     1.9450     0.1280 N.am  1 <1>  -0.5790 
 13 C       -6.7260     1.8480    -0.1520 C.3   1 <1>   0.0490 
 14 C       -7.6670     1.8570     1.0060 C.3   1 <1>  -0.2000 
 15 C       -7.4310     0.5920     0.2380 C.3   1 <1>  -0.2000 
 16 H       -2.8300     0.4630    -0.3160 H     1 <1>   0.1500 
 17 H       -0.3600     4.6320     0.6390 H     1 <1>   0.1500 
 18 H       -2.2860     5.9350     0.2910 H     1 <1>   0.0800 
 19 H       -3.8410     5.1700     0.4800 H     1 <1>   0.0800 
 20 H       -3.1470     5.3570    -1.1120 H     1 <1>   0.0800 
 21 H       -4.9870     1.4960     0.9920 H     1 <1>   0.3700 
 22 H       -7.0210     2.3460    -1.0630 H     1 <1>   0.1000 
 23 H       -8.6160     2.3520     0.8930 H     1 <1>   0.1000 
 24 H       -7.2690     1.9500     2.0010 H     1 <1>   0.1000 
 25 H       -6.8690    -0.2030     0.6950 H     1 <1>   0.1000 
 26 H       -8.2210     0.2280    -0.3960 H     1 <1>   0.1000 
@<TRIPOS>BOND
  1   1   2  1   
  2   2   3  ar  
  3   2   4  ar  
  4   3   5  1   
  5   3   6  ar  
  6   4   7  ar  
  7   4  16  1   
  8   6   8  ar  
  9   6  17  1   
 10   7   8  ar  
 11   7   9  1   
 12   8  10  1   
 13   9  11  2   
 14   9  12  am  
 15  10  18  1   
 16  10  19  1   
 17  10  20  1   
 18  12  13  1   
 19  12  21  1   
 20  13  14  1   
 21  13  15  1   
 22  13  22  1   
 23  14  15  1   
 24  14  23  1   
 25  14  24  1   
 26  15  25  1   
 27  15  26  1   
@<TRIPOS>SUBSTRUCTURE
  1 ****   7 GROUP 4 **** **** 0

# MOE 2024.06 (io_trps.svl 2023.06)
