@<TRIPOS>MOLECULE
NONAME
41 42 1 0 0 
SMALL
USER_CHARGES


@<TRIPOS>ATOM
  1 O       -0.2890    -3.5290    -1.7110 O.2   1 <1>  -0.5700 
  2 C        0.0320    -2.9430    -0.7110 C.2   1 <1>   0.6590 
  3 O       -0.6790    -1.9430    -0.2120 O.3   1 <1>  -0.4300 
  4 C        1.2990    -3.2970     0.0650 C.3   1 <1>  -0.0190 
  5 C       -1.8700    -1.5090    -0.8280 C.3   1 <1>   0.1200 
  6 C        2.4080    -2.2610    -0.1950 C.3   1 <1>  -0.1600 
  7 C        1.8180    -4.7130    -0.2610 C.3   1 <1>  -0.1600 
  8 C       -2.4270    -0.3460    -0.0130 C.3   1 <1>  -0.2400 
  9 C        3.7040    -2.6160     0.5330 C.3   1 <1>   0.3430 
 10 C        3.1210    -5.0280     0.4700 C.3   1 <1>   0.3430 
 11 N        4.1380    -3.9910     0.1450 N.4   1 <1>  -0.9590 
 12 C        5.4660    -4.3310     0.7260 C.3   1 <1>   0.4860 
 13 C        6.4970    -3.3680     0.1730 C.ar  1 <1>  -0.1440 
 14 C        6.8530    -3.4260    -1.1660 C.ar  1 <1>  -0.1500 
 15 C        7.0890    -2.4170     0.9950 C.ar  1 <1>  -0.1500 
 16 C        7.7770    -2.5320    -1.6750 C.ar  1 <1>   0.0820 
 17 C        8.0180    -1.5280     0.4800 C.ar  1 <1>  -0.1500 
 18 O        8.0940    -2.6040    -2.9740 O.3   1 <1>  -0.5330 
 19 C        8.3640    -1.5810    -0.8580 C.ar  1 <1>  -0.1500 
 20 H        1.0410    -3.2660     1.1100 H     1 <1>   0.0800 
 21 H       -2.5640    -2.3330    -0.8500 H     1 <1>   0.0800 
 22 H       -1.6430    -1.2010    -1.8350 H     1 <1>   0.0800 
 23 H        2.0780    -1.2920     0.1390 H     1 <1>   0.0800 
 24 H        2.6020    -2.1860    -1.2510 H     1 <1>   0.0800 
 25 H        1.9760    -4.8140    -1.3220 H     1 <1>   0.0800 
 26 H        1.0730    -5.4370     0.0190 H     1 <1>   0.0800 
 27 H       -2.6420    -0.6640     0.9910 H     1 <1>   0.0800 
 28 H       -3.3390     0.0040    -0.4620 H     1 <1>   0.0800 
 29 H       -1.7230     0.4660     0.0070 H     1 <1>   0.0800 
 30 H        3.5470    -2.5680     1.5990 H     1 <1>   0.0800 
 31 H        4.4660    -1.8980     0.2710 H     1 <1>   0.0800 
 32 H        3.4730    -6.0020     0.1680 H     1 <1>   0.0800 
 33 H        2.9420    -5.0450     1.5340 H     1 <1>   0.0800 
 34 H        4.2700    -3.9770    -0.8750 H     1 <1>   0.4500 
 35 H        5.7440    -5.3370     0.4550 H     1 <1>   0.0800 
 36 H        5.4350    -4.2620     1.8010 H     1 <1>   0.0800 
 37 H        6.4340    -4.1550    -1.8370 H     1 <1>   0.1500 
 38 H        6.8400    -2.3560     2.0420 H     1 <1>   0.1500 
 39 H        8.4770    -0.7930     1.1220 H     1 <1>   0.1500 
 40 H        8.7820    -1.9670    -3.2430 H     1 <1>   0.4500 
 41 H        9.0850    -0.8880    -1.2540 H     1 <1>   0.1500 
@<TRIPOS>BOND
  1   1   2  2   
  2   2   3  1   
  3   2   4  1   
  4   3   5  1   
  5   4   6  1   
  6   4   7  1   
  7   4  20  1   
  8   5   8  1   
  9   5  21  1   
 10   5  22  1   
 11   6   9  1   
 12   6  23  1   
 13   6  24  1   
 14   7  10  1   
 15   7  25  1   
 16   7  26  1   
 17   8  27  1   
 18   8  28  1   
 19   8  29  1   
 20   9  11  1   
 21   9  30  1   
 22   9  31  1   
 23  10  11  1   
 24  10  32  1   
 25  10  33  1   
 26  11  12  1   
 27  11  34  1   
 28  12  13  1   
 29  12  35  1   
 30  12  36  1   
 31  13  14  ar  
 32  13  15  ar  
 33  14  16  ar  
 34  14  37  1   
 35  15  17  ar  
 36  15  38  1   
 37  16  18  1   
 38  16  19  ar  
 39  17  19  ar  
 40  17  39  1   
 41  18  40  1   
 42  19  41  1   
@<TRIPOS>SUBSTRUCTURE
  1 ****   9 GROUP 4 **** **** 0

# MOE 2024.06 (io_trps.svl 2023.06)
