@<TRIPOS>MOLECULE
NONAME
48 51 1 0 0 
SMALL
USER_CHARGES


@<TRIPOS>ATOM
  1 N       -0.0080    -0.0020    -0.5040 N.4   1 <1>  -0.9590 
  2 C       -1.2580    -0.7950    -0.6650 C.3   1 <1>   0.5230 
  3 C       -0.0840     1.3420    -1.1830 C.3   1 <1>   0.3430 
  4 C        1.1990    -0.7760    -0.8900 C.3   1 <1>   0.4860 
  5 C       -2.4030     0.0960    -0.2470 C.2   1 <1>  -0.3320 
  6 C       -1.1170     2.2520    -0.5000 C.3   1 <1>   0.0210 
  7 C        2.4260     0.0190    -0.4930 C.ar  1 <1>  -0.1430 
  8 N       -3.6580    -0.3290     0.1030 N.pl3 1 <1>   0.0330 
  9 C       -2.3510     1.4440    -0.1680 C.2   1 <1>  -0.1810 
 10 C        3.2060     0.6290    -1.4640 C.ar  1 <1>  -0.1500 
 11 C        2.7760     0.1540     0.8420 C.ar  1 <1>  -0.1500 
 12 C       -4.4030     0.7790     0.4190 C.ar  1 <1>  -0.1520 
 13 C       -3.6100     1.9110     0.2600 C.ar  1 <1>   0.0000 
 14 C        4.3120     1.3760    -1.1010 C.ar  1 <1>  -0.1500 
 15 C        3.8830     0.9020     1.1990 C.ar  1 <1>  -0.1500 
 16 C       -5.7310     0.8890     0.8390 C.ar  1 <1>  -0.1500 
 17 C       -4.1450     3.1760     0.5250 C.ar  1 <1>  -0.1500 
 18 C        4.6600     1.5230     0.2330 C.ar  1 <1>  -0.1430 
 19 C       -6.2460     2.1390     1.0960 C.ar  1 <1>  -0.1500 
 20 C       -5.4530     3.2820     0.9390 C.ar  1 <1>  -0.1500 
 21 C        5.8780     2.3450     0.6490 C.3   1 <1>   0.0630 
 22 C        5.7220     3.8090     0.2240 C.3   1 <1>  -0.2400 
 23 C        7.1650     1.7470     0.0710 C.3   1 <1>  -0.2400 
 24 H        0.0640     0.2050     0.4980 H     1 <1>   0.4500 
 25 H       -1.2240    -1.6710    -0.0370 H     1 <1>   0.0800 
 26 H       -1.3870    -1.1000    -1.6920 H     1 <1>   0.0800 
 27 H       -0.3670     1.2040    -2.2140 H     1 <1>   0.0800 
 28 H        0.8760     1.8320    -1.1600 H     1 <1>   0.0800 
 29 H        1.2060    -0.9540    -1.9530 H     1 <1>   0.0800 
 30 H        1.2140    -1.7260    -0.3820 H     1 <1>   0.0800 
 31 H       -1.3740     3.0640    -1.1580 H     1 <1>   0.0800 
 32 H       -0.7050     2.6680     0.4010 H     1 <1>   0.0800 
 33 H       -4.0250    -1.2870     0.1380 H     1 <1>   0.2700 
 34 H        2.9700     0.5330    -2.5110 H     1 <1>   0.1500 
 35 H        2.2020    -0.3190     1.6200 H     1 <1>   0.1500 
 36 H        4.9080     1.8440    -1.8650 H     1 <1>   0.1500 
 37 H        4.1420     0.9980     2.2400 H     1 <1>   0.1500 
 38 H       -6.3380     0.0090     0.9580 H     1 <1>   0.1500 
 39 H       -3.5310     4.0480     0.4030 H     1 <1>   0.1500 
 40 H       -7.2650     2.2510     1.4200 H     1 <1>   0.1500 
 41 H       -5.8810     4.2470     1.1470 H     1 <1>   0.1500 
 42 H        5.9630     2.3240     1.7220 H     1 <1>   0.0800 
 43 H        5.6870     3.8980    -0.8460 H     1 <1>   0.0800 
 44 H        6.5500     4.3910     0.5890 H     1 <1>   0.0800 
 45 H        4.8140     4.2140     0.6340 H     1 <1>   0.0800 
 46 H        7.1630     1.7900    -1.0030 H     1 <1>   0.0800 
 47 H        7.2580     0.7180     0.3730 H     1 <1>   0.0800 
 48 H        8.0210     2.2860     0.4340 H     1 <1>   0.0800 
@<TRIPOS>BOND
  1   1   2  1   
  2   1   3  1   
  3   1   4  1   
  4   1  24  1   
  5   2   5  1   
  6   2  25  1   
  7   2  26  1   
  8   3   6  1   
  9   3  27  1   
 10   3  28  1   
 11   4   7  1   
 12   4  29  1   
 13   4  30  1   
 14   5   8  1   
 15   5   9  2   
 16   6   9  1   
 17   6  31  1   
 18   6  32  1   
 19   7  10  ar  
 20   7  11  ar  
 21   8  12  1   
 22   8  33  1   
 23   9  13  1   
 24  10  14  ar  
 25  10  34  1   
 26  11  15  ar  
 27  11  35  1   
 28  12  13  ar  
 29  12  16  ar  
 30  13  17  ar  
 31  14  18  ar  
 32  14  36  1   
 33  15  18  ar  
 34  15  37  1   
 35  16  19  ar  
 36  16  38  1   
 37  17  20  ar  
 38  17  39  1   
 39  18  21  1   
 40  19  20  ar  
 41  19  40  1   
 42  20  41  1   
 43  21  22  1   
 44  21  23  1   
 45  21  42  1   
 46  22  43  1   
 47  22  44  1   
 48  22  45  1   
 49  23  46  1   
 50  23  47  1   
 51  23  48  1   
@<TRIPOS>SUBSTRUCTURE
  1 ****   3 GROUP 4 **** **** 0

# MOE 2024.06 (io_trps.svl 2023.06)
