@<TRIPOS>MOLECULE
NONAME
53 54 1 0 0 
SMALL
USER_CHARGES


@<TRIPOS>ATOM
  1 O       -7.3230     0.6620     1.8890 O.2   1 <1>  -0.5700 
  2 C       -6.4840     0.7190     1.0260 C.2   1 <1>   0.6590 
  3 O       -5.8190    -0.3590     0.6350 O.3   1 <1>  -0.4300 
  4 C       -6.1350     2.0030     0.2900 C.3   1 <1>   0.1810 
  5 C       -6.0030    -1.6150     1.2500 C.3   1 <1>   0.1200 
  6 C       -4.9870     2.5630     1.0480 C.1   1 <1>   0.3570 
  7 C       -7.3370     2.9760    -0.0480 C.3   1 <1>   0.0000 
  8 C       -5.0920    -2.6190     0.5520 C.3   1 <1>  -0.2400 
  9 N       -4.0860     2.9470     1.6250 N.1   1 <1>  -0.5570 
 10 C       -8.0390     3.5970     1.2130 C.3   1 <1>  -0.0800 
 11 C       -8.4470     2.1240    -0.7430 C.3   1 <1>  -0.1600 
 12 C       -6.8880     4.0260    -1.1340 C.3   1 <1>  -0.0160 
 13 C       -9.2620     4.4230     0.8050 C.3   1 <1>   0.3430 
 14 C       -7.1850     4.3920     2.2230 C.3   1 <1>  -0.2400 
 15 C       -9.7510     2.8760    -1.0740 C.3   1 <1>   0.4230 
 16 C       -6.0230     5.2220    -0.7530 C.ar  1 <1>  -0.1440 
 17 N      -10.2780     3.5490     0.1450 N.4   1 <1>  -0.9590 
 18 C      -10.7890     1.8930    -1.6140 C.3   1 <1>  -0.2400 
 19 C       -6.6050     6.4550    -0.4840 C.ar  1 <1>  -0.1500 
 20 C       -4.6400     5.1200    -0.7260 C.ar  1 <1>  -0.1500 
 21 C      -11.5210     4.3450    -0.1110 C.3   1 <1>   0.2630 
 22 C       -5.8240     7.5470    -0.1470 C.ar  1 <1>  -0.1500 
 23 C       -3.8580     6.2090    -0.3850 C.ar  1 <1>  -0.1500 
 24 C       -4.4490     7.4230    -0.0910 C.ar  1 <1>  -0.1500 
 25 H       -5.7200     1.6860    -0.6480 H     1 <1>   0.0800 
 26 H       -7.0370    -1.8990     1.1540 H     1 <1>   0.0800 
 27 H       -5.7480    -1.5240     2.2930 H     1 <1>   0.0800 
 28 H       -5.3490    -2.6970    -0.4890 H     1 <1>   0.0800 
 29 H       -5.2080    -3.5880     1.0050 H     1 <1>   0.0800 
 30 H       -4.0640    -2.3190     0.6490 H     1 <1>   0.0800 
 31 H       -8.4440     2.7950     1.8030 H     1 <1>   0.0800 
 32 H       -8.7250     1.2880    -0.1270 H     1 <1>   0.0800 
 33 H       -8.0580     1.7080    -1.6570 H     1 <1>   0.0800 
 34 H       -7.7480     4.4510    -1.6150 H     1 <1>   0.0800 
 35 H       -6.3690     3.5060    -1.9220 H     1 <1>   0.0800 
 36 H       -8.9650     5.2160     0.1410 H     1 <1>   0.0800 
 37 H       -9.6920     4.8690     1.6880 H     1 <1>   0.0800 
 38 H       -6.5370     5.1110     1.7640 H     1 <1>   0.0800 
 39 H       -6.5780     3.7270     2.8110 H     1 <1>   0.0800 
 40 H       -7.8140     4.9160     2.9210 H     1 <1>   0.0800 
 41 H       -9.5530     3.6170    -1.8320 H     1 <1>   0.0800 
 42 H      -10.5090     2.8000     0.8150 H     1 <1>   0.4500 
 43 H      -11.0900     1.1890    -0.8580 H     1 <1>   0.0800 
 44 H      -10.3690     1.3380    -2.4350 H     1 <1>   0.0800 
 45 H      -11.6540     2.4040    -1.9950 H     1 <1>   0.0800 
 46 H       -7.6670     6.5920    -0.5370 H     1 <1>   0.1500 
 47 H       -4.1450     4.1980    -0.9700 H     1 <1>   0.1500 
 48 H      -11.3340     5.1060    -0.8500 H     1 <1>   0.0800 
 49 H      -11.8540     4.8200     0.7970 H     1 <1>   0.0800 
 50 H      -12.3130     3.7060    -0.4660 H     1 <1>   0.0800 
 51 H       -6.2820     8.4960     0.0690 H     1 <1>   0.1500 
 52 H       -2.7860     6.1100    -0.3500 H     1 <1>   0.1500 
 53 H       -3.8390     8.2680     0.1760 H     1 <1>   0.1500 
@<TRIPOS>BOND
  1   1   2  2   
  2   2   3  1   
  3   2   4  1   
  4   3   5  1   
  5   4   6  1   
  6   4   7  1   
  7   4  25  1   
  8   5   8  1   
  9   5  26  1   
 10   5  27  1   
 11   6   9  3   
 12   7  10  1   
 13   7  11  1   
 14   7  12  1   
 15   8  28  1   
 16   8  29  1   
 17   8  30  1   
 18  10  13  1   
 19  10  14  1   
 20  10  31  1   
 21  11  15  1   
 22  11  32  1   
 23  11  33  1   
 24  12  16  1   
 25  12  34  1   
 26  12  35  1   
 27  13  17  1   
 28  13  36  1   
 29  13  37  1   
 30  14  38  1   
 31  14  39  1   
 32  14  40  1   
 33  15  17  1   
 34  15  18  1   
 35  15  41  1   
 36  16  19  ar  
 37  16  20  ar  
 38  17  21  1   
 39  17  42  1   
 40  18  43  1   
 41  18  44  1   
 42  18  45  1   
 43  19  22  ar  
 44  19  46  1   
 45  20  23  ar  
 46  20  47  1   
 47  21  48  1   
 48  21  49  1   
 49  21  50  1   
 50  22  24  ar  
 51  22  51  1   
 52  23  24  ar  
 53  23  52  1   
 54  24  53  1   
@<TRIPOS>SUBSTRUCTURE
  1 ****   7 GROUP 4 **** **** 0

# MOE 2024.06 (io_trps.svl 2023.06)
