@<TRIPOS>MOLECULE
NONAME
33 33 1 0 0 
SMALL
USER_CHARGES


@<TRIPOS>ATOM
  1 S       -0.0500    -0.3640    -0.0390 S.3   1 <1>  -0.3710 
  2 C       -1.4680     0.7340    -0.0430 C.2   1 <1>   0.6510 
  3 C        1.3800     0.8060    -0.0200 C.3   1 <1>   0.0700 
  4 N       -1.2260     1.9900    -0.0330 N.2   1 <1>  -0.6210 
  5 N       -2.7100     0.1310    -0.0570 N.am  1 <1>  -0.4200 
  6 C        2.6700    -0.0150    -0.0150 C.3   1 <1>  -0.1600 
  7 C       -2.2970     2.8380    -0.0360 C.2   1 <1>   0.0210 
  8 C       -3.8100     0.9790    -0.0600 C.2   1 <1>   0.6160 
  9 C       -2.8690    -1.3490    -0.0680 C.3   1 <1>   0.0600 
 10 C        3.9020     0.8980     0.0010 C.3   1 <1>  -0.1600 
 11 O       -2.0620     4.0480    -0.0270 O.3   1 <1>  -0.8500 
 12 C       -3.5860     2.3440    -0.0500 C.2   1 <1>  -0.1360 
 13 O       -4.9540     0.4860    -0.0730 O.2   1 <1>  -0.5700 
 14 C        5.1990     0.0810     0.0060 C.3   1 <1>  -0.1600 
 15 C        6.4280     0.9960     0.0220 C.3   1 <1>  -0.1600 
 16 C        7.7230     0.1800     0.0270 C.3   1 <1>  -0.2400 
 17 H        1.2820     1.4140     0.8630 H     1 <1>   0.0800 
 18 H        1.2960     1.4250    -0.8970 H     1 <1>   0.0800 
 19 H        2.6910    -0.6380    -0.8920 H     1 <1>   0.0800 
 20 H        2.6770    -0.6490     0.8540 H     1 <1>   0.0800 
 21 H       -2.3950    -1.7550    -0.9440 H     1 <1>   0.0800 
 22 H       -3.9060    -1.6310    -0.0780 H     1 <1>   0.0800 
 23 H       -2.4100    -1.7660     0.8110 H     1 <1>   0.0800 
 24 H        3.8680     1.5250     0.8760 H     1 <1>   0.0800 
 25 H        3.8820     1.5370    -0.8670 H     1 <1>   0.0800 
 26 H       -4.4070     3.0280    -0.0520 H     1 <1>   0.1500 
 27 H        5.2300    -0.5450    -0.8700 H     1 <1>   0.0800 
 28 H        5.2160    -0.5570     0.8740 H     1 <1>   0.0800 
 29 H        6.4010     1.6230     0.8970 H     1 <1>   0.0800 
 30 H        6.4150     1.6340    -0.8460 H     1 <1>   0.0800 
 31 H        7.7680    -0.4500     0.8980 H     1 <1>   0.0800 
 32 H        8.5740     0.8390     0.0380 H     1 <1>   0.0800 
 33 H        7.7820    -0.4390    -0.8520 H     1 <1>   0.0800 
@<TRIPOS>BOND
  1   1   2  1   
  2   1   3  1   
  3   2   4  2   
  4   2   5  1   
  5   3   6  1   
  6   3  17  1   
  7   3  18  1   
  8   4   7  1   
  9   5   8  am  
 10   5   9  1   
 11   6  10  1   
 12   6  19  1   
 13   6  20  1   
 14   7  11  1   
 15   7  12  2   
 16   8  12  1   
 17   8  13  2   
 18   9  21  1   
 19   9  22  1   
 20   9  23  1   
 21  10  14  1   
 22  10  24  1   
 23  10  25  1   
 24  12  26  1   
 25  14  15  1   
 26  14  27  1   
 27  14  28  1   
 28  15  16  1   
 29  15  29  1   
 30  15  30  1   
 31  16  31  1   
 32  16  32  1   
 33  16  33  1   
@<TRIPOS>SUBSTRUCTURE
  1 ****   3 GROUP 4 **** **** 0

# MOE 2024.06 (io_trps.svl 2023.06)
