@<TRIPOS>MOLECULE
NONAME
43 44 1 0 0 
SMALL
USER_CHARGES


@<TRIPOS>ATOM
  1 N       -0.0080     0.0360     0.0980 N.4   1 <1>  -0.9590 
  2 C        1.2370     0.7610     0.5200 C.3   1 <1>   0.4230 
  3 C       -1.2810     0.7560     0.4730 C.3   1 <1>   0.3430 
  4 C       -0.0970    -1.3760     0.5930 C.3   1 <1>   0.3430 
  5 C        1.2320     2.2020    -0.0150 C.3   1 <1>  -0.1600 
  6 C        2.4870     0.0290     0.0030 C.3   1 <1>  -0.1600 
  7 C       -2.5530    -0.0730     0.1920 C.3   1 <1>  -0.0800 
  8 C       -1.1510    -2.1380    -0.2200 C.3   1 <1>  -0.1600 
  9 C        2.5350     2.9360     0.3010 C.3   1 <1>   0.3430 
 10 C        3.7720     0.7960     0.3150 C.3   1 <1>   0.3430 
 11 C       -2.2860    -1.2500    -0.7590 C.3   1 <1>  -0.1600 
 12 C       -3.6670     0.8210    -0.3690 C.3   1 <1>  -0.2400 
 13 N        3.6950     2.1780    -0.2410 N.4   1 <1>  -0.9590 
 14 C        4.9550     2.9380     0.0060 C.3   1 <1>   0.3430 
 15 C        6.0630     2.4080    -0.8970 C.3   1 <1>  -0.2400 
 16 H       -0.0210    -0.0370    -0.9280 H     1 <1>   0.4500 
 17 H        1.2750     0.7930     1.5980 H     1 <1>   0.0800 
 18 H       -1.3470     1.6720    -0.0930 H     1 <1>   0.0800 
 19 H       -1.2650     1.0170     1.5190 H     1 <1>   0.0800 
 20 H       -0.3810    -1.3730     1.6340 H     1 <1>   0.0800 
 21 H        0.8440    -1.8910     0.5020 H     1 <1>   0.0800 
 22 H        0.4400     2.7670     0.4430 H     1 <1>   0.0800 
 23 H        1.0780     2.2090    -1.0800 H     1 <1>   0.0800 
 24 H        2.4220    -0.1220    -1.0610 H     1 <1>   0.0800 
 25 H        2.5800    -0.9310     0.4740 H     1 <1>   0.0800 
 26 H       -2.9000    -0.4710     1.1310 H     1 <1>   0.0800 
 27 H       -1.5680    -2.9010     0.4150 H     1 <1>   0.0800 
 28 H       -0.6770    -2.6460    -1.0420 H     1 <1>   0.0800 
 29 H        2.6420     3.0490     1.3690 H     1 <1>   0.0800 
 30 H        2.5070     3.9230    -0.1360 H     1 <1>   0.0800 
 31 H        4.6120     0.2720    -0.1150 H     1 <1>   0.0800 
 32 H        3.9220     0.8420     1.3820 H     1 <1>   0.0800 
 33 H       -2.0170    -0.8720    -1.7310 H     1 <1>   0.0800 
 34 H       -3.1790    -1.8410    -0.8830 H     1 <1>   0.0800 
 35 H       -3.3850     1.2460    -1.3170 H     1 <1>   0.0800 
 36 H       -3.8930     1.6220     0.3140 H     1 <1>   0.0800 
 37 H       -4.5670     0.2470    -0.5130 H     1 <1>   0.0800 
 38 H        3.6010     2.1190    -1.2670 H     1 <1>   0.4500 
 39 H        5.2500     2.8570     1.0410 H     1 <1>   0.0800 
 40 H        4.8010     3.9830    -0.2180 H     1 <1>   0.0800 
 41 H        6.3310     1.3970    -0.6500 H     1 <1>   0.0800 
 42 H        6.9420     3.0150    -0.7640 H     1 <1>   0.0800 
 43 H        5.7790     2.4680    -1.9330 H     1 <1>   0.0800 
@<TRIPOS>BOND
  1   1   2  1   
  2   1   3  1   
  3   1   4  1   
  4   1  16  1   
  5   2   5  1   
  6   2   6  1   
  7   2  17  1   
  8   3   7  1   
  9   3  18  1   
 10   3  19  1   
 11   4   8  1   
 12   4  20  1   
 13   4  21  1   
 14   5   9  1   
 15   5  22  1   
 16   5  23  1   
 17   6  10  1   
 18   6  24  1   
 19   6  25  1   
 20   7  11  1   
 21   7  12  1   
 22   7  26  1   
 23   8  11  1   
 24   8  27  1   
 25   8  28  1   
 26   9  13  1   
 27   9  29  1   
 28   9  30  1   
 29  10  13  1   
 30  10  31  1   
 31  10  32  1   
 32  11  33  1   
 33  11  34  1   
 34  12  35  1   
 35  12  36  1   
 36  12  37  1   
 37  13  14  1   
 38  13  38  1   
 39  14  15  1   
 40  14  39  1   
 41  14  40  1   
 42  15  41  1   
 43  15  42  1   
 44  15  43  1   
@<TRIPOS>SUBSTRUCTURE
  1 ****   2 GROUP 4 **** **** 0

# MOE 2024.06 (io_trps.svl 2023.06)
