@<TRIPOS>MOLECULE
NONAME
46 48 1 0 0 
SMALL
USER_CHARGES


@<TRIPOS>ATOM
  1 S       -1.5500     0.0650    -1.2630 S.3   1 <1>  -0.0800 
  2 C       -1.8940     1.1770     0.0550 C.2   1 <1>  -0.1400 
  3 C       -0.2650     1.0960    -1.8570 C.2   1 <1>  -0.1100 
  4 C       -1.0670     2.2400     0.0080 C.2   1 <1>  -0.1810 
  5 C       -3.0210     0.7800     0.9830 C.3   1 <1>   0.5230 
  6 C       -0.1410     2.1900    -1.0830 C.2   1 <1>  -0.1500 
  7 C       -1.0240     3.4230     0.9610 C.3   1 <1>  -0.0590 
  8 N       -4.2700     0.7010     0.1830 N.4   1 <1>  -0.9590 
  9 C       -4.6330     2.0390    -0.4160 C.3   1 <1>   0.3430 
 10 C       -5.4170     0.1180     0.9660 C.3   1 <1>   0.3430 
 11 C       -5.9200     1.9850    -1.2670 C.3   1 <1>   0.2090 
 12 C       -6.7040     0.0000     0.1230 C.3   1 <1>   0.2090 
 13 N       -7.0300     1.2880    -0.5520 N.pl3 1 <1>  -0.8380 
 14 C       -8.0750     2.0430    -0.0170 C.ar  1 <1>   0.1000 
 15 C       -9.3990     1.8510    -0.4280 C.ar  1 <1>  -0.1430 
 16 C       -7.7990     2.9900     0.9630 C.ar  1 <1>  -0.1500 
 17 C      -10.4200     2.5920     0.1630 C.ar  1 <1>  -0.1430 
 18 C       -9.7210     0.8310    -1.5220 C.3   1 <1>  -0.0970 
 19 C       -8.8100     3.7310     1.5370 C.ar  1 <1>  -0.1500 
 20 C      -10.1170     3.5290     1.1390 C.ar  1 <1>  -0.1500 
 21 C      -11.8830     2.4110    -0.2230 C.3   1 <1>  -0.0970 
 22 H        0.2730     0.7720    -2.7310 H     1 <1>   0.1500 
 23 H       -3.1250     1.5080     1.7700 H     1 <1>   0.0800 
 24 H       -2.7960    -0.1780     1.4230 H     1 <1>   0.0800 
 25 H        0.5800     2.9740    -1.2390 H     1 <1>   0.1500 
 26 H       -1.7660     3.3350     1.7320 H     1 <1>   0.0800 
 27 H       -1.1960     4.3370     0.4200 H     1 <1>   0.0800 
 28 H       -0.0550     3.4800     1.4250 H     1 <1>   0.0800 
 29 H       -4.0620     0.0750    -0.6060 H     1 <1>   0.4500 
 30 H       -3.8250     2.3980    -1.0330 H     1 <1>   0.0800 
 31 H       -4.7840     2.7560     0.3730 H     1 <1>   0.0800 
 32 H       -5.6340     0.7480     1.8130 H     1 <1>   0.0800 
 33 H       -5.1540    -0.8580     1.3370 H     1 <1>   0.0800 
 34 H       -5.7210     1.4690    -2.1900 H     1 <1>   0.0800 
 35 H       -6.2280     2.9860    -1.5170 H     1 <1>   0.0800 
 36 H       -7.5240    -0.2860     0.7610 H     1 <1>   0.0800 
 37 H       -6.5870    -0.7680    -0.6210 H     1 <1>   0.0800 
 38 H       -6.7910     3.1490     1.2860 H     1 <1>   0.1500 
 39 H       -8.8790     0.6680    -2.1670 H     1 <1>   0.0800 
 40 H      -10.5280     1.1710    -2.1440 H     1 <1>   0.0800 
 41 H       -9.9980    -0.1050    -1.0730 H     1 <1>   0.0800 
 42 H       -8.5900     4.4640     2.2940 H     1 <1>   0.1500 
 43 H      -10.8990     4.1100     1.5950 H     1 <1>   0.1500 
 44 H      -12.1460     1.3690    -0.2090 H     1 <1>   0.0800 
 45 H      -12.0520     2.8060    -1.2080 H     1 <1>   0.0800 
 46 H      -12.5300     2.9250     0.4640 H     1 <1>   0.0800 
@<TRIPOS>BOND
  1   1   2  1   
  2   1   3  1   
  3   2   4  2   
  4   2   5  1   
  5   3   6  2   
  6   3  22  1   
  7   4   6  1   
  8   4   7  1   
  9   5   8  1   
 10   5  23  1   
 11   5  24  1   
 12   6  25  1   
 13   7  26  1   
 14   7  27  1   
 15   7  28  1   
 16   8   9  1   
 17   8  10  1   
 18   8  29  1   
 19   9  11  1   
 20   9  30  1   
 21   9  31  1   
 22  10  12  1   
 23  10  32  1   
 24  10  33  1   
 25  11  13  1   
 26  11  34  1   
 27  11  35  1   
 28  12  13  1   
 29  12  36  1   
 30  12  37  1   
 31  13  14  1   
 32  14  15  ar  
 33  14  16  ar  
 34  15  17  ar  
 35  15  18  1   
 36  16  19  ar  
 37  16  38  1   
 38  17  20  ar  
 39  17  21  1   
 40  18  39  1   
 41  18  40  1   
 42  18  41  1   
 43  19  20  ar  
 44  19  42  1   
 45  20  43  1   
 46  21  44  1   
 47  21  45  1   
 48  21  46  1   
@<TRIPOS>SUBSTRUCTURE
  1 ****   9 GROUP 4 **** **** 0

# MOE 2024.06 (io_trps.svl 2023.06)
