@<TRIPOS>MOLECULE
NONAME
47 49 1 0 0 
SMALL
USER_CHARGES


@<TRIPOS>ATOM
  1 O       -0.3920    -3.3790     0.5810 O.2   1 <1>  -0.5700 
  2 C        0.1050    -2.4840    -0.0610 C.2   1 <1>   0.5690 
  3 N       -0.5540    -1.3570    -0.4550 N.am  1 <1>  -0.5470 
  4 C        1.5730    -2.5870    -0.4780 C.3   1 <1>   0.1710 
  5 C       -1.8590    -0.8660    -0.2820 C.ar  1 <1>   0.1170 
  6 N        2.2510    -1.2620    -0.6060 N.3   1 <1>  -0.8100 
  7 C       -2.1840     0.3750    -0.8380 C.ar  1 <1>   0.0830 
  8 C       -2.8450    -1.5480     0.4220 C.ar  1 <1>  -0.1500 
  9 C        2.5110    -0.6910     0.7290 C.3   1 <1>   0.1100 
 10 C        3.4990    -1.3880    -1.3730 C.3   1 <1>   0.1100 
 11 O       -1.2490     1.0650    -1.5360 O.3   1 <1>  -0.3630 
 12 C       -3.4540     0.9090    -0.7040 C.ar  1 <1>  -0.1500 
 13 C       -4.1150    -1.0120     0.5640 C.ar  1 <1>  -0.1500 
 14 C        3.0770     0.7200     0.5890 C.3   1 <1>  -0.1600 
 15 C        4.0950    -0.0010    -1.6110 C.3   1 <1>  -0.1600 
 16 C       -0.5600     2.0590    -0.8180 C.3   1 <1>   0.1200 
 17 C       -4.4220     0.2150     0.0010 C.ar  1 <1>  -0.1500 
 18 C        4.3270     0.7130    -0.2790 C.3   1 <1>   0.5600 
 19 C        0.5140     2.6400    -1.7330 C.3   1 <1>  -0.2400 
 20 O        5.3640     0.1040     0.4210 O.3   1 <1>  -0.5600 
 21 O        4.7420     2.0190    -0.4890 O.3   1 <1>  -0.5600 
 22 C        6.5480     0.7660     0.1510 C.3   1 <1>   0.1200 
 23 C        6.1220     2.0500    -0.5340 C.3   1 <1>   0.1200 
 24 H        0.0630    -0.7120    -0.9620 H     1 <1>   0.3700 
 25 H        1.5920    -3.0910    -1.4270 H     1 <1>   0.0800 
 26 H        2.0970    -3.2020     0.2330 H     1 <1>   0.0800 
 27 H       -2.6280    -2.5020     0.8630 H     1 <1>   0.1500 
 28 H        3.2120    -1.3110     1.2650 H     1 <1>   0.0800 
 29 H        1.5970    -0.6450     1.2980 H     1 <1>   0.0800 
 30 H        3.2950    -1.8500    -2.3240 H     1 <1>   0.0800 
 31 H        4.2020    -2.0040    -0.8350 H     1 <1>   0.0800 
 32 H       -3.6820     1.8580    -1.1530 H     1 <1>   0.1500 
 33 H       -4.8640    -1.5560     1.1120 H     1 <1>   0.1500 
 34 H        3.3160     1.1200     1.5560 H     1 <1>   0.0800 
 35 H        2.3360     1.3470     0.1340 H     1 <1>   0.0800 
 36 H        3.4040     0.5710    -2.2010 H     1 <1>   0.0800 
 37 H        5.0160    -0.0900    -2.1540 H     1 <1>   0.0800 
 38 H       -0.1190     1.6060     0.0540 H     1 <1>   0.0800 
 39 H       -1.2640     2.8160    -0.5190 H     1 <1>   0.0800 
 40 H       -5.4110     0.6260     0.1100 H     1 <1>   0.1500 
 41 H        1.1880     1.8650    -2.0500 H     1 <1>   0.0800 
 42 H        1.0770     3.3890    -1.2060 H     1 <1>   0.0800 
 43 H        0.0590     3.0940    -2.5950 H     1 <1>   0.0800 
 44 H        7.1560     0.1540    -0.4910 H     1 <1>   0.0800 
 45 H        7.0580     0.9560     1.0780 H     1 <1>   0.0800 
 46 H        6.4730     2.9240    -0.0160 H     1 <1>   0.0800 
 47 H        6.4380     2.0730    -1.5620 H     1 <1>   0.0800 
@<TRIPOS>BOND
  1   1   2  2   
  2   2   3  am  
  3   2   4  1   
  4   3   5  1   
  5   3  24  1   
  6   4   6  1   
  7   4  25  1   
  8   4  26  1   
  9   5   7  ar  
 10   5   8  ar  
 11   6   9  1   
 12   6  10  1   
 13   7  11  1   
 14   7  12  ar  
 15   8  13  ar  
 16   8  27  1   
 17   9  14  1   
 18   9  28  1   
 19   9  29  1   
 20  10  15  1   
 21  10  30  1   
 22  10  31  1   
 23  11  16  1   
 24  12  17  ar  
 25  12  32  1   
 26  13  17  ar  
 27  13  33  1   
 28  14  18  1   
 29  14  34  1   
 30  14  35  1   
 31  15  18  1   
 32  15  36  1   
 33  15  37  1   
 34  16  19  1   
 35  16  38  1   
 36  16  39  1   
 37  17  40  1   
 38  18  20  1   
 39  18  21  1   
 40  19  41  1   
 41  19  42  1   
 42  19  43  1   
 43  20  22  1   
 44  21  23  1   
 45  22  23  1   
 46  22  44  1   
 47  22  45  1   
 48  23  46  1   
 49  23  47  1   
@<TRIPOS>SUBSTRUCTURE
  1 ****   6 GROUP 4 **** **** 0

# MOE 2024.06 (io_trps.svl 2023.06)
