@<TRIPOS>MOLECULE
NONAME
39 40 1 0 0 
SMALL
USER_CHARGES


@<TRIPOS>ATOM
  1 O        0.1990    -0.0800    -1.2700 O.2   1 <1>  -0.5700 
  2 C        1.0190    -0.8110    -0.7950 C.2   1 <1>   0.4480 
  3 C        1.1650    -2.2670    -1.2020 C.3   1 <1>   0.0610 
  4 C        2.0430    -0.3480     0.2290 C.3   1 <1>   0.0610 
  5 C        1.0990    -3.1640     0.0590 C.3   1 <1>   0.1400 
  6 C        2.5150    -2.3480    -1.9300 C.3   1 <1>   0.3430 
  7 C        0.0590    -2.7200    -2.1820 C.3   1 <1>  -0.2400 
  8 C        1.8380    -1.1950     1.4940 C.3   1 <1>   0.1400 
  9 C        3.4490    -0.5380    -0.3810 C.3   1 <1>   0.3430 
 10 C        1.8680     1.1410     0.6060 C.3   1 <1>  -0.2400 
 11 N        1.9070    -2.6650     1.2260 N.am  1 <1>  -0.6600 
 12 N        3.6360    -1.8220    -1.1080 N.4   1 <1>  -0.9060 
 13 C        2.4710    -3.4820     2.1880 C.2   1 <1>   0.5690 
 14 O        2.8560    -3.0210     3.2380 O.2   1 <1>  -0.5700 
 15 C        2.6270    -4.9930     2.0180 C.3   1 <1>  -0.0990 
 16 C        3.9940    -5.3870     1.4170 C.3   1 <1>  -0.2660 
 17 C        4.2910    -4.5790     0.1880 C.2   1 <1>   0.9060 
 18 O        5.0300    -3.5950     0.2570 O.co2 1 <1>  -0.9000 
 19 O        3.6460    -4.7750    -0.8430 O.co2 1 <1>  -0.9000 
 20 H        1.4000    -4.1570    -0.2180 H     1 <1>   0.0800 
 21 H        0.0740    -3.2240     0.3840 H     1 <1>   0.0800 
 22 H        2.4490    -1.7730    -2.8380 H     1 <1>   0.0800 
 23 H        2.7150    -3.3700    -2.2060 H     1 <1>   0.0800 
 24 H        0.0690    -2.1170    -3.0740 H     1 <1>   0.0800 
 25 H       -0.9120    -2.6180    -1.7270 H     1 <1>   0.0800 
 26 H        0.1970    -3.7500    -2.4640 H     1 <1>   0.0800 
 27 H        2.5820    -0.9160     2.2210 H     1 <1>   0.0800 
 28 H        0.8730    -0.9780     1.9210 H     1 <1>   0.0800 
 29 H        4.1900    -0.4640     0.4000 H     1 <1>   0.0800 
 30 H        3.6210     0.2690    -1.0740 H     1 <1>   0.0800 
 31 H        0.8870     1.3120     1.0140 H     1 <1>   0.0800 
 32 H        1.9750     1.7670    -0.2640 H     1 <1>   0.0800 
 33 H        2.5970     1.4430     1.3380 H     1 <1>   0.0800 
 34 H        4.5280    -1.8800    -1.6110 H     1 <1>   0.4500 
 35 H        3.8420    -2.5740    -0.3990 H     1 <1>   0.4500 
 36 H        1.8370    -5.3910     1.4150 H     1 <1>   0.0800 
 37 H        2.5370    -5.4490     2.9870 H     1 <1>   0.0800 
 38 H        4.0070    -6.4280     1.1600 H     1 <1>   0.0800 
 39 H        4.7720    -5.1970     2.1330 H     1 <1>   0.0800 
@<TRIPOS>BOND
  1   1   2  2   
  2   2   3  1   
  3   2   4  1   
  4   3   5  1   
  5   3   6  1   
  6   3   7  1   
  7   4   8  1   
  8   4   9  1   
  9   4  10  1   
 10   5  11  1   
 11   5  20  1   
 12   5  21  1   
 13   6  12  1   
 14   6  22  1   
 15   6  23  1   
 16   7  24  1   
 17   7  25  1   
 18   7  26  1   
 19   8  11  1   
 20   8  27  1   
 21   8  28  1   
 22   9  12  1   
 23   9  29  1   
 24   9  30  1   
 25  10  31  1   
 26  10  32  1   
 27  10  33  1   
 28  11  13  am  
 29  12  34  1   
 30  12  35  1   
 31  13  14  2   
 32  13  15  1   
 33  15  16  1   
 34  15  36  1   
 35  15  37  1   
 36  16  17  1   
 37  16  38  1   
 38  16  39  1   
 39  17  18  ar  
 40  17  19  ar  
@<TRIPOS>SUBSTRUCTURE
  1 ****  11 GROUP 4 **** **** 0

# MOE 2024.06 (io_trps.svl 2023.06)
