@<TRIPOS>MOLECULE
NONAME
48 50 1 0 0 
SMALL
USER_CHARGES


@<TRIPOS>ATOM
  1 CL       2.2200     1.9340     2.5860 Cl    1 <1>  -0.1770 
  2 C        1.1670     2.7510     1.4600 C.ar  1 <1>   0.1770 
  3 C       -0.1820     2.8530     1.7460 C.ar  1 <1>  -0.1500 
  4 C        1.6980     3.2800     0.3000 C.ar  1 <1>  -0.1500 
  5 C       -1.0450     3.4970     0.8660 C.ar  1 <1>  -0.0090 
  6 C        0.8550     3.9250    -0.5850 C.ar  1 <1>  -0.1500 
  7 S       -2.8110     3.6410     1.2450 S.o2  1 <1>   1.4470 
  8 C       -0.5010     4.0350    -0.2990 C.ar  1 <1>   0.0830 
  9 O       -3.1790     5.0390     1.3250 O.2   1 <1>  -0.6500 
 10 O       -3.1230     2.7910     2.3760 O.2   1 <1>  -0.6500 
 11 N       -3.6220     2.9580    -0.0780 N.am  1 <1>  -0.8490 
 12 O       -1.2910     4.6550    -1.1950 O.3   1 <1>  -0.3630 
 13 C       -5.0430     3.3370    -0.0850 C.3   1 <1>   0.1960 
 14 C       -3.4380     1.5070    -0.1560 C.3   1 <1>   0.1960 
 15 C       -1.2890     6.0650    -1.1780 C.3   1 <1>   0.0400 
 16 C       -5.7600     2.8020    -1.3310 C.3   1 <1>  -0.0190 
 17 C       -4.0450     0.9680    -1.4540 C.3   1 <1>  -0.1600 
 18 C       -7.2210     3.2550    -1.3520 C.2   1 <1>   0.5690 
 19 C       -5.5410     1.2900    -1.5370 C.3   1 <1>  -0.1600 
 20 O       -7.5090     4.0910    -2.1760 O.2   1 <1>  -0.5700 
 21 N       -8.1800     2.7810    -0.4880 N.am  1 <1>  -0.6600 
 22 C       -8.0770     1.7360     0.5580 C.3   1 <1>   0.1400 
 23 C       -9.5530     3.3420    -0.5130 C.3   1 <1>   0.1400 
 24 C       -9.3080     1.9360     1.4310 C.3   1 <1>  -0.1600 
 25 C      -10.3540     2.5070     0.4800 C.3   1 <1>  -0.1600 
 26 H       -0.5560     2.4280     2.6620 H     1 <1>   0.1500 
 27 H        2.7500     3.1860     0.0980 H     1 <1>   0.1500 
 28 H        1.2390     4.3410    -1.5000 H     1 <1>   0.1500 
 29 H       -5.1250     4.4120    -0.0880 H     1 <1>   0.0800 
 30 H       -5.5100     2.9770     0.8130 H     1 <1>   0.0800 
 31 H       -3.9010     1.0290     0.6920 H     1 <1>   0.0800 
 32 H       -2.3860     1.2750    -0.1420 H     1 <1>   0.0800 
 33 H       -2.0120     6.4100    -1.8950 H     1 <1>   0.0800 
 34 H       -0.3080     6.4190    -1.4420 H     1 <1>   0.0800 
 35 H       -1.5600     6.4060    -0.1940 H     1 <1>   0.0800 
 36 H       -5.2900     3.2930    -2.1660 H     1 <1>   0.0800 
 37 H       -3.9000    -0.0970    -1.5020 H     1 <1>   0.0800 
 38 H       -3.5260     1.4080    -2.2890 H     1 <1>   0.0800 
 39 H       -5.9290     0.9950    -2.4980 H     1 <1>   0.0800 
 40 H       -6.0510     0.7230    -0.7840 H     1 <1>   0.0800 
 41 H       -7.1770     1.8200     1.1370 H     1 <1>   0.0800 
 42 H       -8.1240     0.7680     0.0890 H     1 <1>   0.0800 
 43 H       -9.9690     3.2880    -1.5050 H     1 <1>   0.0800 
 44 H       -9.5140     4.3720    -0.1980 H     1 <1>   0.0800 
 45 H       -9.0800     2.6550     2.1990 H     1 <1>   0.0800 
 46 H       -9.6290     1.0180     1.8910 H     1 <1>   0.0800 
 47 H      -10.8430     1.7090    -0.0510 H     1 <1>   0.0800 
 48 H      -11.0960     3.0950     0.9890 H     1 <1>   0.0800 
@<TRIPOS>BOND
  1   1   2  1   
  2   2   3  ar  
  3   2   4  ar  
  4   3   5  ar  
  5   3  26  1   
  6   4   6  ar  
  7   4  27  1   
  8   5   7  1   
  9   5   8  ar  
 10   6   8  ar  
 11   6  28  1   
 12   7   9  2   
 13   7  10  2   
 14   7  11  am  
 15   8  12  1   
 16  11  13  1   
 17  11  14  1   
 18  12  15  1   
 19  13  16  1   
 20  13  29  1   
 21  13  30  1   
 22  14  17  1   
 23  14  31  1   
 24  14  32  1   
 25  15  33  1   
 26  15  34  1   
 27  15  35  1   
 28  16  18  1   
 29  16  19  1   
 30  16  36  1   
 31  17  19  1   
 32  17  37  1   
 33  17  38  1   
 34  18  20  2   
 35  18  21  am  
 36  19  39  1   
 37  19  40  1   
 38  21  22  1   
 39  21  23  1   
 40  22  24  1   
 41  22  41  1   
 42  22  42  1   
 43  23  25  1   
 44  23  43  1   
 45  23  44  1   
 46  24  25  1   
 47  24  45  1   
 48  24  46  1   
 49  25  47  1   
 50  25  48  1   
@<TRIPOS>SUBSTRUCTURE
  1 ****  11 GROUP 4 **** **** 0

# MOE 2024.06 (io_trps.svl 2023.06)
