@<TRIPOS>MOLECULE
NONAME
29 29 1 0 0 
SMALL
USER_CHARGES


@<TRIPOS>ATOM
  1 O       -0.5700    -0.1440     0.4350 O.3   1 <1>  -0.3630 
  2 C       -1.6750     0.6060     0.3020 C.ar  1 <1>   0.7020 
  3 C        0.7260     0.4220     0.4800 C.3   1 <1>   0.0400 
  4 N       -2.7930    -0.0640     0.2690 N.ar  1 <1>  -0.6200 
  5 N       -1.5400     1.9020     0.2190 N.ar  1 <1>  -0.6200 
  6 C       -3.8420     0.6990     0.1370 C.ar  1 <1>   0.7030 
  7 C       -2.6670     2.5550     0.0880 C.ar  1 <1>   0.7200 
  8 O       -5.0130     0.0450     0.1010 O.3   1 <1>  -0.3630 
  9 N       -3.8540     2.0030     0.0390 N.ar  1 <1>  -0.6200 
 10 N       -2.5960     3.9280    -0.0100 N.pl3 1 <1>  -0.8380 
 11 C       -6.2510     0.7150    -0.0290 C.3   1 <1>   0.0400 
 12 C       -1.3580     4.6800     0.3540 C.3   1 <1>   0.2090 
 13 C       -3.7800     4.7660    -0.3590 C.3   1 <1>   0.1290 
 14 C       -0.4330     4.8050    -0.8620 C.3   1 <1>   0.1200 
 15 O        0.6470     5.6290    -0.5580 O.3   1 <1>  -0.6800 
 16 H        1.4390    -0.3760     0.5860 H     1 <1>   0.0800 
 17 H        0.7870     1.0880     1.3230 H     1 <1>   0.0800 
 18 H        0.9050     0.9570    -0.4370 H     1 <1>   0.0800 
 19 H       -7.0340    -0.0220    -0.0270 H     1 <1>   0.0800 
 20 H       -6.2570     1.2590    -0.9570 H     1 <1>   0.0800 
 21 H       -6.3730     1.3860     0.8030 H     1 <1>   0.0800 
 22 H       -0.8370     4.1680     1.1460 H     1 <1>   0.0800 
 23 H       -1.6290     5.6580     0.7090 H     1 <1>   0.0800 
 24 H       -4.4540     4.2230    -0.9990 H     1 <1>   0.0800 
 25 H       -3.4670     5.6540    -0.8790 H     1 <1>   0.0800 
 26 H       -4.3010     5.0460     0.5390 H     1 <1>   0.0800 
 27 H       -0.9560     5.2290    -1.7010 H     1 <1>   0.0800 
 28 H       -0.0450     3.8370    -1.1300 H     1 <1>   0.0800 
 29 H        0.3630     6.5590    -0.4710 H     1 <1>   0.4000 
@<TRIPOS>BOND
  1   1   2  1   
  2   1   3  1   
  3   2   4  ar  
  4   2   5  ar  
  5   3  16  1   
  6   3  17  1   
  7   3  18  1   
  8   4   6  ar  
  9   5   7  ar  
 10   6   8  1   
 11   6   9  ar  
 12   7   9  ar  
 13   7  10  1   
 14   8  11  1   
 15  10  12  1   
 16  10  13  1   
 17  11  19  1   
 18  11  20  1   
 19  11  21  1   
 20  12  14  1   
 21  12  22  1   
 22  12  23  1   
 23  13  24  1   
 24  13  25  1   
 25  13  26  1   
 26  14  15  1   
 27  14  27  1   
 28  14  28  1   
 29  15  29  1   
@<TRIPOS>SUBSTRUCTURE
  1 ****   7 GROUP 4 **** **** 0

# MOE 2024.06 (io_trps.svl 2023.06)
