@<TRIPOS>MOLECULE
NONAME
42 43 1 0 0 
SMALL
USER_CHARGES


@<TRIPOS>ATOM
  1 S        0.5450    -0.5300     1.3730 S.o2  1 <1>   1.4470 
  2 O        1.7320    -0.9130     2.1080 O.2   1 <1>  -0.6500 
  3 O       -0.2070     0.6360     1.7820 O.2   1 <1>  -0.6500 
  4 N        1.0170    -0.2560    -0.2300 N.am  1 <1>  -0.8490 
  5 C       -0.5860    -1.9360     1.2110 C.ar  1 <1>  -0.0090 
  6 C        1.6950     1.0140    -0.4090 C.3   1 <1>   0.1960 
  7 C        1.9170    -1.2550    -0.7800 C.3   1 <1>   0.1960 
  8 C       -1.7360    -1.8200     0.4430 C.ar  1 <1>  -0.1500 
  9 C       -0.3330    -3.1550     1.8280 C.ar  1 <1>  -0.1500 
 10 C        2.3650     0.9020    -1.7740 C.3   1 <1>  -0.1600 
 11 C        2.4770    -0.6000    -2.0360 C.3   1 <1>  -0.1600 
 12 C       -2.6360    -2.8630     0.2830 C.ar  1 <1>   0.1990 
 13 C       -1.2050    -4.2200     1.6790 C.ar  1 <1>  -0.1500 
 14 N       -3.7640    -2.6520    -0.5150 N.am  1 <1>  -0.6930 
 15 C       -2.3510    -4.0820     0.9190 C.ar  1 <1>   0.0830 
 16 S       -5.1600    -1.8400     0.1150 S.o2  1 <1>   1.3330 
 17 C       -3.9600    -3.5160    -1.7050 C.3   1 <1>   0.1160 
 18 O       -3.1560    -5.1700     0.8090 O.3   1 <1>  -0.3630 
 19 O       -6.2810    -2.2390    -0.7010 O.2   1 <1>  -0.6500 
 20 O       -5.1800    -2.0400     1.5430 O.2   1 <1>  -0.6500 
 21 C       -4.8000    -0.1310    -0.2300 C.3   1 <1>  -0.1350 
 22 C       -4.3670    -5.1320     1.5330 C.3   1 <1>   0.0400 
 23 H        2.4440     1.1420     0.3570 H     1 <1>   0.0800 
 24 H        0.9970     1.8340    -0.3670 H     1 <1>   0.0800 
 25 H        1.3960    -2.1720    -1.0030 H     1 <1>   0.0800 
 26 H        2.7230    -1.4550    -0.0920 H     1 <1>   0.0800 
 27 H       -1.9270    -0.8860    -0.0530 H     1 <1>   0.1500 
 28 H        0.5540    -3.2740     2.4290 H     1 <1>   0.1500 
 29 H        3.3270     1.3840    -1.7640 H     1 <1>   0.0800 
 30 H        1.7470     1.3670    -2.5220 H     1 <1>   0.0800 
 31 H        1.8750    -0.8760    -2.8840 H     1 <1>   0.0800 
 32 H        3.4930    -0.9080    -2.2100 H     1 <1>   0.0800 
 33 H       -1.0000    -5.1630     2.1540 H     1 <1>   0.1500 
 34 H       -3.0250    -3.9620    -1.9990 H     1 <1>   0.0800 
 35 H       -4.3450    -2.9320    -2.5230 H     1 <1>   0.0800 
 36 H       -4.6620    -4.2980    -1.4740 H     1 <1>   0.0800 
 37 H       -4.6100     0.0040    -1.2760 H     1 <1>   0.0800 
 38 H       -3.9420     0.1890     0.3270 H     1 <1>   0.0800 
 39 H       -5.6340     0.4800     0.0500 H     1 <1>   0.0800 
 40 H       -4.6820    -6.1420     1.7160 H     1 <1>   0.0800 
 41 H       -5.1090    -4.6220     0.9470 H     1 <1>   0.0800 
 42 H       -4.2120    -4.6170     2.4660 H     1 <1>   0.0800 
@<TRIPOS>BOND
  1   1   2  2   
  2   1   3  2   
  3   1   4  am  
  4   1   5  1   
  5   4   6  1   
  6   4   7  1   
  7   5   8  ar  
  8   5   9  ar  
  9   6  10  1   
 10   6  23  1   
 11   6  24  1   
 12   7  11  1   
 13   7  25  1   
 14   7  26  1   
 15   8  12  ar  
 16   8  27  1   
 17   9  13  ar  
 18   9  28  1   
 19  10  11  1   
 20  10  29  1   
 21  10  30  1   
 22  11  31  1   
 23  11  32  1   
 24  12  14  1   
 25  12  15  ar  
 26  13  15  ar  
 27  13  33  1   
 28  14  16  am  
 29  14  17  1   
 30  15  18  1   
 31  16  19  2   
 32  16  20  2   
 33  16  21  1   
 34  17  34  1   
 35  17  35  1   
 36  17  36  1   
 37  18  22  1   
 38  21  37  1   
 39  21  38  1   
 40  21  39  1   
 41  22  40  1   
 42  22  41  1   
 43  22  42  1   
@<TRIPOS>SUBSTRUCTURE
  1 ****   8 GROUP 4 **** **** 0

# MOE 2024.06 (io_trps.svl 2023.06)
