@<TRIPOS>MOLECULE
NONAME
54 57 1 0 0 
SMALL
USER_CHARGES


@<TRIPOS>ATOM
  1 O        3.0690   -10.3910     0.7330 O.2   1 <1>  -0.5700 
  2 C        2.6910    -9.5150    -0.0050 C.2   1 <1>   0.5690 
  3 N        1.4500    -9.5890    -0.5860 N.am  1 <1>  -0.6600 
  4 C        3.5930    -8.3110    -0.2520 C.3   1 <1>  -0.0990 
  5 C        0.6660   -10.8600    -0.5270 C.3   1 <1>   0.1400 
  6 C        0.6480    -8.4110    -1.0300 C.3   1 <1>   0.1400 
  7 C        5.0900    -8.5990    -0.0300 C.3   1 <1>  -0.1600 
  8 C       -0.5420   -10.6890     0.4080 C.3   1 <1>   0.3430 
  9 C       -0.5900    -8.2440    -0.1250 C.3   1 <1>   0.3430 
 10 C        5.9790    -7.3970    -0.3850 C.3   1 <1>  -0.0800 
 11 N       -1.3980    -9.5160     0.0060 N.4   1 <1>  -0.9590 
 12 C        7.4640    -7.6940    -0.1940 C.3   1 <1>  -0.1600 
 13 C        5.7510    -6.1660     0.4920 C.3   1 <1>  -0.1600 
 14 C       -2.5450    -9.3410     0.9400 C.3   1 <1>   0.4860 
 15 C        8.1280    -6.3210    -0.0990 C.3   1 <1>  -0.1600 
 16 C        7.0450    -5.3550     0.3940 C.3   1 <1>  -0.1600 
 17 C       -3.4520    -8.2570     0.3920 C.ar  1 <1>  -0.1440 
 18 C       -3.3990    -6.9760     0.9360 C.ar  1 <1>  -0.1500 
 19 C       -4.3280    -8.5350    -0.6600 C.ar  1 <1>  -0.1500 
 20 C       -4.2140    -6.0050     0.3920 C.ar  1 <1>   0.0820 
 21 C       -5.1440    -7.5410    -1.1870 C.ar  1 <1>  -0.1500 
 22 O       -4.3120    -4.7210     0.7440 O.3   1 <1>  -0.3620 
 23 C       -5.0620    -6.2770    -0.6390 C.ar  1 <1>   0.0820 
 24 C       -5.3040    -4.1400    -0.1030 C.3   1 <1>   0.4000 
 25 O       -5.7370    -5.1770    -0.9820 O.3   1 <1>  -0.3620 
 26 H        3.2810    -7.5210     0.4060 H     1 <1>   0.0800 
 27 H        3.4620    -7.9850    -1.2670 H     1 <1>   0.0800 
 28 H        1.2800   -11.6700    -0.1710 H     1 <1>   0.0800 
 29 H        0.3340   -11.1220    -1.5170 H     1 <1>   0.0800 
 30 H        0.3400    -8.5520    -2.0520 H     1 <1>   0.0800 
 31 H        1.2320    -7.5090    -0.9880 H     1 <1>   0.0800 
 32 H        5.3780    -9.4380    -0.6400 H     1 <1>   0.0800 
 33 H        5.2510    -8.8780     0.9980 H     1 <1>   0.0800 
 34 H       -0.1700   -10.5460     1.4100 H     1 <1>   0.0800 
 35 H       -1.1260   -11.5950     0.3980 H     1 <1>   0.0800 
 36 H       -1.2090    -7.4560    -0.5240 H     1 <1>   0.0800 
 37 H       -0.2540    -7.9320     0.8500 H     1 <1>   0.0800 
 38 H        5.8230    -7.1210    -1.4150 H     1 <1>   0.0800 
 39 H       -1.8010    -9.7080    -0.9190 H     1 <1>   0.4500 
 40 H        7.8650    -8.2820    -1.0010 H     1 <1>   0.0800 
 41 H        7.6130    -8.2220     0.7330 H     1 <1>   0.0800 
 42 H        5.6070    -6.4710     1.5140 H     1 <1>   0.0800 
 43 H        4.8990    -5.5920     0.1710 H     1 <1>   0.0800 
 44 H       -2.1910    -9.0640     1.9200 H     1 <1>   0.0800 
 45 H       -3.1010   -10.2610     1.0260 H     1 <1>   0.0800 
 46 H        8.4640    -6.0150    -1.0750 H     1 <1>   0.0800 
 47 H        8.9720    -6.3450     0.5680 H     1 <1>   0.0800 
 48 H        7.3030    -4.9360     1.3510 H     1 <1>   0.0800 
 49 H        6.9270    -4.5530    -0.3150 H     1 <1>   0.0800 
 50 H       -2.7540    -6.7150     1.7570 H     1 <1>   0.1500 
 51 H       -4.3930    -9.5240    -1.0800 H     1 <1>   0.1500 
 52 H       -5.8280    -7.7330    -1.9960 H     1 <1>   0.1500 
 53 H       -4.8700    -3.3380    -0.6740 H     1 <1>   0.0800 
 54 H       -6.1340    -3.8010     0.4920 H     1 <1>   0.0800 
@<TRIPOS>BOND
  1   1   2  2   
  2   2   3  am  
  3   2   4  1   
  4   3   5  1   
  5   3   6  1   
  6   4   7  1   
  7   4  26  1   
  8   4  27  1   
  9   5   8  1   
 10   5  28  1   
 11   5  29  1   
 12   6   9  1   
 13   6  30  1   
 14   6  31  1   
 15   7  10  1   
 16   7  32  1   
 17   7  33  1   
 18   8  11  1   
 19   8  34  1   
 20   8  35  1   
 21   9  11  1   
 22   9  36  1   
 23   9  37  1   
 24  10  12  1   
 25  10  13  1   
 26  10  38  1   
 27  11  14  1   
 28  11  39  1   
 29  12  15  1   
 30  12  40  1   
 31  12  41  1   
 32  13  16  1   
 33  13  42  1   
 34  13  43  1   
 35  14  17  1   
 36  14  44  1   
 37  14  45  1   
 38  15  16  1   
 39  15  46  1   
 40  15  47  1   
 41  16  48  1   
 42  16  49  1   
 43  17  18  ar  
 44  17  19  ar  
 45  18  20  ar  
 46  18  50  1   
 47  19  21  ar  
 48  19  51  1   
 49  20  22  1   
 50  20  23  ar  
 51  21  23  ar  
 52  21  52  1   
 53  22  24  1   
 54  23  25  1   
 55  24  25  1   
 56  24  53  1   
 57  24  54  1   
@<TRIPOS>SUBSTRUCTURE
  1 ****   9 GROUP 4 **** **** 0

# MOE 2024.06 (io_trps.svl 2023.06)
