@<TRIPOS>MOLECULE
NONAME
30 30 1 0 0 
SMALL
USER_CHARGES


@<TRIPOS>ATOM
  1 CL      -0.0680     0.0350    -0.3760 Cl    1 <1>  -0.1770 
  2 C        1.3870    -0.9010    -0.1120 C.ar  1 <1>   0.1770 
  3 C        1.3620    -2.1000     0.5890 C.ar  1 <1>  -0.1440 
  4 C        2.5640    -0.3950    -0.6340 C.ar  1 <1>  -0.1500 
  5 C        2.5650    -2.7830     0.7500 C.ar  1 <1>  -0.1500 
  6 C        0.0460    -2.6340     1.1580 C.3   1 <1>   1.1640 
  7 C        3.7450    -1.0910    -0.4620 C.ar  1 <1>  -0.1500 
  8 C        3.7600    -2.2970     0.2300 C.ar  1 <1>   0.1990 
  9 F       -0.5110    -1.7950     2.0220 F     1 <1>  -0.3400 
 10 F        0.1930    -3.7780     1.8150 F     1 <1>  -0.3400 
 11 F       -0.8580    -2.8700     0.2170 F     1 <1>  -0.3400 
 12 N        4.9470    -3.0000     0.4030 N.am  1 <1>  -0.6930 
 13 S        5.1990    -4.5790    -0.2650 S.o2  1 <1>   1.3330 
 14 C        6.1270    -2.3160     1.0210 C.3   1 <1>   0.2570 
 15 O        6.4840    -5.0370     0.2130 O.2   1 <1>  -0.6500 
 16 O        4.0070    -5.3550    -0.0310 O.2   1 <1>  -0.6500 
 17 C        5.3270    -4.2260    -2.0050 C.3   1 <1>  -0.1350 
 18 C        7.2280    -1.9410     0.0230 C.2   1 <1>   0.5690 
 19 O        7.2430    -0.8400    -0.4670 O.2   1 <1>  -0.5700 
 20 N        8.1740    -2.8390    -0.3200 N.am  1 <1>  -0.8000 
 21 H        2.5510     0.5380    -1.1700 H     1 <1>   0.1500 
 22 H        2.5940    -3.7150     1.2910 H     1 <1>   0.1500 
 23 H        4.6590    -0.6950    -0.8710 H     1 <1>   0.1500 
 24 H        6.5470    -2.9570     1.7750 H     1 <1>   0.0800 
 25 H        5.7990    -1.4170     1.5110 H     1 <1>   0.0800 
 26 H        6.1340    -3.5470    -2.1940 H     1 <1>   0.0800 
 27 H        4.4160    -3.7860    -2.3600 H     1 <1>   0.0800 
 28 H        5.5040    -5.1320    -2.5510 H     1 <1>   0.0800 
 29 H        8.9240    -2.5850    -0.9640 H     1 <1>   0.3700 
 30 H        8.1300    -3.8230    -0.0200 H     1 <1>   0.3700 
@<TRIPOS>BOND
  1   1   2  1   
  2   2   3  ar  
  3   2   4  ar  
  4   3   5  ar  
  5   3   6  1   
  6   4   7  ar  
  7   4  21  1   
  8   5   8  ar  
  9   5  22  1   
 10   6   9  1   
 11   6  10  1   
 12   6  11  1   
 13   7   8  ar  
 14   7  23  1   
 15   8  12  1   
 16  12  13  am  
 17  12  14  1   
 18  13  15  2   
 19  13  16  2   
 20  13  17  1   
 21  14  18  1   
 22  14  24  1   
 23  14  25  1   
 24  17  26  1   
 25  17  27  1   
 26  17  28  1   
 27  18  19  2   
 28  18  20  am  
 29  20  29  1   
 30  20  30  1   
@<TRIPOS>SUBSTRUCTURE
  1 ****   8 GROUP 4 **** **** 0

# MOE 2024.06 (io_trps.svl 2023.06)
