@<TRIPOS>MOLECULE
NONAME
37 38 1 0 0 
SMALL
USER_CHARGES


@<TRIPOS>ATOM
  1 O      -11.3450     2.8080     0.8900 O.3   1 <1>  -0.3630 
  2 C      -10.4060     2.2290     0.1010 C.ar  1 <1>   0.0830 
  3 C      -12.3680     1.9680     1.3960 C.3   1 <1>   0.1200 
  4 C      -10.5890     0.9490    -0.4240 C.ar  1 <1>   0.0830 
  5 C       -9.2470     2.9300    -0.1740 C.ar  1 <1>  -0.1500 
  6 C      -12.8310     0.9760     0.3180 C.3   1 <1>   0.1200 
  7 O      -11.7260     0.2500    -0.1880 O.3   1 <1>  -0.3630 
  8 C       -9.6000     0.3770    -1.2040 C.ar  1 <1>  -0.1500 
  9 C       -8.2540     2.3560    -0.9560 C.ar  1 <1>  -0.1430 
 10 C       -8.4350     1.0780    -1.4700 C.ar  1 <1>  -0.1500 
 11 C       -6.9780     3.1160    -1.2290 C.3   1 <1>   0.4860 
 12 N       -6.0530     2.7740    -0.1360 N.4   1 <1>  -0.9060 
 13 C       -4.7230     3.4110    -0.1940 C.3   1 <1>   0.4230 
 14 C       -3.7010     2.4560     0.4660 C.3   1 <1>   0.1200 
 15 C       -4.7860     4.7880     0.4810 C.3   1 <1>  -0.1600 
 16 O       -4.0480     1.1290     0.1850 O.3   1 <1>  -0.6800 
 17 C       -3.4630     5.5620     0.3750 C.3   1 <1>  -0.2400 
 18 H      -13.1830     2.5920     1.7150 H     1 <1>   0.0800 
 19 H      -11.9760     1.4370     2.2460 H     1 <1>   0.0800 
 20 H       -9.1450     3.9200     0.2370 H     1 <1>   0.1500 
 21 H      -13.2900     1.5010    -0.5010 H     1 <1>   0.0800 
 22 H      -13.5340     0.2710     0.7240 H     1 <1>   0.0800 
 23 H       -9.7530    -0.6120    -1.5990 H     1 <1>   0.1500 
 24 H       -7.6810     0.6110    -2.0820 H     1 <1>   0.1500 
 25 H       -7.1760     4.1760    -1.2410 H     1 <1>   0.0800 
 26 H       -6.5660     2.8220    -2.1810 H     1 <1>   0.0800 
 27 H       -5.8510     1.7590    -0.1740 H     1 <1>   0.4500 
 28 H       -6.5080     2.9230     0.7680 H     1 <1>   0.4500 
 29 H       -4.4340     3.5370    -1.2250 H     1 <1>   0.0800 
 30 H       -3.6960     2.5810     1.5360 H     1 <1>   0.0800 
 31 H       -2.7110     2.6450     0.0870 H     1 <1>   0.0800 
 32 H       -5.0380     4.6770     1.5220 H     1 <1>   0.0800 
 33 H       -5.5520     5.3820     0.0120 H     1 <1>   0.0800 
 34 H       -3.3720     0.5060     0.5360 H     1 <1>   0.4000 
 35 H       -2.6690     5.0600     0.9010 H     1 <1>   0.0800 
 36 H       -3.5780     6.5400     0.8110 H     1 <1>   0.0800 
 37 H       -3.1730     5.6890    -0.6540 H     1 <1>   0.0800 
@<TRIPOS>BOND
  1   1   2  1   
  2   1   3  1   
  3   2   4  ar  
  4   2   5  ar  
  5   3   6  1   
  6   3  18  1   
  7   3  19  1   
  8   4   7  1   
  9   4   8  ar  
 10   5   9  ar  
 11   5  20  1   
 12   6   7  1   
 13   6  21  1   
 14   6  22  1   
 15   8  10  ar  
 16   8  23  1   
 17   9  10  ar  
 18   9  11  1   
 19  10  24  1   
 20  11  12  1   
 21  11  25  1   
 22  11  26  1   
 23  12  13  1   
 24  12  27  1   
 25  12  28  1   
 26  13  14  1   
 27  13  15  1   
 28  13  29  1   
 29  14  16  1   
 30  14  30  1   
 31  14  31  1   
 32  15  17  1   
 33  15  32  1   
 34  15  33  1   
 35  16  34  1   
 36  17  35  1   
 37  17  36  1   
 38  17  37  1   
@<TRIPOS>SUBSTRUCTURE
  1 ****   9 GROUP 4 **** **** 0

# MOE 2024.06 (io_trps.svl 2023.06)
