@<TRIPOS>MOLECULE
NONAME
36 38 1 0 0 
SMALL
USER_CHARGES


@<TRIPOS>ATOM
  1 O        0.5800    -0.3680     1.1680 O.2   1 <1>  -0.5700 
  2 C        0.9510    -1.4110     0.6930 C.2   1 <1>   0.5690 
  3 N        0.1250    -2.3260     0.1240 N.am  1 <1>  -0.7300 
  4 C        2.4200    -1.7370     0.7290 C.3   1 <1>  -0.1790 
  5 C       -1.3400    -2.2760    -0.0530 C.3   1 <1>   0.3000 
  6 C       -1.7110    -3.5210    -0.8730 C.3   1 <1>  -0.1600 
  7 C       -2.0250    -2.2760     1.3270 C.3   1 <1>  -0.1600 
  8 C       -1.7370    -1.0300    -0.8550 C.3   1 <1>  -0.1600 
  9 C       -3.1910    -3.5890    -1.2940 C.3   1 <1>  -0.0800 
 10 C       -3.5500    -2.0400     1.2880 C.3   1 <1>  -0.0800 
 11 C       -3.2570    -1.0120    -1.0590 C.3   1 <1>  -0.0800 
 12 C       -4.0840    -4.1730    -0.1880 C.3   1 <1>  -0.1600 
 13 C       -3.7040    -2.2490    -1.8570 C.3   1 <1>  -0.1600 
 14 C       -4.3670    -3.3220     1.0620 C.3   1 <1>  -0.1600 
 15 C       -3.9460    -0.9180     0.3100 C.3   1 <1>  -0.1600 
 16 H        0.5370    -3.1840    -0.2330 H     1 <1>   0.3700 
 17 H        2.5790    -2.6340     1.2980 H     1 <1>   0.0800 
 18 H        2.9590    -0.9310     1.1930 H     1 <1>   0.0800 
 19 H        2.7870    -1.8720    -0.2710 H     1 <1>   0.0800 
 20 H       -1.4510    -4.4090    -0.3250 H     1 <1>   0.0800 
 21 H       -1.1250    -3.5110    -1.7750 H     1 <1>   0.0800 
 22 H       -1.6050    -1.4740     1.9070 H     1 <1>   0.0800 
 23 H       -1.8110    -3.1930     1.8450 H     1 <1>   0.0800 
 24 H       -1.2410    -1.0310    -1.8090 H     1 <1>   0.0800 
 25 H       -1.4470    -0.1390    -0.3270 H     1 <1>   0.0800 
 26 H       -3.2440    -4.3000    -2.1020 H     1 <1>   0.0800 
 27 H       -3.8310    -1.6960     2.2690 H     1 <1>   0.0800 
 28 H       -3.5180    -0.1330    -1.6240 H     1 <1>   0.0800 
 29 H       -3.6490    -5.1040     0.1340 H     1 <1>   0.0800 
 30 H       -5.0320    -4.4290    -0.6290 H     1 <1>   0.0800 
 31 H       -4.7770    -2.2680    -1.9340 H     1 <1>   0.0800 
 32 H       -3.3200    -2.1440    -2.8570 H     1 <1>   0.0800 
 33 H       -5.4090    -3.0520     1.0520 H     1 <1>   0.0800 
 34 H       -4.2360    -3.9540     1.9240 H     1 <1>   0.0800 
 35 H       -3.6660     0.0220     0.7550 H     1 <1>   0.0800 
 36 H       -5.0140    -0.8950     0.1810 H     1 <1>   0.0800 
@<TRIPOS>BOND
  1   1   2  2   
  2   2   3  am  
  3   2   4  1   
  4   3   5  1   
  5   3  16  1   
  6   4  17  1   
  7   4  18  1   
  8   4  19  1   
  9   5   6  1   
 10   5   7  1   
 11   5   8  1   
 12   6   9  1   
 13   6  20  1   
 14   6  21  1   
 15   7  10  1   
 16   7  22  1   
 17   7  23  1   
 18   8  11  1   
 19   8  24  1   
 20   8  25  1   
 21   9  12  1   
 22   9  13  1   
 23   9  26  1   
 24  10  14  1   
 25  10  15  1   
 26  10  27  1   
 27  11  13  1   
 28  11  15  1   
 29  11  28  1   
 30  12  14  1   
 31  12  29  1   
 32  12  30  1   
 33  13  31  1   
 34  13  32  1   
 35  14  33  1   
 36  14  34  1   
 37  15  35  1   
 38  15  36  1   
@<TRIPOS>SUBSTRUCTURE
  1 ****   5 GROUP 4 **** **** 0

# MOE 2024.06 (io_trps.svl 2023.06)
