@<TRIPOS>MOLECULE
NONAME
41 44 1 0 0 
SMALL
USER_CHARGES


@<TRIPOS>ATOM
  1 CL      -0.4640    -0.1010     0.6390 Cl    1 <1>  -0.1770 
  2 C       -1.7740     0.9590     0.1890 C.ar  1 <1>   0.1770 
  3 C       -2.9530     0.9220     0.9070 C.ar  1 <1>  -0.1500 
  4 C       -1.6130     1.8200    -0.8800 C.ar  1 <1>  -0.1500 
  5 C       -3.9910     1.7680     0.5520 C.ar  1 <1>  -0.1500 
  6 C       -2.6520     2.6640    -1.2330 C.ar  1 <1>  -0.1500 
  7 C       -3.8430     2.6470    -0.5160 C.ar  1 <1>  -0.1430 
  8 C       -4.9750     3.5840    -0.8980 C.3   1 <1>   0.4870 
  9 N       -5.0310     4.6950     0.0880 N.4   1 <1>  -0.9590 
 10 C       -6.2590     5.5530    -0.1200 C.3   1 <1>   0.3430 
 11 C       -3.7660     5.5270     0.0600 C.3   1 <1>   0.3430 
 12 C       -6.3180     6.7380     0.8630 C.3   1 <1>   0.2090 
 13 C       -3.8150     6.7440     1.0100 C.3   1 <1>   0.2090 
 14 N       -5.0590     7.5320     0.7680 N.pl3 1 <1>  -0.8380 
 15 C       -5.0060     8.7090     0.0330 C.ar  1 <1>   0.4100 
 16 N       -5.9030     8.8460    -0.9250 N.ar  1 <1>  -0.6200 
 17 C       -4.0410     9.7160     0.2580 C.ar  1 <1>   0.2270 
 18 C       -5.8620     9.9890    -1.6280 C.ar  1 <1>   0.4700 
 19 N       -2.9860     9.8500     1.1300 N.2   1 <1>  -0.5650 
 20 C       -4.1230    10.8250    -0.5420 C.ar  1 <1>   0.1050 
 21 N       -5.0300    10.9960    -1.5060 N.ar  1 <1>  -0.5670 
 22 C       -2.4890    11.0060     0.8480 C.2   1 <1>   0.0360 
 23 N       -3.1330    11.6520    -0.1580 N.pl3 1 <1>   0.0330 
 24 H       -3.0510     0.2350     1.7300 H     1 <1>   0.1500 
 25 H       -0.6850     1.8210    -1.4240 H     1 <1>   0.1500 
 26 H       -4.9090     1.7230     1.1150 H     1 <1>   0.1500 
 27 H       -2.5180     3.3260    -2.0730 H     1 <1>   0.1500 
 28 H       -5.9040     3.0370    -0.8950 H     1 <1>   0.0800 
 29 H       -4.8120     3.9740    -1.8900 H     1 <1>   0.0800 
 30 H       -5.0850     4.2720     1.0220 H     1 <1>   0.4500 
 31 H       -7.1500     4.9580    -0.0060 H     1 <1>   0.0800 
 32 H       -6.2540     5.9580    -1.1180 H     1 <1>   0.0800 
 33 H       -3.6050     5.8990    -0.9380 H     1 <1>   0.0800 
 34 H       -2.9180     4.9160     0.3230 H     1 <1>   0.0800 
 35 H       -6.4400     6.3800     1.8700 H     1 <1>   0.0800 
 36 H       -7.1710     7.3570     0.6370 H     1 <1>   0.0800 
 37 H       -2.9410     7.3470     0.8400 H     1 <1>   0.0800 
 38 H       -3.7890     6.4190     2.0350 H     1 <1>   0.0800 
 39 H       -6.6140    10.0850    -2.3940 H     1 <1>   0.1500 
 40 H       -1.6410    11.4440     1.3480 H     1 <1>   0.1500 
 41 H       -2.9380    12.5710    -0.5610 H     1 <1>   0.2700 
@<TRIPOS>BOND
  1   1   2  1   
  2   2   3  ar  
  3   2   4  ar  
  4   3   5  ar  
  5   3  24  1   
  6   4   6  ar  
  7   4  25  1   
  8   5   7  ar  
  9   5  26  1   
 10   6   7  ar  
 11   6  27  1   
 12   7   8  1   
 13   8   9  1   
 14   8  28  1   
 15   8  29  1   
 16   9  10  1   
 17   9  11  1   
 18   9  30  1   
 19  10  12  1   
 20  10  31  1   
 21  10  32  1   
 22  11  13  1   
 23  11  33  1   
 24  11  34  1   
 25  12  14  1   
 26  12  35  1   
 27  12  36  1   
 28  13  14  1   
 29  13  37  1   
 30  13  38  1   
 31  14  15  1   
 32  15  16  ar  
 33  15  17  ar  
 34  16  18  ar  
 35  17  19  1   
 36  17  20  ar  
 37  18  21  ar  
 38  18  39  1   
 39  19  22  2   
 40  20  21  ar  
 41  20  23  1   
 42  22  23  1   
 43  22  40  1   
 44  23  41  1   
@<TRIPOS>SUBSTRUCTURE
  1 ****  11 GROUP 4 **** **** 0

# MOE 2024.06 (io_trps.svl 2023.06)
