@<TRIPOS>MOLECULE
NONAME
29 29 1 0 0 
SMALL
USER_CHARGES


@<TRIPOS>ATOM
  1 BR      -0.2930    -0.3860    -1.2870 Br    1 <1>  -0.1110 
  2 C        1.3930    -1.1460    -0.7580 C.ar  1 <1>   0.1110 
  3 C        1.4670    -2.5020    -0.5120 C.ar  1 <1>  -0.1500 
  4 C        2.4900    -0.3170    -0.6370 C.ar  1 <1>  -0.1500 
  5 C        2.6860    -3.0390    -0.1320 C.ar  1 <1>  -0.1500 
  6 C        3.7000    -0.8750    -0.2560 C.ar  1 <1>  -0.1500 
  7 C        3.8200    -2.2390     0.0010 C.ar  1 <1>  -0.0090 
  8 S        5.4170    -2.9440     0.4970 S.o2  1 <1>   1.4470 
  9 O        5.3510    -4.3870     0.4470 O.2   1 <1>  -0.6500 
 10 O        5.8770    -2.2740     1.6910 O.2   1 <1>  -0.6500 
 11 N        6.4080    -2.5460    -0.8010 N.am  1 <1>  -0.9140 
 12 C        7.8390    -2.3950    -0.5910 C.3   1 <1>   0.2760 
 13 C        8.4500    -3.5800     0.1780 C.3   1 <1>  -0.1600 
 14 C        8.1440    -1.0290     0.0230 C.3   1 <1>  -0.2400 
 15 C        9.9840    -3.6090     0.1100 C.3   1 <1>  -0.2400 
 16 H        0.5930    -3.1200    -0.6150 H     1 <1>   0.1500 
 17 H        2.4000     0.7370    -0.8350 H     1 <1>   0.1500 
 18 H        2.7580    -4.0970     0.0650 H     1 <1>   0.1500 
 19 H        4.5680    -0.2440    -0.1550 H     1 <1>   0.1500 
 20 H        6.2970    -3.3510    -1.4110 H     1 <1>   0.4200 
 21 H        8.2850    -2.3910    -1.5730 H     1 <1>   0.0800 
 22 H        8.0810    -4.5010    -0.2390 H     1 <1>   0.0800 
 23 H        8.1590    -3.5400     1.2140 H     1 <1>   0.0800 
 24 H        7.9000    -1.0020     1.0690 H     1 <1>   0.0800 
 25 H        7.5970    -0.2600    -0.4910 H     1 <1>   0.0800 
 26 H        9.1910    -0.8110    -0.0730 H     1 <1>   0.0800 
 27 H       10.3190    -3.6350    -0.9120 H     1 <1>   0.0800 
 28 H       10.3530    -4.4870     0.6110 H     1 <1>   0.0800 
 29 H       10.4050    -2.7460     0.5950 H     1 <1>   0.0800 
@<TRIPOS>BOND
  1   1   2  1   
  2   2   3  ar  
  3   2   4  ar  
  4   3   5  ar  
  5   3  16  1   
  6   4   6  ar  
  7   4  17  1   
  8   5   7  ar  
  9   5  18  1   
 10   6   7  ar  
 11   6  19  1   
 12   7   8  1   
 13   8   9  2   
 14   8  10  2   
 15   8  11  am  
 16  11  12  1   
 17  11  20  1   
 18  12  13  1   
 19  12  14  1   
 20  12  21  1   
 21  13  15  1   
 22  13  22  1   
 23  13  23  1   
 24  14  24  1   
 25  14  25  1   
 26  14  26  1   
 27  15  27  1   
 28  15  28  1   
 29  15  29  1   
@<TRIPOS>SUBSTRUCTURE
  1 ****   7 GROUP 4 **** **** 0

# MOE 2024.06 (io_trps.svl 2023.06)
