@<TRIPOS>MOLECULE
NONAME
44 44 1 0 0 
SMALL
USER_CHARGES


@<TRIPOS>ATOM
  1 CL      -0.0100    -0.1890    -0.1200 Cl    1 <1>  -0.1770 
  2 C        1.5960    -0.8910    -0.0530 C.ar  1 <1>   0.1770 
  3 C        1.7280    -2.2660     0.0950 C.ar  1 <1>  -0.1440 
  4 C        2.7040    -0.0580    -0.1500 C.ar  1 <1>  -0.1440 
  5 C        3.0020    -2.8070     0.1470 C.ar  1 <1>  -0.1500 
  6 C        0.5090    -3.1700     0.2010 C.3   1 <1>  -0.0960 
  7 C        3.9700    -0.6200    -0.0970 C.ar  1 <1>  -0.1500 
  8 C        2.5420     1.4470    -0.3130 C.3   1 <1>  -0.0960 
  9 C        4.1230    -1.9970     0.0520 C.ar  1 <1>   0.0830 
 10 O        5.3270    -2.6200     0.1120 O.3   1 <1>  -0.3630 
 11 C        6.5340    -1.8950     0.0250 C.3   1 <1>   0.1200 
 12 C        7.6880    -2.8880     0.1250 C.3   1 <1>   0.1200 
 13 O        8.8950    -2.1880     0.0380 O.3   1 <1>  -0.5600 
 14 C       10.0250    -2.9880     0.1150 C.3   1 <1>   0.1200 
 15 C       11.2430    -2.0660     0.0060 C.3   1 <1>   0.3430 
 16 N       12.5270    -2.8290     0.0650 N.4   1 <1>  -0.9060 
 17 C       13.7160    -1.9760    -0.0660 C.3   1 <1>   0.4230 
 18 C       14.9020    -2.8890    -0.3430 C.3   1 <1>  -0.2400 
 19 C       13.9250    -1.1960     1.2290 C.3   1 <1>  -0.2400 
 20 H        3.1420    -3.8670     0.2610 H     1 <1>   0.1500 
 21 H       -0.0830    -2.8900     1.0540 H     1 <1>   0.0800 
 22 H        0.8000    -4.1990     0.3110 H     1 <1>   0.0800 
 23 H       -0.0940    -3.0790    -0.6850 H     1 <1>   0.0800 
 24 H        4.8250     0.0230    -0.1720 H     1 <1>   0.1500 
 25 H        2.0030     1.8500     0.5260 H     1 <1>   0.0800 
 26 H        1.9930     1.6610    -1.2130 H     1 <1>   0.0800 
 27 H        3.4970     1.9370    -0.3720 H     1 <1>   0.0800 
 28 H        6.5670    -1.1950     0.8410 H     1 <1>   0.0800 
 29 H        6.5550    -1.3860    -0.9220 H     1 <1>   0.0800 
 30 H        7.6350    -3.5930    -0.6870 H     1 <1>   0.0800 
 31 H        7.6490    -3.4000     1.0710 H     1 <1>   0.0800 
 32 H        9.9980    -3.6910    -0.7010 H     1 <1>   0.0800 
 33 H       10.0140    -3.5010     1.0620 H     1 <1>   0.0800 
 34 H       11.2030    -1.3530     0.8130 H     1 <1>   0.0800 
 35 H       11.1830    -1.5280    -0.9270 H     1 <1>   0.0800 
 36 H       12.5510    -3.5240    -0.6900 H     1 <1>   0.4500 
 37 H       12.5990    -3.3400     0.9520 H     1 <1>   0.4500 
 38 H       13.5940    -1.2910    -0.8920 H     1 <1>   0.0800 
 39 H       15.0580    -3.5870     0.4610 H     1 <1>   0.0800 
 40 H       15.7950    -2.2970    -0.4450 H     1 <1>   0.0800 
 41 H       14.7650    -3.4260    -1.2650 H     1 <1>   0.0800 
 42 H       14.0300    -1.8560     2.0720 H     1 <1>   0.0800 
 43 H       13.1170    -0.5100     1.4070 H     1 <1>   0.0800 
 44 H       14.8260    -0.6120     1.1530 H     1 <1>   0.0800 
@<TRIPOS>BOND
  1   1   2  1   
  2   2   3  ar  
  3   2   4  ar  
  4   3   5  ar  
  5   3   6  1   
  6   4   7  ar  
  7   4   8  1   
  8   5   9  ar  
  9   5  20  1   
 10   6  21  1   
 11   6  22  1   
 12   6  23  1   
 13   7   9  ar  
 14   7  24  1   
 15   8  25  1   
 16   8  26  1   
 17   8  27  1   
 18   9  10  1   
 19  10  11  1   
 20  11  12  1   
 21  11  28  1   
 22  11  29  1   
 23  12  13  1   
 24  12  30  1   
 25  12  31  1   
 26  13  14  1   
 27  14  15  1   
 28  14  32  1   
 29  14  33  1   
 30  15  16  1   
 31  15  34  1   
 32  15  35  1   
 33  16  17  1   
 34  16  36  1   
 35  16  37  1   
 36  17  18  1   
 37  17  19  1   
 38  17  38  1   
 39  18  39  1   
 40  18  40  1   
 41  18  41  1   
 42  19  42  1   
 43  19  43  1   
 44  19  44  1   
@<TRIPOS>SUBSTRUCTURE
  1 ****  11 GROUP 4 **** **** 0

# MOE 2024.06 (io_trps.svl 2023.06)
