@<TRIPOS>MOLECULE
NONAME
40 41 1 0 0 
SMALL
USER_CHARGES


@<TRIPOS>ATOM
  1 S       -0.3540    -0.7540     0.4200 S.o2  1 <1>   1.3330 
  2 O        0.5140    -0.4470     1.5320 O.2   1 <1>  -0.6500 
  3 O       -0.1610    -1.9660    -0.3340 O.2   1 <1>  -0.6500 
  4 N       -0.1880     0.5500    -0.7040 N.am  1 <1>  -0.6930 
  5 C       -2.0630    -0.6470     0.9060 C.3   1 <1>  -0.1350 
  6 C       -0.6260     1.8390    -0.4190 C.ar  1 <1>   0.1990 
  7 C        0.9350     0.4160    -1.6870 C.3   1 <1>   0.2570 
  8 C       -0.1800     2.5360     0.7040 C.ar  1 <1>  -0.1500 
  9 C       -1.5340     2.4510    -1.2800 C.ar  1 <1>  -0.1500 
 10 C        2.2870     0.9530    -1.2000 C.2   1 <1>   0.5690 
 11 C       -0.6370     3.8150     0.9690 C.ar  1 <1>  -0.1500 
 12 C       -1.9990     3.7300    -1.0290 C.ar  1 <1>  -0.1500 
 13 O        2.9590     1.5710    -1.9920 O.2   1 <1>  -0.5700 
 14 N        2.6910     0.7230     0.0840 N.am  1 <1>  -0.7300 
 15 C       -1.5410     4.3890     0.0960 C.ar  1 <1>   0.1900 
 16 C        3.9140     1.1910     0.7710 C.3   1 <1>   0.2200 
 17 F       -1.9790     5.5970     0.3430 F     1 <1>  -0.1900 
 18 C        4.0530     2.7170     0.7280 C.3   1 <1>  -0.1600 
 19 C        5.1820     0.6120     0.1340 C.3   1 <1>  -0.1600 
 20 C        5.3110     3.0060    -0.0930 C.3   1 <1>  -0.1600 
 21 C        6.1800     1.7670     0.0850 C.3   1 <1>  -0.1600 
 22 H       -2.2990    -1.4360     1.5940 H     1 <1>   0.0800 
 23 H       -2.6980    -0.7400     0.0470 H     1 <1>   0.0800 
 24 H       -2.2590     0.2930     1.3830 H     1 <1>   0.0800 
 25 H        0.6730     0.9550    -2.5800 H     1 <1>   0.0800 
 26 H        1.0640    -0.6140    -1.9660 H     1 <1>   0.0800 
 27 H        0.5330     2.0830     1.3690 H     1 <1>   0.1500 
 28 H       -1.8740     1.9170    -2.1500 H     1 <1>   0.1500 
 29 H       -0.2980     4.3620     1.8320 H     1 <1>   0.1500 
 30 H       -2.7000     4.2120    -1.6870 H     1 <1>   0.1500 
 31 H        2.0450     0.2220     0.7100 H     1 <1>   0.3700 
 32 H        3.8650     0.8810     1.8020 H     1 <1>   0.0800 
 33 H        4.2000     3.0790     1.7300 H     1 <1>   0.0800 
 34 H        3.1900     3.2020     0.3060 H     1 <1>   0.0800 
 35 H        4.9830     0.2840    -0.8710 H     1 <1>   0.0800 
 36 H        5.5660    -0.2140     0.7050 H     1 <1>   0.0800 
 37 H        5.8090     3.9050     0.2250 H     1 <1>   0.0800 
 38 H        5.0400     3.1020    -1.1320 H     1 <1>   0.0800 
 39 H        6.8880     1.6540    -0.7180 H     1 <1>   0.0800 
 40 H        6.7090     1.8300     1.0210 H     1 <1>   0.0800 
@<TRIPOS>BOND
  1   1   2  2   
  2   1   3  2   
  3   1   4  am  
  4   1   5  1   
  5   4   6  1   
  6   4   7  1   
  7   5  22  1   
  8   5  23  1   
  9   5  24  1   
 10   6   8  ar  
 11   6   9  ar  
 12   7  10  1   
 13   7  25  1   
 14   7  26  1   
 15   8  11  ar  
 16   8  27  1   
 17   9  12  ar  
 18   9  28  1   
 19  10  13  2   
 20  10  14  am  
 21  11  15  ar  
 22  11  29  1   
 23  12  15  ar  
 24  12  30  1   
 25  14  16  1   
 26  14  31  1   
 27  15  17  1   
 28  16  18  1   
 29  16  19  1   
 30  16  32  1   
 31  18  20  1   
 32  18  33  1   
 33  18  34  1   
 34  19  21  1   
 35  19  35  1   
 36  19  36  1   
 37  20  21  1   
 38  20  37  1   
 39  20  38  1   
 40  21  39  1   
 41  21  40  1   
@<TRIPOS>SUBSTRUCTURE
  1 ****   8 GROUP 4 **** **** 0

# MOE 2024.06 (io_trps.svl 2023.06)
