@<TRIPOS>MOLECULE
NONAME
35 35 1 0 0 
SMALL
USER_CHARGES


@<TRIPOS>ATOM
  1 O       -2.7760     0.5130     2.9570 O.3   1 <1>  -0.5320 
  2 C       -2.8240     0.8360     1.6580 C.ar  1 <1>   0.0830 
  3 C       -4.0250     0.7060     0.9860 C.ar  1 <1>  -0.1500 
  4 C       -1.6930     1.2900     1.0020 C.ar  1 <1>  -0.1500 
  5 C       -4.1080     1.0420    -0.3580 C.ar  1 <1>  -0.1430 
  6 C       -1.7710     1.6180    -0.3390 C.ar  1 <1>  -0.1500 
  7 C       -2.9720     1.4940    -1.0180 C.ar  1 <1>  -0.1500 
  8 C       -5.4290     0.9230    -1.0890 C.3   1 <1>   0.4860 
  9 N       -6.3680     1.9290    -0.5300 N.4   1 <1>  -0.9590 
 10 C       -7.7660     1.6540    -0.9140 C.3   1 <1>   0.4810 
 11 C       -5.9290     3.3190    -0.8230 C.3   1 <1>   0.3430 
 12 C       -8.4110     0.9670     0.2750 C.2   1 <1>  -0.2760 
 13 C       -6.6120     4.2850     0.1370 C.3   1 <1>  -0.2400 
 14 C       -9.2020     1.6150     1.1360 C.2   1 <1>  -0.3000 
 15 C       -8.1210    -0.5230     0.4240 C.3   1 <1>  -0.1020 
 16 H       -1.8870     0.6050     3.3480 H     1 <1>   0.4500 
 17 H       -4.8740     0.3400     1.5350 H     1 <1>   0.1500 
 18 H       -0.7580     1.3880     1.5260 H     1 <1>   0.1500 
 19 H       -0.8920     1.9670    -0.8560 H     1 <1>   0.1500 
 20 H       -3.0040     1.7530    -2.0630 H     1 <1>   0.1500 
 21 H       -5.8190    -0.0720    -0.9480 H     1 <1>   0.0800 
 22 H       -5.2870     1.0880    -2.1440 H     1 <1>   0.0800 
 23 H       -6.3440     1.8180     0.4920 H     1 <1>   0.4500 
 24 H       -7.8250     1.0410    -1.7990 H     1 <1>   0.0800 
 25 H       -8.2840     2.5800    -1.1040 H     1 <1>   0.0800 
 26 H       -6.1590     3.5790    -1.8450 H     1 <1>   0.0800 
 27 H       -4.8620     3.4010    -0.6850 H     1 <1>   0.0800 
 28 H       -7.6760     4.3110    -0.0130 H     1 <1>   0.0800 
 29 H       -6.2340     5.2770    -0.0350 H     1 <1>   0.0800 
 30 H       -6.3960     4.0230     1.1580 H     1 <1>   0.0800 
 31 H       -9.4530     2.6620     1.0800 H     1 <1>   0.1500 
 32 H       -9.6790     1.1510     1.9850 H     1 <1>   0.1500 
 33 H       -7.0860    -0.7010     0.6530 H     1 <1>   0.0800 
 34 H       -8.3800    -1.0510    -0.4770 H     1 <1>   0.0800 
 35 H       -8.7060    -0.9390     1.2270 H     1 <1>   0.0800 
@<TRIPOS>BOND
  1   1   2  1   
  2   1  16  1   
  3   2   3  ar  
  4   2   4  ar  
  5   3   5  ar  
  6   3  17  1   
  7   4   6  ar  
  8   4  18  1   
  9   5   7  ar  
 10   5   8  1   
 11   6   7  ar  
 12   6  19  1   
 13   7  20  1   
 14   8   9  1   
 15   8  21  1   
 16   8  22  1   
 17   9  10  1   
 18   9  11  1   
 19   9  23  1   
 20  10  12  1   
 21  10  24  1   
 22  10  25  1   
 23  11  13  1   
 24  11  26  1   
 25  11  27  1   
 26  12  14  2   
 27  12  15  1   
 28  13  28  1   
 29  13  29  1   
 30  13  30  1   
 31  14  31  1   
 32  14  32  1   
 33  15  33  1   
 34  15  34  1   
 35  15  35  1   
@<TRIPOS>SUBSTRUCTURE
  1 ****   5 GROUP 4 **** **** 0

# MOE 2024.06 (io_trps.svl 2023.06)
