@<TRIPOS>MOLECULE
NONAME
36 36 1 0 0 
SMALL
USER_CHARGES


@<TRIPOS>ATOM
  1 O       -0.9680    -3.1830    -2.0030 O.2   1 <1>  -0.5700 
  2 C       -0.1540    -2.6110    -1.3180 C.2   1 <1>   0.5690 
  3 N       -0.4920    -1.5460    -0.5450 N.am  1 <1>  -0.7300 
  4 C        1.2860    -3.1110    -1.3230 C.3   1 <1>   0.1810 
  5 C       -1.8400    -0.9310    -0.4630 C.3   1 <1>   0.1400 
  6 O        2.0780    -2.4180    -0.3660 O.3   1 <1>  -0.3620 
  7 C       -2.7460    -1.7550     0.4510 C.3   1 <1>   0.1200 
  8 C        3.3940    -2.7070    -0.1890 C.ar  1 <1>   0.0830 
  9 O       -3.9280    -1.0480     0.6570 O.3   1 <1>  -0.5600 
 10 C        4.0890    -1.9860     0.7790 C.ar  1 <1>  -0.1430 
 11 C        4.0610    -3.6800    -0.9290 C.ar  1 <1>  -0.1500 
 12 C       -4.8710    -1.7390     1.4100 C.3   1 <1>   0.0400 
 13 C        5.4330    -2.2470     0.9940 C.ar  1 <1>  -0.1500 
 14 C        3.3880    -0.9150     1.6030 C.3   1 <1>  -0.0970 
 15 C        5.4020    -3.9300    -0.7040 C.ar  1 <1>  -0.1500 
 16 C        6.0950    -3.2170     0.2590 C.ar  1 <1>  -0.1430 
 17 C        7.5680    -3.4880     0.5070 C.3   1 <1>  -0.0970 
 18 H        0.2460    -1.1290     0.0310 H     1 <1>   0.3700 
 19 H        1.7120    -2.9520    -2.2960 H     1 <1>   0.0800 
 20 H        1.2970    -4.1570    -1.0790 H     1 <1>   0.0800 
 21 H       -2.2740    -0.8910    -1.4480 H     1 <1>   0.0800 
 22 H       -1.7500     0.0690    -0.0780 H     1 <1>   0.0800 
 23 H       -2.2740    -1.9140     1.4050 H     1 <1>   0.0800 
 24 H       -2.9780    -2.6980    -0.0160 H     1 <1>   0.0800 
 25 H        3.5610    -4.2550    -1.6840 H     1 <1>   0.1500 
 26 H       -5.7380    -1.1110     1.5180 H     1 <1>   0.0800 
 27 H       -4.4600    -1.9600     2.3800 H     1 <1>   0.0800 
 28 H       -5.1420    -2.6450     0.8960 H     1 <1>   0.0800 
 29 H        5.9730    -1.6910     1.7400 H     1 <1>   0.1500 
 30 H        3.0110    -0.1460     0.9530 H     1 <1>   0.0800 
 31 H        4.0620    -0.4670     2.3100 H     1 <1>   0.0800 
 32 H        2.5670    -1.3510     2.1420 H     1 <1>   0.0800 
 33 H        5.9070    -4.6840    -1.2820 H     1 <1>   0.1500 
 34 H        7.7990    -3.3690     1.5510 H     1 <1>   0.0800 
 35 H        8.1650    -2.7990    -0.0620 H     1 <1>   0.0800 
 36 H        7.8230    -4.4910     0.2170 H     1 <1>   0.0800 
@<TRIPOS>BOND
  1   1   2  2   
  2   2   3  am  
  3   2   4  1   
  4   3   5  1   
  5   3  18  1   
  6   4   6  1   
  7   4  19  1   
  8   4  20  1   
  9   5   7  1   
 10   5  21  1   
 11   5  22  1   
 12   6   8  1   
 13   7   9  1   
 14   7  23  1   
 15   7  24  1   
 16   8  10  ar  
 17   8  11  ar  
 18   9  12  1   
 19  10  13  ar  
 20  10  14  1   
 21  11  15  ar  
 22  11  25  1   
 23  12  26  1   
 24  12  27  1   
 25  12  28  1   
 26  13  16  ar  
 27  13  29  1   
 28  14  30  1   
 29  14  31  1   
 30  14  32  1   
 31  15  16  ar  
 32  15  33  1   
 33  16  17  1   
 34  17  34  1   
 35  17  35  1   
 36  17  36  1   
@<TRIPOS>SUBSTRUCTURE
  1 ****   6 GROUP 4 **** **** 0

# MOE 2024.06 (io_trps.svl 2023.06)
