@<TRIPOS>MOLECULE
NONAME
31 31 1 0 0 
SMALL
USER_CHARGES


@<TRIPOS>ATOM
  1 BR      -2.7160     0.7620     3.9310 Br    1 <1>  -0.0580 
  2 C       -2.7450     0.4680     2.0290 C.2   1 <1>   0.1980 
  3 O       -3.6580    -0.3480     1.5530 O.3   1 <1>  -0.2800 
  4 C       -1.9490     0.9900     1.0780 C.2   1 <1>  -0.1500 
  5 C       -3.4670    -0.3750     0.2420 C.2   1 <1>  -0.0400 
  6 C       -2.4330     0.4280    -0.1140 C.2   1 <1>  -0.1500 
  7 C       -4.3980    -1.2370    -0.5910 C.3   1 <1>   0.5230 
  8 N       -5.8000    -0.9030    -0.2130 N.4   1 <1>  -0.9590 
  9 C       -6.7440    -1.9690    -0.6800 C.3   1 <1>   0.3430 
 10 C       -6.1690     0.4660    -0.6680 C.3   1 <1>   0.3430 
 11 C       -8.1550    -1.8330    -0.0890 C.3   1 <1>   0.1200 
 12 C       -6.6760     1.2750     0.5250 C.3   1 <1>  -0.1600 
 13 O       -8.9060    -2.8950    -0.5580 O.3   1 <1>  -0.6800 
 14 C       -7.0820     2.6890     0.0960 C.3   1 <1>  -0.2400 
 15 H       -1.1280     1.6780     1.1840 H     1 <1>   0.1500 
 16 H       -2.0230     0.6300    -1.0900 H     1 <1>   0.1500 
 17 H       -4.1950    -2.2730    -0.3700 H     1 <1>   0.0800 
 18 H       -4.2320    -1.0670    -1.6420 H     1 <1>   0.0800 
 19 H       -5.7760    -0.8860     0.8190 H     1 <1>   0.4500 
 20 H       -6.3610    -2.9350    -0.3930 H     1 <1>   0.0800 
 21 H       -6.8180    -1.9420    -1.7550 H     1 <1>   0.0800 
 22 H       -6.9300     0.4180    -1.4310 H     1 <1>   0.0800 
 23 H       -5.3090     0.9680    -1.0840 H     1 <1>   0.0800 
 24 H       -8.6320    -0.9240    -0.4100 H     1 <1>   0.0800 
 25 H       -8.1320    -1.8900     0.9860 H     1 <1>   0.0800 
 26 H       -5.8990     1.3540     1.2670 H     1 <1>   0.0800 
 27 H       -7.5300     0.7950     0.9700 H     1 <1>   0.0800 
 28 H       -9.8210    -2.8810    -0.2020 H     1 <1>   0.4000 
 29 H       -6.2430     3.2170    -0.3250 H     1 <1>   0.0800 
 30 H       -7.4310     3.2460     0.9490 H     1 <1>   0.0800 
 31 H       -7.8740     2.6590    -0.6320 H     1 <1>   0.0800 
@<TRIPOS>BOND
  1   1   2  1   
  2   2   3  1   
  3   2   4  2   
  4   3   5  1   
  5   4   6  1   
  6   4  15  1   
  7   5   6  2   
  8   5   7  1   
  9   6  16  1   
 10   7   8  1   
 11   7  17  1   
 12   7  18  1   
 13   8   9  1   
 14   8  10  1   
 15   8  19  1   
 16   9  11  1   
 17   9  20  1   
 18   9  21  1   
 19  10  12  1   
 20  10  22  1   
 21  10  23  1   
 22  11  13  1   
 23  11  24  1   
 24  11  25  1   
 25  12  14  1   
 26  12  26  1   
 27  12  27  1   
 28  13  28  1   
 29  14  29  1   
 30  14  30  1   
 31  14  31  1   
@<TRIPOS>SUBSTRUCTURE
  1 ****   8 GROUP 4 **** **** 0

# MOE 2024.06 (io_trps.svl 2023.06)
