@<TRIPOS>MOLECULE
NONAME
56 57 1 0 0 
SMALL
USER_CHARGES


@<TRIPOS>ATOM
  1 S        0.0500    -0.2850    -0.6610 S.o2  1 <1>   1.4470 
  2 O       -0.8800    -0.7990     0.3170 O.2   1 <1>  -0.6500 
  3 O       -0.2060    -0.4550    -2.0720 O.2   1 <1>  -0.6500 
  4 N        0.1330     1.3800    -0.4850 N.am  1 <1>  -0.9140 
  5 C        1.7320    -0.8160    -0.2490 C.ar  1 <1>  -0.0090 
  6 C       -1.1320     2.0020    -0.1950 C.3   1 <1>   0.2760 
  7 C        2.5040    -1.5440    -1.1470 C.ar  1 <1>  -0.1500 
  8 C        2.2870    -0.5100     0.9860 C.ar  1 <1>  -0.1500 
  9 C       -1.1610     3.3320    -0.9390 C.3   1 <1>  -0.2400 
 10 C       -1.2270     2.2320     1.3100 C.3   1 <1>  -0.2400 
 11 C        3.7910    -1.9520    -0.8350 C.ar  1 <1>  -0.1430 
 12 C        3.5690    -0.9070     1.3170 C.ar  1 <1>  -0.1500 
 13 C        4.3330    -1.6280     0.4040 C.ar  1 <1>   0.0830 
 14 C        4.5890    -2.7580    -1.8510 C.3   1 <1>  -0.0970 
 15 O        5.6010    -2.0350     0.6620 O.3   1 <1>  -0.3630 
 16 C        6.2240    -1.7840     1.9130 C.3   1 <1>   0.1810 
 17 C        7.6630    -2.2960     1.9280 C.2   1 <1>   0.5690 
 18 O        8.0070    -2.9330     2.8940 O.2   1 <1>  -0.5700 
 19 N        8.5550    -2.0350     0.9090 N.am  1 <1>  -0.6600 
 20 C        8.2890    -1.1220    -0.2480 C.3   1 <1>   0.1400 
 21 C        9.8730    -2.7450     0.8570 C.3   1 <1>   0.1400 
 22 C        9.4840    -0.1820    -0.5130 C.3   1 <1>   0.3430 
 23 C       11.0300    -1.7650     0.6000 C.3   1 <1>   0.3430 
 24 N       10.7910    -0.9210    -0.6270 N.4   1 <1>  -0.9590 
 25 C       11.9080     0.0250    -0.8860 C.3   1 <1>   0.3430 
 26 C       13.1280    -0.7430    -1.3820 C.3   1 <1>  -0.2400 
 27 H        0.3780     1.6820    -1.4240 H     1 <1>   0.4200 
 28 H       -1.9540     1.3890    -0.5360 H     1 <1>   0.0800 
 29 H        2.0820    -1.7940    -2.1060 H     1 <1>   0.1500 
 30 H        1.7000     0.0480     1.6970 H     1 <1>   0.1500 
 31 H       -0.3430     3.9590    -0.6300 H     1 <1>   0.0800 
 32 H       -2.0810     3.8460    -0.7250 H     1 <1>   0.0800 
 33 H       -1.1110     3.1690    -2.0000 H     1 <1>   0.0800 
 34 H       -0.4060     2.8340     1.6540 H     1 <1>   0.0800 
 35 H       -1.2210     1.2940     1.8360 H     1 <1>   0.0800 
 36 H       -2.1460     2.7370     1.5460 H     1 <1>   0.0800 
 37 H        3.9430    -0.6450     2.2890 H     1 <1>   0.1500 
 38 H        3.9910    -3.0000    -2.7110 H     1 <1>   0.0800 
 39 H        4.9260    -3.6760    -1.4040 H     1 <1>   0.0800 
 40 H        5.4440    -2.1940    -2.1740 H     1 <1>   0.0800 
 41 H        5.6570    -2.2880     2.6740 H     1 <1>   0.0800 
 42 H        6.2200    -0.7260     2.0950 H     1 <1>   0.0800 
 43 H        7.4220    -0.5140    -0.0590 H     1 <1>   0.0800 
 44 H        8.0860    -1.7130    -1.1240 H     1 <1>   0.0800 
 45 H        9.8430    -3.4850     0.0770 H     1 <1>   0.0800 
 46 H       10.0630    -3.2640     1.7820 H     1 <1>   0.0800 
 47 H        9.5430     0.5260     0.2980 H     1 <1>   0.0800 
 48 H        9.2970     0.3720    -1.4180 H     1 <1>   0.0800 
 49 H       11.9410    -2.3280     0.4900 H     1 <1>   0.0800 
 50 H       11.1360    -1.1300     1.4640 H     1 <1>   0.0800 
 51 H       10.7210    -1.5570    -1.4330 H     1 <1>   0.4500 
 52 H       12.1520     0.5710     0.0110 H     1 <1>   0.0800 
 53 H       11.6150     0.7340    -1.6440 H     1 <1>   0.0800 
 54 H       13.5200    -1.3970    -0.6240 H     1 <1>   0.0800 
 55 H       13.9030    -0.0420    -1.6360 H     1 <1>   0.0800 
 56 H       12.8940    -1.3090    -2.2660 H     1 <1>   0.0800 
@<TRIPOS>BOND
  1   1   2  2   
  2   1   3  2   
  3   1   4  am  
  4   1   5  1   
  5   4   6  1   
  6   4  27  1   
  7   5   7  ar  
  8   5   8  ar  
  9   6   9  1   
 10   6  10  1   
 11   6  28  1   
 12   7  11  ar  
 13   7  29  1   
 14   8  12  ar  
 15   8  30  1   
 16   9  31  1   
 17   9  32  1   
 18   9  33  1   
 19  10  34  1   
 20  10  35  1   
 21  10  36  1   
 22  11  13  ar  
 23  11  14  1   
 24  12  13  ar  
 25  12  37  1   
 26  13  15  1   
 27  14  38  1   
 28  14  39  1   
 29  14  40  1   
 30  15  16  1   
 31  16  17  1   
 32  16  41  1   
 33  16  42  1   
 34  17  18  2   
 35  17  19  am  
 36  19  20  1   
 37  19  21  1   
 38  20  22  1   
 39  20  43  1   
 40  20  44  1   
 41  21  23  1   
 42  21  45  1   
 43  21  46  1   
 44  22  24  1   
 45  22  47  1   
 46  22  48  1   
 47  23  24  1   
 48  23  49  1   
 49  23  50  1   
 50  24  25  1   
 51  24  51  1   
 52  25  26  1   
 53  25  52  1   
 54  25  53  1   
 55  26  54  1   
 56  26  55  1   
 57  26  56  1   
@<TRIPOS>SUBSTRUCTURE
  1 ****  13 GROUP 4 **** **** 0

# MOE 2024.06 (io_trps.svl 2023.06)
