@<TRIPOS>MOLECULE
NONAME
55 58 1 0 0 
SMALL
USER_CHARGES


@<TRIPOS>ATOM
  1 O       -1.8850     1.9530    -2.5580 O.2   1 <1>  -0.5700 
  2 C       -2.0530     1.5850    -1.4180 C.2   1 <1>   0.4950 
  3 C       -1.1920     1.9540    -0.3340 C.2   1 <1>   0.0290 
  4 C       -3.2510     0.6750    -1.2060 C.3   1 <1>  -0.0990 
  5 C       -1.4730     1.4200     0.9710 C.2   1 <1>   0.4950 
  6 C       -0.1300     2.8010    -0.5780 C.2   1 <1>  -0.0500 
  7 C       -3.8170     0.7470     0.2180 C.3   1 <1>   0.0000 
  8 O       -0.8050     1.6270     1.9620 O.2   1 <1>  -0.5700 
  9 C       -2.6640     0.5040     1.2010 C.3   1 <1>  -0.0990 
 10 N        0.7630     3.2450     0.3420 N.pl3 1 <1>  -0.8690 
 11 C       -4.4690     2.1190     0.4750 C.3   1 <1>  -0.2400 
 12 C       -4.8890    -0.3390     0.4010 C.3   1 <1>  -0.2400 
 13 C        1.9720     4.0980     0.1910 C.3   1 <1>   0.2890 
 14 C        3.2740     3.2470     0.3350 C.3   1 <1>   0.0000 
 15 C        1.8600     4.9300    -1.0930 C.3   1 <1>  -0.2400 
 16 C        3.3890     2.1440    -0.7510 C.3   1 <1>  -0.1600 
 17 C        3.2950     2.5540     1.7250 C.3   1 <1>  -0.1600 
 18 C        4.5380     4.1430     0.2400 C.3   1 <1>  -0.1600 
 19 C        4.6720     1.3110    -0.5640 C.3   1 <1>  -0.0800 
 20 C        4.5760     1.7230     1.9210 C.3   1 <1>  -0.0800 
 21 C        5.8260     3.3200     0.4300 C.3   1 <1>  -0.0800 
 22 C        4.6490     0.6460     0.8240 C.3   1 <1>  -0.1600 
 23 C        5.8980     2.2370    -0.6620 C.3   1 <1>  -0.1600 
 24 C        5.8010     2.6480     1.8130 C.3   1 <1>  -0.1600 
 25 H       -4.0180     0.9400    -1.9130 H     1 <1>   0.0800 
 26 H       -2.9400    -0.3290    -1.4310 H     1 <1>   0.0800 
 27 H        0.0150     3.1420    -1.5920 H     1 <1>   0.1500 
 28 H       -2.3150    -0.5100     1.1180 H     1 <1>   0.0800 
 29 H       -3.0170     0.6390     2.2080 H     1 <1>   0.0800 
 30 H        0.6460     2.8980     1.3110 H     1 <1>   0.4000 
 31 H       -5.2780     2.2860    -0.2150 H     1 <1>   0.0800 
 32 H       -3.7680     2.9270     0.3630 H     1 <1>   0.0800 
 33 H       -4.8680     2.1640     1.4730 H     1 <1>   0.0800 
 34 H       -5.2890    -0.3110     1.4000 H     1 <1>   0.0800 
 35 H       -4.4780    -1.3190     0.2320 H     1 <1>   0.0800 
 36 H       -5.7000    -0.1910    -0.2900 H     1 <1>   0.0800 
 37 H        1.9580     4.7990     1.0100 H     1 <1>   0.0800 
 38 H        1.9420     4.3120    -1.9670 H     1 <1>   0.0800 
 39 H        2.6310     5.6760    -1.1270 H     1 <1>   0.0800 
 40 H        0.9140     5.4410    -1.1100 H     1 <1>   0.0800 
 41 H        2.5340     1.4920    -0.7000 H     1 <1>   0.0800 
 42 H        3.4000     2.5850    -1.7310 H     1 <1>   0.0800 
 43 H        3.2260     3.2920     2.5030 H     1 <1>   0.0800 
 44 H        2.4480     1.8980     1.8250 H     1 <1>   0.0800 
 45 H        4.5860     4.6200    -0.7230 H     1 <1>   0.0800 
 46 H        4.4950     4.9170     0.9870 H     1 <1>   0.0800 
 47 H        4.7260     0.5540    -1.3280 H     1 <1>   0.0800 
 48 H        4.5590     1.2530     2.8900 H     1 <1>   0.0800 
 49 H        6.6850     3.9660     0.3570 H     1 <1>   0.0800 
 50 H        5.5340     0.0490     0.9570 H     1 <1>   0.0800 
 51 H        3.7970    -0.0080     0.8990 H     1 <1>   0.0800 
 52 H        5.9280     2.6990    -1.6330 H     1 <1>   0.0800 
 53 H        6.7990     1.6610    -0.5450 H     1 <1>   0.0800 
 54 H        6.7010     2.0770     1.9580 H     1 <1>   0.0800 
 55 H        5.7610     3.3980     2.5840 H     1 <1>   0.0800 
@<TRIPOS>BOND
  1   1   2  2   
  2   2   3  1   
  3   2   4  1   
  4   3   5  1   
  5   3   6  2   
  6   4   7  1   
  7   4  25  1   
  8   4  26  1   
  9   5   8  2   
 10   5   9  1   
 11   6  10  1   
 12   6  27  1   
 13   7   9  1   
 14   7  11  1   
 15   7  12  1   
 16   9  28  1   
 17   9  29  1   
 18  10  13  1   
 19  10  30  1   
 20  11  31  1   
 21  11  32  1   
 22  11  33  1   
 23  12  34  1   
 24  12  35  1   
 25  12  36  1   
 26  13  14  1   
 27  13  15  1   
 28  13  37  1   
 29  14  16  1   
 30  14  17  1   
 31  14  18  1   
 32  15  38  1   
 33  15  39  1   
 34  15  40  1   
 35  16  19  1   
 36  16  41  1   
 37  16  42  1   
 38  17  20  1   
 39  17  43  1   
 40  17  44  1   
 41  18  21  1   
 42  18  45  1   
 43  18  46  1   
 44  19  22  1   
 45  19  23  1   
 46  19  47  1   
 47  20  22  1   
 48  20  24  1   
 49  20  48  1   
 50  21  23  1   
 51  21  24  1   
 52  21  49  1   
 53  22  50  1   
 54  22  51  1   
 55  23  52  1   
 56  23  53  1   
 57  24  54  1   
 58  24  55  1   
@<TRIPOS>SUBSTRUCTURE
  1 ****  10 GROUP 4 **** **** 0

# MOE 2024.06 (io_trps.svl 2023.06)
