@<TRIPOS>MOLECULE
NONAME
52 54 1 0 0 
SMALL
USER_CHARGES


@<TRIPOS>ATOM
  1 O       -0.3400     0.6880    -1.7190 O.2   1 <1>  -0.5700 
  2 C       -0.2930     1.8310    -1.3290 C.2   1 <1>   0.5690 
  3 N       -1.4330     2.5600    -1.1170 N.am  1 <1>  -0.6600 
  4 C        1.0720     2.4590    -1.0840 C.3   1 <1>  -0.0990 
  5 C       -2.7710     1.9090    -1.2340 C.3   1 <1>   0.2840 
  6 C       -1.4880     4.0090    -0.7830 C.3   1 <1>   0.1400 
  7 C        2.2490     1.4650    -1.1810 C.3   1 <1>  -0.0990 
  8 C       -3.7770     2.4290    -0.2050 C.ar  1 <1>  -0.1440 
  9 C       -2.1380     4.1850     0.5880 C.3   1 <1>  -0.0160 
 10 C        3.5980     2.1090    -0.8960 C.2   1 <1>   0.5690 
 11 C       -3.4920     3.4940     0.6440 C.ar  1 <1>  -0.1440 
 12 C       -5.0180     1.8140    -0.1270 C.ar  1 <1>  -0.1500 
 13 O        3.7390     3.2950    -1.0560 O.2   1 <1>  -0.5700 
 14 N        4.6470     1.3720    -0.4450 N.am  1 <1>  -0.5470 
 15 C       -4.4430     3.9260     1.5550 C.ar  1 <1>  -0.1500 
 16 C       -5.9660     2.2490     0.7820 C.ar  1 <1>  -0.1500 
 17 C        4.7690     0.0020    -0.1920 C.ar  1 <1>   0.1170 
 18 C       -5.6780     3.3060     1.6250 C.ar  1 <1>  -0.1500 
 19 C        4.3810    -0.9550    -1.1220 C.ar  1 <1>  -0.1500 
 20 C        5.3070    -0.4260     1.0130 C.ar  1 <1>  -0.1500 
 21 C        4.5140    -2.3030    -0.8460 C.ar  1 <1>  -0.1500 
 22 C        5.4430    -1.7740     1.2900 C.ar  1 <1>  -0.1500 
 23 C        5.0450    -2.7290     0.3650 C.ar  1 <1>  -0.1440 
 24 C        5.1960    -4.2140     0.6870 C.3   1 <1>   0.0630 
 25 C        6.1530    -4.8940    -0.2970 C.3   1 <1>  -0.2400 
 26 C        3.8320    -4.9130     0.6920 C.3   1 <1>  -0.2400 
 27 H        1.0760     2.8960    -0.1030 H     1 <1>   0.0800 
 28 H        1.2160     3.2410    -1.8070 H     1 <1>   0.0800 
 29 H       -2.6720     0.8450    -1.1070 H     1 <1>   0.0800 
 30 H       -3.1550     2.0900    -2.2230 H     1 <1>   0.0800 
 31 H       -2.0820     4.5140    -1.5260 H     1 <1>   0.0800 
 32 H       -0.5100     4.4550    -0.7820 H     1 <1>   0.0800 
 33 H        2.2750     1.0460    -2.1690 H     1 <1>   0.0800 
 34 H        2.0840     0.6660    -0.4810 H     1 <1>   0.0800 
 35 H       -2.2550     5.2350     0.7870 H     1 <1>   0.0800 
 36 H       -1.4960     3.7700     1.3430 H     1 <1>   0.0800 
 37 H       -5.2540     0.9890    -0.7760 H     1 <1>   0.1500 
 38 H        5.4570     1.9470    -0.2130 H     1 <1>   0.3700 
 39 H       -4.2270     4.7460     2.2170 H     1 <1>   0.1500 
 40 H       -6.9250     1.7640     0.8350 H     1 <1>   0.1500 
 41 H       -6.4120     3.6460     2.3340 H     1 <1>   0.1500 
 42 H        3.9800    -0.6480    -2.0700 H     1 <1>   0.1500 
 43 H        5.6170     0.3000     1.7430 H     1 <1>   0.1500 
 44 H        4.2030    -3.0230    -1.5810 H     1 <1>   0.1500 
 45 H        5.8600    -2.0780     2.2340 H     1 <1>   0.1500 
 46 H        5.6160    -4.3120     1.6740 H     1 <1>   0.0800 
 47 H        5.7570    -4.8680    -1.2960 H     1 <1>   0.0800 
 48 H        6.3110    -5.9200    -0.0150 H     1 <1>   0.0800 
 49 H        7.1020    -4.3870    -0.2910 H     1 <1>   0.0800 
 50 H        3.3860    -4.8900    -0.2860 H     1 <1>   0.0800 
 51 H        3.1710    -4.4180     1.3800 H     1 <1>   0.0800 
 52 H        3.9400    -5.9380     0.9970 H     1 <1>   0.0800 
@<TRIPOS>BOND
  1   1   2  2   
  2   2   3  am  
  3   2   4  1   
  4   3   5  1   
  5   3   6  1   
  6   4   7  1   
  7   4  27  1   
  8   4  28  1   
  9   5   8  1   
 10   5  29  1   
 11   5  30  1   
 12   6   9  1   
 13   6  31  1   
 14   6  32  1   
 15   7  10  1   
 16   7  33  1   
 17   7  34  1   
 18   8  11  ar  
 19   8  12  ar  
 20   9  11  1   
 21   9  35  1   
 22   9  36  1   
 23  10  13  2   
 24  10  14  am  
 25  11  15  ar  
 26  12  16  ar  
 27  12  37  1   
 28  14  17  1   
 29  14  38  1   
 30  15  18  ar  
 31  15  39  1   
 32  16  18  ar  
 33  16  40  1   
 34  17  19  ar  
 35  17  20  ar  
 36  18  41  1   
 37  19  21  ar  
 38  19  42  1   
 39  20  22  ar  
 40  20  43  1   
 41  21  23  ar  
 42  21  44  1   
 43  22  23  ar  
 44  22  45  1   
 45  23  24  1   
 46  24  25  1   
 47  24  26  1   
 48  24  46  1   
 49  25  47  1   
 50  25  48  1   
 51  25  49  1   
 52  26  50  1   
 53  26  51  1   
 54  26  52  1   
@<TRIPOS>SUBSTRUCTURE
  1 ****   7 GROUP 4 **** **** 0

# MOE 2024.06 (io_trps.svl 2023.06)
