@<TRIPOS>MOLECULE
NONAME
48 49 1 0 0 
SMALL
USER_CHARGES


@<TRIPOS>ATOM
  1 O       -0.5440     0.2140     0.5330 O.2   1 <1>  -0.5700 
  2 C        0.3320    -0.5840     0.2980 C.2   1 <1>   0.5690 
  3 N        1.5750    -0.1520    -0.1190 N.am  1 <1>  -0.6600 
  4 C        0.0020    -2.0610     0.5150 C.3   1 <1>   0.1810 
  5 C        1.7820     1.2670    -0.5410 C.3   1 <1>   0.1400 
  6 C        2.7670    -1.0350    -0.3010 C.3   1 <1>   0.1400 
  7 O        0.4400    -2.8590    -0.5750 O.3   1 <1>  -0.3620 
  8 C        3.0620     1.8560     0.0730 C.3   1 <1>   0.3430 
  9 C        4.0440    -0.3950     0.2790 C.3   1 <1>   0.3430 
 10 C        0.3550    -4.2110    -0.5330 C.ar  1 <1>   0.0820 
 11 N        4.2860     1.0150    -0.2130 N.4   1 <1>  -0.9590 
 12 C       -0.2230    -4.9200     0.5180 C.ar  1 <1>  -0.1500 
 13 C        0.8870    -4.9010    -1.6100 C.ar  1 <1>  -0.1500 
 14 C        5.5500     1.6100     0.3320 C.3   1 <1>   0.4230 
 15 C       -0.2540    -6.3050     0.4930 C.ar  1 <1>  -0.1440 
 16 C        0.8550    -6.2830    -1.6390 C.ar  1 <1>  -0.1500 
 17 C        5.7390     3.0500    -0.1980 C.3   1 <1>  -0.1600 
 18 C        6.7370     0.7230    -0.0680 C.3   1 <1>  -0.2400 
 19 C        0.2870    -6.9830    -0.5890 C.ar  1 <1>  -0.1500 
 20 C       -0.8820    -7.0840     1.6350 C.3   1 <1>  -0.0970 
 21 C        7.0270     3.7460     0.2730 C.3   1 <1>  -0.2400 
 22 H       -1.0630    -2.1800     0.6070 H     1 <1>   0.0800 
 23 H        0.4850    -2.4050     1.4100 H     1 <1>   0.0800 
 24 H        0.9460     1.8770    -0.2410 H     1 <1>   0.0800 
 25 H        1.8390     1.3100    -1.6140 H     1 <1>   0.0800 
 26 H        2.9010    -1.2340    -1.3510 H     1 <1>   0.0800 
 27 H        2.6160    -1.9800     0.1910 H     1 <1>   0.0800 
 28 H        2.9220     1.9450     1.1380 H     1 <1>   0.0800 
 29 H        3.1900     2.8470    -0.3260 H     1 <1>   0.0800 
 30 H        4.8750    -1.0270     0.0170 H     1 <1>   0.0800 
 31 H        3.9630    -0.3900     1.3530 H     1 <1>   0.0800 
 32 H        4.3970     0.9710    -1.2330 H     1 <1>   0.4500 
 33 H       -0.6570    -4.4150     1.3590 H     1 <1>   0.1500 
 34 H        1.3210    -4.3540    -2.4260 H     1 <1>   0.1500 
 35 H        5.4920     1.6470     1.4090 H     1 <1>   0.0800 
 36 H        1.2690    -6.8150    -2.4780 H     1 <1>   0.1500 
 37 H        4.9340     3.6720     0.1480 H     1 <1>   0.0800 
 38 H        5.7280     3.0490    -1.2740 H     1 <1>   0.0800 
 39 H        6.8180     0.6450    -1.1370 H     1 <1>   0.0800 
 40 H        6.6730    -0.2580     0.3640 H     1 <1>   0.0800 
 41 H        7.6550     1.1390     0.3040 H     1 <1>   0.0800 
 42 H        0.2640    -8.0580    -0.6190 H     1 <1>   0.1500 
 43 H       -0.8660    -6.5080     2.5430 H     1 <1>   0.0800 
 44 H       -0.3440    -7.9990     1.8050 H     1 <1>   0.0800 
 45 H       -1.9030    -7.3210     1.3940 H     1 <1>   0.0800 
 46 H        7.1280     3.6880     1.3440 H     1 <1>   0.0800 
 47 H        7.0010     4.7860    -0.0030 H     1 <1>   0.0800 
 48 H        7.9010     3.3150    -0.1850 H     1 <1>   0.0800 
@<TRIPOS>BOND
  1   1   2  2   
  2   2   3  am  
  3   2   4  1   
  4   3   5  1   
  5   3   6  1   
  6   4   7  1   
  7   4  22  1   
  8   4  23  1   
  9   5   8  1   
 10   5  24  1   
 11   5  25  1   
 12   6   9  1   
 13   6  26  1   
 14   6  27  1   
 15   7  10  1   
 16   8  11  1   
 17   8  28  1   
 18   8  29  1   
 19   9  11  1   
 20   9  30  1   
 21   9  31  1   
 22  10  12  ar  
 23  10  13  ar  
 24  11  14  1   
 25  11  32  1   
 26  12  15  ar  
 27  12  33  1   
 28  13  16  ar  
 29  13  34  1   
 30  14  17  1   
 31  14  18  1   
 32  14  35  1   
 33  15  19  ar  
 34  15  20  1   
 35  16  19  ar  
 36  16  36  1   
 37  17  21  1   
 38  17  37  1   
 39  17  38  1   
 40  18  39  1   
 41  18  40  1   
 42  18  41  1   
 43  19  42  1   
 44  20  43  1   
 45  20  44  1   
 46  20  45  1   
 47  21  46  1   
 48  21  47  1   
 49  21  48  1   
@<TRIPOS>SUBSTRUCTURE
  1 ****   6 GROUP 4 **** **** 0

# MOE 2024.06 (io_trps.svl 2023.06)
