@<TRIPOS>MOLECULE
NONAME
43 45 1 0 0 
SMALL
USER_CHARGES


@<TRIPOS>ATOM
  1 BR      -0.4570     1.6450    -1.0000 Br    1 <1>  -0.1110 
  2 C       -2.2530     1.0110    -0.7070 C.ar  1 <1>   0.1110 
  3 C       -3.2840     1.9290    -0.6540 C.ar  1 <1>  -0.1500 
  4 C       -2.4660    -0.3460    -0.5550 C.ar  1 <1>  -0.1500 
  5 C       -4.5720     1.4650    -0.4430 C.ar  1 <1>  -0.1500 
  6 C       -3.7600    -0.7920    -0.3440 C.ar  1 <1>  -0.1500 
  7 C       -4.8270     0.1040    -0.2880 C.ar  1 <1>   0.1170 
  8 N       -6.1470    -0.3110    -0.0610 N.am  1 <1>  -0.5470 
  9 C       -6.7740    -1.4960    -0.3250 C.2   1 <1>   0.6900 
 10 O       -6.2220    -2.3610    -0.9780 O.2   1 <1>  -0.5700 
 11 N       -8.0530    -1.6900     0.1320 N.am  1 <1>  -0.6600 
 12 C       -8.6940    -0.9290     1.2490 C.3   1 <1>   0.1400 
 13 C       -8.8690    -2.8530    -0.3380 C.3   1 <1>   0.1400 
 14 C      -10.1110    -0.4780     0.8620 C.3   1 <1>   0.1400 
 15 C      -10.2990    -2.4210    -0.7050 C.3   1 <1>   0.1400 
 16 N      -10.9350    -1.6370     0.4030 N.am  1 <1>  -0.6600 
 17 C      -12.1850    -1.8860     0.9290 C.2   1 <1>   0.5690 
 18 O      -12.6180    -1.1880     1.8220 O.2   1 <1>  -0.5700 
 19 C      -13.0550    -3.0640     0.4140 C.3   1 <1>   0.2610 
 20 O      -13.3210    -2.9420    -0.9590 O.3   1 <1>  -0.5600 
 21 C      -14.4560    -3.1720     1.0200 C.3   1 <1>  -0.1600 
 22 C      -14.4460    -2.1450    -1.1530 C.3   1 <1>   0.1200 
 23 C      -15.3040    -2.3070     0.1000 C.3   1 <1>  -0.1600 
 24 H       -3.0800     2.9770    -0.7770 H     1 <1>   0.1500 
 25 H       -1.6420    -1.0350    -0.6020 H     1 <1>   0.1500 
 26 H       -5.3840     2.1680    -0.4030 H     1 <1>   0.1500 
 27 H       -3.9380    -1.8450    -0.2210 H     1 <1>   0.1500 
 28 H       -6.7890     0.4140     0.2310 H     1 <1>   0.3700 
 29 H       -8.1090    -0.0710     1.5230 H     1 <1>   0.0800 
 30 H       -8.7590    -1.5680     2.1130 H     1 <1>   0.0800 
 31 H       -8.9080    -3.5920     0.4420 H     1 <1>   0.0800 
 32 H       -8.4140    -3.3090    -1.2000 H     1 <1>   0.0800 
 33 H      -10.0520     0.2460     0.0680 H     1 <1>   0.0800 
 34 H      -10.5670     0.0020     1.7100 H     1 <1>   0.0800 
 35 H      -10.8700    -3.3000    -0.9390 H     1 <1>   0.0800 
 36 H      -10.2660    -1.8110    -1.5900 H     1 <1>   0.0800 
 37 H      -12.5150    -3.9790     0.5700 H     1 <1>   0.0800 
 38 H      -14.4970    -2.8540     2.0470 H     1 <1>   0.0800 
 39 H      -14.7800    -4.1960     0.9620 H     1 <1>   0.0800 
 40 H      -14.9540    -2.4770    -2.0420 H     1 <1>   0.0800 
 41 H      -14.1190    -1.1250    -1.2720 H     1 <1>   0.0800 
 42 H      -15.4850    -1.3410     0.5390 H     1 <1>   0.0800 
 43 H      -16.2460    -2.7730    -0.1280 H     1 <1>   0.0800 
@<TRIPOS>BOND
  1   1   2  1   
  2   2   3  ar  
  3   2   4  ar  
  4   3   5  ar  
  5   3  24  1   
  6   4   6  ar  
  7   4  25  1   
  8   5   7  ar  
  9   5  26  1   
 10   6   7  ar  
 11   6  27  1   
 12   7   8  1   
 13   8   9  am  
 14   8  28  1   
 15   9  10  2   
 16   9  11  am  
 17  11  12  1   
 18  11  13  1   
 19  12  14  1   
 20  12  29  1   
 21  12  30  1   
 22  13  15  1   
 23  13  31  1   
 24  13  32  1   
 25  14  16  1   
 26  14  33  1   
 27  14  34  1   
 28  15  16  1   
 29  15  35  1   
 30  15  36  1   
 31  16  17  am  
 32  17  18  2   
 33  17  19  1   
 34  19  20  1   
 35  19  21  1   
 36  19  37  1   
 37  20  22  1   
 38  21  23  1   
 39  21  38  1   
 40  21  39  1   
 41  22  23  1   
 42  22  40  1   
 43  22  41  1   
 44  23  42  1   
 45  23  43  1   
@<TRIPOS>SUBSTRUCTURE
  1 ****  11 GROUP 4 **** **** 0

# MOE 2024.06 (io_trps.svl 2023.06)
