@<TRIPOS>MOLECULE
NONAME
42 43 1 0 0 
SMALL
USER_CHARGES


@<TRIPOS>ATOM
  1 S       -0.0960    -0.4110     1.1000 S.o2  1 <1>   1.4470 
  2 O       -0.4740     0.6690     1.9860 O.2   1 <1>  -0.6500 
  3 O        0.1450    -1.7090     1.6950 O.2   1 <1>  -0.6500 
  4 N       -1.3860    -0.6360     0.0200 N.am  1 <1>  -0.8490 
  5 C        1.3270    -0.0210     0.0390 C.ar  1 <1>  -0.0090 
  6 C       -2.5120    -1.3120     0.6930 C.3   1 <1>   0.1960 
  7 C       -1.8480     0.6360    -0.5730 C.3   1 <1>   0.1960 
  8 C        1.6350     1.2820    -0.3640 C.ar  1 <1>   0.0830 
  9 C        2.1430    -1.0540    -0.4140 C.ar  1 <1>  -0.1500 
 10 C       -3.6840    -1.5850    -0.2640 C.3   1 <1>   0.1400 
 11 C       -2.9980     0.4260    -1.5730 C.3   1 <1>   0.1400 
 12 O        0.8260     2.2860     0.0540 O.3   1 <1>  -0.3630 
 13 C        2.7360     1.5420    -1.1820 C.ar  1 <1>  -0.1500 
 14 C        3.2260    -0.7770    -1.2220 C.ar  1 <1>   0.1900 
 15 N       -4.1170    -0.3300    -0.9430 N.am  1 <1>  -0.6600 
 16 C        1.2870     3.6160     0.1560 C.3   1 <1>   0.0400 
 17 C        3.5420     0.5060    -1.6160 C.ar  1 <1>  -0.1500 
 18 F        3.9780    -1.7640    -1.6300 F     1 <1>  -0.1900 
 19 C       -5.3960     0.1550    -0.9100 C.2   1 <1>   0.7800 
 20 O       -5.7090     1.2110    -1.4250 O.2   1 <1>  -0.5700 
 21 O       -6.3190    -0.5720    -0.2780 O.3   1 <1>  -0.4300 
 22 C       -7.6540    -0.1300    -0.1970 C.3   1 <1>   0.1200 
 23 C       -8.4490    -1.1690     0.5890 C.3   1 <1>  -0.2400 
 24 H       -2.8600    -0.7100     1.5170 H     1 <1>   0.0800 
 25 H       -2.1800    -2.2550     1.0930 H     1 <1>   0.0800 
 26 H       -1.0370     1.1030    -1.1010 H     1 <1>   0.0800 
 27 H       -2.1750     1.3110     0.2000 H     1 <1>   0.0800 
 28 H        1.9380    -2.0740    -0.1360 H     1 <1>   0.1500 
 29 H       -4.4960    -2.0210     0.2910 H     1 <1>   0.0800 
 30 H       -3.3730    -2.2980    -1.0080 H     1 <1>   0.0800 
 31 H       -2.6340    -0.1270    -2.4210 H     1 <1>   0.0800 
 32 H       -3.3400     1.3840    -1.9240 H     1 <1>   0.0800 
 33 H        2.9730     2.5410    -1.4970 H     1 <1>   0.1500 
 34 H        0.5510     4.1810     0.7010 H     1 <1>   0.0800 
 35 H        1.4030     4.0270    -0.8300 H     1 <1>   0.0800 
 36 H        2.2200     3.6250     0.6920 H     1 <1>   0.0800 
 37 H        4.3950     0.6830    -2.2470 H     1 <1>   0.1500 
 38 H       -8.0390    -0.0230    -1.1970 H     1 <1>   0.0800 
 39 H       -7.6670     0.8250     0.3000 H     1 <1>   0.0800 
 40 H       -8.4170    -2.1180     0.0850 H     1 <1>   0.0800 
 41 H       -9.4740    -0.8560     0.6670 H     1 <1>   0.0800 
 42 H       -8.0450    -1.2720     1.5800 H     1 <1>   0.0800 
@<TRIPOS>BOND
  1   1   2  2   
  2   1   3  2   
  3   1   4  am  
  4   1   5  1   
  5   4   6  1   
  6   4   7  1   
  7   5   8  ar  
  8   5   9  ar  
  9   6  10  1   
 10   6  24  1   
 11   6  25  1   
 12   7  11  1   
 13   7  26  1   
 14   7  27  1   
 15   8  12  1   
 16   8  13  ar  
 17   9  14  ar  
 18   9  28  1   
 19  10  15  1   
 20  10  29  1   
 21  10  30  1   
 22  11  15  1   
 23  11  31  1   
 24  11  32  1   
 25  12  16  1   
 26  13  17  ar  
 27  13  33  1   
 28  14  17  ar  
 29  14  18  1   
 30  15  19  am  
 31  16  34  1   
 32  16  35  1   
 33  16  36  1   
 34  17  37  1   
 35  19  20  2   
 36  19  21  1   
 37  21  22  1   
 38  22  23  1   
 39  22  38  1   
 40  22  39  1   
 41  23  40  1   
 42  23  41  1   
 43  23  42  1   
@<TRIPOS>SUBSTRUCTURE
  1 ****   4 GROUP 4 **** **** 0

# MOE 2024.06 (io_trps.svl 2023.06)
