@<TRIPOS>MOLECULE
NONAME
34 34 1 0 0 
SMALL
USER_CHARGES


@<TRIPOS>ATOM
  1 O        0.1220    -0.0430     0.5480 O.2   1 <1>  -0.5700 
  2 C        0.1090    -1.0900    -0.0730 C.2   1 <1>   0.5440 
  3 N        1.2070    -1.4170    -0.8140 N.am  1 <1>  -0.7300 
  4 C       -1.0560    -1.9570    -0.0320 C.ar  1 <1>   0.0860 
  5 C        2.5310    -0.7650    -0.7530 C.3   1 <1>   0.1400 
  6 C       -1.0070    -3.3470    -0.2430 C.ar  1 <1>   0.0820 
  7 C       -2.3150    -1.4050     0.2250 C.ar  1 <1>  -0.1500 
  8 C        3.5910    -1.8510    -0.6000 C.3   1 <1>  -0.1600 
  9 O        0.1490    -4.0000    -0.4770 O.3   1 <1>  -0.3620 
 10 C       -2.1610    -4.1160    -0.2270 C.ar  1 <1>  -0.1500 
 11 C       -3.4630    -2.1740     0.2520 C.ar  1 <1>  -0.1500 
 12 C        5.0100    -1.2690    -0.4940 C.3   1 <1>  -0.2660 
 13 C        0.9380    -4.3320     0.6440 C.3   1 <1>   0.1200 
 14 C       -3.3890    -3.5360     0.0210 C.ar  1 <1>  -0.1500 
 15 C        6.0460    -2.3610    -0.3640 C.2   1 <1>   0.9060 
 16 C        2.0830    -5.2230     0.1740 C.3   1 <1>  -0.2400 
 17 O        6.0630    -3.0350     0.6700 O.co2 1 <1>  -0.9000 
 18 O        6.8250    -2.5490    -1.3020 O.co2 1 <1>  -0.9000 
 19 H        1.2080    -2.3460    -1.2490 H     1 <1>   0.3700 
 20 H        2.5720    -0.0870     0.0830 H     1 <1>   0.0800 
 21 H        2.6970    -0.2080    -1.6590 H     1 <1>   0.0800 
 22 H       -2.3890    -0.3460     0.4030 H     1 <1>   0.1500 
 23 H        3.5570    -2.5150    -1.4460 H     1 <1>   0.0800 
 24 H        3.3960    -2.4180     0.2930 H     1 <1>   0.0800 
 25 H       -2.0890    -5.1740    -0.4100 H     1 <1>   0.1500 
 26 H       -4.4160    -1.7140     0.4510 H     1 <1>   0.1500 
 27 H        5.0910    -0.6400     0.3700 H     1 <1>   0.0800 
 28 H        5.2430    -0.6900    -1.3670 H     1 <1>   0.0800 
 29 H        0.3200    -4.8500     1.3580 H     1 <1>   0.0800 
 30 H        1.3140    -3.4250     1.0850 H     1 <1>   0.0800 
 31 H       -4.2820    -4.1370     0.0350 H     1 <1>   0.1500 
 32 H        1.6990    -6.1370    -0.2420 H     1 <1>   0.0800 
 33 H        2.7210    -5.4640     1.0050 H     1 <1>   0.0800 
 34 H        2.6770    -4.7150    -0.5640 H     1 <1>   0.0800 
@<TRIPOS>BOND
  1   1   2  2   
  2   2   3  am  
  3   2   4  1   
  4   3   5  1   
  5   3  19  1   
  6   4   6  ar  
  7   4   7  ar  
  8   5   8  1   
  9   5  20  1   
 10   5  21  1   
 11   6   9  1   
 12   6  10  ar  
 13   7  11  ar  
 14   7  22  1   
 15   8  12  1   
 16   8  23  1   
 17   8  24  1   
 18   9  13  1   
 19  10  14  ar  
 20  10  25  1   
 21  11  14  ar  
 22  11  26  1   
 23  12  15  1   
 24  12  27  1   
 25  12  28  1   
 26  13  16  1   
 27  13  29  1   
 28  13  30  1   
 29  14  31  1   
 30  15  17  ar  
 31  15  18  ar  
 32  16  32  1   
 33  16  33  1   
 34  16  34  1   
@<TRIPOS>SUBSTRUCTURE
  1 ****   3 GROUP 4 **** **** 0

# MOE 2024.06 (io_trps.svl 2023.06)
