@<TRIPOS>MOLECULE
NONAME
28 27 1 0 0 
SMALL
USER_CHARGES


@<TRIPOS>ATOM
  1 P        0.0410     0.0480     0.1220 P.3   1 <1>   1.2420 
  2 O       -0.1930    -0.1980     1.5420 O.2   1 <1>  -0.7000 
  3 O        0.0920    -1.2930    -0.7570 O.3   1 <1>  -0.5510 
  4 O       -1.1130     0.9140    -0.5810 O.3   1 <1>  -0.5510 
  5 C        1.5580     0.8840    -0.2620 C.3   1 <1>  -0.1600 
  6 C       -1.0020    -2.1450    -0.7770 C.3   1 <1>   0.0400 
  7 C       -1.5980     2.0650     0.0240 C.3   1 <1>   0.0400 
  8 C        2.8160     0.1230     0.2050 C.3   1 <1>  -0.0990 
  9 C        4.1150     0.8430    -0.1050 C.2   1 <1>   0.6590 
 10 O        4.1420     1.9520    -0.5740 O.2   1 <1>  -0.5700 
 11 O        5.2190     0.1690     0.1790 O.3   1 <1>  -0.4300 
 12 C        6.4960     0.7170    -0.0550 C.3   1 <1>   0.1200 
 13 C        7.5380    -0.3090     0.3780 C.3   1 <1>  -0.2400 
 14 H        1.5640     1.8540     0.1980 H     1 <1>   0.0800 
 15 H        1.6310     1.0380    -1.3220 H     1 <1>   0.0800 
 16 H       -1.2050    -2.4780     0.2270 H     1 <1>   0.0800 
 17 H       -0.7660    -2.9870    -1.4030 H     1 <1>   0.0800 
 18 H       -1.8520    -1.6170    -1.1740 H     1 <1>   0.0800 
 19 H       -2.3760     2.4720    -0.5980 H     1 <1>   0.0800 
 20 H       -0.7990     2.7780     0.1260 H     1 <1>   0.0800 
 21 H       -1.9980     1.8090     0.9910 H     1 <1>   0.0800 
 22 H        2.8480    -0.8410    -0.2700 H     1 <1>   0.0800 
 23 H        2.7680    -0.0330     1.2670 H     1 <1>   0.0800 
 24 H        6.5860     1.6260     0.5160 H     1 <1>   0.0800 
 25 H        6.5840     0.9400    -1.1050 H     1 <1>   0.0800 
 26 H        7.4300    -0.5280     1.4250 H     1 <1>   0.0800 
 27 H        8.5250     0.0840     0.2100 H     1 <1>   0.0800 
 28 H        7.4280    -1.2130    -0.1940 H     1 <1>   0.0800 
@<TRIPOS>BOND
  1   1   2  2   
  2   1   3  1   
  3   1   4  1   
  4   1   5  1   
  5   3   6  1   
  6   4   7  1   
  7   5   8  1   
  8   5  14  1   
  9   5  15  1   
 10   6  16  1   
 11   6  17  1   
 12   6  18  1   
 13   7  19  1   
 14   7  20  1   
 15   7  21  1   
 16   8   9  1   
 17   8  22  1   
 18   8  23  1   
 19   9  10  2   
 20   9  11  1   
 21  11  12  1   
 22  12  13  1   
 23  12  24  1   
 24  12  25  1   
 25  13  26  1   
 26  13  27  1   
 27  13  28  1   
@<TRIPOS>SUBSTRUCTURE
  1 ****   8 GROUP 4 **** **** 0

# MOE 2024.06 (io_trps.svl 2023.06)
