@<TRIPOS>MOLECULE
NONAME
35 36 1 0 0 
SMALL
USER_CHARGES


@<TRIPOS>ATOM
  1 O       -0.2400     1.2980    -1.5410 O.co2 1 <1>  -0.9000 
  2 C       -0.3400     1.7450    -0.4080 C.2   1 <1>   0.9060 
  3 O        0.6260     2.0770     0.2870 O.co2 1 <1>  -0.9000 
  4 C       -1.6790     2.2020     0.0450 C.3   1 <1>  -0.2660 
  5 C       -1.7110     3.6540    -0.3800 C.3   1 <1>   0.5660 
  6 N       -0.6950     4.3590     0.4140 N.4   1 <1>  -0.9060 
  7 C       -3.0460     4.3900    -0.1910 C.ar  1 <1>  -0.1430 
  8 C       -0.5080     5.7440    -0.0420 C.3   1 <1>   0.3430 
  9 C       -3.0570     5.7540     0.1120 C.ar  1 <1>  -0.1430 
 10 C       -4.2610     3.7300    -0.3430 C.ar  1 <1>  -0.1500 
 11 C       -1.7660     6.5480     0.3010 C.3   1 <1>  -0.0170 
 12 C       -4.2620     6.4240     0.2570 C.ar  1 <1>  -0.1500 
 13 C       -5.4640     4.3950    -0.1800 C.ar  1 <1>   0.0830 
 14 C       -5.4660     5.7630     0.1000 C.ar  1 <1>   0.0830 
 15 O       -6.5990     3.6650    -0.3040 O.3   1 <1>  -0.3630 
 16 O       -6.6000     6.4960     0.2280 O.3   1 <1>  -0.3630 
 17 C       -7.3820     3.5160     0.8610 C.3   1 <1>   0.0400 
 18 C       -7.4120     6.6150    -0.9200 C.3   1 <1>   0.0400 
 19 H       -1.7950     2.0740     1.1030 H     1 <1>   0.0800 
 20 H       -2.4120     1.6190    -0.4770 H     1 <1>   0.0800 
 21 H       -1.4410     3.6980    -1.4240 H     1 <1>   0.0800 
 22 H        0.1640     3.7580     0.3390 H     1 <1>   0.4500 
 23 H       -0.9780     4.3020     1.3920 H     1 <1>   0.4500 
 24 H       -0.3530     5.7480    -1.1090 H     1 <1>   0.0800 
 25 H        0.3540     6.1840     0.4320 H     1 <1>   0.0800 
 26 H       -4.3100     2.6860    -0.5910 H     1 <1>   0.1500 
 27 H       -1.7900     7.4330    -0.3100 H     1 <1>   0.0800 
 28 H       -1.7040     6.8660     1.3270 H     1 <1>   0.0800 
 29 H       -4.2850     7.4740     0.4910 H     1 <1>   0.1500 
 30 H       -8.1920     2.8460     0.6370 H     1 <1>   0.0800 
 31 H       -7.7700     4.4740     1.1560 H     1 <1>   0.0800 
 32 H       -6.7680     3.1050     1.6420 H     1 <1>   0.0800 
 33 H       -6.8100     6.9660    -1.7390 H     1 <1>   0.0800 
 34 H       -8.1930     7.3230    -0.7070 H     1 <1>   0.0800 
 35 H       -7.8420     5.6580    -1.1550 H     1 <1>   0.0800 
@<TRIPOS>BOND
  1   1   2  ar  
  2   2   3  ar  
  3   2   4  1   
  4   4   5  1   
  5   4  19  1   
  6   4  20  1   
  7   5   6  1   
  8   5   7  1   
  9   5  21  1   
 10   6   8  1   
 11   6  22  1   
 12   6  23  1   
 13   7   9  ar  
 14   7  10  ar  
 15   8  11  1   
 16   8  24  1   
 17   8  25  1   
 18   9  11  1   
 19   9  12  ar  
 20  10  13  ar  
 21  10  26  1   
 22  11  27  1   
 23  11  28  1   
 24  12  14  ar  
 25  12  29  1   
 26  13  14  ar  
 27  13  15  1   
 28  14  16  1   
 29  15  17  1   
 30  16  18  1   
 31  17  30  1   
 32  17  31  1   
 33  17  32  1   
 34  18  33  1   
 35  18  34  1   
 36  18  35  1   
@<TRIPOS>SUBSTRUCTURE
  1 ****   7 GROUP 4 **** **** 0

# MOE 2024.06 (io_trps.svl 2023.06)
