@<TRIPOS>MOLECULE
NONAME
46 48 1 0 0 
SMALL
USER_CHARGES


@<TRIPOS>ATOM
  1 CL       2.4520     5.1810    -2.5200 Cl    1 <1>  -0.1770 
  2 C        2.4740     4.3500    -0.9810 C.ar  1 <1>   0.1770 
  3 C        1.3570     4.3510    -0.1610 C.ar  1 <1>   0.1770 
  4 C        3.6260     3.6920    -0.5980 C.ar  1 <1>  -0.1500 
  5 CL      -0.1080     5.1820    -0.6390 Cl    1 <1>  -0.1770 
  6 C        1.3850     3.6910     1.0550 C.ar  1 <1>  -0.1500 
  7 C        3.6680     3.0250     0.6230 C.ar  1 <1>   0.1000 
  8 C        2.5410     3.0320     1.4380 C.ar  1 <1>  -0.1500 
  9 N        4.8050     2.3510     1.0490 N.pl3 1 <1>  -0.8380 
 10 C        5.1500     1.0540     0.3900 C.3   1 <1>   0.2090 
 11 C        6.0050     3.1530     1.4390 C.3   1 <1>   0.2090 
 12 C        6.2210     1.2160    -0.7060 C.3   1 <1>   0.1960 
 13 C        7.0540     3.2410     0.3120 C.3   1 <1>   0.1960 
 14 N        7.4290     1.9220    -0.2350 N.am  1 <1>  -0.8490 
 15 S        8.5630     2.0460    -1.4900 S.o2  1 <1>   1.4470 
 16 O        8.7510     0.6940    -1.9750 O.2   1 <1>  -0.6500 
 17 O        8.0340     3.0180    -2.4240 O.2   1 <1>  -0.6500 
 18 C       10.0990     2.5740    -0.6760 C.ar  1 <1>  -0.0090 
 19 C       10.4080     3.9150    -0.4530 C.ar  1 <1>   0.0830 
 20 C       11.0080     1.6180    -0.2350 C.ar  1 <1>  -0.1500 
 21 O        9.5210     4.8570    -0.8540 O.3   1 <1>  -0.3630 
 22 C       11.5980     4.2730     0.1790 C.ar  1 <1>  -0.1500 
 23 C       12.1890     1.9730     0.3920 C.ar  1 <1>  -0.1500 
 24 C        9.9420     6.1550    -1.2140 C.3   1 <1>   0.0400 
 25 C       12.4910     3.3050     0.6020 C.ar  1 <1>  -0.1430 
 26 C       13.7890     3.6920     1.2880 C.3   1 <1>  -0.0970 
 27 H        4.4830     3.6990    -1.2440 H     1 <1>   0.1500 
 28 H        0.5150     3.6950     1.6870 H     1 <1>   0.1500 
 29 H        2.5860     2.5120     2.3790 H     1 <1>   0.1500 
 30 H        4.2630     0.6230    -0.0400 H     1 <1>   0.0800 
 31 H        5.5170     0.3720     1.1370 H     1 <1>   0.0800 
 32 H        6.4580     2.6980     2.3020 H     1 <1>   0.0800 
 33 H        5.6970     4.1460     1.7160 H     1 <1>   0.0800 
 34 H        5.7910     1.7460    -1.5390 H     1 <1>   0.0800 
 35 H        6.4930     0.2340    -1.0530 H     1 <1>   0.0800 
 36 H        7.9260     3.7190     0.7190 H     1 <1>   0.0800 
 37 H        6.6710     3.8730    -0.4720 H     1 <1>   0.0800 
 38 H       10.7900     0.5740    -0.3880 H     1 <1>   0.1500 
 39 H       11.8340     5.3050     0.3540 H     1 <1>   0.1500 
 40 H       12.8720     1.2050     0.7140 H     1 <1>   0.1500 
 41 H        9.1260     6.6420    -1.7170 H     1 <1>   0.0800 
 42 H       10.7850     6.0770    -1.8790 H     1 <1>   0.0800 
 43 H       10.2010     6.7010    -0.3250 H     1 <1>   0.0800 
 44 H       13.7210     4.6800     1.7070 H     1 <1>   0.0800 
 45 H       14.5960     3.6710     0.5780 H     1 <1>   0.0800 
 46 H       14.0090     3.0020     2.0840 H     1 <1>   0.0800 
@<TRIPOS>BOND
  1   1   2  1   
  2   2   3  ar  
  3   2   4  ar  
  4   3   5  1   
  5   3   6  ar  
  6   4   7  ar  
  7   4  27  1   
  8   6   8  ar  
  9   6  28  1   
 10   7   8  ar  
 11   7   9  1   
 12   8  29  1   
 13   9  10  1   
 14   9  11  1   
 15  10  12  1   
 16  10  30  1   
 17  10  31  1   
 18  11  13  1   
 19  11  32  1   
 20  11  33  1   
 21  12  14  1   
 22  12  34  1   
 23  12  35  1   
 24  13  14  1   
 25  13  36  1   
 26  13  37  1   
 27  14  15  am  
 28  15  16  2   
 29  15  17  2   
 30  15  18  1   
 31  18  19  ar  
 32  18  20  ar  
 33  19  21  1   
 34  19  22  ar  
 35  20  23  ar  
 36  20  38  1   
 37  21  24  1   
 38  22  25  ar  
 39  22  39  1   
 40  23  25  ar  
 41  23  40  1   
 42  24  41  1   
 43  24  42  1   
 44  24  43  1   
 45  25  26  1   
 46  26  44  1   
 47  26  45  1   
 48  26  46  1   
@<TRIPOS>SUBSTRUCTURE
  1 ****  13 GROUP 4 **** **** 0

# MOE 2024.06 (io_trps.svl 2023.06)
