@<TRIPOS>MOLECULE
NONAME
47 49 1 0 0 
SMALL
USER_CHARGES


@<TRIPOS>ATOM
  1 CL      -2.7760    -1.9390     0.7950 Cl    1 <1>  -0.1770 
  2 C       -1.9680    -2.1830    -0.7400 C.ar  1 <1>   0.1770 
  3 C       -0.6430    -2.6300    -0.7660 C.ar  1 <1>   0.1990 
  4 C       -2.6730    -1.9180    -1.8970 C.ar  1 <1>  -0.1500 
  5 N        0.0610    -2.9100     0.4040 N.am  1 <1>  -0.6930 
  6 C       -0.0330    -2.7930    -2.0070 C.ar  1 <1>  -0.1500 
  7 C       -2.0370    -2.0970    -3.1110 C.ar  1 <1>   0.1770 
  8 S        0.3110    -4.5510     0.9010 S.o2  1 <1>   1.4470 
  9 C        1.0630    -1.9050     0.8750 C.3   1 <1>   0.2570 
 10 C       -0.7250    -2.5290    -3.1770 C.ar  1 <1>  -0.1500 
 11 CL      -2.9090    -1.7700    -4.5880 Cl    1 <1>  -0.1770 
 12 O        0.8470    -5.2450    -0.2460 O.2   1 <1>  -0.6500 
 13 O        1.0920    -4.4730     2.1180 O.2   1 <1>  -0.6500 
 14 C       -1.3720    -5.1110     1.2710 C.ar  1 <1>  -0.0090 
 15 C        2.4700    -2.1340     0.3170 C.2   1 <1>   0.5690 
 16 C       -2.1500    -5.7260     0.2950 C.ar  1 <1>  -0.1500 
 17 C       -1.9400    -4.9110     2.5240 C.ar  1 <1>  -0.1500 
 18 O        2.8180    -1.4780    -0.6360 O.2   1 <1>  -0.5700 
 19 N        3.2630    -3.0760     0.9040 N.am  1 <1>  -0.7300 
 20 C       -3.4470    -6.1300     0.5600 C.ar  1 <1>  -0.1500 
 21 C       -3.2360    -5.3130     2.7970 C.ar  1 <1>  -0.1500 
 22 C        4.5580    -3.6150     0.4340 C.3   1 <1>   0.2200 
 23 C       -3.9910    -5.9240     1.8140 C.ar  1 <1>  -0.1500 
 24 C        5.5980    -2.5240     0.1490 C.3   1 <1>  -0.1600 
 25 C        4.3780    -4.4050    -0.8670 C.3   1 <1>  -0.1600 
 26 C        5.8700    -2.5780    -1.3550 C.3   1 <1>  -0.1600 
 27 C        5.5630    -4.0190    -1.7500 C.3   1 <1>  -0.1600 
 28 H       -3.6920    -1.5790    -1.8570 H     1 <1>   0.1500 
 29 H        0.9900    -3.1300    -2.0530 H     1 <1>   0.1500 
 30 H        1.1060    -1.9180     1.9490 H     1 <1>   0.0800 
 31 H        0.7410    -0.9230     0.5770 H     1 <1>   0.0800 
 32 H       -0.2510    -2.6570    -4.1350 H     1 <1>   0.1500 
 33 H       -1.7350    -5.8910    -0.6860 H     1 <1>   0.1500 
 34 H       -1.3620    -4.4320     3.2980 H     1 <1>   0.1500 
 35 H        2.8270    -3.6610     1.6300 H     1 <1>   0.3700 
 36 H       -4.0310    -6.6060    -0.2090 H     1 <1>   0.1500 
 37 H       -3.6570    -5.1490     3.7750 H     1 <1>   0.1500 
 38 H        4.9510    -4.2700     1.1930 H     1 <1>   0.0800 
 39 H       -5.0000    -6.2370     2.0230 H     1 <1>   0.1500 
 40 H        6.5040    -2.7680     0.6740 H     1 <1>   0.0800 
 41 H        5.2720    -1.5470     0.4570 H     1 <1>   0.0800 
 42 H        3.4690    -4.1110    -1.3630 H     1 <1>   0.0800 
 43 H        4.3510    -5.4640    -0.6850 H     1 <1>   0.0800 
 44 H        6.8790    -2.2940    -1.5970 H     1 <1>   0.0800 
 45 H        5.1860    -1.9180    -1.8620 H     1 <1>   0.0800 
 46 H        5.3320    -4.1090    -2.7980 H     1 <1>   0.0800 
 47 H        6.4080    -4.6440    -1.5170 H     1 <1>   0.0800 
@<TRIPOS>BOND
  1   1   2  1   
  2   2   3  ar  
  3   2   4  ar  
  4   3   5  1   
  5   3   6  ar  
  6   4   7  ar  
  7   4  28  1   
  8   5   8  am  
  9   5   9  1   
 10   6  10  ar  
 11   6  29  1   
 12   7  10  ar  
 13   7  11  1   
 14   8  12  2   
 15   8  13  2   
 16   8  14  1   
 17   9  15  1   
 18   9  30  1   
 19   9  31  1   
 20  10  32  1   
 21  14  16  ar  
 22  14  17  ar  
 23  15  18  2   
 24  15  19  am  
 25  16  20  ar  
 26  16  33  1   
 27  17  21  ar  
 28  17  34  1   
 29  19  22  1   
 30  19  35  1   
 31  20  23  ar  
 32  20  36  1   
 33  21  23  ar  
 34  21  37  1   
 35  22  24  1   
 36  22  25  1   
 37  22  38  1   
 38  23  39  1   
 39  24  26  1   
 40  24  40  1   
 41  24  41  1   
 42  25  27  1   
 43  25  42  1   
 44  25  43  1   
 45  26  27  1   
 46  26  44  1   
 47  26  45  1   
 48  27  46  1   
 49  27  47  1   
@<TRIPOS>SUBSTRUCTURE
  1 ****   5 GROUP 4 **** **** 0

# MOE 2024.06 (io_trps.svl 2023.06)
