@<TRIPOS>MOLECULE
NONAME
49 50 1 0 0 
SMALL
USER_CHARGES


@<TRIPOS>ATOM
  1 O       -3.5650     2.4970    -0.2320 O.3   1 <1>  -0.5600 
  2 C       -3.3480     1.1350    -0.4900 C.3   1 <1>   0.2000 
  3 C       -4.3980     2.8320     0.8490 C.3   1 <1>   0.2000 
  4 C       -4.6920     0.4120    -0.7760 C.3   1 <1>   0.3430 
  5 C       -2.5520     0.5130     0.6640 C.3   1 <1>  -0.2400 
  6 C       -5.6360     1.9010     0.9260 C.3   1 <1>   0.3430 
  7 C       -4.8000     4.2900     0.6330 C.3   1 <1>  -0.2400 
  8 N       -5.8930     1.2410    -0.3990 N.4   1 <1>  -0.9590 
  9 C       -7.1620     0.4480    -0.4630 C.3   1 <1>   0.3430 
 10 C       -8.4160     1.3230    -0.3710 C.3   1 <1>   0.1200 
 11 O       -9.5250     0.4630    -0.4320 O.3   1 <1>  -0.3630 
 12 C      -10.7950     0.9430    -0.3660 C.ar  1 <1>   0.0820 
 13 C      -11.1120     2.2970    -0.2830 C.ar  1 <1>  -0.1500 
 14 C      -11.8140     0.0040    -0.3860 C.ar  1 <1>  -0.1500 
 15 C      -12.4360     2.6970    -0.2170 C.ar  1 <1>  -0.1500 
 16 C      -13.1350     0.4070    -0.3210 C.ar  1 <1>  -0.1500 
 17 C      -13.4580     1.7510    -0.2350 C.ar  1 <1>   0.0820 
 18 O      -14.7840     2.0490    -0.1770 O.3   1 <1>  -0.3620 
 19 C      -15.2750     3.3610    -0.0100 C.3   1 <1>   0.2000 
 20 C      -15.1690     3.7470     1.4680 C.3   1 <1>  -0.2400 
 21 C      -16.7310     3.3530    -0.4710 C.3   1 <1>  -0.2400 
 22 H       -2.7380     1.0850    -1.3770 H     1 <1>   0.0800 
 23 H       -3.8230     2.7570     1.7570 H     1 <1>   0.0800 
 24 H       -4.7010    -0.5190    -0.2330 H     1 <1>   0.0800 
 25 H       -4.7360     0.1690    -1.8250 H     1 <1>   0.0800 
 26 H       -3.1270     0.4560     1.5700 H     1 <1>   0.0800 
 27 H       -1.6610     1.0900     0.8430 H     1 <1>   0.0800 
 28 H       -2.2480    -0.4850     0.4000 H     1 <1>   0.0800 
 29 H       -6.4900     2.4780     1.2390 H     1 <1>   0.0800 
 30 H       -5.4590     1.1490     1.6770 H     1 <1>   0.0800 
 31 H       -5.3470     4.4060    -0.2850 H     1 <1>   0.0800 
 32 H       -3.9180     4.9060     0.5940 H     1 <1>   0.0800 
 33 H       -5.4100     4.6360     1.4480 H     1 <1>   0.0800 
 34 H       -5.9130     2.0070    -1.0900 H     1 <1>   0.4500 
 35 H       -7.1800    -0.2700     0.3410 H     1 <1>   0.0800 
 36 H       -7.2000    -0.0890    -1.3970 H     1 <1>   0.0800 
 37 H       -8.4730     2.0020    -1.2040 H     1 <1>   0.0800 
 38 H       -8.4600     1.8520     0.5640 H     1 <1>   0.0800 
 39 H      -10.3540     3.0540    -0.2680 H     1 <1>   0.1500 
 40 H      -11.5730    -1.0410    -0.4520 H     1 <1>   0.1500 
 41 H      -12.6530     3.7460    -0.1530 H     1 <1>   0.1500 
 42 H      -13.9270    -0.3200    -0.3360 H     1 <1>   0.1500 
 43 H      -14.7120     4.0290    -0.6370 H     1 <1>   0.0800 
 44 H      -15.7300     3.0560     2.0720 H     1 <1>   0.0800 
 45 H      -15.5660     4.7340     1.6180 H     1 <1>   0.0800 
 46 H      -14.1450     3.7430     1.7910 H     1 <1>   0.0800 
 47 H      -17.3070     2.6650     0.1210 H     1 <1>   0.0800 
 48 H      -16.7840     3.0650    -1.5050 H     1 <1>   0.0800 
 49 H      -17.1550     4.3350    -0.3690 H     1 <1>   0.0800 
@<TRIPOS>BOND
  1   1   2  1   
  2   1   3  1   
  3   2   4  1   
  4   2   5  1   
  5   2  22  1   
  6   3   6  1   
  7   3   7  1   
  8   3  23  1   
  9   4   8  1   
 10   4  24  1   
 11   4  25  1   
 12   5  26  1   
 13   5  27  1   
 14   5  28  1   
 15   6   8  1   
 16   6  29  1   
 17   6  30  1   
 18   7  31  1   
 19   7  32  1   
 20   7  33  1   
 21   8   9  1   
 22   8  34  1   
 23   9  10  1   
 24   9  35  1   
 25   9  36  1   
 26  10  11  1   
 27  10  37  1   
 28  10  38  1   
 29  11  12  1   
 30  12  13  ar  
 31  12  14  ar  
 32  13  15  ar  
 33  13  39  1   
 34  14  16  ar  
 35  14  40  1   
 36  15  17  ar  
 37  15  41  1   
 38  16  17  ar  
 39  16  42  1   
 40  17  18  1   
 41  18  19  1   
 42  19  20  1   
 43  19  21  1   
 44  19  43  1   
 45  20  44  1   
 46  20  45  1   
 47  20  46  1   
 48  21  47  1   
 49  21  48  1   
 50  21  49  1   
@<TRIPOS>SUBSTRUCTURE
  1 ****  10 GROUP 4 **** **** 0

# MOE 2024.06 (io_trps.svl 2023.06)
