@<TRIPOS>MOLECULE
NONAME
47 50 1 0 0 
SMALL
USER_CHARGES


@<TRIPOS>ATOM
  1 O       -0.2250     1.7960    -1.4260 O.2   1 <1>  -0.5700 
  2 C       -0.8200     2.1130    -0.4260 C.2   1 <1>   0.5690 
  3 N       -2.0570     2.6510    -0.5560 N.am  1 <1>  -0.7300 
  4 C       -0.1840     1.8700     0.9400 C.3   1 <1>   0.0440 
  5 C       -3.0490     3.0410     0.4690 C.3   1 <1>   0.2200 
  6 C        1.2870     2.2730     1.0040 C.ar  1 <1>  -0.1440 
  7 C       -4.4760     2.7390    -0.0360 C.3   1 <1>  -0.0800 
  8 C       -2.9290     4.5440     0.8000 C.3   1 <1>  -0.0800 
  9 C        1.6590     3.6120     0.9560 C.ar  1 <1>   0.0830 
 10 C        2.2750     1.3040     1.1100 C.ar  1 <1>  -0.1500 
 11 C       -5.4750     3.0770     1.0910 C.3   1 <1>  -0.1600 
 12 C       -4.8200     3.6060    -1.2700 C.3   1 <1>  -0.1600 
 13 C       -3.9300     4.8790     1.9250 C.3   1 <1>  -0.1600 
 14 C       -3.2690     5.4050    -0.4370 C.3   1 <1>  -0.1600 
 15 O        0.7120     4.5680     0.8390 O.3   1 <1>  -0.3630 
 16 C        2.9960     3.9750     1.0360 C.ar  1 <1>  -0.1500 
 17 C        3.6100     1.6660     1.1800 C.ar  1 <1>  -0.1500 
 18 C       -5.3670     4.5690     1.4640 C.3   1 <1>  -0.0800 
 19 C       -4.7030     5.1000    -0.9140 C.3   1 <1>  -0.0800 
 20 C        0.6840     5.2620    -0.3880 C.3   1 <1>   0.0400 
 21 C        3.9720     3.0020     1.1460 C.ar  1 <1>  -0.1500 
 22 C       -5.6910     5.4230     0.2230 C.3   1 <1>  -0.1600 
 23 H       -2.3600     2.8140    -1.5160 H     1 <1>   0.3700 
 24 H       -0.2900     0.8280     1.1700 H     1 <1>   0.0800 
 25 H       -0.7050     2.4250     1.6950 H     1 <1>   0.0800 
 26 H       -2.8750     2.4660     1.3620 H     1 <1>   0.0800 
 27 H       -4.5580     1.6950    -0.2810 H     1 <1>   0.0800 
 28 H       -1.9330     4.7600     1.1420 H     1 <1>   0.0800 
 29 H        2.0110     0.2620     1.1350 H     1 <1>   0.1500 
 30 H       -5.2710     2.4700     1.9560 H     1 <1>   0.0800 
 31 H       -6.4780     2.8550     0.7680 H     1 <1>   0.0800 
 32 H       -4.1630     3.3730    -2.0900 H     1 <1>   0.0800 
 33 H       -5.8230     3.3900    -1.5950 H     1 <1>   0.0800 
 34 H       -3.6970     4.3050     2.8060 H     1 <1>   0.0800 
 35 H       -3.8480     5.9200     2.1870 H     1 <1>   0.0800 
 36 H       -2.5700     5.2080    -1.2300 H     1 <1>   0.0800 
 37 H       -3.1850     6.4480    -0.1860 H     1 <1>   0.0800 
 38 H        3.2670     5.0140     1.0140 H     1 <1>   0.1500 
 39 H        4.3680     0.9060     1.2610 H     1 <1>   0.1500 
 40 H       -6.0620     4.7990     2.2540 H     1 <1>   0.0800 
 41 H       -4.9350     5.7000    -1.7780 H     1 <1>   0.0800 
 42 H       -0.1660     5.9190    -0.3850 H     1 <1>   0.0800 
 43 H        0.5950     4.5470    -1.1880 H     1 <1>   0.0800 
 44 H        1.5910     5.8310    -0.4930 H     1 <1>   0.0800 
 45 H        5.0090     3.2810     1.2050 H     1 <1>   0.1500 
 46 H       -5.6290     6.4680     0.4740 H     1 <1>   0.0800 
 47 H       -6.6980     5.2260    -0.1020 H     1 <1>   0.0800 
@<TRIPOS>BOND
  1   1   2  2   
  2   2   3  am  
  3   2   4  1   
  4   3   5  1   
  5   3  23  1   
  6   4   6  1   
  7   4  24  1   
  8   4  25  1   
  9   5   7  1   
 10   5   8  1   
 11   5  26  1   
 12   6   9  ar  
 13   6  10  ar  
 14   7  11  1   
 15   7  12  1   
 16   7  27  1   
 17   8  13  1   
 18   8  14  1   
 19   8  28  1   
 20   9  15  1   
 21   9  16  ar  
 22  10  17  ar  
 23  10  29  1   
 24  11  18  1   
 25  11  30  1   
 26  11  31  1   
 27  12  19  1   
 28  12  32  1   
 29  12  33  1   
 30  13  18  1   
 31  13  34  1   
 32  13  35  1   
 33  14  19  1   
 34  14  36  1   
 35  14  37  1   
 36  15  20  1   
 37  16  21  ar  
 38  16  38  1   
 39  17  21  ar  
 40  17  39  1   
 41  18  22  1   
 42  18  40  1   
 43  19  22  1   
 44  19  41  1   
 45  20  42  1   
 46  20  43  1   
 47  20  44  1   
 48  21  45  1   
 49  22  46  1   
 50  22  47  1   
@<TRIPOS>SUBSTRUCTURE
  1 ****   3 GROUP 4 **** **** 0

# MOE 2024.06 (io_trps.svl 2023.06)
