@<TRIPOS>MOLECULE
NONAME
53 56 1 0 0 
SMALL
USER_CHARGES


@<TRIPOS>ATOM
  1 S        0.9970    -0.0460    -1.9090 S.3   1 <1>  -0.0800 
  2 C        0.0470     0.8870    -0.7610 C.2   1 <1>   0.1040 
  3 C        2.1670    -0.4580    -0.6780 C.2   1 <1>  -0.1400 
  4 N       -1.1100     1.5220    -1.1870 N.am  1 <1>  -0.4940 
  5 C        0.6240     0.8710     0.4850 C.2   1 <1>  -0.0860 
  6 C        1.8340     0.0710     0.5080 C.2   1 <1>  -0.1810 
  7 C        3.3570    -1.3200    -1.0370 C.3   1 <1>   0.0200 
  8 C       -1.8060     1.5470    -2.3670 C.2   1 <1>   0.5690 
  9 C        0.0680     1.5830     1.6070 C.2   1 <1>   0.8060 
 10 C        2.7070    -0.1970     1.7310 C.3   1 <1>   0.0210 
 11 C        4.3790    -1.2670     0.1110 C.3   1 <1>  -0.1600 
 12 O       -1.5100     0.9220    -3.3560 O.2   1 <1>  -0.5700 
 13 C       -3.0470     2.4400    -2.4060 C.3   1 <1>   0.1710 
 14 O       -1.0620     2.0380     1.6090 O.2   1 <1>  -0.5700 
 15 O        0.8190     1.7790     2.7000 O.3   1 <1>  -0.4300 
 16 C        3.6930    -1.3580     1.4870 C.3   1 <1>  -0.1600 
 17 N       -3.5580     2.8360    -1.0600 N.3   1 <1>  -0.8100 
 18 C        0.3360     2.4930     3.8220 C.3   1 <1>   0.0400 
 19 C       -4.4340     4.0130    -1.1630 C.3   1 <1>   0.1100 
 20 C       -4.2590     1.7130    -0.4070 C.3   1 <1>   0.1100 
 21 C       -4.8200     4.4920     0.2360 C.3   1 <1>  -0.1600 
 22 C       -4.6400     2.1010     1.0210 C.3   1 <1>  -0.1600 
 23 C       -5.4920     3.3700     1.0150 C.3   1 <1>   0.5600 
 24 O       -6.7420     3.1110     0.4580 O.3   1 <1>  -0.5600 
 25 O       -5.7510     3.7990     2.3080 O.3   1 <1>  -0.5600 
 26 C       -7.6350     2.8060     1.4690 C.3   1 <1>   0.1200 
 27 C       -6.9270     3.2220     2.7440 C.3   1 <1>   0.1200 
 28 H       -1.6040     2.0720    -0.4660 H     1 <1>   0.3700 
 29 H        3.8080    -0.9660    -1.9480 H     1 <1>   0.0800 
 30 H        3.0200    -2.3300    -1.1900 H     1 <1>   0.0800 
 31 H        2.0910    -0.4470     2.5760 H     1 <1>   0.0800 
 32 H        3.2560     0.6990     1.9650 H     1 <1>   0.0800 
 33 H        4.9190    -0.3370     0.0530 H     1 <1>   0.0800 
 34 H        5.0880    -2.0690    -0.0030 H     1 <1>   0.0800 
 35 H       -3.8210     1.9390    -2.9600 H     1 <1>   0.0800 
 36 H       -2.7710     3.3230    -2.9540 H     1 <1>   0.0800 
 37 H        3.1520    -2.2880     1.5420 H     1 <1>   0.0800 
 38 H        4.4350    -1.3640     2.2660 H     1 <1>   0.0800 
 39 H        1.1110     2.5230     4.5670 H     1 <1>   0.0800 
 40 H       -0.5330     1.9890     4.2100 H     1 <1>   0.0800 
 41 H        0.0780     3.4930     3.5150 H     1 <1>   0.0800 
 42 H       -5.3210     3.7660    -1.7240 H     1 <1>   0.0800 
 43 H       -3.9170     4.8090    -1.6720 H     1 <1>   0.0800 
 44 H       -3.6230     0.8450    -0.3740 H     1 <1>   0.0800 
 45 H       -5.1470     1.4610    -0.9650 H     1 <1>   0.0800 
 46 H       -5.4870     5.3310     0.1700 H     1 <1>   0.0800 
 47 H       -3.9310     4.7980     0.7540 H     1 <1>   0.0800 
 48 H       -3.7400     2.2870     1.5780 H     1 <1>   0.0800 
 49 H       -5.1690     1.2940     1.4890 H     1 <1>   0.0800 
 50 H       -7.8400     1.7510     1.4530 H     1 <1>   0.0800 
 51 H       -8.5410     3.3650     1.3120 H     1 <1>   0.0800 
 52 H       -7.4890     3.9480     3.3050 H     1 <1>   0.0800 
 53 H       -6.6920     2.3730     3.3610 H     1 <1>   0.0800 
@<TRIPOS>BOND
  1   1   2  1   
  2   1   3  1   
  3   2   4  1   
  4   2   5  2   
  5   3   6  2   
  6   3   7  1   
  7   4   8  am  
  8   4  28  1   
  9   5   6  1   
 10   5   9  1   
 11   6  10  1   
 12   7  11  1   
 13   7  29  1   
 14   7  30  1   
 15   8  12  2   
 16   8  13  1   
 17   9  14  2   
 18   9  15  1   
 19  10  16  1   
 20  10  31  1   
 21  10  32  1   
 22  11  16  1   
 23  11  33  1   
 24  11  34  1   
 25  13  17  1   
 26  13  35  1   
 27  13  36  1   
 28  15  18  1   
 29  16  37  1   
 30  16  38  1   
 31  17  19  1   
 32  17  20  1   
 33  18  39  1   
 34  18  40  1   
 35  18  41  1   
 36  19  21  1   
 37  19  42  1   
 38  19  43  1   
 39  20  22  1   
 40  20  44  1   
 41  20  45  1   
 42  21  23  1   
 43  21  46  1   
 44  21  47  1   
 45  22  23  1   
 46  22  48  1   
 47  22  49  1   
 48  23  24  1   
 49  23  25  1   
 50  24  26  1   
 51  25  27  1   
 52  26  27  1   
 53  26  50  1   
 54  26  51  1   
 55  27  52  1   
 56  27  53  1   
@<TRIPOS>SUBSTRUCTURE
  1 ****  14 GROUP 4 **** **** 0

# MOE 2024.06 (io_trps.svl 2023.06)
