@<TRIPOS>MOLECULE
NONAME
33 35 1 0 0 
SMALL
USER_CHARGES


@<TRIPOS>ATOM
  1 S        0.2570    -0.0100     0.0800 S.3   1 <1>  -0.3320 
  2 C        1.6520     1.1110     0.0880 C.ar  1 <1>   0.7220 
  3 C       -1.2550     1.0480     0.2000 C.3   1 <1>   0.0700 
  4 N        1.3830     2.4040     0.2400 N.ar  1 <1>  -0.3100 
  5 N        2.8190     0.5430    -0.0500 N.ar  1 <1>  -0.6200 
  6 C       -1.5950     1.5630    -1.1980 C.3   1 <1>  -0.2400 
  7 N        2.3710     3.2530     0.2500 N.ar  1 <1>  -0.3100 
  8 C        3.8170     1.4070    -0.0460 C.ar  1 <1>   0.3930 
  9 C        3.6270     2.8010     0.1110 C.ar  1 <1>   0.3100 
 10 O        4.9910     0.7720    -0.1960 O.3   1 <1>  -0.3620 
 11 C        4.6560     3.8380     0.1310 C.ar  1 <1>   0.0000 
 12 C        6.2280     1.3690    -0.0250 C.3   1 <1>   0.5690 
 13 C        5.9140     3.6750    -0.4730 C.ar  1 <1>   0.1000 
 14 C        4.4110     5.0800     0.7330 C.ar  1 <1>  -0.1500 
 15 N        6.2980     2.4570    -0.9820 N.pl3 1 <1>  -0.8690 
 16 C        7.3060     0.3480    -0.3410 C.3   1 <1>  -0.2400 
 17 C        6.8220     4.7260    -0.5310 C.ar  1 <1>  -0.1500 
 18 C        5.3260     6.1140     0.6960 C.ar  1 <1>  -0.1500 
 19 C        6.5350     5.9420     0.0510 C.ar  1 <1>  -0.1500 
 20 H       -1.0550     1.8470     0.8930 H     1 <1>   0.0800 
 21 H       -2.0410     0.4240     0.5860 H     1 <1>   0.0800 
 22 H       -0.7950     2.1710    -1.5800 H     1 <1>   0.0800 
 23 H       -2.4890     2.1590    -1.1600 H     1 <1>   0.0800 
 24 H       -1.7580     0.7370    -1.8670 H     1 <1>   0.0800 
 25 H        6.3060     1.7230     0.9910 H     1 <1>   0.0800 
 26 H        3.4770     5.2580     1.2380 H     1 <1>   0.1500 
 27 H        7.1890     2.4440    -1.4810 H     1 <1>   0.4000 
 28 H        7.1950    -0.0110    -1.3480 H     1 <1>   0.0800 
 29 H        7.2240    -0.4800     0.3390 H     1 <1>   0.0800 
 30 H        8.2780     0.7890    -0.2200 H     1 <1>   0.0800 
 31 H        7.7650     4.5870    -1.0260 H     1 <1>   0.1500 
 32 H        5.0950     7.0570     1.1630 H     1 <1>   0.1500 
 33 H        7.2450     6.7500     0.0070 H     1 <1>   0.1500 
@<TRIPOS>BOND
  1   1   2  1   
  2   1   3  1   
  3   2   4  ar  
  4   2   5  ar  
  5   3   6  1   
  6   3  20  1   
  7   3  21  1   
  8   4   7  ar  
  9   5   8  ar  
 10   6  22  1   
 11   6  23  1   
 12   6  24  1   
 13   7   9  ar  
 14   8   9  ar  
 15   8  10  1   
 16   9  11  1   
 17  10  12  1   
 18  11  13  ar  
 19  11  14  ar  
 20  12  15  1   
 21  12  16  1   
 22  12  25  1   
 23  13  15  1   
 24  13  17  ar  
 25  14  18  ar  
 26  14  26  1   
 27  15  27  1   
 28  16  28  1   
 29  16  29  1   
 30  16  30  1   
 31  17  19  ar  
 32  17  31  1   
 33  18  19  ar  
 34  18  32  1   
 35  19  33  1   
@<TRIPOS>SUBSTRUCTURE
  1 ****   9 GROUP 4 **** **** 0

# MOE 2024.06 (io_trps.svl 2023.06)
