@<TRIPOS>MOLECULE
NONAME
39 41 1 0 0 
SMALL
USER_CHARGES


@<TRIPOS>ATOM
  1 F       -2.5640     0.1490    -2.8630 F     1 <1>  -0.1900 
  2 C       -2.7690     0.7090    -1.7020 C.ar  1 <1>   0.1900 
  3 C       -3.8450     0.2850    -0.9460 C.ar  1 <1>  -0.1500 
  4 C       -1.9090     1.7010    -1.2760 C.ar  1 <1>  -0.1500 
  5 C       -4.0750     0.8820     0.2870 C.ar  1 <1>  -0.1440 
  6 C       -2.1370     2.2870    -0.0430 C.ar  1 <1>  -0.1500 
  7 C       -3.2130     1.8790     0.7320 C.ar  1 <1>  -0.1500 
  8 C       -5.2560     0.4540     1.1390 C.3   1 <1>   0.4870 
  9 N       -6.5060     0.9720     0.5220 N.4   1 <1>  -0.9590 
 10 C       -6.5220     2.4810     0.4570 C.3   1 <1>   0.3430 
 11 C       -7.7340     0.4550     1.2260 C.3   1 <1>   0.3430 
 12 C       -7.8190     3.0300    -0.1720 C.3   1 <1>   0.2090 
 13 C       -9.0390     0.9890     0.6010 C.3   1 <1>   0.2090 
 14 N       -9.0310     2.4790     0.5040 N.pl3 1 <1>  -0.8380 
 15 C      -10.2130     3.0150     0.0420 C.ar  1 <1>   0.4100 
 16 N      -10.5600     2.6830    -1.1940 N.ar  1 <1>  -0.6200 
 17 C      -10.9640     3.8510     0.8610 C.ar  1 <1>  -0.1500 
 18 C      -11.6970     3.2070    -1.6260 C.ar  1 <1>   0.1600 
 19 C      -12.1430     4.3870     0.3970 C.ar  1 <1>  -0.1500 
 20 C      -12.5120     4.0480    -0.8890 C.ar  1 <1>  -0.1500 
 21 H       -4.4710    -0.5000    -1.3320 H     1 <1>   0.1500 
 22 H       -1.0810     2.0010    -1.8950 H     1 <1>   0.1500 
 23 H       -1.4730     3.0590     0.3110 H     1 <1>   0.1500 
 24 H       -3.3610     2.3500     1.6900 H     1 <1>   0.1500 
 25 H       -5.1460     0.8400     2.1390 H     1 <1>   0.0800 
 26 H       -5.2850    -0.6220     1.1900 H     1 <1>   0.0800 
 27 H       -6.5320     0.6390    -0.4500 H     1 <1>   0.4500 
 28 H       -5.6820     2.8330    -0.1200 H     1 <1>   0.0800 
 29 H       -6.4340     2.8870     1.4500 H     1 <1>   0.0800 
 30 H       -7.7130     0.7580     2.2600 H     1 <1>   0.0800 
 31 H       -7.7510    -0.6220     1.1970 H     1 <1>   0.0800 
 32 H       -7.8470     2.7840    -1.2200 H     1 <1>   0.0800 
 33 H       -7.8280     4.1040    -0.0890 H     1 <1>   0.0800 
 34 H       -9.8760     0.6810     1.2060 H     1 <1>   0.0800 
 35 H       -9.1730     0.5630    -0.3790 H     1 <1>   0.0800 
 36 H      -10.6100     4.0680     1.8500 H     1 <1>   0.1500 
 37 H      -11.9990     2.9510    -2.6280 H     1 <1>   0.1500 
 38 H      -12.7490     5.0380     1.0040 H     1 <1>   0.1500 
 39 H      -13.4220     4.4310    -1.3140 H     1 <1>   0.1500 
@<TRIPOS>BOND
  1   1   2  1   
  2   2   3  ar  
  3   2   4  ar  
  4   3   5  ar  
  5   3  21  1   
  6   4   6  ar  
  7   4  22  1   
  8   5   7  ar  
  9   5   8  1   
 10   6   7  ar  
 11   6  23  1   
 12   7  24  1   
 13   8   9  1   
 14   8  25  1   
 15   8  26  1   
 16   9  10  1   
 17   9  11  1   
 18   9  27  1   
 19  10  12  1   
 20  10  28  1   
 21  10  29  1   
 22  11  13  1   
 23  11  30  1   
 24  11  31  1   
 25  12  14  1   
 26  12  32  1   
 27  12  33  1   
 28  13  14  1   
 29  13  34  1   
 30  13  35  1   
 31  14  15  1   
 32  15  16  ar  
 33  15  17  ar  
 34  16  18  ar  
 35  17  19  ar  
 36  17  36  1   
 37  18  20  ar  
 38  18  37  1   
 39  19  20  ar  
 40  19  38  1   
 41  20  39  1   
@<TRIPOS>SUBSTRUCTURE
  1 ****  10 GROUP 4 **** **** 0

# MOE 2024.06 (io_trps.svl 2023.06)
