@<TRIPOS>MOLECULE
NONAME
32 32 1 0 0 
SMALL
USER_CHARGES


@<TRIPOS>ATOM
  1 O       -0.5660     1.2700     0.6160 O.2   1 <1>  -0.5700 
  2 C       -1.6830     1.6520     0.3670 C.2   1 <1>   0.8410 
  3 N       -2.6590     1.4020     1.2570 N.am  1 <1>  -0.4900 
  4 N       -1.9490     2.3350    -0.7760 N.2   1 <1>  -0.6610 
  5 C       -3.9520     1.7280     1.0900 C.2   1 <1>   0.5690 
  6 C       -3.1370     2.6850    -1.0670 C.2   1 <1>   0.4390 
  7 O       -4.7410     1.4910     1.9700 O.2   1 <1>  -0.5700 
  8 C       -4.4020     2.3660    -0.2320 C.3   1 <1>   0.1220 
  9 N       -3.2780     3.4040    -2.1980 N.pl3 1 <1>  -0.8500 
 10 C       -5.2110     3.6620     0.0690 C.3   1 <1>  -0.1600 
 11 C       -5.3030     1.3120    -0.9480 C.3   1 <1>  -0.1600 
 12 C       -4.4240     4.7260     0.8590 C.3   1 <1>  -0.1600 
 13 C       -5.9540     1.7060    -2.2860 C.3   1 <1>  -0.2400 
 14 C       -5.2770     5.9780     1.0890 C.3   1 <1>  -0.1600 
 15 C       -4.4980     7.0360     1.8740 C.3   1 <1>  -0.2400 
 16 H       -2.3780     0.9440     2.1150 H     1 <1>   0.3700 
 17 H       -2.4490     3.6240    -2.7540 H     1 <1>   0.4000 
 18 H       -4.1690     3.7520    -2.5520 H     1 <1>   0.4000 
 19 H       -6.0910     3.3990     0.6310 H     1 <1>   0.0800 
 20 H       -5.5430     4.1070    -0.8510 H     1 <1>   0.0800 
 21 H       -6.0970     1.0360    -0.2740 H     1 <1>   0.0800 
 22 H       -4.7170     0.4240    -1.1130 H     1 <1>   0.0800 
 23 H       -3.5330     5.0040     0.3210 H     1 <1>   0.0800 
 24 H       -4.1280     4.3300     1.8150 H     1 <1>   0.0800 
 25 H       -6.5650     2.5840    -2.1860 H     1 <1>   0.0800 
 26 H       -6.5900     0.9030    -2.6180 H     1 <1>   0.0800 
 27 H       -5.2150     1.8660    -3.0490 H     1 <1>   0.0800 
 28 H       -6.1660     5.7150     1.6370 H     1 <1>   0.0800 
 29 H       -5.5790     6.3930     0.1420 H     1 <1>   0.0800 
 30 H       -4.2070     6.6520     2.8360 H     1 <1>   0.0800 
 31 H       -5.1110     7.9070     2.0270 H     1 <1>   0.0800 
 32 H       -3.6140     7.3310     1.3360 H     1 <1>   0.0800 
@<TRIPOS>BOND
  1   1   2  2   
  2   2   3  am  
  3   2   4  1   
  4   3   5  am  
  5   3  16  1   
  6   4   6  2   
  7   5   7  2   
  8   5   8  1   
  9   6   8  1   
 10   6   9  1   
 11   8  10  1   
 12   8  11  1   
 13   9  17  1   
 14   9  18  1   
 15  10  12  1   
 16  10  19  1   
 17  10  20  1   
 18  11  13  1   
 19  11  21  1   
 20  11  22  1   
 21  12  14  1   
 22  12  23  1   
 23  12  24  1   
 24  13  25  1   
 25  13  26  1   
 26  13  27  1   
 27  14  15  1   
 28  14  28  1   
 29  14  29  1   
 30  15  30  1   
 31  15  31  1   
 32  15  32  1   
@<TRIPOS>SUBSTRUCTURE
  1 ****   8 GROUP 4 **** **** 0

# MOE 2024.06 (io_trps.svl 2023.06)
