@<TRIPOS>MOLECULE
NONAME
47 48 1 0 0 
SMALL
USER_CHARGES


@<TRIPOS>ATOM
  1 O      -11.5090    -1.0740     0.4650 O.3   1 <1>  -0.3630 
  2 C      -12.8130    -0.8890     0.1240 C.ar  1 <1>   0.0830 
  3 C      -10.4660    -0.4330    -0.2270 C.3   1 <1>   0.1200 
  4 C      -13.7740    -1.5720     0.8640 C.ar  1 <1>  -0.1440 
  5 C      -13.2120    -0.0560    -0.9200 C.ar  1 <1>  -0.1500 
  6 C       -9.1490    -0.8720     0.4180 C.3   1 <1>  -0.1600 
  7 C      -15.1140    -1.4160     0.5510 C.ar  1 <1>  -0.1500 
  8 C      -13.3680    -2.4870     2.0100 C.3   1 <1>  -0.0970 
  9 C      -14.5540     0.0980    -1.2270 C.ar  1 <1>  -0.1430 
 10 C       -7.9340    -0.2310    -0.2690 C.3   1 <1>  -0.1600 
 11 C      -15.5020    -0.5870    -0.4870 C.ar  1 <1>  -0.1500 
 12 C      -14.9830     1.0040    -2.3660 C.3   1 <1>  -0.0970 
 13 C       -6.6380    -0.6890     0.4060 C.3   1 <1>   0.3430 
 14 N       -5.4620     0.0080    -0.1830 N.4   1 <1>  -0.9590 
 15 C       -5.1500    -0.4680    -1.5660 C.3   1 <1>   0.3430 
 16 C       -4.2760    -0.1260     0.7130 C.3   1 <1>   0.3430 
 17 C       -4.0130     0.3670    -2.1570 C.3   1 <1>  -0.1600 
 18 C       -3.1200     0.7190     0.1730 C.3   1 <1>  -0.1600 
 19 C       -2.7630     0.3370    -1.2690 C.3   1 <1>  -0.1600 
 20 H      -10.6060     0.6310    -0.1380 H     1 <1>   0.0800 
 21 H      -10.5120    -0.7340    -1.2590 H     1 <1>   0.0800 
 22 H      -12.4930     0.4800    -1.5070 H     1 <1>   0.1500 
 23 H       -9.0800    -1.9450     0.3530 H     1 <1>   0.0800 
 24 H       -9.1710    -0.5920     1.4580 H     1 <1>   0.0800 
 25 H      -15.8660    -1.9380     1.1150 H     1 <1>   0.1500 
 26 H      -12.7340    -3.2720     1.6400 H     1 <1>   0.0800 
 27 H      -14.2280    -2.9320     2.4760 H     1 <1>   0.0800 
 28 H      -12.8280    -1.9250     2.7490 H     1 <1>   0.0800 
 29 H       -8.0200     0.8390    -0.1990 H     1 <1>   0.0800 
 30 H       -7.9370    -0.5170    -1.3060 H     1 <1>   0.0800 
 31 H      -16.5480    -0.4800    -0.7150 H     1 <1>   0.1500 
 32 H      -14.3100     1.8380    -2.4570 H     1 <1>   0.0800 
 33 H      -15.9720     1.3860    -2.1910 H     1 <1>   0.0800 
 34 H      -14.9820     0.4530    -3.2890 H     1 <1>   0.0800 
 35 H       -6.5270    -1.7570     0.3030 H     1 <1>   0.0800 
 36 H       -6.7020    -0.4600     1.4580 H     1 <1>   0.0800 
 37 H       -5.6780     1.0120    -0.2450 H     1 <1>   0.4500 
 38 H       -6.0190    -0.3800    -2.1980 H     1 <1>   0.0800 
 39 H       -4.8560    -1.5050    -1.5370 H     1 <1>   0.0800 
 40 H       -3.9710    -1.1590     0.7640 H     1 <1>   0.0800 
 41 H       -4.5240     0.2050     1.7090 H     1 <1>   0.0800 
 42 H       -4.3460     1.3830    -2.2880 H     1 <1>   0.0800 
 43 H       -3.7650    -0.0160    -3.1320 H     1 <1>   0.0800 
 44 H       -2.2570     0.5770     0.8010 H     1 <1>   0.0800 
 45 H       -3.3850     1.7610     0.2230 H     1 <1>   0.0800 
 46 H       -2.0220     1.0170    -1.6560 H     1 <1>   0.0800 
 47 H       -2.3370    -0.6530    -1.2830 H     1 <1>   0.0800 
@<TRIPOS>BOND
  1   1   2  1   
  2   1   3  1   
  3   2   4  ar  
  4   2   5  ar  
  5   3   6  1   
  6   3  20  1   
  7   3  21  1   
  8   4   7  ar  
  9   4   8  1   
 10   5   9  ar  
 11   5  22  1   
 12   6  10  1   
 13   6  23  1   
 14   6  24  1   
 15   7  11  ar  
 16   7  25  1   
 17   8  26  1   
 18   8  27  1   
 19   8  28  1   
 20   9  11  ar  
 21   9  12  1   
 22  10  13  1   
 23  10  29  1   
 24  10  30  1   
 25  11  31  1   
 26  12  32  1   
 27  12  33  1   
 28  12  34  1   
 29  13  14  1   
 30  13  35  1   
 31  13  36  1   
 32  14  15  1   
 33  14  16  1   
 34  14  37  1   
 35  15  17  1   
 36  15  38  1   
 37  15  39  1   
 38  16  18  1   
 39  16  40  1   
 40  16  41  1   
 41  17  19  1   
 42  17  42  1   
 43  17  43  1   
 44  18  19  1   
 45  18  44  1   
 46  18  45  1   
 47  19  46  1   
 48  19  47  1   
@<TRIPOS>SUBSTRUCTURE
  1 ****   3 GROUP 4 **** **** 0

# MOE 2024.06 (io_trps.svl 2023.06)
