@<TRIPOS>MOLECULE
NONAME
42 43 1 0 0 
SMALL
USER_CHARGES


@<TRIPOS>ATOM
  1 S        0.1280    -0.2140     0.2490 S.o2  1 <1>   1.3330 
  2 O        0.5080    -1.5440    -0.1640 O.2   1 <1>  -0.6500 
  3 O       -0.4280    -0.0030     1.5660 O.2   1 <1>  -0.6500 
  4 N        1.5340     0.7450     0.1580 N.am  1 <1>  -0.8490 
  5 C       -0.9660     0.4700    -1.0030 C.3   1 <1>  -0.0550 
  6 C        1.6000     1.7630     1.2330 C.3   1 <1>   0.1960 
  7 C        2.7640    -0.0830     0.1640 C.3   1 <1>   0.1960 
  8 C       -1.3480     1.9480    -0.8030 C.3   1 <1>  -0.1600 
  9 C        2.8280     2.6970     1.0980 C.3   1 <1>   0.3430 
 10 C        4.0700     0.7510     0.1910 C.3   1 <1>   0.3430 
 11 C       -2.3360     2.4140    -1.8760 C.3   1 <1>  -0.2400 
 12 N        3.7960     2.2200     0.0450 N.4   1 <1>  -0.9590 
 13 C        5.0250     3.0530    -0.0510 C.3   1 <1>   0.4860 
 14 C        4.6240     4.4870    -0.3430 C.ar  1 <1>  -0.1440 
 15 C        4.7120     5.4500     0.6580 C.ar  1 <1>  -0.1500 
 16 C        4.1660     4.8420    -1.6080 C.ar  1 <1>  -0.1500 
 17 C        4.3350     6.7580     0.4030 C.ar  1 <1>  -0.1500 
 18 C        3.7860     6.1480    -1.8710 C.ar  1 <1>  -0.1500 
 19 C        3.8760     7.0820    -0.8580 C.ar  1 <1>   0.1900 
 20 F        3.5160     8.3120    -1.1010 F     1 <1>  -0.1900 
 21 H       -1.8660    -0.1140    -1.0160 H     1 <1>   0.0800 
 22 H       -0.5030     0.3600    -1.9650 H     1 <1>   0.0800 
 23 H        1.6440     1.2730     2.1930 H     1 <1>   0.0800 
 24 H        0.7050     2.3630     1.2300 H     1 <1>   0.0800 
 25 H        2.7770    -0.7040    -0.7170 H     1 <1>   0.0800 
 26 H        2.7550    -0.7460     1.0150 H     1 <1>   0.0800 
 27 H       -0.4650     2.5610    -0.8500 H     1 <1>   0.0800 
 28 H       -1.7960     2.0730     0.1690 H     1 <1>   0.0800 
 29 H        3.3200     2.7640     2.0540 H     1 <1>   0.0800 
 30 H        2.4810     3.6870     0.8450 H     1 <1>   0.0800 
 31 H        4.7140     0.4110    -0.6030 H     1 <1>   0.0800 
 32 H        4.5790     0.5660     1.1230 H     1 <1>   0.0800 
 33 H       -1.9060     2.3150    -2.8580 H     1 <1>   0.0800 
 34 H       -2.5920     3.4470    -1.7190 H     1 <1>   0.0800 
 35 H       -3.2410     1.8320    -1.8350 H     1 <1>   0.0800 
 36 H        3.2760     2.3190    -0.8380 H     1 <1>   0.4500 
 37 H        5.6580     2.6910    -0.8460 H     1 <1>   0.0800 
 38 H        5.5790     3.0080     0.8720 H     1 <1>   0.0800 
 39 H        5.0770     5.2000     1.6410 H     1 <1>   0.1500 
 40 H        4.1030     4.1170    -2.4020 H     1 <1>   0.1500 
 41 H        4.3960     7.5200     1.1610 H     1 <1>   0.1500 
 42 H        3.4290     6.4460    -2.8420 H     1 <1>   0.1500 
@<TRIPOS>BOND
  1   1   2  2   
  2   1   3  2   
  3   1   4  am  
  4   1   5  1   
  5   4   6  1   
  6   4   7  1   
  7   5   8  1   
  8   5  21  1   
  9   5  22  1   
 10   6   9  1   
 11   6  23  1   
 12   6  24  1   
 13   7  10  1   
 14   7  25  1   
 15   7  26  1   
 16   8  11  1   
 17   8  27  1   
 18   8  28  1   
 19   9  12  1   
 20   9  29  1   
 21   9  30  1   
 22  10  12  1   
 23  10  31  1   
 24  10  32  1   
 25  11  33  1   
 26  11  34  1   
 27  11  35  1   
 28  12  13  1   
 29  12  36  1   
 30  13  14  1   
 31  13  37  1   
 32  13  38  1   
 33  14  15  ar  
 34  14  16  ar  
 35  15  17  ar  
 36  15  39  1   
 37  16  18  ar  
 38  16  40  1   
 39  17  19  ar  
 40  17  41  1   
 41  18  19  ar  
 42  18  42  1   
 43  19  20  1   
@<TRIPOS>SUBSTRUCTURE
  1 ****   9 GROUP 4 **** **** 0

# MOE 2024.06 (io_trps.svl 2023.06)
