@<TRIPOS>MOLECULE
NONAME
32 32 1 0 0 
SMALL
USER_CHARGES


@<TRIPOS>ATOM
  1 O        0.3050     0.9820     2.0670 O.2   1 <1>  -0.5700 
  2 C        0.1480     2.1270     1.7090 C.2   1 <1>   0.6340 
  3 O        1.2220     2.9230     1.7400 O.3   1 <1>  -0.4300 
  4 C       -1.1280     2.6250     1.2410 C.ar  1 <1>   0.0860 
  5 C        1.4220     3.9840     0.8290 C.3   1 <1>   0.0400 
  6 C       -1.6740     3.8250     1.7040 C.ar  1 <1>  -0.1500 
  7 C       -1.8750     1.9060     0.3060 C.ar  1 <1>  -0.1500 
  8 C       -2.8930     4.2860     1.2480 C.ar  1 <1>  -0.1500 
  9 C       -3.0930     2.3670    -0.1530 C.ar  1 <1>  -0.1500 
 10 C       -3.6250     3.5610     0.3160 C.ar  1 <1>   0.1170 
 11 N       -4.8530     4.0440    -0.1290 N.am  1 <1>  -0.5470 
 12 C       -6.0880     3.4630    -0.1310 C.2   1 <1>   0.5690 
 13 O       -7.0300     4.1000    -0.5320 O.2   1 <1>  -0.5700 
 14 C       -6.3190     2.0600     0.4350 C.3   1 <1>   0.1810 
 15 O       -5.9630     1.0560    -0.4790 O.3   1 <1>  -0.5600 
 16 C       -6.1700    -0.2340    -0.0120 C.3   1 <1>   0.1200 
 17 C       -5.7070    -1.1930    -1.1010 C.3   1 <1>  -0.2400 
 18 H        2.4530     4.2830     0.8870 H     1 <1>   0.0800 
 19 H        0.7900     4.8110     1.0980 H     1 <1>   0.0800 
 20 H        1.1980     3.6410    -0.1670 H     1 <1>   0.0800 
 21 H       -1.1320     4.3940     2.4400 H     1 <1>   0.1500 
 22 H       -1.4850     0.9710    -0.0610 H     1 <1>   0.1500 
 23 H       -3.2910     5.2130     1.6230 H     1 <1>   0.1500 
 24 H       -3.6350     1.7970    -0.8880 H     1 <1>   0.1500 
 25 H       -4.8810     5.0070    -0.4640 H     1 <1>   0.3700 
 26 H       -7.3620     1.9480     0.6710 H     1 <1>   0.0800 
 27 H       -5.7350     1.9330     1.3290 H     1 <1>   0.0800 
 28 H       -7.2200    -0.3670     0.1910 H     1 <1>   0.0800 
 29 H       -5.5960    -0.3770     0.8880 H     1 <1>   0.0800 
 30 H       -6.2740    -1.0300    -2.0000 H     1 <1>   0.0800 
 31 H       -5.8550    -2.2080    -0.7800 H     1 <1>   0.0800 
 32 H       -4.6620    -1.0450    -1.3040 H     1 <1>   0.0800 
@<TRIPOS>BOND
  1   1   2  2   
  2   2   3  1   
  3   2   4  1   
  4   3   5  1   
  5   4   6  ar  
  6   4   7  ar  
  7   5  18  1   
  8   5  19  1   
  9   5  20  1   
 10   6   8  ar  
 11   6  21  1   
 12   7   9  ar  
 13   7  22  1   
 14   8  10  ar  
 15   8  23  1   
 16   9  10  ar  
 17   9  24  1   
 18  10  11  1   
 19  11  12  am  
 20  11  25  1   
 21  12  13  2   
 22  12  14  1   
 23  14  15  1   
 24  14  26  1   
 25  14  27  1   
 26  15  16  1   
 27  16  17  1   
 28  16  28  1   
 29  16  29  1   
 30  17  30  1   
 31  17  31  1   
 32  17  32  1   
@<TRIPOS>SUBSTRUCTURE
  1 ****   9 GROUP 4 **** **** 0

# MOE 2024.06 (io_trps.svl 2023.06)
