@<TRIPOS>MOLECULE
NONAME
33 33 1 0 0 
SMALL
USER_CHARGES


@<TRIPOS>ATOM
  1 O        0.4640     2.8250     1.8160 O.2   1 <1>  -0.5700 
  2 C        0.1230     2.7860     0.6620 C.2   1 <1>   0.6590 
  3 O        0.9110     2.3910    -0.3350 O.3   1 <1>  -0.2330 
  4 C       -1.2780     3.2080     0.2530 C.3   1 <1>  -0.0990 
  5 C        2.1510     1.8430    -0.2310 C.ar  1 <1>   0.0830 
  6 C       -2.1440     2.0270    -0.2160 C.3   1 <1>  -0.2400 
  7 C        3.0840     2.1620    -1.2050 C.ar  1 <1>  -0.1500 
  8 C        2.4940     0.9630     0.7870 C.ar  1 <1>  -0.1500 
  9 C        4.3500     1.6070    -1.1600 C.ar  1 <1>  -0.1500 
 10 C        3.7630     0.4160     0.8290 C.ar  1 <1>  -0.1500 
 11 C        4.7040     0.7230    -0.1480 C.ar  1 <1>   0.1170 
 12 N        5.9940     0.1780    -0.1430 N.am  1 <1>  -0.5470 
 13 C        6.4500    -1.0990    -0.0220 C.2   1 <1>   0.5690 
 14 O        7.6390    -1.2910    -0.0880 O.2   1 <1>  -0.5700 
 15 C        5.5260    -2.2890     0.1920 C.3   1 <1>  -0.0990 
 16 C        4.5280    -2.5400    -0.9570 C.3   1 <1>  -0.2660 
 17 C        3.5600    -3.6400    -0.6050 C.2   1 <1>   0.9060 
 18 O        2.7870    -3.4560     0.3400 O.co2 1 <1>  -0.9000 
 19 O        3.5820    -4.6820    -1.2640 O.co2 1 <1>  -0.9000 
 20 H       -1.2000     3.9350    -0.5340 H     1 <1>   0.0800 
 21 H       -1.7490     3.6810     1.0950 H     1 <1>   0.0800 
 22 H       -1.7050     1.5560    -1.0780 H     1 <1>   0.0800 
 23 H       -3.1300     2.3690    -0.4750 H     1 <1>   0.0800 
 24 H       -2.2290     1.2950     0.5690 H     1 <1>   0.0800 
 25 H        2.8150     2.8380    -1.9960 H     1 <1>   0.1500 
 26 H        1.7790     0.6920     1.5440 H     1 <1>   0.1500 
 27 H        5.0680     1.8530    -1.9210 H     1 <1>   0.1500 
 28 H        4.0130    -0.2580     1.6260 H     1 <1>   0.1500 
 29 H        6.7500     0.8230    -0.3630 H     1 <1>   0.3700 
 30 H        4.9900    -2.1570     1.1120 H     1 <1>   0.0800 
 31 H        6.1270    -3.1720     0.3110 H     1 <1>   0.0800 
 32 H        5.0550    -2.8180    -1.8500 H     1 <1>   0.0800 
 33 H        3.9450    -1.6650    -1.1620 H     1 <1>   0.0800 
@<TRIPOS>BOND
  1   1   2  2   
  2   2   3  1   
  3   2   4  1   
  4   3   5  1   
  5   4   6  1   
  6   4  20  1   
  7   4  21  1   
  8   5   7  ar  
  9   5   8  ar  
 10   6  22  1   
 11   6  23  1   
 12   6  24  1   
 13   7   9  ar  
 14   7  25  1   
 15   8  10  ar  
 16   8  26  1   
 17   9  11  ar  
 18   9  27  1   
 19  10  11  ar  
 20  10  28  1   
 21  11  12  1   
 22  12  13  am  
 23  12  29  1   
 24  13  14  2   
 25  13  15  1   
 26  15  16  1   
 27  15  30  1   
 28  15  31  1   
 29  16  17  1   
 30  16  32  1   
 31  16  33  1   
 32  17  18  ar  
 33  17  19  ar  
@<TRIPOS>SUBSTRUCTURE
  1 ****  10 GROUP 4 **** **** 0

# MOE 2024.06 (io_trps.svl 2023.06)
