@<TRIPOS>MOLECULE
NONAME
38 39 1 0 0 
SMALL
USER_CHARGES


@<TRIPOS>ATOM
  1 BR      -1.0230    -1.0220    -1.3080 Br    1 <1>  -0.0570 
  2 C       -2.6690    -0.3670    -0.5140 C.2   1 <1>   0.0570 
  3 C       -3.4600    -1.0820     0.3690 C.2   1 <1>   0.1080 
  4 C       -3.2490     0.8320    -0.7080 C.2   1 <1>  -0.3320 
  5 N       -4.4920    -0.3800     0.7220 N.2   1 <1>  -0.7070 
  6 C       -3.1930    -2.4810     0.8740 C.3   1 <1>  -0.0590 
  7 N       -4.3680     0.8070     0.0710 N.pl3 1 <1>   0.3140 
  8 C       -2.7680     1.9670    -1.6010 C.3   1 <1>  -0.0600 
  9 C       -5.4490     1.8190     0.2410 C.3   1 <1>   0.1760 
 10 C       -6.3700     1.7970    -0.9860 C.3   1 <1>  -0.0990 
 11 C       -4.9130     3.2220     0.5750 C.3   1 <1>  -0.2400 
 12 C       -7.6690     2.5020    -0.6900 C.2   1 <1>   0.5690 
 13 O       -7.7950     3.6570    -1.0110 O.2   1 <1>  -0.5700 
 14 N       -8.6500     1.8170    -0.0580 N.am  1 <1>  -0.7300 
 15 C       -9.9840     2.3700     0.2630 C.3   1 <1>   0.3200 
 16 C      -11.0690     1.3530    -0.0480 C.2   1 <1>  -0.0400 
 17 O      -12.2890     1.5920     0.3930 O.3   1 <1>  -0.2800 
 18 C      -11.0380     0.1830    -0.7270 C.2   1 <1>  -0.1500 
 19 C      -13.0580     0.5910     0.0120 C.2   1 <1>  -0.0100 
 20 C      -12.3450    -0.3180    -0.6860 C.2   1 <1>  -0.1500 
 21 H       -2.3940    -2.4590     1.5900 H     1 <1>   0.0800 
 22 H       -2.9210    -3.1220     0.0560 H     1 <1>   0.0800 
 23 H       -4.0760    -2.8720     1.3460 H     1 <1>   0.0800 
 24 H       -1.9350     1.6430    -2.1990 H     1 <1>   0.0800 
 25 H       -2.4430     2.7990    -1.0030 H     1 <1>   0.0800 
 26 H       -3.5500     2.2880    -2.2640 H     1 <1>   0.0800 
 27 H       -6.0240     1.4910     1.0890 H     1 <1>   0.0800 
 28 H       -6.5890     0.7800    -1.2580 H     1 <1>   0.0800 
 29 H       -5.8960     2.2770    -1.8210 H     1 <1>   0.0800 
 30 H       -4.4830     3.6930    -0.2880 H     1 <1>   0.0800 
 31 H       -4.1790     3.1610     1.3590 H     1 <1>   0.0800 
 32 H       -5.7190     3.8460     0.9180 H     1 <1>   0.0800 
 33 H       -8.5150     0.8440     0.2210 H     1 <1>   0.3700 
 34 H      -10.1650     3.2700    -0.3000 H     1 <1>   0.0800 
 35 H      -10.0180     2.6130     1.3110 H     1 <1>   0.0800 
 36 H      -10.2080    -0.2950    -1.2160 H     1 <1>   0.1500 
 37 H      -14.1000     0.6060     0.2800 H     1 <1>   0.1500 
 38 H      -12.6780    -1.2390    -1.1310 H     1 <1>   0.1500 
@<TRIPOS>BOND
  1   1   2  1   
  2   2   3  1   
  3   2   4  2   
  4   3   5  2   
  5   3   6  1   
  6   4   7  1   
  7   4   8  1   
  8   5   7  1   
  9   6  21  1   
 10   6  22  1   
 11   6  23  1   
 12   7   9  1   
 13   8  24  1   
 14   8  25  1   
 15   8  26  1   
 16   9  10  1   
 17   9  11  1   
 18   9  27  1   
 19  10  12  1   
 20  10  28  1   
 21  10  29  1   
 22  11  30  1   
 23  11  31  1   
 24  11  32  1   
 25  12  13  2   
 26  12  14  am  
 27  14  15  1   
 28  14  33  1   
 29  15  16  1   
 30  15  34  1   
 31  15  35  1   
 32  16  17  1   
 33  16  18  2   
 34  17  19  1   
 35  18  20  1   
 36  18  36  1   
 37  19  20  2   
 38  19  37  1   
 39  20  38  1   
@<TRIPOS>SUBSTRUCTURE
  1 ****  10 GROUP 4 **** **** 0

# MOE 2024.06 (io_trps.svl 2023.06)
