@<TRIPOS>MOLECULE
NONAME
44 45 1 0 0 
SMALL
USER_CHARGES


@<TRIPOS>ATOM
  1 F        1.2340     0.7610    -1.1870 F     1 <1>  -0.3400 
  2 C        1.7980    -0.4110    -0.9190 C.3   1 <1>   1.1640 
  3 F        2.3680    -0.8090    -2.0460 F     1 <1>  -0.3400 
  4 F        0.7920    -1.2500    -0.6950 F     1 <1>  -0.3400 
  5 C        2.7850    -0.3720     0.2680 C.ar  1 <1>  -0.1440 
  6 C        3.3650    -1.5320     0.8050 C.ar  1 <1>  -0.1440 
  7 C        3.1010     0.8590     0.8410 C.ar  1 <1>  -0.1500 
  8 C        4.2040    -1.4210     1.9100 C.ar  1 <1>  -0.1500 
  9 C        3.1180    -2.9400     0.2350 C.3   1 <1>   0.5020 
 10 C        3.9510     0.9510     1.9270 C.ar  1 <1>  -0.1500 
 11 C        4.5000    -0.1930     2.4660 C.ar  1 <1>  -0.1500 
 12 N        2.1060    -3.5780     1.0960 N.am  1 <1>  -0.7300 
 13 C        4.4140    -3.7560     0.1490 C.2   1 <1>  -0.1240 
 14 C        2.3430    -4.6540     1.8620 C.2   1 <1>   0.6900 
 15 C        4.5510    -4.8830     0.9010 C.2   1 <1>  -0.0290 
 16 C        5.3500    -3.1620    -0.7540 C.2   1 <1>   0.7060 
 17 O        1.5110    -5.0560     2.6420 O.2   1 <1>  -0.5700 
 18 N        3.5390    -5.2810     1.7490 N.am  1 <1>  -0.5390 
 19 C        5.7520    -5.8170     0.9140 C.3   1 <1>  -0.1020 
 20 O        5.0120    -2.4650    -1.6910 O.2   1 <1>  -0.5700 
 21 O        6.6530    -3.3510    -0.5410 O.3   1 <1>  -0.4300 
 22 C        7.6330    -2.7270    -1.3450 C.3   1 <1>   0.1200 
 23 C        9.0300    -3.0850    -0.8160 C.3   1 <1>  -0.0800 
 24 C        9.2240    -2.6250     0.6370 C.3   1 <1>  -0.2400 
 25 C       10.1060    -2.4500    -1.7060 C.3   1 <1>  -0.2400 
 26 H        2.6870     1.7750     0.4520 H     1 <1>   0.1500 
 27 H        4.6390    -2.3000     2.3560 H     1 <1>   0.1500 
 28 H        2.7090    -2.8910    -0.7570 H     1 <1>   0.0800 
 29 H        4.1820     1.9120     2.3540 H     1 <1>   0.1500 
 30 H        5.1550    -0.1290     3.3180 H     1 <1>   0.1500 
 31 H        1.2430    -3.0650     1.2640 H     1 <1>   0.3700 
 32 H        3.6240    -6.1050     2.3440 H     1 <1>   0.3700 
 33 H        5.4250    -6.8410     0.9500 H     1 <1>   0.0800 
 34 H        6.3610    -5.6180     1.7770 H     1 <1>   0.0800 
 35 H        6.3550    -5.7090     0.0320 H     1 <1>   0.0800 
 36 H        7.4730    -1.6630    -1.3100 H     1 <1>   0.0800 
 37 H        7.5070    -3.0740    -2.3570 H     1 <1>   0.0800 
 38 H        9.1450    -4.1550    -0.8630 H     1 <1>   0.0800 
 39 H        9.0910    -1.5600     0.7180 H     1 <1>   0.0800 
 40 H       10.2120    -2.8760     0.9800 H     1 <1>   0.0800 
 41 H        8.5130    -3.1080     1.2830 H     1 <1>   0.0800 
 42 H       10.0280    -1.3770    -1.6900 H     1 <1>   0.0800 
 43 H        9.9990    -2.7880    -2.7220 H     1 <1>   0.0800 
 44 H       11.0870    -2.7270    -1.3610 H     1 <1>   0.0800 
@<TRIPOS>BOND
  1   1   2  1   
  2   2   3  1   
  3   2   4  1   
  4   2   5  1   
  5   5   6  ar  
  6   5   7  ar  
  7   6   8  ar  
  8   6   9  1   
  9   7  10  ar  
 10   7  26  1   
 11   8  11  ar  
 12   8  27  1   
 13   9  12  1   
 14   9  13  1   
 15   9  28  1   
 16  10  11  ar  
 17  10  29  1   
 18  11  30  1   
 19  12  14  am  
 20  12  31  1   
 21  13  15  2   
 22  13  16  1   
 23  14  17  2   
 24  14  18  am  
 25  15  18  1   
 26  15  19  1   
 27  16  20  2   
 28  16  21  1   
 29  18  32  1   
 30  19  33  1   
 31  19  34  1   
 32  19  35  1   
 33  21  22  1   
 34  22  23  1   
 35  22  36  1   
 36  22  37  1   
 37  23  24  1   
 38  23  25  1   
 39  23  38  1   
 40  24  39  1   
 41  24  40  1   
 42  24  41  1   
 43  25  42  1   
 44  25  43  1   
 45  25  44  1   
@<TRIPOS>SUBSTRUCTURE
  1 ****   9 GROUP 4 **** **** 0

# MOE 2024.06 (io_trps.svl 2023.06)
