@<TRIPOS>MOLECULE
NONAME
39 40 1 0 0 
SMALL
USER_CHARGES


@<TRIPOS>ATOM
  1 F       -0.7450     3.2630     1.8010 F     1 <1>  -0.1900 
  2 C       -0.7960     2.8440     0.5640 C.ar  1 <1>   0.1900 
  3 C       -1.9560     2.2460     0.0950 C.ar  1 <1>  -0.1440 
  4 C        0.3230     3.0220    -0.2290 C.ar  1 <1>  -0.1500 
  5 C       -1.9780     1.8190    -1.2250 C.ar  1 <1>  -0.1500 
  6 C       -3.1770     2.0600     0.9870 C.3   1 <1>   0.2390 
  7 C        0.2830     2.5870    -1.5420 C.ar  1 <1>  -0.1500 
  8 C       -0.8660     1.9880    -2.0360 C.ar  1 <1>  -0.1500 
  9 N       -4.2100     3.0710     0.6800 N.pl3 1 <1>   0.3140 
 10 N       -5.4280     2.7310     0.1930 N.2   1 <1>  -0.7070 
 11 C       -4.1090     4.4060     0.8490 C.2   1 <1>  -0.3020 
 12 C       -6.0550     3.8550     0.0650 C.2   1 <1>   0.3520 
 13 C       -5.2830     4.9430     0.4600 C.2   1 <1>  -0.1500 
 14 N       -7.3560     3.8360    -0.4240 N.am  1 <1>  -0.4930 
 15 C       -8.2080     4.8610    -0.6720 C.2   1 <1>   0.5690 
 16 O       -7.9350     6.0230    -0.4900 O.2   1 <1>  -0.5700 
 17 C       -9.5910     4.5440    -1.2030 C.3   1 <1>  -0.0990 
 18 C      -10.7420     5.1420    -0.3400 C.3   1 <1>   0.2800 
 19 O      -10.5950     6.5600    -0.4280 O.3   1 <1>  -0.6800 
 20 C      -12.1180     4.6860    -0.9050 C.3   1 <1>   1.0200 
 21 C      -10.6890     4.6360     1.1360 C.3   1 <1>   1.0200 
 22 F      -12.3270     3.3790    -0.7830 F     1 <1>  -0.3400 
 23 F      -13.1740     5.2800    -0.3610 F     1 <1>  -0.3400 
 24 F      -12.2180     4.9230    -2.2100 F     1 <1>  -0.3400 
 25 F      -11.7700     4.8880     1.8610 F     1 <1>  -0.3400 
 26 F      -10.4920     3.3240     1.2160 F     1 <1>  -0.3400 
 27 F       -9.6840     5.1720     1.8180 F     1 <1>  -0.3400 
 28 H        1.2020     3.4910     0.1760 H     1 <1>   0.1500 
 29 H       -2.8640     1.3580    -1.6300 H     1 <1>   0.1500 
 30 H       -2.9170     2.1440     2.0250 H     1 <1>   0.0800 
 31 H       -3.5990     1.0860     0.8250 H     1 <1>   0.0800 
 32 H        1.1420     2.7140    -2.1790 H     1 <1>   0.1500 
 33 H       -0.8960     1.6540    -3.0590 H     1 <1>   0.1500 
 34 H       -3.2240     4.8860     1.2270 H     1 <1>   0.1500 
 35 H       -5.5860     5.9750     0.4460 H     1 <1>   0.1500 
 36 H       -7.6470     2.8800    -0.6100 H     1 <1>   0.3700 
 37 H       -9.7030     3.4760    -1.2720 H     1 <1>   0.0800 
 38 H       -9.6530     4.9310    -2.2040 H     1 <1>   0.0800 
 39 H       -9.6470     6.8110    -0.2780 H     1 <1>   0.4000 
@<TRIPOS>BOND
  1   1   2  1   
  2   2   3  ar  
  3   2   4  ar  
  4   3   5  ar  
  5   3   6  1   
  6   4   7  ar  
  7   4  28  1   
  8   5   8  ar  
  9   5  29  1   
 10   6   9  1   
 11   6  30  1   
 12   6  31  1   
 13   7   8  ar  
 14   7  32  1   
 15   8  33  1   
 16   9  10  1   
 17   9  11  1   
 18  10  12  2   
 19  11  13  2   
 20  11  34  1   
 21  12  13  1   
 22  12  14  1   
 23  13  35  1   
 24  14  15  am  
 25  14  36  1   
 26  15  16  2   
 27  15  17  1   
 28  17  18  1   
 29  17  37  1   
 30  17  38  1   
 31  18  19  1   
 32  18  20  1   
 33  18  21  1   
 34  19  39  1   
 35  20  22  1   
 36  20  23  1   
 37  20  24  1   
 38  21  25  1   
 39  21  26  1   
 40  21  27  1   
@<TRIPOS>SUBSTRUCTURE
  1 ****  12 GROUP 4 **** **** 0

# MOE 2024.06 (io_trps.svl 2023.06)
