@<TRIPOS>MOLECULE
NONAME
33 33 1 0 0 
SMALL
USER_CHARGES


@<TRIPOS>ATOM
  1 CL      -1.9700    -1.4700     2.1240 Cl    1 <1>  -0.1770 
  2 C       -2.0320    -1.8040     0.4000 C.ar  1 <1>   0.1770 
  3 C       -3.0770    -1.3120    -0.3610 C.ar  1 <1>   0.1770 
  4 C       -1.0280    -2.5760    -0.1840 C.ar  1 <1>   0.1990 
  5 CL      -4.3390    -0.3490     0.3730 Cl    1 <1>  -0.1770 
  6 C       -3.1520    -1.5760    -1.7170 C.ar  1 <1>  -0.1500 
  7 N        0.0470    -3.0730     0.5560 N.am  1 <1>  -0.6930 
  8 C       -1.1160    -2.8370    -1.5490 C.ar  1 <1>  -0.1500 
  9 C       -2.1640    -2.3450    -2.3100 C.ar  1 <1>  -0.1500 
 10 S        0.1790    -4.7510     0.9510 S.o2  1 <1>   1.3330 
 11 C        1.2450    -2.1880     0.7370 C.3   1 <1>   0.2570 
 12 O        1.4500    -4.9440     1.6040 O.2   1 <1>  -0.6500 
 13 O       -0.1470    -5.4950    -0.2400 O.2   1 <1>  -0.6500 
 14 C       -1.1100    -4.9510     2.1610 C.3   1 <1>  -0.1350 
 15 C        1.8250    -1.6560    -0.5810 C.2   1 <1>   0.5690 
 16 O        1.6130    -0.4920    -0.8390 O.2   1 <1>  -0.5700 
 17 N        2.5440    -2.4620    -1.4380 N.am  1 <1>  -0.6600 
 18 C        3.0110    -1.9660    -2.7640 C.3   1 <1>   0.0600 
 19 C        2.8870    -3.8860    -1.1640 C.3   1 <1>   0.0600 
 20 H       -3.9700    -1.1850    -2.2960 H     1 <1>   0.1500 
 21 H       -0.3500    -3.4330    -2.0160 H     1 <1>   0.1500 
 22 H       -2.2080    -2.5600    -3.3650 H     1 <1>   0.1500 
 23 H        2.0230    -2.6860     1.2820 H     1 <1>   0.0800 
 24 H        0.9480    -1.3400     1.3280 H     1 <1>   0.0800 
 25 H       -0.9390    -4.3010     2.9960 H     1 <1>   0.0800 
 26 H       -1.1310    -5.9640     2.5110 H     1 <1>   0.0800 
 27 H       -2.0640    -4.7170     1.7300 H     1 <1>   0.0800 
 28 H        2.6590    -0.9660    -2.9490 H     1 <1>   0.0800 
 29 H        2.6390    -2.6080    -3.5430 H     1 <1>   0.0800 
 30 H        4.0860    -1.9610    -2.7910 H     1 <1>   0.0800 
 31 H        3.0930    -4.0350    -0.1200 H     1 <1>   0.0800 
 32 H        3.7660    -4.1690    -1.7180 H     1 <1>   0.0800 
 33 H        2.0710    -4.5220    -1.4610 H     1 <1>   0.0800 
@<TRIPOS>BOND
  1   1   2  1   
  2   2   3  ar  
  3   2   4  ar  
  4   3   5  1   
  5   3   6  ar  
  6   4   7  1   
  7   4   8  ar  
  8   6   9  ar  
  9   6  20  1   
 10   7  10  am  
 11   7  11  1   
 12   8   9  ar  
 13   8  21  1   
 14   9  22  1   
 15  10  12  2   
 16  10  13  2   
 17  10  14  1   
 18  11  15  1   
 19  11  23  1   
 20  11  24  1   
 21  14  25  1   
 22  14  26  1   
 23  14  27  1   
 24  15  16  2   
 25  15  17  am  
 26  17  18  1   
 27  17  19  1   
 28  18  28  1   
 29  18  29  1   
 30  18  30  1   
 31  19  31  1   
 32  19  32  1   
 33  19  33  1   
@<TRIPOS>SUBSTRUCTURE
  1 ****   4 GROUP 4 **** **** 0

# MOE 2024.06 (io_trps.svl 2023.06)
