@<TRIPOS>MOLECULE
NONAME
27 27 1 0 0 
SMALL
USER_CHARGES


@<TRIPOS>ATOM
  1 CL       0.1830     0.1830     0.7170 Cl    1 <1>  -0.2900 
  2 C        0.3420    -1.5430     0.3750 C.3   1 <1>   1.0140 
  3 CL       1.4530    -1.6690    -0.9880 Cl    1 <1>  -0.2900 
  4 CL       1.1710    -2.2410     1.7660 Cl    1 <1>  -0.2900 
  5 C       -1.0140    -2.2600     0.0890 C.ar  1 <1>   0.4760 
  6 N       -2.1290    -1.5530     0.1670 N.ar  1 <1>  -0.6200 
  7 N       -0.9560    -3.5580    -0.2210 N.ar  1 <1>  -0.6200 
  8 C       -3.2600    -2.1790    -0.0690 C.ar  1 <1>   0.4100 
  9 C       -2.0910    -4.1770    -0.4590 C.ar  1 <1>   0.1660 
 10 N       -4.3460    -1.3770     0.0230 N.pl3 1 <1>  -0.9000 
 11 C       -3.3190    -3.5360    -0.3820 C.ar  1 <1>   0.0860 
 12 C       -1.9480    -5.6440    -0.8350 C.3   1 <1>  -0.0970 
 13 C       -4.5870    -4.1810    -0.5890 C.2   1 <1>   0.6340 
 14 O       -5.5070    -3.6770    -1.2050 O.2   1 <1>  -0.5700 
 15 O       -4.7650    -5.3950    -0.0600 O.3   1 <1>  -0.4300 
 16 C       -5.9830    -6.0930    -0.1920 C.3   1 <1>   0.1200 
 17 C       -5.8270    -7.4440     0.4990 C.3   1 <1>  -0.2400 
 18 H       -5.2510    -1.6680    -0.3710 H     1 <1>   0.4000 
 19 H       -4.2180    -0.3720     0.1550 H     1 <1>   0.4000 
 20 H       -0.9580    -5.8410    -1.2070 H     1 <1>   0.0800 
 21 H       -2.6500    -5.9150    -1.6030 H     1 <1>   0.0800 
 22 H       -2.1160    -6.2590     0.0300 H     1 <1>   0.0800 
 23 H       -6.1960    -6.2170    -1.2400 H     1 <1>   0.0800 
 24 H       -6.7630    -5.5100     0.2700 H     1 <1>   0.0800 
 25 H       -5.0410    -8.0110     0.0340 H     1 <1>   0.0800 
 26 H       -6.7440    -7.9990     0.4170 H     1 <1>   0.0800 
 27 H       -5.6040    -7.3040     1.5420 H     1 <1>   0.0800 
@<TRIPOS>BOND
  1   1   2  1   
  2   2   3  1   
  3   2   4  1   
  4   2   5  1   
  5   5   6  ar  
  6   5   7  ar  
  7   6   8  ar  
  8   7   9  ar  
  9   8  10  1   
 10   8  11  ar  
 11   9  11  ar  
 12   9  12  1   
 13  10  18  1   
 14  10  19  1   
 15  11  13  1   
 16  12  20  1   
 17  12  21  1   
 18  12  22  1   
 19  13  14  2   
 20  13  15  1   
 21  15  16  1   
 22  16  17  1   
 23  16  23  1   
 24  16  24  1   
 25  17  25  1   
 26  17  26  1   
 27  17  27  1   
@<TRIPOS>SUBSTRUCTURE
  1 ****  11 GROUP 4 **** **** 0

# MOE 2024.06 (io_trps.svl 2023.06)
