@<TRIPOS>MOLECULE
NONAME
39 40 1 0 0 
SMALL
USER_CHARGES


@<TRIPOS>ATOM
  1 O       -1.4980     1.5480    -1.3840 O.2   1 <1>  -0.5700 
  2 C       -0.8700     1.9590    -0.4270 C.2   1 <1>   0.7150 
  3 N       -1.4810     1.9340     0.7980 N.am  1 <1>  -0.7300 
  4 C        0.4780     2.4740    -0.5490 C.2   1 <1>   0.0550 
  5 C       -2.8310     1.3720     1.0670 C.3   1 <1>   0.1400 
  6 O        1.0770     2.5620    -1.7350 O.3   1 <1>  -0.2800 
  7 C        1.3470     2.9340     0.3980 C.2   1 <1>  -0.1500 
  8 C       -3.9210     2.3110     0.5490 C.3   1 <1>   0.1200 
  9 C        2.2820     3.0570    -1.5720 C.2   1 <1>  -0.0100 
 10 C        2.5140     3.3110    -0.2680 C.2   1 <1>  -0.1500 
 11 O       -5.1660     1.8590     1.0370 O.3   1 <1>  -0.3620 
 12 C       -6.3140     2.5160     0.7360 C.ar  1 <1>   0.0820 
 13 C       -7.4780     2.0390     1.3170 C.ar  1 <1>  -0.1500 
 14 C       -6.3780     3.6210    -0.1090 C.ar  1 <1>  -0.1500 
 15 C       -8.6910     2.6540     1.0650 C.ar  1 <1>  -0.1500 
 16 C       -7.5940     4.2330    -0.3590 C.ar  1 <1>  -0.1500 
 17 C       -8.7560     3.7560     0.2270 C.ar  1 <1>  -0.1430 
 18 C      -10.0900     4.4300    -0.0530 C.3   1 <1>  -0.0170 
 19 C      -10.7570     3.8100    -1.2850 C.3   1 <1>  -0.1600 
 20 C      -12.1030     4.4750    -1.5930 C.3   1 <1>  -0.2400 
 21 H       -0.9730     2.2920     1.6050 H     1 <1>   0.3700 
 22 H       -2.9490     1.2330     2.1280 H     1 <1>   0.0800 
 23 H       -2.9240     0.4180     0.5760 H     1 <1>   0.0800 
 24 H        1.1990     3.0070     1.4600 H     1 <1>   0.1500 
 25 H       -3.9470     2.2930    -0.5270 H     1 <1>   0.0800 
 26 H       -3.7640     3.3100     0.9120 H     1 <1>   0.0800 
 27 H        2.9100     3.1960    -2.4360 H     1 <1>   0.1500 
 28 H        3.4000     3.7170     0.1880 H     1 <1>   0.1500 
 29 H       -7.4270     1.1840     1.9660 H     1 <1>   0.1500 
 30 H       -5.4990     4.0150    -0.5820 H     1 <1>   0.1500 
 31 H       -9.5850     2.2690     1.5230 H     1 <1>   0.1500 
 32 H       -7.6340     5.0850    -1.0150 H     1 <1>   0.1500 
 33 H       -9.9330     5.4830    -0.2140 H     1 <1>   0.0800 
 34 H      -10.7340     4.3240     0.8030 H     1 <1>   0.0800 
 35 H      -10.9090     2.7580    -1.1150 H     1 <1>   0.0800 
 36 H      -10.1040     3.9160    -2.1340 H     1 <1>   0.0800 
 37 H      -12.7780     4.3600    -0.7630 H     1 <1>   0.0800 
 38 H      -12.5470     4.0200    -2.4610 H     1 <1>   0.0800 
 39 H      -11.9690     5.5240    -1.7890 H     1 <1>   0.0800 
@<TRIPOS>BOND
  1   1   2  2   
  2   2   3  am  
  3   2   4  1   
  4   3   5  1   
  5   3  21  1   
  6   4   6  1   
  7   4   7  2   
  8   5   8  1   
  9   5  22  1   
 10   5  23  1   
 11   6   9  1   
 12   7  10  1   
 13   7  24  1   
 14   8  11  1   
 15   8  25  1   
 16   8  26  1   
 17   9  10  2   
 18   9  27  1   
 19  10  28  1   
 20  11  12  1   
 21  12  13  ar  
 22  12  14  ar  
 23  13  15  ar  
 24  13  29  1   
 25  14  16  ar  
 26  14  30  1   
 27  15  17  ar  
 28  15  31  1   
 29  16  17  ar  
 30  16  32  1   
 31  17  18  1   
 32  18  19  1   
 33  18  33  1   
 34  18  34  1   
 35  19  20  1   
 36  19  35  1   
 37  19  36  1   
 38  20  37  1   
 39  20  38  1   
 40  20  39  1   
@<TRIPOS>SUBSTRUCTURE
  1 ****   8 GROUP 4 **** **** 0

# MOE 2024.06 (io_trps.svl 2023.06)
