@<TRIPOS>MOLECULE
NONAME
35 35 1 0 0 
SMALL
USER_CHARGES


@<TRIPOS>ATOM
  1 O       -0.8300     7.6260    -0.4830 O.2   1 <1>  -0.5700 
  2 C       -1.8670     7.2370    -0.9690 C.2   1 <1>   0.5690 
  3 N       -2.8130     8.1290    -1.3260 N.am  1 <1>  -0.8000 
  4 C       -2.0940     5.7400    -1.1690 C.3   1 <1>   0.1810 
  5 O       -0.8440     5.0780    -1.3100 O.3   1 <1>  -0.3630 
  6 C       -0.6150     4.0080    -0.5230 C.ar  1 <1>   0.0830 
  7 C        0.2180     4.1080     0.5910 C.ar  1 <1>  -0.1430 
  8 C       -1.2010     2.7990    -0.8640 C.ar  1 <1>  -0.1500 
  9 C        0.4440     2.9700     1.3540 C.ar  1 <1>  -0.1500 
 10 C        0.8800     5.4070     1.0260 C.3   1 <1>   0.4860 
 11 C       -0.9680     1.6770    -0.0930 C.ar  1 <1>  -0.1500 
 12 C       -0.1450     1.7640     1.0160 C.ar  1 <1>  -0.1500 
 13 N        1.4810     6.0880    -0.1350 N.4   1 <1>  -0.9060 
 14 C        2.6500     6.9240     0.1300 C.3   1 <1>   0.4230 
 15 C        2.2490     8.1090     1.0040 C.3   1 <1>  -0.2400 
 16 C        3.1760     7.4000    -1.2160 C.3   1 <1>  -0.2400 
 17 H       -2.6460     9.1280    -1.1860 H     1 <1>   0.3700 
 18 H       -3.7120     7.8930    -1.7490 H     1 <1>   0.3700 
 19 H       -2.6620     5.5620    -2.0630 H     1 <1>   0.0800 
 20 H       -2.6190     5.3370    -0.3210 H     1 <1>   0.0800 
 21 H       -1.8320     2.7330    -1.7330 H     1 <1>   0.1500 
 22 H        1.0770     3.0030     2.2250 H     1 <1>   0.1500 
 23 H        1.6440     5.1840     1.7510 H     1 <1>   0.0800 
 24 H        0.1500     6.0530     1.4870 H     1 <1>   0.0800 
 25 H       -1.4220     0.7360    -0.3550 H     1 <1>   0.1500 
 26 H        0.0350     0.8870     1.6150 H     1 <1>   0.1500 
 27 H        0.7260     6.6790    -0.5300 H     1 <1>   0.4500 
 28 H        1.6720     5.3810    -0.8500 H     1 <1>   0.4500 
 29 H        3.4130     6.3440     0.6270 H     1 <1>   0.0800 
 30 H        1.4720     8.6880     0.5370 H     1 <1>   0.0800 
 31 H        3.0990     8.7520     1.1490 H     1 <1>   0.0800 
 32 H        1.9200     7.7860     1.9750 H     1 <1>   0.0800 
 33 H        2.4350     7.9800    -1.7380 H     1 <1>   0.0800 
 34 H        3.4710     6.5650    -1.8260 H     1 <1>   0.0800 
 35 H        4.0420     8.0200    -1.0680 H     1 <1>   0.0800 
@<TRIPOS>BOND
  1   1   2  2   
  2   2   3  am  
  3   2   4  1   
  4   3  17  1   
  5   3  18  1   
  6   4   5  1   
  7   4  19  1   
  8   4  20  1   
  9   5   6  1   
 10   6   7  ar  
 11   6   8  ar  
 12   7   9  ar  
 13   7  10  1   
 14   8  11  ar  
 15   8  21  1   
 16   9  12  ar  
 17   9  22  1   
 18  10  13  1   
 19  10  23  1   
 20  10  24  1   
 21  11  12  ar  
 22  11  25  1   
 23  12  26  1   
 24  13  14  1   
 25  13  27  1   
 26  13  28  1   
 27  14  15  1   
 28  14  16  1   
 29  14  29  1   
 30  15  30  1   
 31  15  31  1   
 32  15  32  1   
 33  16  33  1   
 34  16  34  1   
 35  16  35  1   
@<TRIPOS>SUBSTRUCTURE
  1 ****   5 GROUP 4 **** **** 0

# MOE 2024.06 (io_trps.svl 2023.06)
