@<TRIPOS>MOLECULE
NONAME
43 44 1 0 0 
SMALL
USER_CHARGES


@<TRIPOS>ATOM
  1 O       -3.0180     3.2800     0.6180 O.3   1 <1>  -0.5600 
  2 C       -3.5650     3.4490    -0.6620 C.3   1 <1>   0.1200 
  3 C       -2.6460     1.9600     0.9140 C.3   1 <1>   0.1200 
  4 C       -4.8270     2.5750    -0.8510 C.3   1 <1>   0.3430 
  5 C       -3.8410     0.9900     0.7620 C.3   1 <1>   0.3430 
  6 N       -5.0920     1.7170     0.3570 N.4   1 <1>  -0.9590 
  7 C       -6.2650     0.8100     0.2220 C.3   1 <1>   0.3430 
  8 C       -7.5550     1.6190     0.1350 C.3   1 <1>  -0.1600 
  9 C       -8.7620     0.6860     0.1130 C.3   1 <1>   0.1200 
 10 O       -9.9100     1.4850     0.0070 O.3   1 <1>  -0.3630 
 11 C      -11.1660     0.9960     0.2250 C.ar  1 <1>   0.0820 
 12 C      -11.5520    -0.3580     0.2150 C.ar  1 <1>   0.0820 
 13 C      -12.1190     1.9720     0.4750 C.ar  1 <1>  -0.1500 
 14 O      -10.6360    -1.3340    -0.0620 O.3   1 <1>  -0.3620 
 15 C      -12.8820    -0.6800     0.4800 C.ar  1 <1>  -0.1500 
 16 C      -13.4360     1.6370     0.7290 C.ar  1 <1>  -0.1500 
 17 C      -11.0220    -2.6600    -0.3440 C.3   1 <1>   0.1200 
 18 C      -13.8160     0.3090     0.7350 C.ar  1 <1>  -0.1500 
 19 C       -9.7780    -3.4330    -0.7700 C.3   1 <1>  -0.2400 
 20 H       -2.8150     3.2000    -1.3930 H     1 <1>   0.0800 
 21 H       -3.8140     4.4900    -0.7780 H     1 <1>   0.0800 
 22 H       -2.2810     1.9430     1.9260 H     1 <1>   0.0800 
 23 H       -1.8380     1.6750     0.2610 H     1 <1>   0.0800 
 24 H       -4.6970     1.9560    -1.7230 H     1 <1>   0.0800 
 25 H       -5.6690     3.2210    -1.0360 H     1 <1>   0.0800 
 26 H       -3.9970     0.4790     1.6980 H     1 <1>   0.0800 
 27 H       -3.5930     0.2450     0.0240 H     1 <1>   0.0800 
 28 H       -5.2670     2.3860     1.1230 H     1 <1>   0.4500 
 29 H       -6.3190     0.1620     1.0830 H     1 <1>   0.0800 
 30 H       -6.1580     0.1930    -0.6570 H     1 <1>   0.0800 
 31 H       -7.5710     2.2050    -0.7660 H     1 <1>   0.0800 
 32 H       -7.6400     2.2650     0.9910 H     1 <1>   0.0800 
 33 H       -8.8320     0.1130     1.0230 H     1 <1>   0.0800 
 34 H       -8.7310     0.0310    -0.7410 H     1 <1>   0.0800 
 35 H      -11.8220     3.0050     0.4730 H     1 <1>   0.1500 
 36 H      -13.2210    -1.6970     0.4970 H     1 <1>   0.1500 
 37 H      -14.1610     2.4090     0.9230 H     1 <1>   0.1500 
 38 H      -11.7490    -2.6440    -1.1380 H     1 <1>   0.0800 
 39 H      -11.4490    -3.0900     0.5460 H     1 <1>   0.0800 
 40 H      -14.8400     0.0450     0.9360 H     1 <1>   0.1500 
 41 H       -9.3510    -2.9900    -1.6520 H     1 <1>   0.0800 
 42 H      -10.0440    -4.4500    -0.9940 H     1 <1>   0.0800 
 43 H       -9.0530    -3.4360     0.0240 H     1 <1>   0.0800 
@<TRIPOS>BOND
  1   1   2  1   
  2   1   3  1   
  3   2   4  1   
  4   2  20  1   
  5   2  21  1   
  6   3   5  1   
  7   3  22  1   
  8   3  23  1   
  9   4   6  1   
 10   4  24  1   
 11   4  25  1   
 12   5   6  1   
 13   5  26  1   
 14   5  27  1   
 15   6   7  1   
 16   6  28  1   
 17   7   8  1   
 18   7  29  1   
 19   7  30  1   
 20   8   9  1   
 21   8  31  1   
 22   8  32  1   
 23   9  10  1   
 24   9  33  1   
 25   9  34  1   
 26  10  11  1   
 27  11  12  ar  
 28  11  13  ar  
 29  12  14  1   
 30  12  15  ar  
 31  13  16  ar  
 32  13  35  1   
 33  14  17  1   
 34  15  18  ar  
 35  15  36  1   
 36  16  18  ar  
 37  16  37  1   
 38  17  19  1   
 39  17  38  1   
 40  17  39  1   
 41  18  40  1   
 42  19  41  1   
 43  19  42  1   
 44  19  43  1   
@<TRIPOS>SUBSTRUCTURE
  1 ****   9 GROUP 4 **** **** 0

# MOE 2024.06 (io_trps.svl 2023.06)
