@<TRIPOS>MOLECULE
NONAME
49 50 1 0 0 
SMALL
USER_CHARGES


@<TRIPOS>ATOM
  1 S        0.2550     0.1280     0.2230 S.o2  1 <1>   1.3330 
  2 O        0.6570    -1.0900    -0.4450 O.2   1 <1>  -0.6500 
  3 O       -0.2050     0.0790     1.5930 O.2   1 <1>  -0.6500 
  4 N        1.5580     1.2110     0.1590 N.am  1 <1>  -0.8490 
  5 C       -0.9860     0.9320    -0.7970 C.3   1 <1>  -0.0550 
  6 C        2.8360     0.5270     0.4120 C.3   1 <1>   0.1960 
  7 C        1.3950     2.3350     1.0900 C.3   1 <1>   0.1960 
  8 C       -2.2930     0.1320    -0.9260 C.3   1 <1>  -0.1600 
  9 C        4.0140     1.4770     0.1640 C.3   1 <1>  -0.0190 
 10 C        2.5060     3.3690     0.8680 C.3   1 <1>  -0.1600 
 11 C       -3.3120     0.8660    -1.8040 C.3   1 <1>  -0.2400 
 12 C        5.3170     0.7330     0.4120 C.2   1 <1>   0.5690 
 13 C        3.8940     2.7380     1.0400 C.3   1 <1>  -0.1600 
 14 O        5.5100     0.2470     1.5000 O.2   1 <1>  -0.5700 
 15 N        6.2150     0.6460    -0.6140 N.am  1 <1>  -0.5470 
 16 C        7.4410    -0.0310    -0.6380 C.ar  1 <1>   0.1170 
 17 C        7.5390    -1.4180    -0.5090 C.ar  1 <1>  -0.1440 
 18 C        8.5990     0.7140    -0.8280 C.ar  1 <1>  -0.1500 
 19 C        8.7850    -2.0210    -0.5630 C.ar  1 <1>  -0.1500 
 20 C        6.3100    -2.2990    -0.3140 C.3   1 <1>  -0.0970 
 21 C        9.8420     0.1080    -0.8850 C.ar  1 <1>  -0.1440 
 22 C        9.9290    -1.2660    -0.7510 C.ar  1 <1>  -0.1500 
 23 C       11.1030     0.9280    -1.0880 C.3   1 <1>  -0.0970 
 24 H       -0.5770     1.0860    -1.7770 H     1 <1>   0.0800 
 25 H       -1.2130     1.8930    -0.3820 H     1 <1>   0.0800 
 26 H        2.9390    -0.3170    -0.2500 H     1 <1>   0.0800 
 27 H        2.8600     0.1580     1.4260 H     1 <1>   0.0800 
 28 H        1.4280     1.9780     2.1080 H     1 <1>   0.0800 
 29 H        0.4400     2.8080     0.9330 H     1 <1>   0.0800 
 30 H       -2.7120    -0.0280     0.0530 H     1 <1>   0.0800 
 31 H       -2.0790    -0.8330    -1.3550 H     1 <1>   0.0800 
 32 H        3.9780     1.7700    -0.8690 H     1 <1>   0.0800 
 33 H        2.3870     4.1740     1.5710 H     1 <1>   0.0800 
 34 H        2.4070     3.7780    -0.1220 H     1 <1>   0.0800 
 35 H       -3.5570     1.8240    -1.3800 H     1 <1>   0.0800 
 36 H       -4.2150     0.2860    -1.8790 H     1 <1>   0.0800 
 37 H       -2.9200     1.0140    -2.7960 H     1 <1>   0.0800 
 38 H        4.6590     3.4470     0.7760 H     1 <1>   0.0800 
 39 H        4.0340     2.4670     2.0730 H     1 <1>   0.0800 
 40 H        6.0060     1.1820    -1.4530 H     1 <1>   0.3700 
 41 H        8.5210     1.7800    -0.9250 H     1 <1>   0.1500 
 42 H        8.8730    -3.0880    -0.4590 H     1 <1>   0.1500 
 43 H        5.5110    -1.9810    -0.9580 H     1 <1>   0.0800 
 44 H        5.9800    -2.2390     0.7080 H     1 <1>   0.0800 
 45 H        6.5340    -3.3260    -0.5400 H     1 <1>   0.0800 
 46 H       10.8870    -1.7540    -0.7900 H     1 <1>   0.1500 
 47 H       10.8950     1.9800    -1.0090 H     1 <1>   0.0800 
 48 H       11.5150     0.7300    -2.0610 H     1 <1>   0.0800 
 49 H       11.8330     0.6690    -0.3420 H     1 <1>   0.0800 
@<TRIPOS>BOND
  1   1   2  2   
  2   1   3  2   
  3   1   4  am  
  4   1   5  1   
  5   4   6  1   
  6   4   7  1   
  7   5   8  1   
  8   5  24  1   
  9   5  25  1   
 10   6   9  1   
 11   6  26  1   
 12   6  27  1   
 13   7  10  1   
 14   7  28  1   
 15   7  29  1   
 16   8  11  1   
 17   8  30  1   
 18   8  31  1   
 19   9  12  1   
 20   9  13  1   
 21   9  32  1   
 22  10  13  1   
 23  10  33  1   
 24  10  34  1   
 25  11  35  1   
 26  11  36  1   
 27  11  37  1   
 28  12  14  2   
 29  12  15  am  
 30  13  38  1   
 31  13  39  1   
 32  15  16  1   
 33  15  40  1   
 34  16  17  ar  
 35  16  18  ar  
 36  17  19  ar  
 37  17  20  1   
 38  18  21  ar  
 39  18  41  1   
 40  19  22  ar  
 41  19  42  1   
 42  20  43  1   
 43  20  44  1   
 44  20  45  1   
 45  21  22  ar  
 46  21  23  1   
 47  22  46  1   
 48  23  47  1   
 49  23  48  1   
 50  23  49  1   
@<TRIPOS>SUBSTRUCTURE
  1 ****   9 GROUP 4 **** **** 0

# MOE 2024.06 (io_trps.svl 2023.06)
