@<TRIPOS>MOLECULE
NONAME
41 42 1 0 0 
SMALL
USER_CHARGES


@<TRIPOS>ATOM
  1 O        0.3820     0.0110     0.6790 O.3   1 <1>  -0.5600 
  2 C        1.3470    -0.8300     0.1080 C.3   1 <1>   0.2000 
  3 C        0.0570     1.1910    -0.0090 C.3   1 <1>   0.2000 
  4 C        2.6930    -0.0760    -0.0640 C.3   1 <1>   0.3430 
  5 C        0.8050    -1.4240    -1.1980 C.3   1 <1>  -0.2400 
  6 C        1.3110     1.8590    -0.6320 C.3   1 <1>   0.3430 
  7 C       -0.6170     2.1020     1.0150 C.3   1 <1>  -0.2400 
  8 N        2.5630     1.4220     0.0750 N.4   1 <1>  -0.9590 
  9 C        3.7990     2.1650    -0.3100 C.3   1 <1>   0.4230 
 10 C        5.0140     1.6030     0.4590 C.3   1 <1>  -0.1600 
 11 C        3.6480     3.6720    -0.0500 C.3   1 <1>  -0.1600 
 12 C        6.1550     2.6210     0.6700 C.3   1 <1>  -0.0800 
 13 C        4.8830     4.4550    -0.5360 C.3   1 <1>  -0.1600 
 14 C        6.1890     3.6450    -0.4710 C.3   1 <1>  -0.1600 
 15 C        7.5050     1.9090     0.8100 C.3   1 <1>  -0.2400 
 16 H        1.4970    -1.6390     0.8030 H     1 <1>   0.0800 
 17 H       -0.6520     0.9470    -0.7830 H     1 <1>   0.0800 
 18 H        3.0990    -0.3210    -1.0320 H     1 <1>   0.0800 
 19 H        3.3850    -0.4480     0.6730 H     1 <1>   0.0800 
 20 H        0.7010    -0.6840    -1.9690 H     1 <1>   0.0800 
 21 H       -0.1510    -1.8870    -1.0170 H     1 <1>   0.0800 
 22 H        1.4750    -2.1860    -1.5560 H     1 <1>   0.0800 
 23 H        1.1870     2.9260    -0.5790 H     1 <1>   0.0800 
 24 H        1.3710     1.5890    -1.6730 H     1 <1>   0.0800 
 25 H        0.0560     2.3380     1.8200 H     1 <1>   0.0800 
 26 H       -1.4860     1.6130     1.4190 H     1 <1>   0.0800 
 27 H       -0.9360     3.0180     0.5500 H     1 <1>   0.0800 
 28 H        2.3840     1.5930     1.0740 H     1 <1>   0.4500 
 29 H        3.9790     2.0320    -1.3660 H     1 <1>   0.0800 
 30 H        5.3960     0.7660    -0.0980 H     1 <1>   0.0800 
 31 H        4.7180     1.2530     1.4320 H     1 <1>   0.0800 
 32 H        3.5290     3.8340     1.0070 H     1 <1>   0.0800 
 33 H        2.7930     4.0830    -0.5530 H     1 <1>   0.0800 
 34 H        5.9720     3.1590     1.5880 H     1 <1>   0.0800 
 35 H        4.9850     5.3420     0.0680 H     1 <1>   0.0800 
 36 H        4.7360     4.7810    -1.5520 H     1 <1>   0.0800 
 37 H        6.3440     3.1310    -1.4050 H     1 <1>   0.0800 
 38 H        7.0170     4.3210    -0.3370 H     1 <1>   0.0800 
 39 H        7.7600     1.3840    -0.0940 H     1 <1>   0.0800 
 40 H        7.4760     1.2050     1.6220 H     1 <1>   0.0800 
 41 H        8.2820     2.6240     1.0160 H     1 <1>   0.0800 
@<TRIPOS>BOND
  1   1   2  1   
  2   1   3  1   
  3   2   4  1   
  4   2   5  1   
  5   2  16  1   
  6   3   6  1   
  7   3   7  1   
  8   3  17  1   
  9   4   8  1   
 10   4  18  1   
 11   4  19  1   
 12   5  20  1   
 13   5  21  1   
 14   5  22  1   
 15   6   8  1   
 16   6  23  1   
 17   6  24  1   
 18   7  25  1   
 19   7  26  1   
 20   7  27  1   
 21   8   9  1   
 22   8  28  1   
 23   9  10  1   
 24   9  11  1   
 25   9  29  1   
 26  10  12  1   
 27  10  30  1   
 28  10  31  1   
 29  11  13  1   
 30  11  32  1   
 31  11  33  1   
 32  12  14  1   
 33  12  15  1   
 34  12  34  1   
 35  13  14  1   
 36  13  35  1   
 37  13  36  1   
 38  14  37  1   
 39  14  38  1   
 40  15  39  1   
 41  15  40  1   
 42  15  41  1   
@<TRIPOS>SUBSTRUCTURE
  1 ****   8 GROUP 4 **** **** 0

# MOE 2024.06 (io_trps.svl 2023.06)
