@<TRIPOS>MOLECULE
NONAME
43 45 1 0 0 
SMALL
USER_CHARGES


@<TRIPOS>ATOM
  1 O       -0.8270     0.5020     1.5950 O.3   1 <1>  -0.6800 
  2 C       -0.4020    -0.4130     0.6490 C.3   1 <1>   0.1200 
  3 C        0.2980    -1.5570     1.3980 C.3   1 <1>   0.3430 
  4 N        0.9570    -2.5470     0.4790 N.4   1 <1>  -0.9590 
  5 C        0.0730    -3.7150     0.1870 C.3   1 <1>   0.4860 
  6 C        2.2780    -2.9640     1.0330 C.3   1 <1>   0.3430 
  7 C       -1.0420    -3.2660    -0.7320 C.ar  1 <1>  -0.1440 
  8 C        3.1610    -3.6110    -0.0510 C.3   1 <1>  -0.0800 
  9 C       -2.3430    -3.1770    -0.2570 C.ar  1 <1>  -0.1500 
 10 C       -0.7710    -2.9340    -2.0520 C.ar  1 <1>  -0.1500 
 11 C        4.6800    -3.8920     0.5430 C.3   1 <1>   0.0580 
 12 C        3.3620    -2.6450    -1.4500 C.3   1 <1>  -0.1600 
 13 C       -3.3590    -2.7440    -1.0910 C.ar  1 <1>  -0.1500 
 14 C       -1.7890    -2.5010    -2.8830 C.ar  1 <1>  -0.1500 
 15 C        6.2140    -3.4660     0.2820 C.2   1 <1>  -0.2880 
 16 C        4.7060    -3.1880    -0.5890 C.3   1 <1>  -0.1600 
 17 C        4.9900    -2.4190    -1.6400 C.3   1 <1>   0.0580 
 18 C       -3.0820    -2.4040    -2.4020 C.ar  1 <1>  -0.1500 
 19 C        6.3760    -2.6940    -0.8610 C.2   1 <1>  -0.2880 
 20 H       -1.3160     1.2470     1.1820 H     1 <1>   0.4000 
 21 H        0.2790     0.0920    -0.0140 H     1 <1>   0.0800 
 22 H       -1.2670    -0.7530     0.1070 H     1 <1>   0.0800 
 23 H       -0.4190    -2.0570     2.0280 H     1 <1>   0.0800 
 24 H        1.0450    -1.1090     2.0330 H     1 <1>   0.0800 
 25 H        1.1260    -2.0770    -0.4180 H     1 <1>   0.4500 
 26 H       -0.3340    -4.1160     1.1010 H     1 <1>   0.0800 
 27 H        0.6300    -4.4940    -0.3070 H     1 <1>   0.0800 
 28 H        2.1410    -3.6490     1.8550 H     1 <1>   0.0800 
 29 H        2.7950    -2.0960     1.4100 H     1 <1>   0.0800 
 30 H        2.7200    -4.5600    -0.3250 H     1 <1>   0.0800 
 31 H       -2.5860    -3.4400     0.7590 H     1 <1>   0.1500 
 32 H        0.2240    -3.0130    -2.4550 H     1 <1>   0.1500 
 33 H        4.7450    -4.9720     0.5210 H     1 <1>   0.0800 
 34 H        2.8810    -1.6840    -1.3530 H     1 <1>   0.0800 
 35 H        2.9440    -3.1340    -2.3190 H     1 <1>   0.0800 
 36 H       -4.3700    -2.6740    -0.7230 H     1 <1>   0.1500 
 37 H       -1.5820    -2.2440    -3.9090 H     1 <1>   0.1500 
 38 H        6.9690    -3.7950     0.9780 H     1 <1>   0.1500 
 39 H        4.8650    -4.1570    -1.2250 H     1 <1>   0.0800 
 40 H        4.6380    -2.1740     0.0850 H     1 <1>   0.0800 
 41 H        5.1810    -2.8590    -2.6100 H     1 <1>   0.0800 
 42 H       -3.8750    -2.0680    -3.0500 H     1 <1>   0.1500 
 43 H        7.2850    -2.2790    -1.2670 H     1 <1>   0.1500 
@<TRIPOS>BOND
  1   1   2  1   
  2   1  20  1   
  3   2   3  1   
  4   2  21  1   
  5   2  22  1   
  6   3   4  1   
  7   3  23  1   
  8   3  24  1   
  9   4   5  1   
 10   4   6  1   
 11   4  25  1   
 12   5   7  1   
 13   5  26  1   
 14   5  27  1   
 15   6   8  1   
 16   6  28  1   
 17   6  29  1   
 18   7   9  ar  
 19   7  10  ar  
 20   8  11  1   
 21   8  12  1   
 22   8  30  1   
 23   9  13  ar  
 24   9  31  1   
 25  10  14  ar  
 26  10  32  1   
 27  11  15  1   
 28  11  16  1   
 29  11  33  1   
 30  12  17  1   
 31  12  34  1   
 32  12  35  1   
 33  13  18  ar  
 34  13  36  1   
 35  14  18  ar  
 36  14  37  1   
 37  15  19  2   
 38  15  38  1   
 39  16  17  1   
 40  16  39  1   
 41  16  40  1   
 42  17  19  1   
 43  17  41  1   
 44  18  42  1   
 45  19  43  1   
@<TRIPOS>SUBSTRUCTURE
  1 ****   4 GROUP 4 **** **** 0

# MOE 2024.06 (io_trps.svl 2023.06)
