@<TRIPOS>MOLECULE
NONAME
40 41 1 0 0 
SMALL
USER_CHARGES


@<TRIPOS>ATOM
  1 O       -1.3740     0.1320    -1.7170 O.3   1 <1>  -0.3620 
  2 C       -1.7410     0.7310    -0.5560 C.ar  1 <1>   0.0830 
  3 C       -1.1610    -1.2600    -1.7870 C.3   1 <1>   0.0400 
  4 C       -1.8770     2.1080    -0.5820 C.ar  1 <1>  -0.1500 
  5 C       -1.9800     0.0420     0.6290 C.ar  1 <1>  -0.1500 
  6 C       -2.2490     2.8240     0.5510 C.ar  1 <1>   0.0000 
  7 C       -2.3510     0.7380     1.7650 C.ar  1 <1>  -0.1500 
  8 C       -2.3880     4.2610     0.5010 C.ar  1 <1>   0.0000 
  9 C       -2.4860     2.1140     1.7250 C.ar  1 <1>  -0.1500 
 10 C       -1.5520     5.1410     1.1770 C.ar  1 <1>   0.0730 
 11 C       -3.3970     4.8370    -0.2540 C.ar  1 <1>  -0.1500 
 12 C       -0.4640     4.6780     1.9790 C.1   1 <1>   0.4840 
 13 C       -1.7860     6.5160     1.0580 C.ar  1 <1>   0.4100 
 14 C       -3.5380     6.2100    -0.3090 C.ar  1 <1>   0.1660 
 15 N        0.4180     4.3360     2.6180 N.1   1 <1>  -0.5570 
 16 N       -2.7470     7.0530     0.3300 N.ar  1 <1>  -0.6200 
 17 N       -1.0300     7.4620     1.6860 N.pl3 1 <1>  -0.9000 
 18 C       -4.6530     6.8230    -1.1440 C.3   1 <1>  -0.0170 
 19 C       -5.8150     7.3590    -0.2860 C.3   1 <1>  -0.0800 
 20 C       -6.4960     6.2420     0.5180 C.3   1 <1>  -0.2400 
 21 C       -6.8520     8.0620    -1.1710 C.3   1 <1>  -0.2400 
 22 H       -0.8620    -1.5020    -2.7910 H     1 <1>   0.0800 
 23 H       -2.0790    -1.7670    -1.5470 H     1 <1>   0.0800 
 24 H       -0.3790    -1.5290    -1.0990 H     1 <1>   0.0800 
 25 H       -1.6860     2.6270    -1.5040 H     1 <1>   0.1500 
 26 H       -1.8820    -1.0250     0.6860 H     1 <1>   0.1500 
 27 H       -2.5350     0.2080     2.6840 H     1 <1>   0.1500 
 28 H       -2.7770     2.6430     2.6150 H     1 <1>   0.1500 
 29 H       -4.0740     4.2010    -0.7960 H     1 <1>   0.1500 
 30 H       -1.2320     8.4160     1.3800 H     1 <1>   0.4000 
 31 H       -0.0440     7.2820     1.8870 H     1 <1>   0.4000 
 32 H       -5.0280     6.0970    -1.8430 H     1 <1>   0.0800 
 33 H       -4.2330     7.6320    -1.7160 H     1 <1>   0.0800 
 34 H       -5.4170     8.0830     0.4070 H     1 <1>   0.0800 
 35 H       -6.8780     5.4790    -0.1360 H     1 <1>   0.0800 
 36 H       -7.3130     6.6430     1.0920 H     1 <1>   0.0800 
 37 H       -5.8010     5.7940     1.2050 H     1 <1>   0.0800 
 38 H       -7.2810     7.3740    -1.8780 H     1 <1>   0.0800 
 39 H       -6.3940     8.8720    -1.7120 H     1 <1>   0.0800 
 40 H       -7.6430     8.4690    -0.5670 H     1 <1>   0.0800 
@<TRIPOS>BOND
  1   1   2  1   
  2   1   3  1   
  3   2   4  ar  
  4   2   5  ar  
  5   3  22  1   
  6   3  23  1   
  7   3  24  1   
  8   4   6  ar  
  9   4  25  1   
 10   5   7  ar  
 11   5  26  1   
 12   6   8  1   
 13   6   9  ar  
 14   7   9  ar  
 15   7  27  1   
 16   8  10  ar  
 17   8  11  ar  
 18   9  28  1   
 19  10  12  1   
 20  10  13  ar  
 21  11  14  ar  
 22  11  29  1   
 23  12  15  3   
 24  13  16  ar  
 25  13  17  1   
 26  14  16  ar  
 27  14  18  1   
 28  17  30  1   
 29  17  31  1   
 30  18  19  1   
 31  18  32  1   
 32  18  33  1   
 33  19  20  1   
 34  19  21  1   
 35  19  34  1   
 36  20  35  1   
 37  20  36  1   
 38  20  37  1   
 39  21  38  1   
 40  21  39  1   
 41  21  40  1   
@<TRIPOS>SUBSTRUCTURE
  1 ****   8 GROUP 4 **** **** 0

# MOE 2024.06 (io_trps.svl 2023.06)
