@<TRIPOS>MOLECULE
NONAME
50 53 1 0 0 
SMALL
USER_CHARGES


@<TRIPOS>ATOM
  1 O        2.0840     1.1870     0.4450 O.2   1 <1>  -0.5700 
  2 C        2.2020    -0.0230     0.4810 C.2   1 <1>   0.5440 
  3 N        3.4190    -0.5910     0.1150 N.am  1 <1>  -0.4770 
  4 C        1.0800    -0.8260     0.9300 C.ar  1 <1>   0.0860 
  5 C        3.5270    -1.9990     0.0270 C.ar  1 <1>   0.1170 
  6 C        4.4390     0.2740    -0.5830 C.3   1 <1>   0.2200 
  7 C        0.6260    -0.7340     2.2460 C.ar  1 <1>  -0.1500 
  8 C        0.4140    -1.7060     0.0770 C.ar  1 <1>  -0.1500 
  9 C        3.4120    -2.6800    -1.1940 C.ar  1 <1>   0.0830 
 10 C        3.7130    -2.7350     1.1910 C.ar  1 <1>  -0.1500 
 11 C        5.7970    -0.4870    -0.9550 C.3   1 <1>  -0.0800 
 12 C        4.7740     1.5790     0.2750 C.3   1 <1>   0.3430 
 13 C       -0.4320    -1.5030     2.6970 C.ar  1 <1>  -0.1500 
 14 C       -0.6430    -2.4780     0.5220 C.ar  1 <1>  -0.1500 
 15 O        3.1870    -1.9380    -2.3180 O.3   1 <1>  -0.3630 
 16 C        3.5220    -4.0670    -1.2260 C.ar  1 <1>  -0.1500 
 17 C        3.8160    -4.1130     1.1520 C.ar  1 <1>  -0.1500 
 18 C        6.5850    -0.7520     0.4060 C.3   1 <1>  -0.1600 
 19 C        6.6870     0.5990    -1.7040 C.3   1 <1>  -0.1600 
 20 N        6.2580     1.6130     0.4160 N.4   1 <1>  -0.9590 
 21 C       -1.0670    -2.3790     1.8350 C.ar  1 <1>  -0.1500 
 22 C        2.7800    -2.5480    -3.5260 C.3   1 <1>   0.0400 
 23 C        3.7250    -4.7780    -0.0560 C.ar  1 <1>  -0.1500 
 24 C        6.8140     0.5520     1.2740 C.3   1 <1>   0.3430 
 25 C        6.9750     1.8940    -0.8410 C.3   1 <1>   0.3430 
 26 H        3.9750     0.5990    -1.5000 H     1 <1>   0.0800 
 27 H        1.1080    -0.0480     2.9190 H     1 <1>   0.1500 
 28 H        0.7310    -1.7840    -0.9480 H     1 <1>   0.1500 
 29 H        3.7710    -2.2280     2.1370 H     1 <1>   0.1500 
 30 H        5.6670    -1.3670    -1.5620 H     1 <1>   0.0800 
 31 H        4.3050     1.5210     1.2450 H     1 <1>   0.0800 
 32 H        4.4180     2.4620    -0.2300 H     1 <1>   0.0800 
 33 H       -0.7650    -1.4180     3.7170 H     1 <1>   0.1500 
 34 H       -1.1390    -3.1550    -0.1520 H     1 <1>   0.1500 
 35 H        3.4510    -4.6160    -2.1460 H     1 <1>   0.1500 
 36 H        3.9610    -4.6710     2.0620 H     1 <1>   0.1500 
 37 H        7.5440    -1.1880     0.1840 H     1 <1>   0.0800 
 38 H        6.0680    -1.4760     1.0080 H     1 <1>   0.0800 
 39 H        6.2040     0.8930    -2.6210 H     1 <1>   0.0800 
 40 H        7.6280     0.1600    -1.9880 H     1 <1>   0.0800 
 41 H        6.1300     0.8200    -0.0850 H     1 <1>   0.4500 
 42 H       -1.8900    -2.9800     2.1840 H     1 <1>   0.1500 
 43 H        2.5470    -1.7710    -4.2320 H     1 <1>   0.0800 
 44 H        1.9040    -3.1450    -3.3400 H     1 <1>   0.0800 
 45 H        3.5850    -3.1530    -3.9030 H     1 <1>   0.0800 
 46 H        3.8070    -5.8520    -0.0860 H     1 <1>   0.1500 
 47 H        7.8630     0.7200     1.4670 H     1 <1>   0.0800 
 48 H        6.2780     0.5000     2.2090 H     1 <1>   0.0800 
 49 H        6.5830     2.7810    -1.3160 H     1 <1>   0.0800 
 50 H        8.0310     2.0190    -0.6590 H     1 <1>   0.0800 
@<TRIPOS>BOND
  1   1   2  2   
  2   2   3  am  
  3   2   4  1   
  4   3   5  1   
  5   3   6  1   
  6   4   7  ar  
  7   4   8  ar  
  8   5   9  ar  
  9   5  10  ar  
 10   6  11  1   
 11   6  12  1   
 12   6  26  1   
 13   7  13  ar  
 14   7  27  1   
 15   8  14  ar  
 16   8  28  1   
 17   9  15  1   
 18   9  16  ar  
 19  10  17  ar  
 20  10  29  1   
 21  11  18  1   
 22  11  19  1   
 23  11  30  1   
 24  12  20  1   
 25  12  31  1   
 26  12  32  1   
 27  13  21  ar  
 28  13  33  1   
 29  14  21  ar  
 30  14  34  1   
 31  15  22  1   
 32  16  23  ar  
 33  16  35  1   
 34  17  23  ar  
 35  17  36  1   
 36  18  24  1   
 37  18  37  1   
 38  18  38  1   
 39  19  25  1   
 40  19  39  1   
 41  19  40  1   
 42  20  24  1   
 43  20  25  1   
 44  20  41  1   
 45  21  42  1   
 46  22  43  1   
 47  22  44  1   
 48  22  45  1   
 49  23  46  1   
 50  24  47  1   
 51  24  48  1   
 52  25  49  1   
 53  25  50  1   
@<TRIPOS>SUBSTRUCTURE
  1 ****   3 GROUP 4 **** **** 0

# MOE 2024.06 (io_trps.svl 2023.06)
