@<TRIPOS>MOLECULE
NONAME
43 45 1 0 0 
SMALL
USER_CHARGES


@<TRIPOS>ATOM
  1 S       -0.1400     0.0940    -0.1660 S.3   1 <1>  -0.2860 
  2 C        1.3400     1.0950    -0.3260 C.2   1 <1>   0.2420 
  3 C       -1.4560     1.1990    -0.8840 C.3   1 <1>   0.1310 
  4 N        1.3380     2.2860    -0.8090 N.2   1 <1>  -0.3380 
  5 N        2.5440     0.6710     0.0420 N.pl3 1 <1>   0.0480 
  6 C       -2.8330     0.5560    -0.8250 C.2   1 <1>   0.5690 
  7 N        2.6060     2.6930    -0.7670 N.2   1 <1>  -0.3380 
  8 C        3.3230     1.7310    -0.2520 C.2   1 <1>   0.1330 
  9 C        2.9280    -0.6540     0.5760 C.3   1 <1>   0.0160 
 10 O       -3.7180     1.0460    -1.4860 O.2   1 <1>  -0.5700 
 11 N       -3.0360    -0.5330    -0.0350 N.am  1 <1>  -0.5790 
 12 C        4.7490     1.7830    -0.0410 C.ar  1 <1>   0.0530 
 13 C       -4.3030    -1.2580     0.1290 C.3   1 <1>   0.0490 
 14 C        5.3210     1.4940     1.1970 C.ar  1 <1>  -0.1500 
 15 C        5.6050     2.1290    -1.0850 C.ar  1 <1>  -0.1500 
 16 C       -4.5970    -1.8620     1.4610 C.3   1 <1>  -0.2000 
 17 C       -4.2450    -2.7400     0.2970 C.3   1 <1>  -0.2000 
 18 C        6.6910     1.5240     1.3760 C.ar  1 <1>  -0.1500 
 19 C        6.9770     2.1630    -0.9140 C.ar  1 <1>  -0.1500 
 20 C        7.5310     1.8540     0.3250 C.ar  1 <1>   0.0830 
 21 O        8.8610     1.8560     0.5820 O.3   1 <1>  -0.3620 
 22 C        9.7990     2.2220    -0.4020 C.3   1 <1>   0.1200 
 23 C       11.1910     2.1370     0.2190 C.3   1 <1>  -0.2400 
 24 H       -1.1810     1.3990    -1.9030 H     1 <1>   0.0800 
 25 H       -1.4480     2.1140    -0.3210 H     1 <1>   0.0800 
 26 H        2.2880    -1.4110     0.1600 H     1 <1>   0.0800 
 27 H        2.8280    -0.6480     1.6460 H     1 <1>   0.0800 
 28 H        3.9460    -0.8710     0.3090 H     1 <1>   0.0800 
 29 H       -2.2410    -0.9180     0.4770 H     1 <1>   0.3700 
 30 H       -5.1160    -0.8320    -0.4390 H     1 <1>   0.1000 
 31 H        4.6870     1.2520     2.0310 H     1 <1>   0.1500 
 32 H        5.1790     2.3750    -2.0420 H     1 <1>   0.1500 
 33 H       -5.6150    -1.8660     1.8100 H     1 <1>   0.1000 
 34 H       -3.8860    -1.7360     2.2580 H     1 <1>   0.1000 
 35 H       -3.2870    -3.2280     0.2780 H     1 <1>   0.1000 
 36 H       -5.0240    -3.3380    -0.1430 H     1 <1>   0.1000 
 37 H        7.1230     1.2970     2.3340 H     1 <1>   0.1500 
 38 H        7.5940     2.4330    -1.7490 H     1 <1>   0.1500 
 39 H        9.5850     3.2270    -0.7200 H     1 <1>   0.0800 
 40 H        9.7100     1.5390    -1.2290 H     1 <1>   0.0800 
 41 H       11.2630     2.8100     1.0540 H     1 <1>   0.0800 
 42 H       11.9320     2.4110    -0.5090 H     1 <1>   0.0800 
 43 H       11.3870     1.1330     0.5490 H     1 <1>   0.0800 
@<TRIPOS>BOND
  1   1   2  1   
  2   1   3  1   
  3   2   4  2   
  4   2   5  1   
  5   3   6  1   
  6   3  24  1   
  7   3  25  1   
  8   4   7  1   
  9   5   8  1   
 10   5   9  1   
 11   6  10  2   
 12   6  11  am  
 13   7   8  2   
 14   8  12  1   
 15   9  26  1   
 16   9  27  1   
 17   9  28  1   
 18  11  13  1   
 19  11  29  1   
 20  12  14  ar  
 21  12  15  ar  
 22  13  16  1   
 23  13  17  1   
 24  13  30  1   
 25  14  18  ar  
 26  14  31  1   
 27  15  19  ar  
 28  15  32  1   
 29  16  17  1   
 30  16  33  1   
 31  16  34  1   
 32  17  35  1   
 33  17  36  1   
 34  18  20  ar  
 35  18  37  1   
 36  19  20  ar  
 37  19  38  1   
 38  20  21  1   
 39  21  22  1   
 40  22  23  1   
 41  22  39  1   
 42  22  40  1   
 43  23  41  1   
 44  23  42  1   
 45  23  43  1   
@<TRIPOS>SUBSTRUCTURE
  1 ****   5 GROUP 4 **** **** 0

# MOE 2024.06 (io_trps.svl 2023.06)
