@<TRIPOS>MOLECULE
NONAME
49 50 1 0 0 
SMALL
USER_CHARGES


@<TRIPOS>ATOM
  1 S       -0.0830     1.4040    -2.2180 S.o2  1 <1>   1.4470 
  2 O        1.3050     1.5100    -2.6110 O.2   1 <1>  -0.6500 
  3 O       -1.1150     1.6250    -3.2050 O.2   1 <1>  -0.6500 
  4 N       -0.3200     2.5930    -0.9780 N.am  1 <1>  -0.6930 
  5 C       -0.3820    -0.1600    -1.3500 C.ar  1 <1>  -0.0090 
  6 C       -1.5910     2.9210    -0.5230 C.ar  1 <1>   0.1990 
  7 C        0.8870     3.0240    -0.2040 C.3   1 <1>   0.2570 
  8 C       -1.6690    -0.5310    -0.9740 C.ar  1 <1>  -0.1500 
  9 C        0.6620    -1.0190    -1.0240 C.ar  1 <1>  -0.1500 
 10 C       -2.0320     2.5210     0.7330 C.ar  1 <1>  -0.1500 
 11 C       -2.4540     3.6530    -1.3260 C.ar  1 <1>  -0.1500 
 12 C        1.6250     1.8910     0.5340 C.2   1 <1>   0.5690 
 13 C       -1.9070    -1.7120    -0.2930 C.ar  1 <1>  -0.1500 
 14 C        0.4330    -2.2030    -0.3440 C.ar  1 <1>  -0.1500 
 15 C       -3.3020     2.8420     1.1970 C.ar  1 <1>  -0.1430 
 16 C       -3.7210     3.9820    -0.8850 C.ar  1 <1>  -0.1500 
 17 O        0.9890     1.2790     1.3620 O.2   1 <1>  -0.5700 
 18 N        2.9480     1.5830     0.2930 N.am  1 <1>  -0.6600 
 19 C       -0.8540    -2.5500     0.0230 C.ar  1 <1>  -0.1500 
 20 C       -4.1440     3.5800     0.3690 C.ar  1 <1>  -0.1500 
 21 C       -3.7450     2.3700     2.5910 C.3   1 <1>   1.1630 
 22 C        3.8280     2.3090    -0.6670 C.3   1 <1>   0.1400 
 23 C        3.5600     0.3830     0.9320 C.3   1 <1>   0.1400 
 24 F       -3.9320     1.0570     2.6340 F     1 <1>  -0.3400 
 25 F       -4.8850     2.9210     2.9930 F     1 <1>  -0.3400 
 26 F       -2.8490     2.6530     3.5280 F     1 <1>  -0.3400 
 27 C        4.3170     3.6190    -0.0490 C.3   1 <1>  -0.2400 
 28 C        4.3490     0.7920     2.1720 C.3   1 <1>  -0.2400 
 29 H        0.5850     3.7420     0.5360 H     1 <1>   0.0800 
 30 H        1.5490     3.5280    -0.8790 H     1 <1>   0.0800 
 31 H       -2.4950     0.1160    -1.2170 H     1 <1>   0.1500 
 32 H        1.6680    -0.7550    -1.3000 H     1 <1>   0.1500 
 33 H       -1.3730     1.9400     1.3540 H     1 <1>   0.1500 
 34 H       -2.1260     3.9600    -2.3040 H     1 <1>   0.1500 
 35 H       -2.9110    -1.9770    -0.0080 H     1 <1>   0.1500 
 36 H        1.2550    -2.8520    -0.0980 H     1 <1>   0.1500 
 37 H       -4.3780     4.5500    -1.5210 H     1 <1>   0.1500 
 38 H       -1.0350    -3.4680     0.5540 H     1 <1>   0.1500 
 39 H       -5.1380     3.8470     0.6910 H     1 <1>   0.1500 
 40 H        3.2980     2.5090    -1.5820 H     1 <1>   0.0800 
 41 H        4.6760     1.6960    -0.9210 H     1 <1>   0.0800 
 42 H        4.2020    -0.1210     0.2310 H     1 <1>   0.0800 
 43 H        2.7880    -0.3120     1.2190 H     1 <1>   0.0800 
 44 H        3.4950     4.2620     0.2030 H     1 <1>   0.0800 
 45 H        4.9440     4.1330    -0.7540 H     1 <1>   0.0800 
 46 H        4.8950     3.4260     0.8360 H     1 <1>   0.0800 
 47 H        5.1960     1.3940     1.9040 H     1 <1>   0.0800 
 48 H        4.7080    -0.0880     2.6750 H     1 <1>   0.0800 
 49 H        3.7150     1.3350     2.8490 H     1 <1>   0.0800 
@<TRIPOS>BOND
  1   1   2  2   
  2   1   3  2   
  3   1   4  am  
  4   1   5  1   
  5   4   6  1   
  6   4   7  1   
  7   5   8  ar  
  8   5   9  ar  
  9   6  10  ar  
 10   6  11  ar  
 11   7  12  1   
 12   7  29  1   
 13   7  30  1   
 14   8  13  ar  
 15   8  31  1   
 16   9  14  ar  
 17   9  32  1   
 18  10  15  ar  
 19  10  33  1   
 20  11  16  ar  
 21  11  34  1   
 22  12  17  2   
 23  12  18  am  
 24  13  19  ar  
 25  13  35  1   
 26  14  19  ar  
 27  14  36  1   
 28  15  20  ar  
 29  15  21  1   
 30  16  20  ar  
 31  16  37  1   
 32  18  22  1   
 33  18  23  1   
 34  19  38  1   
 35  20  39  1   
 36  21  24  1   
 37  21  25  1   
 38  21  26  1   
 39  22  27  1   
 40  22  40  1   
 41  22  41  1   
 42  23  28  1   
 43  23  42  1   
 44  23  43  1   
 45  27  44  1   
 46  27  45  1   
 47  27  46  1   
 48  28  47  1   
 49  28  48  1   
 50  28  49  1   
@<TRIPOS>SUBSTRUCTURE
  1 ****   4 GROUP 4 **** **** 0

# MOE 2024.06 (io_trps.svl 2023.06)
