@<TRIPOS>MOLECULE
NONAME
36 36 1 0 0 
SMALL
USER_CHARGES


@<TRIPOS>ATOM
  1 BR       0.6700     0.5720     1.7850 Br    1 <1>  -0.1110 
  2 C        2.0320     1.3710     0.6750 C.ar  1 <1>   0.1110 
  3 C        1.9190     2.6990     0.2880 C.ar  1 <1>   0.0820 
  4 C        3.0930     0.5690     0.2960 C.ar  1 <1>  -0.1500 
  5 O        0.8360     3.4130     0.6790 O.3   1 <1>  -0.3630 
  6 C        2.9410     3.2430    -0.5010 C.ar  1 <1>   0.0820 
  7 C        4.0920     1.1100    -0.5010 C.ar  1 <1>  -0.1440 
  8 C       -0.2510     3.4070    -0.2160 C.3   1 <1>   0.1200 
  9 O        2.9970     4.5320    -0.9330 O.3   1 <1>  -0.3630 
 10 C        4.0010     2.4390    -0.8960 C.ar  1 <1>  -0.1500 
 11 C        5.2750     0.2700    -0.9260 C.3   1 <1>   0.4860 
 12 C       -1.3680     4.2510     0.3900 C.3   1 <1>  -0.2400 
 13 C        2.5230     5.5850    -0.1190 C.3   1 <1>   0.0400 
 14 N        6.3340     0.4980     0.0800 N.4   1 <1>  -0.9060 
 15 C        7.5740    -0.2830    -0.1990 C.3   1 <1>   0.3430 
 16 C        8.6530    -0.0380     0.8630 C.3   1 <1>   0.1200 
 17 O        9.7420    -0.8210     0.5300 O.3   1 <1>  -0.6800 
 18 H        3.1120    -0.4550     0.6260 H     1 <1>   0.1500 
 19 H       -0.5750     2.3900    -0.3560 H     1 <1>   0.0800 
 20 H        0.0760     3.8180    -1.1560 H     1 <1>   0.0800 
 21 H        4.7540     2.8860    -1.5210 H     1 <1>   0.1500 
 22 H        5.6100     0.5730    -1.9050 H     1 <1>   0.0800 
 23 H        4.9980    -0.7720    -0.9580 H     1 <1>   0.0800 
 24 H       -1.6750     3.8330     1.3320 H     1 <1>   0.0800 
 25 H       -2.2150     4.2630    -0.2720 H     1 <1>   0.0800 
 26 H       -1.0330     5.2620     0.5370 H     1 <1>   0.0800 
 27 H        2.9970     6.4960    -0.4380 H     1 <1>   0.0800 
 28 H        2.7710     5.3810     0.9080 H     1 <1>   0.0800 
 29 H        1.4590     5.6720    -0.2410 H     1 <1>   0.0800 
 30 H        5.9480     0.2580     1.0010 H     1 <1>   0.4500 
 31 H        6.5300     1.5060     0.1030 H     1 <1>   0.4500 
 32 H        7.9720    -0.0050    -1.1620 H     1 <1>   0.0800 
 33 H        7.3450    -1.3370    -0.2150 H     1 <1>   0.0800 
 34 H        8.3170    -0.3370     1.8410 H     1 <1>   0.0800 
 35 H        8.9720     0.9910     0.8690 H     1 <1>   0.0800 
 36 H       10.4810    -0.7150     1.1680 H     1 <1>   0.4000 
@<TRIPOS>BOND
  1   1   2  1   
  2   2   3  ar  
  3   2   4  ar  
  4   3   5  1   
  5   3   6  ar  
  6   4   7  ar  
  7   4  18  1   
  8   5   8  1   
  9   6   9  1   
 10   6  10  ar  
 11   7  10  ar  
 12   7  11  1   
 13   8  12  1   
 14   8  19  1   
 15   8  20  1   
 16   9  13  1   
 17  10  21  1   
 18  11  14  1   
 19  11  22  1   
 20  11  23  1   
 21  12  24  1   
 22  12  25  1   
 23  12  26  1   
 24  13  27  1   
 25  13  28  1   
 26  13  29  1   
 27  14  15  1   
 28  14  30  1   
 29  14  31  1   
 30  15  16  1   
 31  15  32  1   
 32  15  33  1   
 33  16  17  1   
 34  16  34  1   
 35  16  35  1   
 36  17  36  1   
@<TRIPOS>SUBSTRUCTURE
  1 ****   7 GROUP 4 **** **** 0

# MOE 2024.06 (io_trps.svl 2023.06)
