@<TRIPOS>MOLECULE
NONAME
51 51 1 0 0 
SMALL
USER_CHARGES


@<TRIPOS>ATOM
  1 N        0.4230    -0.3580    -0.4400 N.4   1 <1>  -0.9590 
  2 C        1.6250     0.4640    -0.0740 C.3   1 <1>   0.3430 
  3 C       -0.5760     0.4520    -1.2100 C.3   1 <1>   0.2630 
  4 C       -0.2440    -0.9550     0.7640 C.3   1 <1>   0.2630 
  5 C        2.9760    -0.2680    -0.3220 C.3   1 <1>   0.0000 
  6 C        4.1080     0.7040     0.1100 C.3   1 <1>   0.3430 
  7 C        3.0580    -1.5750     0.4990 C.3   1 <1>  -0.2400 
  8 C        3.1200    -0.6120    -1.8230 C.3   1 <1>  -0.2400 
  9 N        5.4730     0.1330    -0.0980 N.4   1 <1>  -0.9060 
 10 C        6.5750     1.0270     0.3150 C.3   1 <1>   0.4230 
 11 C        6.6940     2.2050    -0.6590 C.3   1 <1>  -0.1600 
 12 C        7.8680     0.2080     0.3360 C.3   1 <1>  -0.1600 
 13 C        7.8970     3.0900    -0.3050 C.3   1 <1>  -0.1600 
 14 C        9.0770     1.0860     0.6900 C.3   1 <1>  -0.1600 
 15 C        9.2100     2.2880    -0.2650 C.3   1 <1>  -0.0800 
 16 C       10.3700     3.2190     0.1340 C.3   1 <1>  -0.1600 
 17 C       11.7490     2.5530     0.0350 C.3   1 <1>  -0.2400 
 18 H        0.7320    -1.1310    -1.0500 H     1 <1>   0.4500 
 19 H        1.5540     0.7550     0.9620 H     1 <1>   0.0800 
 20 H        1.6200     1.3680    -0.6630 H     1 <1>   0.0800 
 21 H       -0.9380     1.2730    -0.6120 H     1 <1>   0.0800 
 22 H       -1.4170    -0.1620    -1.4930 H     1 <1>   0.0800 
 23 H       -0.1290     0.8480    -2.1080 H     1 <1>   0.0800 
 24 H       -0.6080    -0.1780     1.4180 H     1 <1>   0.0800 
 25 H        0.4470    -1.5720     1.3150 H     1 <1>   0.0800 
 26 H       -1.0800    -1.5670     0.4640 H     1 <1>   0.0800 
 27 H        3.9850     0.9500     1.1530 H     1 <1>   0.0800 
 28 H        4.0180     1.6180    -0.4560 H     1 <1>   0.0800 
 29 H        2.9550    -1.3760     1.5530 H     1 <1>   0.0800 
 30 H        3.9930    -2.0830     0.3430 H     1 <1>   0.0800 
 31 H        2.2850    -2.2650     0.2110 H     1 <1>   0.0800 
 32 H        3.0900     0.2780    -2.4290 H     1 <1>   0.0800 
 33 H        2.3310    -1.2640    -2.1550 H     1 <1>   0.0800 
 34 H        4.0450    -1.1230    -2.0250 H     1 <1>   0.0800 
 35 H        5.6200    -0.1040    -1.0860 H     1 <1>   0.4500 
 36 H        5.5700    -0.7430     0.4280 H     1 <1>   0.4500 
 37 H        6.3940     1.4060     1.3090 H     1 <1>   0.0800 
 38 H        5.8110     2.8170    -0.6240 H     1 <1>   0.0800 
 39 H        6.8240     1.8430    -1.6650 H     1 <1>   0.0800 
 40 H        8.0430    -0.2330    -0.6310 H     1 <1>   0.0800 
 41 H        7.7950    -0.5790     1.0660 H     1 <1>   0.0800 
 42 H        7.7330     3.5550     0.6540 H     1 <1>   0.0800 
 43 H        7.9840     3.8790    -1.0350 H     1 <1>   0.0800 
 44 H        9.9660     0.4800     0.6390 H     1 <1>   0.0800 
 45 H        8.9840     1.4420     1.7030 H     1 <1>   0.0800 
 46 H        9.4080     1.9170    -1.2580 H     1 <1>   0.0800 
 47 H       10.2240     3.5800     1.1380 H     1 <1>   0.0800 
 48 H       10.3700     4.0750    -0.5190 H     1 <1>   0.0800 
 49 H       11.8570     1.7710     0.7650 H     1 <1>   0.0800 
 50 H       12.5170     3.2840     0.2180 H     1 <1>   0.0800 
 51 H       11.9020     2.1420    -0.9470 H     1 <1>   0.0800 
@<TRIPOS>BOND
  1   1   2  1   
  2   1   3  1   
  3   1   4  1   
  4   1  18  1   
  5   2   5  1   
  6   2  19  1   
  7   2  20  1   
  8   3  21  1   
  9   3  22  1   
 10   3  23  1   
 11   4  24  1   
 12   4  25  1   
 13   4  26  1   
 14   5   6  1   
 15   5   7  1   
 16   5   8  1   
 17   6   9  1   
 18   6  27  1   
 19   6  28  1   
 20   7  29  1   
 21   7  30  1   
 22   7  31  1   
 23   8  32  1   
 24   8  33  1   
 25   8  34  1   
 26   9  10  1   
 27   9  35  1   
 28   9  36  1   
 29  10  11  1   
 30  10  12  1   
 31  10  37  1   
 32  11  13  1   
 33  11  38  1   
 34  11  39  1   
 35  12  14  1   
 36  12  40  1   
 37  12  41  1   
 38  13  15  1   
 39  13  42  1   
 40  13  43  1   
 41  14  15  1   
 42  14  44  1   
 43  14  45  1   
 44  15  16  1   
 45  15  46  1   
 46  16  17  1   
 47  16  47  1   
 48  16  48  1   
 49  17  49  1   
 50  17  50  1   
 51  17  51  1   
@<TRIPOS>SUBSTRUCTURE
  1 ****   9 GROUP 4 **** **** 0

# MOE 2024.06 (io_trps.svl 2023.06)
