@<TRIPOS>MOLECULE
NONAME
37 38 1 0 0 
SMALL
USER_CHARGES


@<TRIPOS>ATOM
  1 CL      -3.3090     0.9020     3.8580 Cl    1 <1>  -0.1770 
  2 C       -3.1940     1.3790     2.1850 C.ar  1 <1>   0.1770 
  3 C       -4.0990     0.8620     1.2770 C.ar  1 <1>  -0.1500 
  4 C       -2.2080     2.2630     1.7950 C.ar  1 <1>  -0.1500 
  5 C       -4.0230     1.2420    -0.0570 C.ar  1 <1>  -0.1440 
  6 C       -2.1260     2.6370     0.4650 C.ar  1 <1>  -0.1500 
  7 C       -3.0290     2.1270    -0.4560 C.ar  1 <1>  -0.1500 
  8 C       -5.0190     0.7020    -1.0670 C.3   1 <1>   0.4870 
  9 N       -6.3480     1.3090    -0.7990 N.4   1 <1>  -0.9590 
 10 C       -7.4650     0.7350    -1.6150 C.3   1 <1>   0.3430 
 11 C       -6.3640     2.8090    -0.8520 C.3   1 <1>   0.3430 
 12 C       -8.8320     1.3200    -1.1760 C.3   1 <1>   0.1100 
 13 C       -7.7450     3.3630    -0.4230 C.3   1 <1>   0.1100 
 14 N       -8.7030     2.2890    -0.0570 N.3   1 <1>  -0.8100 
 15 C      -10.0070     2.8660     0.3360 C.3   1 <1>   0.1100 
 16 C      -10.8710     1.8550     1.1000 C.3   1 <1>   0.1200 
 17 O      -12.0620     2.4610     1.4650 O.3   1 <1>  -0.6800 
 18 H       -4.8440     0.1720     1.6310 H     1 <1>   0.1500 
 19 H       -1.5150     2.6490     2.5230 H     1 <1>   0.1500 
 20 H       -1.3560     3.3220     0.1490 H     1 <1>   0.1500 
 21 H       -2.9390     2.4310    -1.4860 H     1 <1>   0.1500 
 22 H       -5.0760    -0.3700    -0.9720 H     1 <1>   0.0800 
 23 H       -4.6960     0.9410    -2.0660 H     1 <1>   0.0800 
 24 H       -6.6160     1.1110     0.1760 H     1 <1>   0.4500 
 25 H       -7.4940    -0.3360    -1.4990 H     1 <1>   0.0800 
 26 H       -7.3090     0.9480    -2.6600 H     1 <1>   0.0800 
 27 H       -6.1390     3.1490    -1.8490 H     1 <1>   0.0800 
 28 H       -5.6120     3.2090    -0.1910 H     1 <1>   0.0800 
 29 H       -9.4680     0.5040    -0.8800 H     1 <1>   0.0800 
 30 H       -9.2980     1.7970    -2.0220 H     1 <1>   0.0800 
 31 H       -8.1510     3.9580    -1.2250 H     1 <1>   0.0800 
 32 H       -7.6040     4.0170     0.4210 H     1 <1>   0.0800 
 33 H      -10.5380     3.2090    -0.5370 H     1 <1>   0.0800 
 34 H       -9.8370     3.7090     0.9850 H     1 <1>   0.0800 
 35 H      -10.3740     1.5170     1.9930 H     1 <1>   0.0800 
 36 H      -11.1210     1.0130     0.4790 H     1 <1>   0.0800 
 37 H      -11.9230     3.1070     2.1860 H     1 <1>   0.4000 
@<TRIPOS>BOND
  1   1   2  1   
  2   2   3  ar  
  3   2   4  ar  
  4   3   5  ar  
  5   3  18  1   
  6   4   6  ar  
  7   4  19  1   
  8   5   7  ar  
  9   5   8  1   
 10   6   7  ar  
 11   6  20  1   
 12   7  21  1   
 13   8   9  1   
 14   8  22  1   
 15   8  23  1   
 16   9  10  1   
 17   9  11  1   
 18   9  24  1   
 19  10  12  1   
 20  10  25  1   
 21  10  26  1   
 22  11  13  1   
 23  11  27  1   
 24  11  28  1   
 25  12  14  1   
 26  12  29  1   
 27  12  30  1   
 28  13  14  1   
 29  13  31  1   
 30  13  32  1   
 31  14  15  1   
 32  15  16  1   
 33  15  33  1   
 34  15  34  1   
 35  16  17  1   
 36  16  35  1   
 37  16  36  1   
 38  17  37  1   
@<TRIPOS>SUBSTRUCTURE
  1 ****   9 GROUP 4 **** **** 0

# MOE 2024.06 (io_trps.svl 2023.06)
