@<TRIPOS>MOLECULE
NONAME
33 33 1 0 0 
SMALL
USER_CHARGES


@<TRIPOS>ATOM
  1 O       -0.4490    -0.9530     0.5320 O.co2 1 <1>  -0.9000 
  2 C       -1.1210    -1.6800     1.2870 C.2   1 <1>   0.9790 
  3 O       -0.8300    -1.7150     2.4960 O.co2 1 <1>  -0.9000 
  4 C       -2.2240    -2.4760     0.7640 C.ar  1 <1>  -0.1790 
  5 C       -3.0000    -3.2860     1.5970 C.ar  1 <1>  -0.1500 
  6 C       -2.5560    -2.4630    -0.5930 C.ar  1 <1>  -0.1500 
  7 C       -4.0470    -4.0400     1.1030 C.ar  1 <1>  -0.1500 
  8 C       -3.6010    -3.2170    -1.0910 C.ar  1 <1>  -0.1500 
  9 C       -4.3610    -4.0160    -0.2490 C.ar  1 <1>   0.1170 
 10 N       -5.4220    -4.7800    -0.7520 N.am  1 <1>  -0.4770 
 11 C       -5.3420    -6.1300    -1.0080 C.2   1 <1>   0.5690 
 12 C       -6.6890    -4.0510    -1.0150 C.3   1 <1>   0.1400 
 13 O       -6.2780    -6.7760    -1.4140 O.2   1 <1>  -0.5700 
 14 C       -4.0330    -6.8550    -0.7810 C.3   1 <1>  -0.1790 
 15 C       -7.5400    -4.0000     0.2570 C.3   1 <1>  -0.1600 
 16 C       -8.8570    -3.2520     0.0160 C.3   1 <1>  -0.1600 
 17 C       -9.6910    -3.1850     1.2980 C.3   1 <1>  -0.2400 
 18 H       -2.7630    -3.3110     2.6480 H     1 <1>   0.1500 
 19 H       -1.9710    -1.8450    -1.2550 H     1 <1>   0.1500 
 20 H       -4.6270    -4.6510     1.7700 H     1 <1>   0.1500 
 21 H       -3.8300    -3.1870    -2.1400 H     1 <1>   0.1500 
 22 H       -7.2340    -4.5420    -1.8030 H     1 <1>   0.0800 
 23 H       -6.4600    -3.0510    -1.3410 H     1 <1>   0.0800 
 24 H       -3.7970    -6.8590     0.2660 H     1 <1>   0.0800 
 25 H       -3.2450    -6.3660    -1.3220 H     1 <1>   0.0800 
 26 H       -4.1140    -7.8700    -1.1250 H     1 <1>   0.0800 
 27 H       -6.9850    -3.5020     1.0330 H     1 <1>   0.0800 
 28 H       -7.7530    -5.0060     0.5760 H     1 <1>   0.0800 
 29 H       -9.4240    -3.7540    -0.7500 H     1 <1>   0.0800 
 30 H       -8.6480    -2.2510    -0.3220 H     1 <1>   0.0800 
 31 H       -9.9310    -4.1760     1.6420 H     1 <1>   0.0800 
 32 H      -10.6090    -2.6560     1.1130 H     1 <1>   0.0800 
 33 H       -9.1500    -2.6700     2.0720 H     1 <1>   0.0800 
@<TRIPOS>BOND
  1   1   2  ar  
  2   2   3  ar  
  3   2   4  1   
  4   4   5  ar  
  5   4   6  ar  
  6   5   7  ar  
  7   5  18  1   
  8   6   8  ar  
  9   6  19  1   
 10   7   9  ar  
 11   7  20  1   
 12   8   9  ar  
 13   8  21  1   
 14   9  10  1   
 15  10  11  am  
 16  10  12  1   
 17  11  13  2   
 18  11  14  1   
 19  12  15  1   
 20  12  22  1   
 21  12  23  1   
 22  14  24  1   
 23  14  25  1   
 24  14  26  1   
 25  15  16  1   
 26  15  27  1   
 27  15  28  1   
 28  16  17  1   
 29  16  29  1   
 30  16  30  1   
 31  17  31  1   
 32  17  32  1   
 33  17  33  1   
@<TRIPOS>SUBSTRUCTURE
  1 ****   9 GROUP 4 **** **** 0

# MOE 2024.06 (io_trps.svl 2023.06)
