@<TRIPOS>MOLECULE
NONAME
41 42 1 0 0 
SMALL
USER_CHARGES


@<TRIPOS>ATOM
  1 BR      -0.6200    -0.6410     1.2500 Br    1 <1>  -0.1110 
  2 C       -0.3280    -2.3410     0.3990 C.ar  1 <1>   0.1110 
  3 C        0.2000    -2.3660    -0.8770 C.ar  1 <1>  -0.1500 
  4 C       -0.6510    -3.4940     1.0860 C.ar  1 <1>  -0.1500 
  5 C        0.4070    -3.5930    -1.4840 C.ar  1 <1>  -0.1500 
  6 C       -0.4380    -4.7140     0.4670 C.ar  1 <1>  -0.1500 
  7 C        0.0880    -4.7730    -0.8210 C.ar  1 <1>  -0.1430 
  8 C        0.3240    -6.1210    -1.5050 C.3   1 <1>   0.5020 
  9 N       -0.9650    -6.8370    -1.5340 N.am  1 <1>  -0.7300 
 10 C        1.4280    -6.9120    -0.7930 C.2   1 <1>  -0.1240 
 11 C       -1.2320    -7.9070    -0.7710 C.2   1 <1>   0.6900 
 12 C        1.0900    -8.0320    -0.0900 C.2   1 <1>  -0.0290 
 13 C        2.7190    -6.3220    -1.0010 C.2   1 <1>   0.7060 
 14 O       -2.3560    -8.3440    -0.6860 O.2   1 <1>  -0.5700 
 15 N       -0.2190    -8.4770    -0.0770 N.am  1 <1>  -0.5390 
 16 C        2.0380    -8.9240     0.7080 C.3   1 <1>  -0.0220 
 17 O        2.9370    -5.4940    -1.8660 O.2   1 <1>  -0.5700 
 18 O        3.7450    -6.7040    -0.2370 O.3   1 <1>  -0.4300 
 19 C        2.7320    -9.9390    -0.2080 C.3   1 <1>  -0.1600 
 20 C        5.0420    -6.1780    -0.4060 C.3   1 <1>   0.1200 
 21 C        3.6900   -10.8400     0.5780 C.3   1 <1>  -0.2400 
 22 C        5.9620    -6.8720     0.5930 C.3   1 <1>  -0.2400 
 23 H        0.4440    -1.4480    -1.3800 H     1 <1>   0.1500 
 24 H       -1.0590    -3.4380     2.0790 H     1 <1>   0.1500 
 25 H        0.8280    -3.6220    -2.4760 H     1 <1>   0.1500 
 26 H       -0.6860    -5.6220     0.9930 H     1 <1>   0.1500 
 27 H        0.6160    -5.9580    -2.5290 H     1 <1>   0.0800 
 28 H       -1.7640    -6.3190    -1.8920 H     1 <1>   0.3700 
 29 H       -0.4980    -9.3100     0.4400 H     1 <1>   0.3700 
 30 H        1.4860    -9.4500     1.4680 H     1 <1>   0.0800 
 31 H        2.7690    -8.3340     1.2280 H     1 <1>   0.0800 
 32 H        3.2860    -9.4150    -0.9680 H     1 <1>   0.0800 
 33 H        1.9910   -10.5460    -0.6980 H     1 <1>   0.0800 
 34 H        5.0050    -5.1160    -0.2280 H     1 <1>   0.0800 
 35 H        5.3590    -6.3660    -1.4180 H     1 <1>   0.0800 
 36 H        4.4540   -10.2510     1.0560 H     1 <1>   0.0800 
 37 H        4.1660   -11.5390    -0.0870 H     1 <1>   0.0800 
 38 H        3.1570   -11.3940     1.3310 H     1 <1>   0.0800 
 39 H        5.6270    -6.6850     1.5980 H     1 <1>   0.0800 
 40 H        6.9620    -6.4920     0.4890 H     1 <1>   0.0800 
 41 H        5.9770    -7.9320     0.4090 H     1 <1>   0.0800 
@<TRIPOS>BOND
  1   1   2  1   
  2   2   3  ar  
  3   2   4  ar  
  4   3   5  ar  
  5   3  23  1   
  6   4   6  ar  
  7   4  24  1   
  8   5   7  ar  
  9   5  25  1   
 10   6   7  ar  
 11   6  26  1   
 12   7   8  1   
 13   8   9  1   
 14   8  10  1   
 15   8  27  1   
 16   9  11  am  
 17   9  28  1   
 18  10  12  2   
 19  10  13  1   
 20  11  14  2   
 21  11  15  am  
 22  12  15  1   
 23  12  16  1   
 24  13  17  2   
 25  13  18  1   
 26  15  29  1   
 27  16  19  1   
 28  16  30  1   
 29  16  31  1   
 30  18  20  1   
 31  19  21  1   
 32  19  32  1   
 33  19  33  1   
 34  20  22  1   
 35  20  34  1   
 36  20  35  1   
 37  21  36  1   
 38  21  37  1   
 39  21  38  1   
 40  22  39  1   
 41  22  40  1   
 42  22  41  1   
@<TRIPOS>SUBSTRUCTURE
  1 ****  10 GROUP 4 **** **** 0

# MOE 2024.06 (io_trps.svl 2023.06)
