@<TRIPOS>MOLECULE
NONAME
36 38 1 0 0 
SMALL
USER_CHARGES


@<TRIPOS>ATOM
  1 S        0.2100    -0.7600    -1.0720 S.3   1 <1>  -0.0800 
  2 C       -0.5800     0.3660     0.0410 C.2   1 <1>   0.4420 
  3 C        1.7690    -0.2520    -0.4670 C.ar  1 <1>   0.0400 
  4 N        0.2290     1.0320     0.7740 N.2   1 <1>  -0.5650 
  5 N       -1.9470     0.4780     0.0960 N.am  1 <1>  -0.4940 
  6 C        1.5520     0.7050     0.5060 C.ar  1 <1>   0.2270 
  7 C        3.0230    -0.6880    -0.8490 C.ar  1 <1>  -0.1500 
  8 C       -2.9540    -0.1050    -0.6250 C.2   1 <1>   0.5690 
  9 C        2.6600     1.2570     1.1330 C.ar  1 <1>  -0.1500 
 10 C        4.1170    -0.1250    -0.2120 C.ar  1 <1>  -0.1500 
 11 O       -2.7610    -0.8190    -1.5780 O.2   1 <1>  -0.5700 
 12 C       -4.3990     0.1590    -0.1950 C.3   1 <1>   0.2110 
 13 C        3.9340     0.8420     0.7740 C.ar  1 <1>  -0.1500 
 14 S       -4.5500     1.9170     0.4020 S.3   1 <1>  -0.3710 
 15 C       -4.8690    -0.7520     0.9560 C.3   1 <1>  -0.1600 
 16 C       -6.2430     2.4290     0.1280 C.2   1 <1>   0.7320 
 17 C       -4.9090    -2.2330     0.5570 C.3   1 <1>  -0.2400 
 18 S       -7.3260     1.2660    -0.6260 S.3   1 <1>  -0.3710 
 19 N       -6.7360     3.5430     0.4260 N.2   1 <1>  -0.6960 
 20 C       -8.7370     2.4290    -0.5710 C.3   1 <1>   0.0700 
 21 C       -8.1630     3.7020     0.0890 C.3   1 <1>   0.0860 
 22 H       -2.2550     1.1600     0.7870 H     1 <1>   0.3700 
 23 H        3.1350    -1.4360    -1.6140 H     1 <1>   0.1500 
 24 H        2.5110     2.0030     1.8930 H     1 <1>   0.1500 
 25 H        5.1130    -0.4360    -0.4780 H     1 <1>   0.1500 
 26 H       -5.0280     0.0500    -1.0590 H     1 <1>   0.0800 
 27 H        4.7920     1.2710     1.2610 H     1 <1>   0.1500 
 28 H       -5.8570    -0.4560     1.2630 H     1 <1>   0.0800 
 29 H       -4.2120    -0.6310     1.8000 H     1 <1>   0.0800 
 30 H       -5.5590    -2.3780    -0.2890 H     1 <1>   0.0800 
 31 H       -5.2790    -2.8250     1.3760 H     1 <1>   0.0800 
 32 H       -3.9260    -2.5900     0.3000 H     1 <1>   0.0800 
 33 H       -9.5190     1.9820     0.0160 H     1 <1>   0.0800 
 34 H       -9.0660     2.6060    -1.5790 H     1 <1>   0.0800 
 35 H       -8.2730     4.5380    -0.5810 H     1 <1>   0.0800 
 36 H       -8.7120     3.9220     0.9890 H     1 <1>   0.0800 
@<TRIPOS>BOND
  1   1   2  1   
  2   1   3  1   
  3   2   4  2   
  4   2   5  1   
  5   3   6  ar  
  6   3   7  ar  
  7   4   6  1   
  8   5   8  am  
  9   5  22  1   
 10   6   9  ar  
 11   7  10  ar  
 12   7  23  1   
 13   8  11  2   
 14   8  12  1   
 15   9  13  ar  
 16   9  24  1   
 17  10  13  ar  
 18  10  25  1   
 19  12  14  1   
 20  12  15  1   
 21  12  26  1   
 22  13  27  1   
 23  14  16  1   
 24  15  17  1   
 25  15  28  1   
 26  15  29  1   
 27  16  18  1   
 28  16  19  2   
 29  17  30  1   
 30  17  31  1   
 31  17  32  1   
 32  18  20  1   
 33  19  21  1   
 34  20  21  1   
 35  20  33  1   
 36  20  34  1   
 37  21  35  1   
 38  21  36  1   
@<TRIPOS>SUBSTRUCTURE
  1 ****   5 GROUP 4 **** **** 0

# MOE 2024.06 (io_trps.svl 2023.06)
