@<TRIPOS>MOLECULE
NONAME
42 44 1 0 0 
SMALL
USER_CHARGES


@<TRIPOS>ATOM
  1 O       -1.1100     0.5350    -0.0480 O.3   1 <1>  -0.3630 
  2 C       -0.7050     1.8330    -0.0180 C.ar  1 <1>   0.0830 
  3 C       -0.2770    -0.4820    -0.5700 C.3   1 <1>   0.0400 
  4 C       -1.4030     2.7140     0.7760 C.ar  1 <1>  -0.1440 
  5 C        0.3820     2.2900    -0.7840 C.ar  1 <1>  -0.1500 
  6 C       -1.0540     4.0860     0.8370 C.ar  1 <1>   0.0000 
  7 C       -2.5710     2.1720     1.5760 C.3   1 <1>   0.4870 
  8 C        0.7360     3.6060    -0.7430 C.ar  1 <1>  -0.1500 
  9 C        0.0360     4.5320     0.0530 C.ar  1 <1>   0.0000 
 10 C       -1.7280     5.0520     1.6270 C.ar  1 <1>  -0.1500 
 11 N       -3.6520     1.8050     0.6240 N.4   1 <1>  -0.9590 
 12 C        0.3990     5.8930     0.0810 C.ar  1 <1>  -0.1500 
 13 C       -1.3530     6.3670     1.6330 C.ar  1 <1>  -0.1500 
 14 C       -4.1700     2.9940    -0.1190 C.3   1 <1>   0.3430 
 15 C       -4.7170     0.9990     1.2810 C.3   1 <1>   0.3430 
 16 C       -0.2780     6.7940     0.8510 C.ar  1 <1>  -0.1500 
 17 C       -5.1740     2.5450    -1.1770 C.3   1 <1>  -0.1600 
 18 C       -5.7240     0.5270     0.2350 C.3   1 <1>  -0.1600 
 19 C       -6.2840     1.7210    -0.5330 C.3   1 <1>   0.2000 
 20 O       -7.1170     1.2560    -1.5200 O.3   1 <1>  -0.6800 
 21 H       -0.7330    -1.4340    -0.3630 H     1 <1>   0.0800 
 22 H        0.6860    -0.4300    -0.0900 H     1 <1>   0.0800 
 23 H       -0.1810    -0.3500    -1.6330 H     1 <1>   0.0800 
 24 H        0.9390     1.6180    -1.4090 H     1 <1>   0.1500 
 25 H       -2.9250     2.8850     2.2980 H     1 <1>   0.0800 
 26 H       -2.2400     1.2930     2.1050 H     1 <1>   0.0800 
 27 H        1.5670     3.9620    -1.3270 H     1 <1>   0.1500 
 28 H       -2.5530     4.7700     2.2490 H     1 <1>   0.1500 
 29 H       -3.1620     1.2040    -0.0610 H     1 <1>   0.4500 
 30 H        1.2300     6.2170    -0.5210 H     1 <1>   0.1500 
 31 H       -1.8710     7.0920     2.2380 H     1 <1>   0.1500 
 32 H       -3.3560     3.5170    -0.5990 H     1 <1>   0.0800 
 33 H       -4.6490     3.6740     0.5670 H     1 <1>   0.0800 
 34 H       -5.2230     1.5970     2.0220 H     1 <1>   0.0800 
 35 H       -4.2840     0.1420     1.7730 H     1 <1>   0.0800 
 36 H        0.0060     7.8330     0.8680 H     1 <1>   0.1500 
 37 H       -4.6610     1.9730    -1.9300 H     1 <1>   0.0800 
 38 H       -5.6000     3.4160    -1.6440 H     1 <1>   0.0800 
 39 H       -6.5300     0.0150     0.7320 H     1 <1>   0.0800 
 40 H       -5.2440    -0.1640    -0.4340 H     1 <1>   0.0800 
 41 H       -6.8790     2.3400     0.1210 H     1 <1>   0.0800 
 42 H       -6.6410     0.7040    -2.1700 H     1 <1>   0.4000 
@<TRIPOS>BOND
  1   1   2  1   
  2   1   3  1   
  3   2   4  ar  
  4   2   5  ar  
  5   3  21  1   
  6   3  22  1   
  7   3  23  1   
  8   4   6  ar  
  9   4   7  1   
 10   5   8  ar  
 11   5  24  1   
 12   6   9  ar  
 13   6  10  ar  
 14   7  11  1   
 15   7  25  1   
 16   7  26  1   
 17   8   9  ar  
 18   8  27  1   
 19   9  12  ar  
 20  10  13  ar  
 21  10  28  1   
 22  11  14  1   
 23  11  15  1   
 24  11  29  1   
 25  12  16  ar  
 26  12  30  1   
 27  13  16  ar  
 28  13  31  1   
 29  14  17  1   
 30  14  32  1   
 31  14  33  1   
 32  15  18  1   
 33  15  34  1   
 34  15  35  1   
 35  16  36  1   
 36  17  19  1   
 37  17  37  1   
 38  17  38  1   
 39  18  19  1   
 40  18  39  1   
 41  18  40  1   
 42  19  20  1   
 43  19  41  1   
 44  20  42  1   
@<TRIPOS>SUBSTRUCTURE
  1 ****   4 GROUP 4 **** **** 0

# MOE 2024.06 (io_trps.svl 2023.06)
