@<TRIPOS>MOLECULE
NONAME
39 41 1 0 0 
SMALL
USER_CHARGES


@<TRIPOS>ATOM
  1 S       -0.5570     0.2670    -0.2810 S.3   1 <1>  -0.1970 
  2 C        1.1770     0.4250    -0.4130 C.2   1 <1>   0.2420 
  3 C       -0.3570    -1.4940    -0.0340 C.2   1 <1>   0.5050 
  4 N        2.0120     1.3800    -0.6070 N.2   1 <1>  -0.3380 
  5 N        1.7150    -0.7710    -0.2710 N.pl3 1 <1>   0.5050 
  6 N        0.8760    -1.8640    -0.0580 N.2   1 <1>  -0.6520 
  7 C       -1.5410    -2.3110     0.1600 C.ar  1 <1>   0.0860 
  8 N        3.2170     0.7780    -0.5940 N.2   1 <1>  -0.3380 
  9 C        3.0240    -0.4940    -0.3950 C.2   1 <1>   0.0060 
 10 C       -2.8400    -1.7960     0.1690 C.ar  1 <1>  -0.1500 
 11 C       -1.4060    -3.6880     0.3520 C.ar  1 <1>  -0.1500 
 12 C        4.0880    -1.5790    -0.3020 C.3   1 <1>   0.0200 
 13 C       -3.9590    -2.5970     0.3600 C.ar  1 <1>   0.1170 
 14 C       -2.5040    -4.5040     0.5410 C.ar  1 <1>  -0.1500 
 15 C        5.5140    -1.0400    -0.4680 C.3   1 <1>  -0.2400 
 16 N       -5.2300    -2.0010     0.3450 N.am  1 <1>  -0.5470 
 17 C       -3.7740    -3.9620     0.5430 C.ar  1 <1>  -0.1500 
 18 C       -6.4080    -2.4030     0.9120 C.2   1 <1>   0.5690 
 19 O       -6.5240    -3.3910     1.5910 O.2   1 <1>  -0.5700 
 20 C       -7.6310    -1.5360     0.6770 C.3   1 <1>  -0.0990 
 21 C       -8.1760    -1.6740    -0.7540 C.3   1 <1>  -0.1600 
 22 C       -9.4100    -0.7910    -0.9670 C.3   1 <1>  -0.2400 
 23 H       -3.0010    -0.7440     0.0310 H     1 <1>   0.1500 
 24 H       -0.4230    -4.1300     0.3540 H     1 <1>   0.1500 
 25 H        3.8990    -2.3150    -1.0640 H     1 <1>   0.0800 
 26 H        4.0050    -2.0650     0.6540 H     1 <1>   0.0800 
 27 H       -2.3750    -5.5630     0.6870 H     1 <1>   0.1500 
 28 H        5.6220    -0.5670    -1.4280 H     1 <1>   0.0800 
 29 H        6.2270    -1.8420    -0.3950 H     1 <1>   0.0800 
 30 H        5.7280    -0.3150     0.2980 H     1 <1>   0.0800 
 31 H       -5.2840    -1.1120    -0.1490 H     1 <1>   0.3700 
 32 H       -4.6210    -4.6080     0.6860 H     1 <1>   0.1500 
 33 H       -7.3780    -0.5120     0.8800 H     1 <1>   0.0800 
 34 H       -8.3930    -1.8290     1.3780 H     1 <1>   0.0800 
 35 H       -8.4410    -2.7030    -0.9340 H     1 <1>   0.0800 
 36 H       -7.4170    -1.3990    -1.4660 H     1 <1>   0.0800 
 37 H      -10.1940    -1.0690    -0.2840 H     1 <1>   0.0800 
 38 H       -9.7770    -0.9090    -1.9720 H     1 <1>   0.0800 
 39 H       -9.1660     0.2460    -0.8130 H     1 <1>   0.0800 
@<TRIPOS>BOND
  1   1   2  1   
  2   1   3  1   
  3   2   4  2   
  4   2   5  1   
  5   3   6  2   
  6   3   7  1   
  7   4   8  1   
  8   5   6  1   
  9   5   9  1   
 10   7  10  ar  
 11   7  11  ar  
 12   8   9  2   
 13   9  12  1   
 14  10  13  ar  
 15  10  23  1   
 16  11  14  ar  
 17  11  24  1   
 18  12  15  1   
 19  12  25  1   
 20  12  26  1   
 21  13  16  1   
 22  13  17  ar  
 23  14  17  ar  
 24  14  27  1   
 25  15  28  1   
 26  15  29  1   
 27  15  30  1   
 28  16  18  am  
 29  16  31  1   
 30  17  32  1   
 31  18  19  2   
 32  18  20  1   
 33  20  21  1   
 34  20  33  1   
 35  20  34  1   
 36  21  22  1   
 37  21  35  1   
 38  21  36  1   
 39  22  37  1   
 40  22  38  1   
 41  22  39  1   
@<TRIPOS>SUBSTRUCTURE
  1 ****   7 GROUP 4 **** **** 0

# MOE 2024.06 (io_trps.svl 2023.06)
