@<TRIPOS>MOLECULE
NONAME
47 49 1 0 0 
SMALL
USER_CHARGES


@<TRIPOS>ATOM
  1 S        0.3780    -0.7810     1.5710 S.o2  1 <1>   1.4470 
  2 O       -0.0270     0.4970     2.1160 O.2   1 <1>  -0.6500 
  3 O        0.5240    -1.9000     2.4790 O.2   1 <1>  -0.6500 
  4 N       -0.7940    -1.2430     0.4360 N.am  1 <1>  -0.8490 
  5 C        1.8890    -0.5840     0.5680 C.ar  1 <1>  -0.0090 
  6 C       -0.5360    -2.5830    -0.1040 C.3   1 <1>   0.1960 
  7 C       -2.1410    -1.1600     1.0060 C.3   1 <1>   0.1960 
  8 C        2.0580     0.4330    -0.3770 C.ar  1 <1>  -0.1440 
  9 C        2.9220    -1.5000     0.7220 C.ar  1 <1>  -0.1500 
 10 C       -1.5220    -2.8970    -1.2330 C.3   1 <1>  -0.1600 
 11 C       -3.1930    -1.4310    -0.0750 C.3   1 <1>  -0.1600 
 12 C        3.2260     0.5070    -1.1190 C.ar  1 <1>  -0.1500 
 13 C        0.9800     1.4820    -0.6280 C.3   1 <1>  -0.0970 
 14 C        4.1030    -1.4450    -0.0100 C.ar  1 <1>   0.0860 
 15 C       -2.9730    -2.7900    -0.7490 C.3   1 <1>  -0.1600 
 16 C        4.2330    -0.4210    -0.9400 C.ar  1 <1>  -0.1500 
 17 C        5.1460    -2.4330     0.1920 C.2   1 <1>   0.5440 
 18 O        4.8720    -3.6160     0.1200 O.2   1 <1>  -0.5700 
 19 N        6.4400    -2.0660     0.4770 N.am  1 <1>  -0.6600 
 20 C        6.8630    -0.7210     0.9270 C.3   1 <1>   0.1400 
 21 C        7.5050    -3.0640     0.7160 C.3   1 <1>   0.1400 
 22 C        8.1280    -0.9670     1.7390 C.3   1 <1>  -0.1600 
 23 C        8.7160    -2.2480     1.1560 C.3   1 <1>  -0.1600 
 24 H       -0.6290    -3.3210     0.6770 H     1 <1>   0.0800 
 25 H        0.4660    -2.6350    -0.4970 H     1 <1>   0.0800 
 26 H       -2.3070    -0.1740     1.4080 H     1 <1>   0.0800 
 27 H       -2.2420    -1.8710     1.8100 H     1 <1>   0.0800 
 28 H        2.8160    -2.3000     1.4370 H     1 <1>   0.1500 
 29 H       -1.3360    -3.8890    -1.6040 H     1 <1>   0.0800 
 30 H       -1.3540    -2.2070    -2.0410 H     1 <1>   0.0800 
 31 H       -3.1390    -0.6470    -0.8110 H     1 <1>   0.0800 
 32 H       -4.1730    -1.3990     0.3660 H     1 <1>   0.0800 
 33 H        3.3580     1.2880    -1.8480 H     1 <1>   0.1500 
 34 H        0.8600     2.1060     0.2400 H     1 <1>   0.0800 
 35 H        0.0390     1.0120    -0.8520 H     1 <1>   0.0800 
 36 H        1.2380     2.1130    -1.4590 H     1 <1>   0.0800 
 37 H       -3.1730    -3.5760    -0.0410 H     1 <1>   0.0800 
 38 H       -3.6490    -2.9050    -1.5790 H     1 <1>   0.0800 
 39 H        5.1300    -0.3600    -1.5310 H     1 <1>   0.1500 
 40 H        6.0990    -0.2470     1.5210 H     1 <1>   0.0800 
 41 H        7.0860    -0.1160     0.0650 H     1 <1>   0.0800 
 42 H        7.7040    -3.6290    -0.1790 H     1 <1>   0.0800 
 43 H        7.1900    -3.7320     1.5000 H     1 <1>   0.0800 
 44 H        7.8570    -1.1260     2.7680 H     1 <1>   0.0800 
 45 H        8.8110    -0.1370     1.6800 H     1 <1>   0.0800 
 46 H        9.3130    -2.0180     0.2900 H     1 <1>   0.0800 
 47 H        9.3200    -2.7850     1.8650 H     1 <1>   0.0800 
@<TRIPOS>BOND
  1   1   2  2   
  2   1   3  2   
  3   1   4  am  
  4   1   5  1   
  5   4   6  1   
  6   4   7  1   
  7   5   8  ar  
  8   5   9  ar  
  9   6  10  1   
 10   6  24  1   
 11   6  25  1   
 12   7  11  1   
 13   7  26  1   
 14   7  27  1   
 15   8  12  ar  
 16   8  13  1   
 17   9  14  ar  
 18   9  28  1   
 19  10  15  1   
 20  10  29  1   
 21  10  30  1   
 22  11  15  1   
 23  11  31  1   
 24  11  32  1   
 25  12  16  ar  
 26  12  33  1   
 27  13  34  1   
 28  13  35  1   
 29  13  36  1   
 30  14  16  ar  
 31  14  17  1   
 32  15  37  1   
 33  15  38  1   
 34  16  39  1   
 35  17  18  2   
 36  17  19  am  
 37  19  20  1   
 38  19  21  1   
 39  20  22  1   
 40  20  40  1   
 41  20  41  1   
 42  21  23  1   
 43  21  42  1   
 44  21  43  1   
 45  22  23  1   
 46  22  44  1   
 47  22  45  1   
 48  23  46  1   
 49  23  47  1   
@<TRIPOS>SUBSTRUCTURE
  1 ****   9 GROUP 4 **** **** 0

# MOE 2024.06 (io_trps.svl 2023.06)
