@<TRIPOS>MOLECULE
NONAME
57 59 1 0 0 
SMALL
USER_CHARGES


@<TRIPOS>ATOM
  1 CL       3.0970    -3.0020    -1.8640 Cl    1 <1>  -0.1770 
  2 C        2.9610    -1.7980    -0.6010 C.ar  1 <1>   0.1770 
  3 C        1.8820    -1.7980     0.2760 C.ar  1 <1>   0.0830 
  4 C        3.9540    -0.8430    -0.5020 C.ar  1 <1>  -0.1500 
  5 O        0.8870    -2.7080     0.1990 O.3   1 <1>  -0.3630 
  6 C        1.8080    -0.8140     1.2470 C.ar  1 <1>  -0.1500 
  7 C        3.9000     0.1410     0.4810 C.ar  1 <1>  -0.0090 
  8 C        1.1510    -3.9900     0.7190 C.3   1 <1>   0.1200 
  9 C        2.8080     0.1400     1.3450 C.ar  1 <1>  -0.1500 
 10 S        5.2070     1.3930     0.6130 S.o2  1 <1>   1.4470 
 11 C       -0.1060    -4.8370     0.5490 C.3   1 <1>  -0.2400 
 12 O        5.2600     1.9160     1.9610 O.2   1 <1>  -0.6500 
 13 O        5.1050     2.3040    -0.5050 O.2   1 <1>  -0.6500 
 14 N        6.6190     0.4830     0.3850 N.am  1 <1>  -0.8490 
 15 C        7.7460     1.3270    -0.0380 C.3   1 <1>   0.1960 
 16 C        6.9760    -0.3240     1.5500 C.3   1 <1>   0.1960 
 17 C        9.0900     0.5780     0.0170 C.3   1 <1>  -0.1600 
 18 C        7.9930    -1.3940     1.1290 C.3   1 <1>  -0.1600 
 19 C        8.9080    -0.9530    -0.0370 C.3   1 <1>  -0.0190 
 20 C       10.2380    -1.7250    -0.0450 C.2   1 <1>   0.5690 
 21 O       11.2000    -1.1610     0.4270 O.2   1 <1>  -0.5700 
 22 N       10.3500    -3.0000    -0.5610 N.am  1 <1>  -0.6600 
 23 C        9.2200    -3.7900    -1.1350 C.3   1 <1>   0.1400 
 24 C       11.7170    -3.6090    -0.6410 C.3   1 <1>   0.1400 
 25 C        8.6780    -4.7820    -0.0990 C.3   1 <1>  -0.1600 
 26 C       11.7680    -5.1430    -0.6910 C.3   1 <1>  -0.1600 
 27 C        9.4990    -6.0710     0.0290 C.3   1 <1>  -0.1600 
 28 C       10.9650    -5.8400     0.4180 C.3   1 <1>  -0.1600 
 29 H        4.7760    -0.8630    -1.1960 H     1 <1>   0.1500 
 30 H        0.9670    -0.7980     1.9180 H     1 <1>   0.1500 
 31 H        1.4080    -3.8880     1.7600 H     1 <1>   0.0800 
 32 H        1.9760    -4.4220     0.1810 H     1 <1>   0.0800 
 33 H        2.7400     0.9000     2.1070 H     1 <1>   0.1500 
 34 H       -0.9280    -4.3920     1.0820 H     1 <1>   0.0800 
 35 H        0.0630    -5.8240     0.9400 H     1 <1>   0.0800 
 36 H       -0.3560    -4.9200    -0.4930 H     1 <1>   0.0800 
 37 H        7.8060     2.2050     0.5850 H     1 <1>   0.0800 
 38 H        7.5650     1.6530    -1.0490 H     1 <1>   0.0800 
 39 H        6.1050    -0.8060     1.9610 H     1 <1>   0.0800 
 40 H        7.3960     0.3120     2.3130 H     1 <1>   0.0800 
 41 H        9.5960     0.8440     0.9290 H     1 <1>   0.0800 
 42 H        9.7140     0.9060    -0.7960 H     1 <1>   0.0800 
 43 H        7.4570    -2.2790     0.8400 H     1 <1>   0.0800 
 44 H        8.5920    -1.6450     1.9880 H     1 <1>   0.0800 
 45 H        8.4000    -1.1420    -0.9630 H     1 <1>   0.0800 
 46 H        9.5430    -4.3080    -2.0200 H     1 <1>   0.0800 
 47 H        8.4210    -3.1410    -1.4370 H     1 <1>   0.0800 
 48 H       12.2840    -3.2950     0.2200 H     1 <1>   0.0800 
 49 H       12.2150    -3.2130    -1.5090 H     1 <1>   0.0800 
 50 H        7.6800    -5.0580    -0.3920 H     1 <1>   0.0800 
 51 H        8.6110    -4.3040     0.8610 H     1 <1>   0.0800 
 52 H       12.8010    -5.4220    -0.5780 H     1 <1>   0.0800 
 53 H       11.4650    -5.4950    -1.6610 H     1 <1>   0.0800 
 54 H        9.4580    -6.6170    -0.8980 H     1 <1>   0.0800 
 55 H        9.0420    -6.6900     0.7820 H     1 <1>   0.0800 
 56 H       11.0250    -5.2760     1.3330 H     1 <1>   0.0800 
 57 H       11.4110    -6.8020     0.6030 H     1 <1>   0.0800 
@<TRIPOS>BOND
  1   1   2  1   
  2   2   3  ar  
  3   2   4  ar  
  4   3   5  1   
  5   3   6  ar  
  6   4   7  ar  
  7   4  29  1   
  8   5   8  1   
  9   6   9  ar  
 10   6  30  1   
 11   7   9  ar  
 12   7  10  1   
 13   8  11  1   
 14   8  31  1   
 15   8  32  1   
 16   9  33  1   
 17  10  12  2   
 18  10  13  2   
 19  10  14  am  
 20  11  34  1   
 21  11  35  1   
 22  11  36  1   
 23  14  15  1   
 24  14  16  1   
 25  15  17  1   
 26  15  37  1   
 27  15  38  1   
 28  16  18  1   
 29  16  39  1   
 30  16  40  1   
 31  17  19  1   
 32  17  41  1   
 33  17  42  1   
 34  18  19  1   
 35  18  43  1   
 36  18  44  1   
 37  19  20  1   
 38  19  45  1   
 39  20  21  2   
 40  20  22  am  
 41  22  23  1   
 42  22  24  1   
 43  23  25  1   
 44  23  46  1   
 45  23  47  1   
 46  24  26  1   
 47  24  48  1   
 48  24  49  1   
 49  25  27  1   
 50  25  50  1   
 51  25  51  1   
 52  26  28  1   
 53  26  52  1   
 54  26  53  1   
 55  27  28  1   
 56  27  54  1   
 57  27  55  1   
 58  28  56  1   
 59  28  57  1   
@<TRIPOS>SUBSTRUCTURE
  1 ****  18 GROUP 4 **** **** 0

# MOE 2024.06 (io_trps.svl 2023.06)
