@<TRIPOS>MOLECULE
NONAME
32 33 1 0 0 
SMALL
USER_CHARGES


@<TRIPOS>ATOM
  1 BR       0.8310     0.2640     1.7400 Br    1 <1>  -0.1110 
  2 C       -0.7130     0.9010     0.7670 C.ar  1 <1>   0.1110 
  3 C       -0.6880     2.1420     0.1370 C.ar  1 <1>   0.0830 
  4 C       -1.8290     0.0860     0.7300 C.ar  1 <1>  -0.1500 
  5 O        0.3980     2.9500     0.1620 O.3   1 <1>  -0.3630 
  6 C       -1.8250     2.5750    -0.5250 C.ar  1 <1>  -0.1500 
  7 C       -2.9550     0.5270     0.0530 C.ar  1 <1>  -0.1500 
  8 C        1.5250     2.5460    -0.5790 C.3   1 <1>   0.1200 
  9 C       -2.9520     1.7680    -0.5690 C.ar  1 <1>  -0.1500 
 10 C        2.7610     2.8440     0.2750 C.3   1 <1>   0.3430 
 11 N        4.0040     2.1980    -0.2580 N.4   1 <1>  -0.9590 
 12 C        3.9910     0.7140    -0.1670 C.3   1 <1>   0.3430 
 13 C        5.2170     2.6280     0.4790 C.3   1 <1>   0.3430 
 14 C        5.4580     0.3140    -0.2430 C.3   1 <1>  -0.1600 
 15 C        6.2530     1.5600     0.1580 C.3   1 <1>  -0.1600 
 16 H       -1.8230    -0.8700     1.2230 H     1 <1>   0.1500 
 17 H       -1.8310     3.5390    -1.0030 H     1 <1>   0.1500 
 18 H       -3.8350    -0.0910     0.0120 H     1 <1>   0.1500 
 19 H        1.5360     3.1110    -1.4940 H     1 <1>   0.0800 
 20 H        1.4400     1.4970    -0.7990 H     1 <1>   0.0800 
 21 H       -3.8330     2.1070    -1.0880 H     1 <1>   0.1500 
 22 H        2.5790     2.4880     1.2760 H     1 <1>   0.0800 
 23 H        2.8970     3.9130     0.3170 H     1 <1>   0.0800 
 24 H        4.1400     2.4550    -1.2450 H     1 <1>   0.4500 
 25 H        3.4130     0.2650    -0.9600 H     1 <1>   0.0800 
 26 H        3.5860     0.4100     0.7860 H     1 <1>   0.0800 
 27 H        5.0190     2.6280     1.5400 H     1 <1>   0.0800 
 28 H        5.5460     3.6090     0.1760 H     1 <1>   0.0800 
 29 H        5.7050     0.0160    -1.2470 H     1 <1>   0.0800 
 30 H        5.6540    -0.5140     0.4160 H     1 <1>   0.0800 
 31 H        6.8810     1.3760     1.0130 H     1 <1>   0.0800 
 32 H        6.8740     1.8880    -0.6570 H     1 <1>   0.0800 
@<TRIPOS>BOND
  1   1   2  1   
  2   2   3  ar  
  3   2   4  ar  
  4   3   5  1   
  5   3   6  ar  
  6   4   7  ar  
  7   4  16  1   
  8   5   8  1   
  9   6   9  ar  
 10   6  17  1   
 11   7   9  ar  
 12   7  18  1   
 13   8  10  1   
 14   8  19  1   
 15   8  20  1   
 16   9  21  1   
 17  10  11  1   
 18  10  22  1   
 19  10  23  1   
 20  11  12  1   
 21  11  13  1   
 22  11  24  1   
 23  12  14  1   
 24  12  25  1   
 25  12  26  1   
 26  13  15  1   
 27  13  27  1   
 28  13  28  1   
 29  14  15  1   
 30  14  29  1   
 31  14  30  1   
 32  15  31  1   
 33  15  32  1   
@<TRIPOS>SUBSTRUCTURE
  1 ****   8 GROUP 4 **** **** 0

# MOE 2024.06 (io_trps.svl 2023.06)
