@<TRIPOS>MOLECULE
NONAME
31 31 1 0 0 
SMALL
USER_CHARGES


@<TRIPOS>ATOM
  1 O       -0.4070     0.6260    -0.0470 O.co2 1 <1>  -0.9000 
  2 C       -1.4520     1.0250     0.4910 C.2   1 <1>   1.0500 
  3 O       -1.4070     1.9780     1.2860 O.co2 1 <1>  -0.9000 
  4 C       -2.6930     0.3770     0.1860 C.2   1 <1>  -0.4000 
  5 C       -3.9220     0.6400     0.6870 C.2   1 <1>  -0.1500 
  6 C       -5.1610    -0.0310     0.3560 C.2   1 <1>  -0.1380 
  7 C       -5.3080    -1.3780     0.3570 C.2   1 <1>  -0.2760 
  8 C       -6.3220     0.9100    -0.0450 C.3   1 <1>   0.1380 
  9 C       -6.5730    -2.1060    -0.0820 C.3   1 <1>  -0.0220 
 10 C       -4.2350    -2.3640     0.8100 C.3   1 <1>  -0.1020 
 11 C       -7.6630     0.1460    -0.1430 C.3   1 <1>  -0.1600 
 12 C       -6.5310     2.0410     0.9790 C.3   1 <1>  -0.2400 
 13 C       -5.9830     1.5450    -1.4040 C.3   1 <1>  -0.2400 
 14 C       -7.5250    -1.1990    -0.8590 C.3   1 <1>  -0.1600 
 15 H       -2.5620    -0.3980    -0.5380 H     1 <1>   0.1500 
 16 H       -3.9970     1.4400     1.4020 H     1 <1>   0.1500 
 17 H       -6.3140    -2.9430    -0.7070 H     1 <1>   0.0800 
 18 H       -7.0710    -2.4860     0.7930 H     1 <1>   0.0800 
 19 H       -4.6530    -3.0740     1.5010 H     1 <1>   0.0800 
 20 H       -3.4240    -1.8700     1.3120 H     1 <1>   0.0800 
 21 H       -3.8390    -2.8910    -0.0380 H     1 <1>   0.0800 
 22 H       -8.0310    -0.0440     0.8500 H     1 <1>   0.0800 
 23 H       -8.3940     0.7510    -0.6490 H     1 <1>   0.0800 
 24 H       -6.6170     1.6300     1.9680 H     1 <1>   0.0800 
 25 H       -7.4250     2.5950     0.7540 H     1 <1>   0.0800 
 26 H       -5.7080     2.7320     0.9660 H     1 <1>   0.0800 
 27 H       -6.7860     2.1700    -1.7490 H     1 <1>   0.0800 
 28 H       -5.7910     0.7830    -2.1360 H     1 <1>   0.0800 
 29 H       -5.0950     2.1460    -1.3200 H     1 <1>   0.0800 
 30 H       -8.4870    -1.6730    -0.9420 H     1 <1>   0.0800 
 31 H       -7.1430    -1.0490    -1.8530 H     1 <1>   0.0800 
@<TRIPOS>BOND
  1   1   2  ar  
  2   2   3  ar  
  3   2   4  1   
  4   4   5  2   
  5   4  15  1   
  6   5   6  1   
  7   5  16  1   
  8   6   7  2   
  9   6   8  1   
 10   7   9  1   
 11   7  10  1   
 12   8  11  1   
 13   8  12  1   
 14   8  13  1   
 15   9  14  1   
 16   9  17  1   
 17   9  18  1   
 18  10  19  1   
 19  10  20  1   
 20  10  21  1   
 21  11  14  1   
 22  11  22  1   
 23  11  23  1   
 24  12  24  1   
 25  12  25  1   
 26  12  26  1   
 27  13  27  1   
 28  13  28  1   
 29  13  29  1   
 30  14  30  1   
 31  14  31  1   
@<TRIPOS>SUBSTRUCTURE
  1 ****   6 GROUP 4 **** **** 0

# MOE 2024.06 (io_trps.svl 2023.06)
