@<TRIPOS>MOLECULE
NONAME
54 57 1 0 0 
SMALL
USER_CHARGES


@<TRIPOS>ATOM
  1 O       -0.4450    -0.2960    -0.2740 O.2   1 <1>  -0.5700 
  2 C       -1.4510     0.3930    -0.1680 C.2   1 <1>   0.6160 
  3 N       -2.6950    -0.2240     0.0180 N.am  1 <1>  -0.2860 
  4 C       -1.3950     1.8190    -0.2150 C.2   1 <1>   0.0290 
  5 C       -2.7530    -1.6380    -0.0110 C.ar  1 <1>   0.1170 
  6 C       -3.8370     0.5370     0.1860 C.2   1 <1>  -0.0290 
  7 C       -0.1290     2.4610    -0.4260 C.2   1 <1>   0.6160 
  8 C       -2.5500     2.5380    -0.0830 C.2   1 <1>  -0.1500 
  9 C       -2.5170    -2.3800     1.1380 C.ar  1 <1>  -0.1500 
 10 C       -3.0670    -2.3050    -1.1880 C.ar  1 <1>  -0.1500 
 11 C       -3.8070     1.9140     0.1230 C.2   1 <1>   0.0140 
 12 C       -5.1680    -0.1920     0.4270 C.3   1 <1>  -0.0220 
 13 O        0.0400     3.1100    -1.4430 O.2   1 <1>  -0.5700 
 14 N        0.8740     2.4420     0.5160 N.am  1 <1>  -0.6600 
 15 C       -2.6090    -3.7600     1.1160 C.ar  1 <1>  -0.1500 
 16 C       -3.1580    -3.6850    -1.2120 C.ar  1 <1>  -0.1500 
 17 C       -4.9920     2.7220     0.2520 C.2   1 <1>   0.4950 
 18 C       -6.2430     0.6870     1.0990 C.3   1 <1>   0.0000 
 19 C        0.8320     1.7440     1.8190 C.3   1 <1>   0.1400 
 20 C        2.1820     3.0980     0.3040 C.3   1 <1>   0.1400 
 21 C       -2.9340    -4.4200    -0.0590 C.ar  1 <1>  -0.1430 
 22 O       -4.9840     3.9280     0.2710 O.2   1 <1>  -0.5700 
 23 C       -6.3380     2.0340     0.3620 C.3   1 <1>  -0.0990 
 24 C       -5.8880     0.9170     2.5810 C.3   1 <1>  -0.2400 
 25 C       -7.6040    -0.0250     1.0370 C.3   1 <1>  -0.2400 
 26 C        2.0470     2.2710     2.5720 C.3   1 <1>  -0.1600 
 27 C        3.0440     2.6390     1.4750 C.3   1 <1>  -0.1600 
 28 C       -3.0320    -5.9340    -0.0840 C.3   1 <1>  -0.0970 
 29 H       -2.5200     3.6150    -0.1400 H     1 <1>   0.1500 
 30 H       -2.2600    -1.8730     2.0500 H     1 <1>   0.1500 
 31 H       -3.2360    -1.7390    -2.0860 H     1 <1>   0.1500 
 32 H       -5.0180    -1.0570     1.0480 H     1 <1>   0.0800 
 33 H       -5.5290    -0.5420    -0.5250 H     1 <1>   0.0800 
 34 H       -2.4210    -4.3200     2.0150 H     1 <1>   0.1500 
 35 H       -3.4000    -4.1860    -2.1330 H     1 <1>   0.1500 
 36 H        0.9310     0.6840     1.6560 H     1 <1>   0.0800 
 37 H       -0.0830     1.9530     2.3460 H     1 <1>   0.0800 
 38 H        2.0450     4.1660     0.3250 H     1 <1>   0.0800 
 39 H        2.6050     2.8070    -0.6430 H     1 <1>   0.0800 
 40 H       -6.7120     1.8840    -0.6350 H     1 <1>   0.0800 
 41 H       -7.0240     2.6860     0.8730 H     1 <1>   0.0800 
 42 H       -4.9300     1.3930     2.6920 H     1 <1>   0.0800 
 43 H       -5.8560    -0.0190     3.1100 H     1 <1>   0.0800 
 44 H       -6.6270     1.5410     3.0530 H     1 <1>   0.0800 
 45 H       -7.8990    -0.2020     0.0180 H     1 <1>   0.0800 
 46 H       -8.3660     0.5710     1.5090 H     1 <1>   0.0800 
 47 H       -7.5580    -0.9740     1.5430 H     1 <1>   0.0800 
 48 H        2.4410     1.5410     3.2560 H     1 <1>   0.0800 
 49 H        1.7650     3.1530     3.1200 H     1 <1>   0.0800 
 50 H        3.7350     3.4030     1.7850 H     1 <1>   0.0800 
 51 H        3.5970     1.7660     1.1760 H     1 <1>   0.0800 
 52 H       -2.0710    -6.3560    -0.3200 H     1 <1>   0.0800 
 53 H       -3.7420    -6.2540    -0.8260 H     1 <1>   0.0800 
 54 H       -3.3500    -6.3080     0.8720 H     1 <1>   0.0800 
@<TRIPOS>BOND
  1   1   2  2   
  2   2   3  am  
  3   2   4  1   
  4   3   5  1   
  5   3   6  1   
  6   4   7  1   
  7   4   8  2   
  8   5   9  ar  
  9   5  10  ar  
 10   6  11  2   
 11   6  12  1   
 12   7  13  2   
 13   7  14  am  
 14   8  11  1   
 15   8  29  1   
 16   9  15  ar  
 17   9  30  1   
 18  10  16  ar  
 19  10  31  1   
 20  11  17  1   
 21  12  18  1   
 22  12  32  1   
 23  12  33  1   
 24  14  19  1   
 25  14  20  1   
 26  15  21  ar  
 27  15  34  1   
 28  16  21  ar  
 29  16  35  1   
 30  17  22  2   
 31  17  23  1   
 32  18  23  1   
 33  18  24  1   
 34  18  25  1   
 35  19  26  1   
 36  19  36  1   
 37  19  37  1   
 38  20  27  1   
 39  20  38  1   
 40  20  39  1   
 41  21  28  1   
 42  23  40  1   
 43  23  41  1   
 44  24  42  1   
 45  24  43  1   
 46  24  44  1   
 47  25  45  1   
 48  25  46  1   
 49  25  47  1   
 50  26  27  1   
 51  26  48  1   
 52  26  49  1   
 53  27  50  1   
 54  27  51  1   
 55  28  52  1   
 56  28  53  1   
 57  28  54  1   
@<TRIPOS>SUBSTRUCTURE
  1 ****   3 GROUP 4 **** **** 0

# MOE 2024.06 (io_trps.svl 2023.06)
