@<TRIPOS>MOLECULE
NONAME
55 57 1 0 0 
SMALL
USER_CHARGES


@<TRIPOS>ATOM
  1 O       -1.8090    -2.6540     0.6350 O.3   1 <1>  -0.3630 
  2 C       -3.0750    -2.7680     0.1550 C.ar  1 <1>   0.0830 
  3 C       -0.8810    -1.7560     0.0670 C.3   1 <1>   0.1200 
  4 C       -3.8180    -3.8960     0.5070 C.ar  1 <1>  -0.1440 
  5 C       -3.6320    -1.7990    -0.6790 C.ar  1 <1>  -0.1500 
  6 C        0.5130    -2.1850     0.5280 C.3   1 <1>   0.2000 
  7 C       -5.0980    -4.0360    -0.0120 C.ar  1 <1>  -0.1500 
  8 C       -3.2630    -4.9790     1.4420 C.3   1 <1>   0.0640 
  9 C       -4.9100    -1.9530    -1.1860 C.ar  1 <1>  -0.1440 
 10 O        1.4850    -1.4740    -0.1840 O.3   1 <1>  -0.6800 
 11 C        0.7140    -3.6990     0.2880 C.3   1 <1>   0.3430 
 12 C       -5.6390    -3.0780    -0.8500 C.ar  1 <1>  -0.1500 
 13 C       -3.0700    -6.2970     0.6860 C.3   1 <1>  -0.2400 
 14 C       -4.1700    -5.1810     2.6610 C.3   1 <1>  -0.2400 
 15 C       -5.5170    -0.9000    -2.0960 C.3   1 <1>  -0.0970 
 16 N        2.1620    -4.0400     0.1480 N.4   1 <1>  -0.9590 
 17 C        2.3840    -5.2580    -0.6750 C.3   1 <1>   0.4860 
 18 C        2.8820    -4.1240     1.4490 C.3   1 <1>   0.3430 
 19 C        3.8690    -5.5580    -0.8090 C.ar  1 <1>  -0.1430 
 20 C        4.3920    -4.1050     1.2060 C.3   1 <1>  -0.0170 
 21 C        4.8080    -5.0330     0.0750 C.ar  1 <1>  -0.1430 
 22 C        4.2900    -6.3880    -1.8380 C.ar  1 <1>  -0.1500 
 23 C        6.1490    -5.3450    -0.0810 C.ar  1 <1>  -0.1500 
 24 C        5.6300    -6.6960    -1.9870 C.ar  1 <1>  -0.1500 
 25 C        6.5600    -6.1750    -1.1080 C.ar  1 <1>  -0.1500 
 26 H       -1.1220    -0.7630     0.4050 H     1 <1>   0.0800 
 27 H       -0.9570    -1.8250    -1.0050 H     1 <1>   0.0800 
 28 H       -3.0890    -0.9120    -0.9390 H     1 <1>   0.1500 
 29 H        0.6340    -1.9560     1.5720 H     1 <1>   0.0800 
 30 H       -5.6920    -4.8990     0.2320 H     1 <1>   0.1500 
 31 H       -2.3040    -4.6790     1.8210 H     1 <1>   0.0800 
 32 H        1.3750    -0.5050    -0.0630 H     1 <1>   0.4000 
 33 H        0.1980    -3.9540    -0.6230 H     1 <1>   0.0800 
 34 H        0.2560    -4.2630     1.0850 H     1 <1>   0.0800 
 35 H       -6.6340    -3.2130    -1.2360 H     1 <1>   0.1500 
 36 H       -4.0140    -6.6780     0.3390 H     1 <1>   0.0800 
 37 H       -2.6200    -7.0340     1.3270 H     1 <1>   0.0800 
 38 H       -2.4340    -6.1430    -0.1660 H     1 <1>   0.0800 
 39 H       -5.1300    -5.5710     2.3730 H     1 <1>   0.0800 
 40 H       -4.3200    -4.2420     3.1640 H     1 <1>   0.0800 
 41 H       -3.7180    -5.8700     3.3530 H     1 <1>   0.0800 
 42 H       -4.7490    -0.3220    -2.5780 H     1 <1>   0.0800 
 43 H       -6.1400    -0.2380    -1.5210 H     1 <1>   0.0800 
 44 H       -6.1170    -1.3660    -2.8570 H     1 <1>   0.0800 
 45 H        2.5670    -3.2390    -0.3700 H     1 <1>   0.4500 
 46 H        1.9620    -5.1160    -1.6570 H     1 <1>   0.0800 
 47 H        1.8990    -6.1030    -0.2160 H     1 <1>   0.0800 
 48 H        2.6130    -5.0390     1.9510 H     1 <1>   0.0800 
 49 H        2.6140    -3.2930     2.0800 H     1 <1>   0.0800 
 50 H        4.8940    -4.3900     2.1140 H     1 <1>   0.0800 
 51 H        4.6990    -3.1020     0.9670 H     1 <1>   0.0800 
 52 H        3.5840    -6.8080    -2.5350 H     1 <1>   0.1500 
 53 H        6.8870    -4.9440     0.5940 H     1 <1>   0.1500 
 54 H        5.9530    -7.3410    -2.7870 H     1 <1>   0.1500 
 55 H        7.6040    -6.4140    -1.2240 H     1 <1>   0.1500 
@<TRIPOS>BOND
  1   1   2  1   
  2   1   3  1   
  3   2   4  ar  
  4   2   5  ar  
  5   3   6  1   
  6   3  26  1   
  7   3  27  1   
  8   4   7  ar  
  9   4   8  1   
 10   5   9  ar  
 11   5  28  1   
 12   6  10  1   
 13   6  11  1   
 14   6  29  1   
 15   7  12  ar  
 16   7  30  1   
 17   8  13  1   
 18   8  14  1   
 19   8  31  1   
 20   9  12  ar  
 21   9  15  1   
 22  10  32  1   
 23  11  16  1   
 24  11  33  1   
 25  11  34  1   
 26  12  35  1   
 27  13  36  1   
 28  13  37  1   
 29  13  38  1   
 30  14  39  1   
 31  14  40  1   
 32  14  41  1   
 33  15  42  1   
 34  15  43  1   
 35  15  44  1   
 36  16  17  1   
 37  16  18  1   
 38  16  45  1   
 39  17  19  1   
 40  17  46  1   
 41  17  47  1   
 42  18  20  1   
 43  18  48  1   
 44  18  49  1   
 45  19  21  ar  
 46  19  22  ar  
 47  20  21  1   
 48  20  50  1   
 49  20  51  1   
 50  21  23  ar  
 51  22  24  ar  
 52  22  52  1   
 53  23  25  ar  
 54  23  53  1   
 55  24  25  ar  
 56  24  54  1   
 57  25  55  1   
@<TRIPOS>SUBSTRUCTURE
  1 ****  11 GROUP 4 **** **** 0

# MOE 2024.06 (io_trps.svl 2023.06)
