@<TRIPOS>MOLECULE
NONAME
43 45 1 0 0 
SMALL
USER_CHARGES


@<TRIPOS>ATOM
  1 O       -0.7060    -0.3770    -0.8590 O.2   1 <1>  -0.5700 
  2 C       -1.0550    -1.5420    -0.9000 C.2   1 <1>   0.6900 
  3 N       -2.3190    -1.8710    -1.3140 N.am  1 <1>  -0.6600 
  4 N       -0.1990    -2.5520    -0.5670 N.am  1 <1>  -0.5470 
  5 C       -3.0650    -3.0760    -0.8250 C.3   1 <1>   0.1400 
  6 C       -3.2100    -0.8490    -1.9510 C.3   1 <1>   0.1400 
  7 C        1.0690    -2.5490     0.0300 C.ar  1 <1>   0.1170 
  8 C       -4.2450    -2.6790     0.0800 C.3   1 <1>   0.2090 
  9 C       -4.3740    -0.4660    -1.0230 C.3   1 <1>   0.2090 
 10 C        1.8710    -3.6740    -0.1110 C.ar  1 <1>  -0.1500 
 11 C        1.5560    -1.4810     0.7770 C.ar  1 <1>  -0.1500 
 12 N       -5.1300    -1.6790    -0.5910 N.pl3 1 <1>  -0.8380 
 13 C        3.1250    -3.7410     0.4690 C.ar  1 <1>   0.0820 
 14 C        2.8090    -1.5350     1.3600 C.ar  1 <1>  -0.1500 
 15 C       -6.3960    -1.4770    -0.0740 C.ar  1 <1>   0.4100 
 16 O        3.8260    -4.8860     0.2720 O.3   1 <1>  -0.3630 
 17 C        3.5980    -2.6610     1.2100 C.ar  1 <1>  -0.1500 
 18 N       -6.5690    -1.6920     1.2260 N.ar  1 <1>  -0.6200 
 19 C       -7.4220    -1.0590    -0.9190 C.ar  1 <1>  -0.1500 
 20 C        5.1250    -5.0470     0.7960 C.3   1 <1>   0.0400 
 21 C       -7.7880    -1.4790     1.6910 C.ar  1 <1>   0.1600 
 22 C       -8.6860    -0.8410    -0.4220 C.ar  1 <1>  -0.1500 
 23 C       -8.8640    -1.0600     0.9290 C.ar  1 <1>  -0.1500 
 24 H       -0.5060    -3.4470    -0.9280 H     1 <1>   0.3700 
 25 H       -2.4190    -3.7320    -0.2710 H     1 <1>   0.0800 
 26 H       -3.4460    -3.6200    -1.6710 H     1 <1>   0.0800 
 27 H       -3.6090    -1.2530    -2.8630 H     1 <1>   0.0800 
 28 H       -2.6510     0.0360    -2.2030 H     1 <1>   0.0800 
 29 H       -3.8680    -2.2610     0.9980 H     1 <1>   0.0800 
 30 H       -4.8200    -3.5550     0.3260 H     1 <1>   0.0800 
 31 H       -5.0320     0.2130    -1.5360 H     1 <1>   0.0800 
 32 H       -3.9850     0.0400    -0.1550 H     1 <1>   0.0800 
 33 H        1.5260    -4.5150    -0.6800 H     1 <1>   0.1500 
 34 H        0.9540    -0.6000     0.9090 H     1 <1>   0.1500 
 35 H        3.1680    -0.6960     1.9310 H     1 <1>   0.1500 
 36 H        4.5670    -2.6790     1.6720 H     1 <1>   0.1500 
 37 H       -7.2090    -0.9190    -1.9600 H     1 <1>   0.1500 
 38 H        5.4840    -6.0170     0.5060 H     1 <1>   0.0800 
 39 H        5.0800    -4.9780     1.8680 H     1 <1>   0.0800 
 40 H        5.7630    -4.2830     0.3860 H     1 <1>   0.0800 
 41 H       -7.9380    -1.6480     2.7430 H     1 <1>   0.1500 
 42 H       -9.4960    -0.5180    -1.0530 H     1 <1>   0.1500 
 43 H       -9.8250    -0.9090     1.3850 H     1 <1>   0.1500 
@<TRIPOS>BOND
  1   1   2  2   
  2   2   3  am  
  3   2   4  am  
  4   3   5  1   
  5   3   6  1   
  6   4   7  1   
  7   4  24  1   
  8   5   8  1   
  9   5  25  1   
 10   5  26  1   
 11   6   9  1   
 12   6  27  1   
 13   6  28  1   
 14   7  10  ar  
 15   7  11  ar  
 16   8  12  1   
 17   8  29  1   
 18   8  30  1   
 19   9  12  1   
 20   9  31  1   
 21   9  32  1   
 22  10  13  ar  
 23  10  33  1   
 24  11  14  ar  
 25  11  34  1   
 26  12  15  1   
 27  13  16  1   
 28  13  17  ar  
 29  14  17  ar  
 30  14  35  1   
 31  15  18  ar  
 32  15  19  ar  
 33  16  20  1   
 34  17  36  1   
 35  18  21  ar  
 36  19  22  ar  
 37  19  37  1   
 38  20  38  1   
 39  20  39  1   
 40  20  40  1   
 41  21  23  ar  
 42  21  41  1   
 43  22  23  ar  
 44  22  42  1   
 45  23  43  1   
@<TRIPOS>SUBSTRUCTURE
  1 ****   3 GROUP 4 **** **** 0

# MOE 2024.06 (io_trps.svl 2023.06)
