@<TRIPOS>MOLECULE
NONAME
43 45 1 0 0 
SMALL
USER_CHARGES


@<TRIPOS>ATOM
  1 O        0.6080     0.8600     3.3430 O.2   1 <1>  -0.5700 
  2 C        0.3750     1.5960     2.4110 C.2   1 <1>   0.5690 
  3 N        1.3140     1.8310     1.4360 N.am  1 <1>  -0.6600 
  4 C       -0.9990     2.2570     2.3810 C.3   1 <1>   0.0440 
  5 C        1.1190     2.6960     0.2260 C.3   1 <1>   0.1400 
  6 C        2.6560     1.1680     1.4690 C.3   1 <1>   0.1400 
  7 C       -1.8550     1.8570     1.1800 C.ar  1 <1>  -0.1440 
  8 C        2.2760     3.6960     0.0510 C.3   1 <1>   0.2090 
  9 C        3.7950     2.1870     1.2970 C.3   1 <1>   0.2090 
 10 C       -2.5710     2.8150     0.4790 C.ar  1 <1>  -0.1500 
 11 C       -1.9290     0.5320     0.7780 C.ar  1 <1>  -0.1500 
 12 N        3.6040     3.0100     0.0680 N.pl3 1 <1>  -0.8380 
 13 C       -3.3420     2.4540    -0.6130 C.ar  1 <1>  -0.1500 
 14 C       -2.6990     0.1720    -0.3130 C.ar  1 <1>  -0.1500 
 15 C        4.7020     3.7290    -0.3600 C.ar  1 <1>   0.4100 
 16 C       -3.4100     1.1310    -1.0150 C.ar  1 <1>  -0.1440 
 17 N        4.7200     5.0310    -0.0960 N.ar  1 <1>  -0.6200 
 18 C        5.7310     3.0700    -1.0270 C.ar  1 <1>  -0.1500 
 19 C       -4.2540     0.7350    -2.2130 C.3   1 <1>  -0.0970 
 20 C        5.7930     5.6860    -0.5060 C.ar  1 <1>   0.1600 
 21 C        6.8410     3.7640    -1.4480 C.ar  1 <1>  -0.1500 
 22 C        6.8630     5.1160    -1.1730 C.ar  1 <1>  -0.1500 
 23 H       -0.8590     3.3210     2.4040 H     1 <1>   0.0800 
 24 H       -1.5280     1.9850     3.2760 H     1 <1>   0.0800 
 25 H        0.2020     3.2480     0.2870 H     1 <1>   0.0800 
 26 H        1.0670     2.0680    -0.6460 H     1 <1>   0.0800 
 27 H        2.7090     0.4470     0.6730 H     1 <1>   0.0800 
 28 H        2.7970     0.6430     2.3980 H     1 <1>   0.0800 
 29 H        2.2420     4.4230     0.8430 H     1 <1>   0.0800 
 30 H        2.1600     4.2180    -0.8830 H     1 <1>   0.0800 
 31 H        4.7340     1.6650     1.2410 H     1 <1>   0.0800 
 32 H        3.8260     2.8350     2.1560 H     1 <1>   0.0800 
 33 H       -2.5370     3.8480     0.7780 H     1 <1>   0.1500 
 34 H       -1.3850    -0.2290     1.3130 H     1 <1>   0.1500 
 35 H       -3.8900     3.2100    -1.1480 H     1 <1>   0.1500 
 36 H       -2.7430    -0.8600    -0.6130 H     1 <1>   0.1500 
 37 H        5.6350     2.0170    -1.2080 H     1 <1>   0.1500 
 38 H       -3.6550     0.7630    -3.1050 H     1 <1>   0.0800 
 39 H       -5.0840     1.4090    -2.3290 H     1 <1>   0.0800 
 40 H       -4.6420    -0.2600    -2.0850 H     1 <1>   0.0800 
 41 H        5.8220     6.7420    -0.2980 H     1 <1>   0.1500 
 42 H        7.6500     3.2800    -1.9670 H     1 <1>   0.1500 
 43 H        7.7000     5.7210    -1.4730 H     1 <1>   0.1500 
@<TRIPOS>BOND
  1   1   2  2   
  2   2   3  am  
  3   2   4  1   
  4   3   5  1   
  5   3   6  1   
  6   4   7  1   
  7   4  23  1   
  8   4  24  1   
  9   5   8  1   
 10   5  25  1   
 11   5  26  1   
 12   6   9  1   
 13   6  27  1   
 14   6  28  1   
 15   7  10  ar  
 16   7  11  ar  
 17   8  12  1   
 18   8  29  1   
 19   8  30  1   
 20   9  12  1   
 21   9  31  1   
 22   9  32  1   
 23  10  13  ar  
 24  10  33  1   
 25  11  14  ar  
 26  11  34  1   
 27  12  15  1   
 28  13  16  ar  
 29  13  35  1   
 30  14  16  ar  
 31  14  36  1   
 32  15  17  ar  
 33  15  18  ar  
 34  16  19  1   
 35  17  20  ar  
 36  18  21  ar  
 37  18  37  1   
 38  19  38  1   
 39  19  39  1   
 40  19  40  1   
 41  20  22  ar  
 42  20  41  1   
 43  21  22  ar  
 44  21  42  1   
 45  22  43  1   
@<TRIPOS>SUBSTRUCTURE
  1 ****   5 GROUP 4 **** **** 0

# MOE 2024.06 (io_trps.svl 2023.06)
