@<TRIPOS>MOLECULE
NONAME
42 44 1 0 0 
SMALL
USER_CHARGES


@<TRIPOS>ATOM
  1 S        4.4140     1.1650    -0.7030 S.o2  1 <1>   1.4470 
  2 O        4.6480     1.0830    -2.1290 O.2   1 <1>  -0.6500 
  3 O        4.4390    -0.0430     0.0930 O.2   1 <1>  -0.6500 
  4 N        5.5650     2.2360    -0.0650 N.am  1 <1>  -0.8490 
  5 C        2.8410     2.0120    -0.3830 C.ar  1 <1>  -0.0090 
  6 C        6.8660     1.5790     0.0980 C.3   1 <1>   0.1960 
  7 C        5.6610     3.4860    -0.8300 C.3   1 <1>   0.1960 
  8 C        2.4430     2.3010     0.9150 C.ar  1 <1>  -0.1500 
  9 C        1.9960     2.3940    -1.4180 C.ar  1 <1>  -0.1500 
 10 C        7.7720     2.3850     1.0280 C.3   1 <1>  -0.2400 
 11 C        5.2950     4.6480     0.0880 C.3   1 <1>  -0.2400 
 12 C        1.2450     2.9410     1.1750 C.ar  1 <1>  -0.1500 
 13 C        0.7970     3.0340    -1.1640 C.ar  1 <1>  -0.1500 
 14 C        0.3950     3.3130     0.1390 C.ar  1 <1>   0.0280 
 15 C       -0.8700     3.9550     0.4100 C.2   1 <1>   0.3130 
 16 N       -2.0750     3.2920     0.1000 N.pl3 1 <1>  -0.6850 
 17 C       -1.0940     5.1680     0.9590 C.2   1 <1>  -0.0490 
 18 C       -3.1700     3.9390     0.3940 C.cat 1 <1>   0.8400 
 19 C       -2.4130     1.9560    -0.4530 C.3   1 <1>   0.3290 
 20 S       -2.8350     5.4850     1.0870 S.3   1 <1>  -0.2320 
 21 N       -4.2820     3.3130     0.1330 N.pl3 1 <1>  -0.7940 
 22 C       -3.9700     1.9740    -0.4390 C.3   1 <1>   0.3290 
 23 H        7.3340     1.4340    -0.8620 H     1 <1>   0.0800 
 24 H        6.7280     0.6080     0.5460 H     1 <1>   0.0800 
 25 H        4.9880     3.4850    -1.6720 H     1 <1>   0.0800 
 26 H        6.6550     3.6270    -1.2200 H     1 <1>   0.0800 
 27 H        3.0880     2.0170     1.7310 H     1 <1>   0.1500 
 28 H        2.2860     2.1870    -2.4360 H     1 <1>   0.1500 
 29 H        8.0540     3.3230     0.5870 H     1 <1>   0.0800 
 30 H        8.6690     1.8260     1.2230 H     1 <1>   0.0800 
 31 H        7.2730     2.5610     1.9650 H     1 <1>   0.0800 
 32 H        4.2820     4.5490     0.4320 H     1 <1>   0.0800 
 33 H        5.3830     5.5750    -0.4500 H     1 <1>   0.0800 
 34 H        5.9560     4.6820     0.9350 H     1 <1>   0.0800 
 35 H        0.9700     3.1470     2.1960 H     1 <1>   0.1500 
 36 H        0.1700     3.3240    -1.9900 H     1 <1>   0.1500 
 37 H       -0.4210     5.9300     1.3120 H     1 <1>   0.1500 
 38 H       -2.0240     1.1740     0.1770 H     1 <1>   0.0800 
 39 H       -2.0320     1.8460    -1.4540 H     1 <1>   0.0800 
 40 H       -5.2310     3.6620     0.3000 H     1 <1>   0.4500 
 41 H       -4.3600     1.1880     0.1860 H     1 <1>   0.0800 
 42 H       -4.3670     1.8800    -1.4360 H     1 <1>   0.0800 
@<TRIPOS>BOND
  1   1   2  2   
  2   1   3  2   
  3   1   4  am  
  4   1   5  1   
  5   4   6  1   
  6   4   7  1   
  7   5   8  ar  
  8   5   9  ar  
  9   6  10  1   
 10   6  23  1   
 11   6  24  1   
 12   7  11  1   
 13   7  25  1   
 14   7  26  1   
 15   8  12  ar  
 16   8  27  1   
 17   9  13  ar  
 18   9  28  1   
 19  10  29  1   
 20  10  30  1   
 21  10  31  1   
 22  11  32  1   
 23  11  33  1   
 24  11  34  1   
 25  12  14  ar  
 26  12  35  1   
 27  13  14  ar  
 28  13  36  1   
 29  14  15  1   
 30  15  16  1   
 31  15  17  2   
 32  16  18  ar  
 33  16  19  1   
 34  17  20  1   
 35  17  37  1   
 36  18  20  1   
 37  18  21  ar  
 38  19  22  1   
 39  19  38  1   
 40  19  39  1   
 41  21  22  1   
 42  21  40  1   
 43  22  41  1   
 44  22  42  1   
@<TRIPOS>SUBSTRUCTURE
  1 ****  14 GROUP 4 **** **** 0

# MOE 2024.06 (io_trps.svl 2023.06)
