@<TRIPOS>MOLECULE
NONAME
41 42 1 0 0 
SMALL
USER_CHARGES


@<TRIPOS>ATOM
  1 F        1.4690     0.8350    -2.6650 F     1 <1>  -0.1900 
  2 C        2.4250     0.5480    -1.8240 C.ar  1 <1>   0.1900 
  3 C        3.7370     0.7220    -2.2190 C.ar  1 <1>  -0.1500 
  4 C        2.0880     0.0820    -0.5680 C.ar  1 <1>  -0.1500 
  5 C        4.7450     0.4150    -1.3200 C.ar  1 <1>  -0.1500 
  6 C        3.1050    -0.2220     0.3220 C.ar  1 <1>  -0.1500 
  7 C        4.4370    -0.0600    -0.0490 C.ar  1 <1>  -0.1430 
  8 C        5.5520    -0.4070     0.9350 C.3   1 <1>   0.5020 
  9 N        6.1840     0.8600     1.3360 N.am  1 <1>  -0.7300 
 10 C        6.5420    -1.4120     0.3340 C.2   1 <1>  -0.1240 
 11 C        7.4690     1.1580     1.0990 C.2   1 <1>   0.6900 
 12 C        7.8560    -1.0670     0.2010 C.2   1 <1>  -0.0290 
 13 C        5.8840    -2.6270    -0.0330 C.2   1 <1>   0.7060 
 14 O        7.9030     2.2610     1.3320 O.2   1 <1>  -0.5700 
 15 N        8.2700     0.2000     0.5770 N.am  1 <1>  -0.5390 
 16 C        9.0090    -1.9350    -0.3260 C.3   1 <1>   0.0580 
 17 O        6.1330    -3.2580    -1.0390 O.2   1 <1>  -0.5700 
 18 O        4.9150    -3.0750     0.7780 O.3   1 <1>  -0.4300 
 19 C        9.0350    -1.9720    -1.8570 C.3   1 <1>  -0.2400 
 20 C        9.0590    -3.3420     0.2860 C.3   1 <1>  -0.2400 
 21 C        4.1380    -4.2190     0.4830 C.3   1 <1>   0.1200 
 22 C        2.9720    -3.8070    -0.4150 C.3   1 <1>  -0.2400 
 23 H        3.9600     1.0880    -3.2040 H     1 <1>   0.1500 
 24 H        1.0550    -0.0390    -0.2990 H     1 <1>   0.1500 
 25 H        5.7740     0.5470    -1.6140 H     1 <1>   0.1500 
 26 H        2.8520    -0.5900     1.3020 H     1 <1>   0.1500 
 27 H        5.1220    -0.8400     1.8220 H     1 <1>   0.0800 
 28 H        5.5630     1.6360     1.5520 H     1 <1>   0.3700 
 29 H        9.2340     0.5060     0.4520 H     1 <1>   0.3700 
 30 H        9.9290    -1.4660    -0.0190 H     1 <1>   0.0800 
 31 H        8.1670    -2.4700    -2.2480 H     1 <1>   0.0800 
 32 H        9.9080    -2.4960    -2.2020 H     1 <1>   0.0800 
 33 H        9.0580    -0.9720    -2.2500 H     1 <1>   0.0800 
 34 H        8.2930    -3.9800    -0.1080 H     1 <1>   0.0800 
 35 H        8.9510    -3.2850     1.3540 H     1 <1>   0.0800 
 36 H       10.0070    -3.7990     0.0650 H     1 <1>   0.0800 
 37 H        3.7710    -4.6140     1.4140 H     1 <1>   0.0800 
 38 H        4.7580    -4.9630     0.0100 H     1 <1>   0.0800 
 39 H        2.3540    -3.0830     0.0830 H     1 <1>   0.0800 
 40 H        2.3720    -4.6680    -0.6440 H     1 <1>   0.0800 
 41 H        3.3380    -3.3950    -1.3390 H     1 <1>   0.0800 
@<TRIPOS>BOND
  1   1   2  1   
  2   2   3  ar  
  3   2   4  ar  
  4   3   5  ar  
  5   3  23  1   
  6   4   6  ar  
  7   4  24  1   
  8   5   7  ar  
  9   5  25  1   
 10   6   7  ar  
 11   6  26  1   
 12   7   8  1   
 13   8   9  1   
 14   8  10  1   
 15   8  27  1   
 16   9  11  am  
 17   9  28  1   
 18  10  12  2   
 19  10  13  1   
 20  11  14  2   
 21  11  15  am  
 22  12  15  1   
 23  12  16  1   
 24  13  17  2   
 25  13  18  1   
 26  15  29  1   
 27  16  19  1   
 28  16  20  1   
 29  16  30  1   
 30  18  21  1   
 31  19  31  1   
 32  19  32  1   
 33  19  33  1   
 34  20  34  1   
 35  20  35  1   
 36  20  36  1   
 37  21  22  1   
 38  21  37  1   
 39  21  38  1   
 40  22  39  1   
 41  22  40  1   
 42  22  41  1   
@<TRIPOS>SUBSTRUCTURE
  1 ****  10 GROUP 4 **** **** 0

# MOE 2024.06 (io_trps.svl 2023.06)
