@<TRIPOS>MOLECULE
NONAME
44 45 1 0 0 
SMALL
USER_CHARGES


@<TRIPOS>ATOM
  1 O       -0.2480     0.0980    -1.2310 O.2   1 <1>  -0.5700 
  2 C       -0.2630     1.0220    -0.4420 C.2   1 <1>   0.6900 
  3 N       -1.4190     1.5600     0.0360 N.am  1 <1>  -0.5470 
  4 N        0.8960     1.5670     0.0000 N.am  1 <1>  -0.7300 
  5 C       -2.7810     1.2490    -0.1350 C.ar  1 <1>   0.1170 
  6 C        2.2470     1.1010    -0.3660 C.3   1 <1>   0.2200 
  7 C       -3.7270     2.1610     0.3480 C.ar  1 <1>   0.0830 
  8 C       -3.2280     0.0830    -0.7460 C.ar  1 <1>  -0.1500 
  9 C        2.9880     0.5740     0.8820 C.3   1 <1>  -0.0800 
 10 C        2.9960     2.2720    -1.0120 C.3   1 <1>  -0.1600 
 11 O       -3.2530     3.2940     0.9530 O.3   1 <1>  -0.3630 
 12 C       -5.0850     1.8940     0.2050 C.ar  1 <1>  -0.1500 
 13 C       -4.5800    -0.1800    -0.8910 C.ar  1 <1>  -0.1430 
 14 C        4.4380     0.1970     0.5260 C.3   1 <1>  -0.1600 
 15 C        2.2780    -0.6410     1.5020 C.3   1 <1>  -0.2400 
 16 C        4.4420     1.8890    -1.3580 C.3   1 <1>  -0.1600 
 17 C       -4.1330     4.2900     1.4270 C.3   1 <1>   0.0400 
 18 C       -5.5060     0.7290    -0.4120 C.ar  1 <1>  -0.1500 
 19 C       -5.0390    -1.4600    -1.5650 C.3   1 <1>  -0.0970 
 20 C        5.1850     1.3710    -0.1210 C.3   1 <1>  -0.1600 
 21 H       -1.2980     2.4230     0.5570 H     1 <1>   0.3700 
 22 H        0.8670     2.2600     0.7400 H     1 <1>   0.3700 
 23 H        2.1730     0.3030    -1.0870 H     1 <1>   0.0800 
 24 H       -2.5160    -0.6320    -1.1130 H     1 <1>   0.1500 
 25 H        3.0230     1.3610     1.6150 H     1 <1>   0.0800 
 26 H        3.0080     3.1090    -0.3370 H     1 <1>   0.0800 
 27 H        2.4830     2.5650    -1.9110 H     1 <1>   0.0800 
 28 H       -5.8320     2.5740     0.5650 H     1 <1>   0.1500 
 29 H        4.4340    -0.6370    -0.1560 H     1 <1>   0.0800 
 30 H        4.9620    -0.1080     1.4160 H     1 <1>   0.0800 
 31 H        2.1900    -1.4340     0.7800 H     1 <1>   0.0800 
 32 H        1.2890    -0.3760     1.8320 H     1 <1>   0.0800 
 33 H        2.8280    -1.0060     2.3520 H     1 <1>   0.0800 
 34 H        4.9570     2.7450    -1.7580 H     1 <1>   0.0800 
 35 H        4.4350     1.1240    -2.1170 H     1 <1>   0.0800 
 36 H       -3.5440     5.0880     1.8410 H     1 <1>   0.0800 
 37 H       -4.7610     3.8670     2.1910 H     1 <1>   0.0800 
 38 H       -4.7200     4.6580     0.6040 H     1 <1>   0.0800 
 39 H       -6.5590     0.5330    -0.5170 H     1 <1>   0.1500 
 40 H       -4.3130    -1.7830    -2.2900 H     1 <1>   0.0800 
 41 H       -5.9760    -1.3060    -2.0690 H     1 <1>   0.0800 
 42 H       -5.1610    -2.2350    -0.8300 H     1 <1>   0.0800 
 43 H        6.1750     1.0550    -0.4030 H     1 <1>   0.0800 
 44 H        5.2870     2.1680     0.5950 H     1 <1>   0.0800 
@<TRIPOS>BOND
  1   1   2  2   
  2   2   3  am  
  3   2   4  am  
  4   3   5  1   
  5   3  21  1   
  6   4   6  1   
  7   4  22  1   
  8   5   7  ar  
  9   5   8  ar  
 10   6   9  1   
 11   6  10  1   
 12   6  23  1   
 13   7  11  1   
 14   7  12  ar  
 15   8  13  ar  
 16   8  24  1   
 17   9  14  1   
 18   9  15  1   
 19   9  25  1   
 20  10  16  1   
 21  10  26  1   
 22  10  27  1   
 23  11  17  1   
 24  12  18  ar  
 25  12  28  1   
 26  13  18  ar  
 27  13  19  1   
 28  14  20  1   
 29  14  29  1   
 30  14  30  1   
 31  15  31  1   
 32  15  32  1   
 33  15  33  1   
 34  16  20  1   
 35  16  34  1   
 36  16  35  1   
 37  17  36  1   
 38  17  37  1   
 39  17  38  1   
 40  18  39  1   
 41  19  40  1   
 42  19  41  1   
 43  19  42  1   
 44  20  43  1   
 45  20  44  1   
@<TRIPOS>SUBSTRUCTURE
  1 ****   2 GROUP 4 **** **** 0

# MOE 2024.06 (io_trps.svl 2023.06)
