@<TRIPOS>MOLECULE
NONAME
39 41 1 0 0 
SMALL
USER_CHARGES


@<TRIPOS>ATOM
  1 CL       0.5010    -0.6690     1.7990 Cl    1 <1>  -0.1770 
  2 C        2.1050    -0.4020     1.1670 C.ar  1 <1>   0.1770 
  3 C        2.7700    -1.4400     0.5430 C.ar  1 <1>  -0.1500 
  4 C        2.6880     0.8440     1.3010 C.ar  1 <1>  -0.1500 
  5 C        4.0430    -1.2240     0.0430 C.ar  1 <1>  -0.1500 
  6 C        3.9610     1.0550     0.7980 C.ar  1 <1>  -0.1500 
  7 C        4.6430     0.0230     0.1650 C.ar  1 <1>  -0.1430 
  8 C        6.0380     0.2490    -0.3960 C.3   1 <1>   0.2640 
  9 O        6.9480    -0.5710     0.3050 O.3   1 <1>  -0.3630 
 10 C        8.2610    -0.6220    -0.0220 C.ar  1 <1>   0.0830 
 11 C        9.0390    -1.5260     0.6810 C.ar  1 <1>  -0.1500 
 12 C        8.8520     0.1660    -1.0050 C.ar  1 <1>  -0.1500 
 13 C       10.3900    -1.6500     0.4160 C.ar  1 <1>  -0.1500 
 14 C       10.2050     0.0450    -1.2710 C.ar  1 <1>  -0.1500 
 15 C       10.9820    -0.8600    -0.5600 C.ar  1 <1>  -0.1430 
 16 C       12.4630    -0.9830    -0.8380 C.3   1 <1>   0.4860 
 17 N       13.1460    -0.0790     0.1060 N.4   1 <1>  -0.7990 
 18 C       14.6070    -0.1160    -0.0120 C.3   1 <1>   0.2960 
 19 C       15.3460    -1.1630     0.7480 C.3   1 <1>  -0.2000 
 20 C       15.4060     0.2740     1.1820 C.3   1 <1>  -0.2000 
 21 H        2.2980    -2.4020     0.4540 H     1 <1>   0.1500 
 22 H        2.1500     1.6340     1.7930 H     1 <1>   0.1500 
 23 H        4.5700    -2.0290    -0.4400 H     1 <1>   0.1500 
 24 H        4.4160     2.0240     0.9050 H     1 <1>   0.1500 
 25 H        6.3410     1.2740    -0.2710 H     1 <1>   0.0800 
 26 H        6.0670    -0.0220    -1.4360 H     1 <1>   0.0800 
 27 H        8.5700    -2.1340     1.4370 H     1 <1>   0.1500 
 28 H        8.2750     0.8750    -1.5710 H     1 <1>   0.1500 
 29 H       10.9600    -2.3710     0.9780 H     1 <1>   0.1500 
 30 H       10.6350     0.6630    -2.0420 H     1 <1>   0.1500 
 31 H       12.6760    -0.6990    -1.8560 H     1 <1>   0.0800 
 32 H       12.7850    -2.0000    -0.6850 H     1 <1>   0.0800 
 33 H       12.8660    -0.3400     1.0570 H     1 <1>   0.4500 
 34 H       12.7950     0.8740    -0.0410 H     1 <1>   0.4500 
 35 H       14.9770     0.1740    -0.9860 H     1 <1>   0.1000 
 36 H       16.2390    -1.5900     0.3240 H     1 <1>   0.1000 
 37 H       14.8190    -1.8600     1.3770 H     1 <1>   0.1000 
 38 H       14.9160     0.5530     2.0990 H     1 <1>   0.1000 
 39 H       16.3380     0.7960     1.0420 H     1 <1>   0.1000 
@<TRIPOS>BOND
  1   1   2  1   
  2   2   3  ar  
  3   2   4  ar  
  4   3   5  ar  
  5   3  21  1   
  6   4   6  ar  
  7   4  22  1   
  8   5   7  ar  
  9   5  23  1   
 10   6   7  ar  
 11   6  24  1   
 12   7   8  1   
 13   8   9  1   
 14   8  25  1   
 15   8  26  1   
 16   9  10  1   
 17  10  11  ar  
 18  10  12  ar  
 19  11  13  ar  
 20  11  27  1   
 21  12  14  ar  
 22  12  28  1   
 23  13  15  ar  
 24  13  29  1   
 25  14  15  ar  
 26  14  30  1   
 27  15  16  1   
 28  16  17  1   
 29  16  31  1   
 30  16  32  1   
 31  17  18  1   
 32  17  33  1   
 33  17  34  1   
 34  18  19  1   
 35  18  20  1   
 36  18  35  1   
 37  19  20  1   
 38  19  36  1   
 39  19  37  1   
 40  20  38  1   
 41  20  39  1   
@<TRIPOS>SUBSTRUCTURE
  1 ****  10 GROUP 4 **** **** 0

# MOE 2024.06 (io_trps.svl 2023.06)
