@<TRIPOS>MOLECULE
NONAME
52 54 1 0 0 
SMALL
USER_CHARGES


@<TRIPOS>ATOM
  1 N       -0.6250     0.6420    -1.0700 N.pl3 1 <1>  -0.8380 
  2 C       -1.4400    -0.3400    -0.5070 C.ar  1 <1>   0.1000 
  3 C       -0.4020     1.8870    -0.2830 C.3   1 <1>   0.2090 
  4 C        0.4910     0.1870    -1.9440 C.3   1 <1>   0.2090 
  5 C       -2.7210    -0.5750    -1.0080 C.ar  1 <1>  -0.1440 
  6 C       -0.9840    -1.1020     0.5650 C.ar  1 <1>  -0.1500 
  7 C        0.9880     1.9040     0.3870 C.3   1 <1>   0.3430 
  8 C        1.8500     0.2490    -1.2160 C.3   1 <1>   0.3430 
  9 C       -3.5110    -1.5560    -0.4350 C.ar  1 <1>  -0.1500 
 10 C       -3.2620     0.2350    -2.1780 C.3   1 <1>  -0.0970 
 11 C       -1.7750    -2.0810     1.1370 C.ar  1 <1>  -0.1440 
 12 N        2.1210     1.5940    -0.5710 N.4   1 <1>  -0.9590 
 13 C       -3.0430    -2.3060     0.6310 C.ar  1 <1>  -0.1500 
 14 C       -1.2790    -2.9130     2.3060 C.3   1 <1>  -0.0970 
 15 C        3.4990     1.6530     0.0230 C.3   1 <1>   0.4230 
 16 C        3.6260     2.8110     1.0360 C.3   1 <1>  -0.1600 
 17 C        4.5190     1.7570    -1.1300 C.3   1 <1>  -0.1600 
 18 C        5.0190     3.0220     1.6540 C.3   1 <1>  -0.1600 
 19 C        5.9460     1.4010    -0.6850 C.3   1 <1>  -0.1600 
 20 C        6.0280     3.6270     0.6700 C.3   1 <1>  -0.1600 
 21 C        6.7720     2.5970    -0.1910 C.3   1 <1>  -0.1600 
 22 H       -1.1640     1.9700     0.4740 H     1 <1>   0.0800 
 23 H       -0.5020     2.7360    -0.9360 H     1 <1>   0.0800 
 24 H        0.5200     0.8020    -2.8260 H     1 <1>   0.0800 
 25 H        0.3040    -0.8260    -2.2620 H     1 <1>   0.0800 
 26 H       -0.0020    -0.9260     0.9530 H     1 <1>   0.1500 
 27 H        0.9840     1.1800     1.1850 H     1 <1>   0.0800 
 28 H        1.1310     2.8760     0.8270 H     1 <1>   0.0800 
 29 H        2.6200     0.0090    -1.9280 H     1 <1>   0.0800 
 30 H        1.8570    -0.5170    -0.4600 H     1 <1>   0.0800 
 31 H       -4.5000    -1.7460    -0.8130 H     1 <1>   0.1500 
 32 H       -2.6350     0.0920    -3.0390 H     1 <1>   0.0800 
 33 H       -3.2700     1.2790    -1.9240 H     1 <1>   0.0800 
 34 H       -4.2630    -0.0650    -2.4290 H     1 <1>   0.0800 
 35 H        2.0840     2.3040    -1.3120 H     1 <1>   0.4500 
 36 H       -3.6730    -3.0640     1.0630 H     1 <1>   0.1500 
 37 H       -0.2960    -2.6050     2.6130 H     1 <1>   0.0800 
 38 H       -1.2410    -3.9510     2.0250 H     1 <1>   0.0800 
 39 H       -1.9480    -2.8050     3.1400 H     1 <1>   0.0800 
 40 H        3.6830     0.7320     0.5540 H     1 <1>   0.0800 
 41 H        2.9750     2.6130     1.8680 H     1 <1>   0.0800 
 42 H        3.3130     3.7320     0.5760 H     1 <1>   0.0800 
 43 H        4.5030     2.7410    -1.5660 H     1 <1>   0.0800 
 44 H        4.2730     1.0610    -1.9070 H     1 <1>   0.0800 
 45 H        5.4020     2.1080     2.0760 H     1 <1>   0.0800 
 46 H        4.9100     3.7180     2.4690 H     1 <1>   0.0800 
 47 H        6.4750     0.9690    -1.5180 H     1 <1>   0.0800 
 48 H        5.9130     0.6450     0.0820 H     1 <1>   0.0800 
 49 H        6.7680     4.1750     1.2310 H     1 <1>   0.0800 
 50 H        5.5360     4.3450     0.0360 H     1 <1>   0.0800 
 51 H        7.1870     3.1120    -1.0410 H     1 <1>   0.0800 
 52 H        7.6060     2.2130     0.3730 H     1 <1>   0.0800 
@<TRIPOS>BOND
  1   1   2  1   
  2   1   3  1   
  3   1   4  1   
  4   2   5  ar  
  5   2   6  ar  
  6   3   7  1   
  7   3  22  1   
  8   3  23  1   
  9   4   8  1   
 10   4  24  1   
 11   4  25  1   
 12   5   9  ar  
 13   5  10  1   
 14   6  11  ar  
 15   6  26  1   
 16   7  12  1   
 17   7  27  1   
 18   7  28  1   
 19   8  12  1   
 20   8  29  1   
 21   8  30  1   
 22   9  13  ar  
 23   9  31  1   
 24  10  32  1   
 25  10  33  1   
 26  10  34  1   
 27  11  13  ar  
 28  11  14  1   
 29  12  15  1   
 30  12  35  1   
 31  13  36  1   
 32  14  37  1   
 33  14  38  1   
 34  14  39  1   
 35  15  16  1   
 36  15  17  1   
 37  15  40  1   
 38  16  18  1   
 39  16  41  1   
 40  16  42  1   
 41  17  19  1   
 42  17  43  1   
 43  17  44  1   
 44  18  20  1   
 45  18  45  1   
 46  18  46  1   
 47  19  21  1   
 48  19  47  1   
 49  19  48  1   
 50  20  21  1   
 51  20  49  1   
 52  20  50  1   
 53  21  51  1   
 54  21  52  1   
@<TRIPOS>SUBSTRUCTURE
  1 ****   8 GROUP 4 **** **** 0

# MOE 2024.06 (io_trps.svl 2023.06)
