@<TRIPOS>MOLECULE
NONAME
29 30 1 0 0 
SMALL
USER_CHARGES


@<TRIPOS>ATOM
  1 O       -0.6880     0.3030    -0.8480 O.3   1 <1>  -0.6800 
  2 C       -1.6610     0.8500    -0.0260 C.3   1 <1>   0.1200 
  3 C       -3.0120     0.1680    -0.2880 C.3   1 <1>  -0.0800 
  4 C       -4.0930     0.8360     0.5770 C.3   1 <1>   0.2090 
  5 C       -2.9580    -1.3510    -0.0310 C.3   1 <1>  -0.1600 
  6 N       -5.4110     0.1630     0.3880 N.pl3 1 <1>  -0.8380 
  7 C       -4.3460    -1.9790    -0.2210 C.3   1 <1>  -0.1600 
  8 C       -6.5710     0.8600     0.1120 C.ar  1 <1>   0.7200 
  9 C       -5.4000    -1.3020     0.6570 C.3   1 <1>   0.2090 
 10 N       -7.6190     0.1570    -0.3190 N.ar  1 <1>  -0.6200 
 11 N       -6.5490     2.1800     0.3030 N.ar  1 <1>  -0.6200 
 12 C       -8.7110     0.8320    -0.5770 C.ar  1 <1>   0.1600 
 13 C       -7.6560     2.8290     0.0380 C.ar  1 <1>   0.1600 
 14 C       -8.7850     2.1930    -0.4130 C.ar  1 <1>  -0.1500 
 15 H        0.1730     0.7430    -0.7100 H     1 <1>   0.4000 
 16 H       -1.7240     1.9040    -0.2420 H     1 <1>   0.0800 
 17 H       -1.3550     0.7100     0.9960 H     1 <1>   0.0800 
 18 H       -3.2760     0.3410    -1.3170 H     1 <1>   0.0800 
 19 H       -4.1510     1.8770     0.3120 H     1 <1>   0.0800 
 20 H       -3.8240     0.7730     1.6170 H     1 <1>   0.0800 
 21 H       -2.6150    -1.5370     0.9720 H     1 <1>   0.0800 
 22 H       -2.2640    -1.8120    -0.7120 H     1 <1>   0.0800 
 23 H       -4.3060    -3.0270     0.0170 H     1 <1>   0.0800 
 24 H       -4.6490    -1.8870    -1.2500 H     1 <1>   0.0800 
 25 H       -6.3610    -1.7480     0.4680 H     1 <1>   0.0800 
 26 H       -5.1650    -1.4610     1.6950 H     1 <1>   0.0800 
 27 H       -9.5690     0.2850    -0.9290 H     1 <1>   0.1500 
 28 H       -7.6620     3.8960     0.1850 H     1 <1>   0.1500 
 29 H       -9.6860     2.7350    -0.6270 H     1 <1>   0.1500 
@<TRIPOS>BOND
  1   1   2  1   
  2   1  15  1   
  3   2   3  1   
  4   2  16  1   
  5   2  17  1   
  6   3   4  1   
  7   3   5  1   
  8   3  18  1   
  9   4   6  1   
 10   4  19  1   
 11   4  20  1   
 12   5   7  1   
 13   5  21  1   
 14   5  22  1   
 15   6   8  1   
 16   6   9  1   
 17   7   9  1   
 18   7  23  1   
 19   7  24  1   
 20   8  10  ar  
 21   8  11  ar  
 22   9  25  1   
 23   9  26  1   
 24  10  12  ar  
 25  11  13  ar  
 26  12  14  ar  
 27  12  27  1   
 28  13  14  ar  
 29  13  28  1   
 30  14  29  1   
@<TRIPOS>SUBSTRUCTURE
  1 ****   6 GROUP 4 **** **** 0

# MOE 2024.06 (io_trps.svl 2023.06)
