@<TRIPOS>MOLECULE
NONAME
47 48 1 0 0 
SMALL
USER_CHARGES


@<TRIPOS>ATOM
  1 O       -7.8230     0.9810     0.5530 O.3   1 <1>  -0.5600 
  2 C       -7.5660    -0.3060     1.0550 C.3   1 <1>   0.4870 
  3 C       -7.4580     2.0470     1.3840 C.3   1 <1>   0.1200 
  4 C       -6.0520    -0.5210     0.9450 C.ar  1 <1>  -0.1440 
  5 C       -8.3690    -1.3420     0.2590 C.ar  1 <1>  -0.1440 
  6 C       -6.8030     3.1550     0.5430 C.3   1 <1>   0.3430 
  7 C       -5.4640    -0.7430    -0.2920 C.ar  1 <1>  -0.1500 
  8 C       -5.2480    -0.4930     2.0770 C.ar  1 <1>  -0.1500 
  9 C       -8.0160    -2.6850     0.3300 C.ar  1 <1>  -0.1500 
 10 C       -9.4600    -0.9840    -0.5260 C.ar  1 <1>  -0.1500 
 11 N       -5.8490     2.5890    -0.4700 N.4   1 <1>  -0.9590 
 12 C       -4.0960    -0.9150    -0.4020 C.ar  1 <1>  -0.1500 
 13 C       -3.8790    -0.6660     1.9690 C.ar  1 <1>  -0.1500 
 14 C       -8.7250    -3.6430    -0.3740 C.ar  1 <1>  -0.1500 
 15 C      -10.1700    -1.9410    -1.2310 C.ar  1 <1>  -0.1500 
 16 C       -4.5530     3.3180    -0.5120 C.3   1 <1>   0.3430 
 17 C       -6.5410     2.5010    -1.7880 C.3   1 <1>   0.3430 
 18 C       -3.3020    -0.8740     0.7290 C.ar  1 <1>  -0.1500 
 19 C       -9.8020    -3.2710    -1.1570 C.ar  1 <1>  -0.1500 
 20 C       -3.7720     3.0620     0.7720 C.3   1 <1>  -0.2400 
 21 C       -5.6470     1.8790    -2.8570 C.3   1 <1>  -0.2400 
 22 H       -7.8880    -0.3440     2.0810 H     1 <1>   0.0800 
 23 H       -6.7650     1.7200     2.1390 H     1 <1>   0.0800 
 24 H       -8.3450     2.4160     1.8700 H     1 <1>   0.0800 
 25 H       -6.2910     3.8310     1.2060 H     1 <1>   0.0800 
 26 H       -7.5740     3.7180     0.0440 H     1 <1>   0.0800 
 27 H       -6.0800    -0.7990    -1.1750 H     1 <1>   0.1500 
 28 H       -5.6790    -0.3440     3.0530 H     1 <1>   0.1500 
 29 H       -7.1820    -2.9990     0.9330 H     1 <1>   0.1500 
 30 H       -9.7740     0.0430    -0.5960 H     1 <1>   0.1500 
 31 H       -5.6630     1.6110    -0.1800 H     1 <1>   0.4500 
 32 H       -3.6480    -1.0950    -1.3650 H     1 <1>   0.1500 
 33 H       -3.2610    -0.6490     2.8510 H     1 <1>   0.1500 
 34 H       -8.4370    -4.6780    -0.3130 H     1 <1>   0.1500 
 35 H      -11.0120    -1.6510    -1.8360 H     1 <1>   0.1500 
 36 H       -4.7220     4.3750    -0.6440 H     1 <1>   0.0800 
 37 H       -3.9610     2.9660    -1.3410 H     1 <1>   0.0800 
 38 H       -6.8520     3.4820    -2.1080 H     1 <1>   0.0800 
 39 H       -7.4240     1.8910    -1.6770 H     1 <1>   0.0800 
 40 H       -2.2370    -1.0160     0.6480 H     1 <1>   0.1500 
 41 H      -10.3530    -4.0160    -1.7050 H     1 <1>   0.1500 
 42 H       -4.2670     3.4730     1.6320 H     1 <1>   0.0800 
 43 H       -2.8070     3.5320     0.6950 H     1 <1>   0.0800 
 44 H       -3.6140     2.0080     0.9120 H     1 <1>   0.0800 
 45 H       -4.8690     2.5560    -3.1590 H     1 <1>   0.0800 
 46 H       -6.2420     1.6660    -3.7270 H     1 <1>   0.0800 
 47 H       -5.2150     0.9570    -2.5180 H     1 <1>   0.0800 
@<TRIPOS>BOND
  1   1   2  1   
  2   1   3  1   
  3   2   4  1   
  4   2   5  1   
  5   2  22  1   
  6   3   6  1   
  7   3  23  1   
  8   3  24  1   
  9   4   7  ar  
 10   4   8  ar  
 11   5   9  ar  
 12   5  10  ar  
 13   6  11  1   
 14   6  25  1   
 15   6  26  1   
 16   7  12  ar  
 17   7  27  1   
 18   8  13  ar  
 19   8  28  1   
 20   9  14  ar  
 21   9  29  1   
 22  10  15  ar  
 23  10  30  1   
 24  11  16  1   
 25  11  17  1   
 26  11  31  1   
 27  12  18  ar  
 28  12  32  1   
 29  13  18  ar  
 30  13  33  1   
 31  14  19  ar  
 32  14  34  1   
 33  15  19  ar  
 34  15  35  1   
 35  16  20  1   
 36  16  36  1   
 37  16  37  1   
 38  17  21  1   
 39  17  38  1   
 40  17  39  1   
 41  18  40  1   
 42  19  41  1   
 43  20  42  1   
 44  20  43  1   
 45  20  44  1   
 46  21  45  1   
 47  21  46  1   
 48  21  47  1   
@<TRIPOS>SUBSTRUCTURE
  1 ****   4 GROUP 4 **** **** 0

# MOE 2024.06 (io_trps.svl 2023.06)
