@<TRIPOS>MOLECULE
NONAME
40 41 1 0 0 
SMALL
USER_CHARGES


@<TRIPOS>ATOM
  1 O        0.1040    -1.8030     0.1260 O.3   1 <1>  -0.3630 
  2 C       -1.2070    -2.1410     0.2180 C.ar  1 <1>   0.0830 
  3 C        0.4950    -0.4990    -0.2520 C.3   1 <1>   0.1200 
  4 C       -2.2540    -1.2510     0.0000 C.ar  1 <1>  -0.1500 
  5 C       -1.4910    -3.4570     0.5500 C.ar  1 <1>  -0.1500 
  6 C        2.0280    -0.4440    -0.2870 C.3   1 <1>   0.2000 
  7 C       -3.5680    -1.6740     0.1110 C.ar  1 <1>   0.0830 
  8 C       -2.8020    -3.8850     0.6630 C.ar  1 <1>  -0.1500 
  9 O        2.5280    -0.9260     0.9240 O.3   1 <1>  -0.6800 
 10 C        2.5680     0.9840    -0.5200 C.3   1 <1>   0.3430 
 11 O       -4.5270    -0.7410    -0.1190 O.3   1 <1>  -0.3620 
 12 C       -3.8420    -2.9980     0.4450 C.ar  1 <1>  -0.1500 
 13 N        3.9770     1.0930    -0.0290 N.4   1 <1>  -0.9590 
 14 C       -5.8970    -1.0610    -0.0250 C.3   1 <1>   0.0400 
 15 C        4.4260     2.4600     0.3130 C.3   1 <1>   0.3430 
 16 C        5.0000     0.5090    -0.9250 C.3   1 <1>   0.3430 
 17 C        5.9450     2.3530     0.3670 C.3   1 <1>  -0.1600 
 18 C        6.3130     1.0860    -0.4140 C.3   1 <1>  -0.1600 
 19 H        0.1040     0.1960     0.4710 H     1 <1>   0.0800 
 20 H        0.0830    -0.2900    -1.2250 H     1 <1>   0.0800 
 21 H       -2.0870    -0.2250    -0.2570 H     1 <1>   0.1500 
 22 H       -0.6820    -4.1450     0.7180 H     1 <1>   0.1500 
 23 H        2.3810    -1.0940    -1.0690 H     1 <1>   0.0800 
 24 H       -3.0120    -4.9090     0.9210 H     1 <1>   0.1500 
 25 H        1.9980    -1.7170     1.1840 H     1 <1>   0.4000 
 26 H        1.9480     1.6680     0.0350 H     1 <1>   0.0800 
 27 H        2.5030     1.2470    -1.5620 H     1 <1>   0.0800 
 28 H       -4.8500    -3.3550     0.5380 H     1 <1>   0.1500 
 29 H        3.9810     0.5140     0.8330 H     1 <1>   0.4500 
 30 H       -6.4630    -0.1730    -0.2440 H     1 <1>   0.0800 
 31 H       -6.1110    -1.3930     0.9760 H     1 <1>   0.0800 
 32 H       -6.1280    -1.8270    -0.7440 H     1 <1>   0.0800 
 33 H        4.0150     2.7920     1.2530 H     1 <1>   0.0800 
 34 H        4.1410     3.1450    -0.4690 H     1 <1>   0.0800 
 35 H        4.8320     0.8370    -1.9380 H     1 <1>   0.0800 
 36 H        4.9950    -0.5690    -0.8850 H     1 <1>   0.0800 
 37 H        6.2670     2.2690     1.3910 H     1 <1>   0.0800 
 38 H        6.3970     3.2310    -0.0610 H     1 <1>   0.0800 
 39 H        6.9760     1.2990    -1.2350 H     1 <1>   0.0800 
 40 H        6.7920     0.3730     0.2350 H     1 <1>   0.0800 
@<TRIPOS>BOND
  1   1   2  1   
  2   1   3  1   
  3   2   4  ar  
  4   2   5  ar  
  5   3   6  1   
  6   3  19  1   
  7   3  20  1   
  8   4   7  ar  
  9   4  21  1   
 10   5   8  ar  
 11   5  22  1   
 12   6   9  1   
 13   6  10  1   
 14   6  23  1   
 15   7  11  1   
 16   7  12  ar  
 17   8  12  ar  
 18   8  24  1   
 19   9  25  1   
 20  10  13  1   
 21  10  26  1   
 22  10  27  1   
 23  11  14  1   
 24  12  28  1   
 25  13  15  1   
 26  13  16  1   
 27  13  29  1   
 28  14  30  1   
 29  14  31  1   
 30  14  32  1   
 31  15  17  1   
 32  15  33  1   
 33  15  34  1   
 34  16  18  1   
 35  16  35  1   
 36  16  36  1   
 37  17  18  1   
 38  17  37  1   
 39  17  38  1   
 40  18  39  1   
 41  18  40  1   
@<TRIPOS>SUBSTRUCTURE
  1 ****   3 GROUP 4 **** **** 0

# MOE 2024.06 (io_trps.svl 2023.06)
