@<TRIPOS>MOLECULE
NONAME
43 44 1 0 0 
SMALL
USER_CHARGES


@<TRIPOS>ATOM
  1 O       -0.3720    -0.4920    -0.2220 O.2   1 <1>  -0.5700 
  2 C       -0.8400    -1.5520     0.1500 C.2   1 <1>   0.5440 
  3 N        0.0120    -2.5980     0.4370 N.am  1 <1>  -0.6600 
  4 C       -2.2780    -1.6890     0.2690 C.ar  1 <1>   0.0860 
  5 C       -0.4650    -4.0150     0.5200 C.3   1 <1>   0.1400 
  6 C        1.4970    -2.4560     0.3380 C.3   1 <1>   0.1400 
  7 C       -3.1140    -1.4090    -0.8120 C.ar  1 <1>  -0.1500 
  8 C       -2.8820    -2.0980     1.4590 C.ar  1 <1>  -0.1500 
  9 C        0.6830    -5.0370     0.3670 C.3   1 <1>   0.2000 
 10 C        2.0970    -3.4350    -0.7010 C.3   1 <1>   0.2000 
 11 C       -4.4870    -1.5480    -0.7230 C.ar  1 <1>  -0.1500 
 12 C       -4.2530    -2.2420     1.5560 C.ar  1 <1>  -0.1500 
 13 O        1.4790    -4.6980    -0.7270 O.3   1 <1>  -0.5600 
 14 C        0.1660    -6.4520     0.1220 C.3   1 <1>  -0.2400 
 15 C        3.5890    -3.6700    -0.4720 C.3   1 <1>  -0.2400 
 16 C       -5.0690    -1.9730     0.4690 C.ar  1 <1>   0.0830 
 17 O       -6.3990    -2.1410     0.6540 O.3   1 <1>  -0.3630 
 18 C       -7.3660    -1.9030    -0.3450 C.3   1 <1>   0.2000 
 19 C       -8.6960    -1.6680     0.3670 C.3   1 <1>  -0.2400 
 20 C       -7.4420    -3.1260    -1.2620 C.3   1 <1>  -0.2400 
 21 H       -1.1890    -4.1880    -0.2580 H     1 <1>   0.0800 
 22 H       -0.9490    -4.1750     1.4670 H     1 <1>   0.0800 
 23 H        1.9240    -2.6530     1.3050 H     1 <1>   0.0800 
 24 H        1.7730    -1.4510     0.0710 H     1 <1>   0.0800 
 25 H       -2.6660    -1.0740    -1.7320 H     1 <1>   0.1500 
 26 H       -2.2620    -2.2990     2.3150 H     1 <1>   0.1500 
 27 H        1.3020    -5.0320     1.2470 H     1 <1>   0.0800 
 28 H        1.9580    -3.0110    -1.6810 H     1 <1>   0.0800 
 29 H       -5.0830    -1.3230    -1.5860 H     1 <1>   0.1500 
 30 H       -4.7050    -2.5600     2.4780 H     1 <1>   0.1500 
 31 H       -0.4190    -6.4850    -0.7790 H     1 <1>   0.0800 
 32 H       -0.4450    -6.7710     0.9460 H     1 <1>   0.0800 
 33 H        0.9960    -7.1300     0.0300 H     1 <1>   0.0800 
 34 H        3.7550    -4.1230     0.4880 H     1 <1>   0.0800 
 35 H        4.1180    -2.7350    -0.5100 H     1 <1>   0.0800 
 36 H        3.9770    -4.3130    -1.2410 H     1 <1>   0.0800 
 37 H       -7.0960    -1.0140    -0.8880 H     1 <1>   0.0800 
 38 H       -8.9690    -2.5310     0.9470 H     1 <1>   0.0800 
 39 H       -9.4710    -1.4750    -0.3520 H     1 <1>   0.0800 
 40 H       -8.6160    -0.8150     1.0170 H     1 <1>   0.0800 
 41 H       -7.7030    -4.0000    -0.6940 H     1 <1>   0.0800 
 42 H       -6.5000    -3.2930    -1.7510 H     1 <1>   0.0800 
 43 H       -8.1910    -2.9710    -2.0170 H     1 <1>   0.0800 
@<TRIPOS>BOND
  1   1   2  2   
  2   2   3  am  
  3   2   4  1   
  4   3   5  1   
  5   3   6  1   
  6   4   7  ar  
  7   4   8  ar  
  8   5   9  1   
  9   5  21  1   
 10   5  22  1   
 11   6  10  1   
 12   6  23  1   
 13   6  24  1   
 14   7  11  ar  
 15   7  25  1   
 16   8  12  ar  
 17   8  26  1   
 18   9  13  1   
 19   9  14  1   
 20   9  27  1   
 21  10  13  1   
 22  10  15  1   
 23  10  28  1   
 24  11  16  ar  
 25  11  29  1   
 26  12  16  ar  
 27  12  30  1   
 28  14  31  1   
 29  14  32  1   
 30  14  33  1   
 31  15  34  1   
 32  15  35  1   
 33  15  36  1   
 34  16  17  1   
 35  17  18  1   
 36  18  19  1   
 37  18  20  1   
 38  18  37  1   
 39  19  38  1   
 40  19  39  1   
 41  19  40  1   
 42  20  41  1   
 43  20  42  1   
 44  20  43  1   
@<TRIPOS>SUBSTRUCTURE
  1 ****   4 GROUP 4 **** **** 0

# MOE 2024.06 (io_trps.svl 2023.06)
