@<TRIPOS>MOLECULE
NONAME
55 57 1 0 0 
SMALL
USER_CHARGES


@<TRIPOS>ATOM
  1 O       -4.2900    -0.3010    -2.0200 O.3   1 <1>  -0.3630 
  2 C       -4.0370     0.4030    -0.8790 C.ar  1 <1>   0.0820 
  3 C       -5.4250    -1.1290    -2.1220 C.3   1 <1>   0.1200 
  4 C       -2.8110     1.0550    -0.7880 C.ar  1 <1>   0.0820 
  5 C       -4.9290     0.5030     0.1840 C.ar  1 <1>  -0.1500 
  6 C       -5.3680    -1.8420    -3.4690 C.3   1 <1>  -0.2400 
  7 O       -1.9450     0.9700    -1.8120 O.3   1 <1>  -0.5320 
  8 C       -2.4720     1.7840     0.3350 C.ar  1 <1>  -0.1500 
  9 C       -4.5990     1.2390     1.3150 C.ar  1 <1>  -0.1440 
 10 C       -3.3660     1.8750     1.3880 C.ar  1 <1>  -0.1500 
 11 C       -5.5950     1.3560     2.4590 C.3   1 <1>   0.2530 
 12 N       -6.8110     2.0600     2.0050 N.3   1 <1>  -0.8100 
 13 C       -7.8680     2.0640     3.0400 C.3   1 <1>   0.1100 
 14 C       -6.5180     3.4440     1.5470 C.3   1 <1>   0.1100 
 15 C       -9.1750     2.7260     2.5330 C.3   1 <1>   0.3430 
 16 C       -7.7920     4.2160     1.1270 C.3   1 <1>   0.3430 
 17 N       -8.9950     3.3250     1.1680 N.4   1 <1>  -0.9590 
 18 C      -10.2090     3.9330     0.5890 C.3   1 <1>   0.4810 
 19 C      -11.1680     2.8120     0.2730 C.2   1 <1>  -0.2880 
 20 C      -11.4200     2.3490    -0.9630 C.2   1 <1>  -0.1780 
 21 C      -12.3160     1.2800    -1.3500 C.ar  1 <1>   0.0280 
 22 C      -12.2900     0.7900    -2.6540 C.ar  1 <1>  -0.1500 
 23 C      -13.2260     0.7030    -0.4650 C.ar  1 <1>  -0.1500 
 24 C      -13.1280    -0.2340    -3.0580 C.ar  1 <1>  -0.1500 
 25 C      -14.0650    -0.3220    -0.8620 C.ar  1 <1>  -0.1500 
 26 C      -14.0170    -0.7940    -2.1610 C.ar  1 <1>  -0.1500 
 27 H       -5.4040    -1.8400    -1.3140 H     1 <1>   0.0800 
 28 H       -6.3050    -0.5130    -2.0560 H     1 <1>   0.0800 
 29 H       -5.8880     0.0220     0.1510 H     1 <1>   0.1500 
 30 H       -4.4790    -2.4430    -3.5310 H     1 <1>   0.0800 
 31 H       -5.3740    -1.1240    -4.2700 H     1 <1>   0.0800 
 32 H       -6.2230    -2.4840    -3.5780 H     1 <1>   0.0800 
 33 H       -2.3350     0.4130    -2.5150 H     1 <1>   0.4500 
 34 H       -1.5140     2.2710     0.3790 H     1 <1>   0.1500 
 35 H       -3.0930     2.4430     2.2590 H     1 <1>   0.1500 
 36 H       -5.1500     1.8790     3.2890 H     1 <1>   0.0800 
 37 H       -5.8540     0.3630     2.7890 H     1 <1>   0.0800 
 38 H       -8.0870     1.0520     3.3360 H     1 <1>   0.0800 
 39 H       -7.5210     2.5890     3.9150 H     1 <1>   0.0800 
 40 H       -6.0130     3.9920     2.3250 H     1 <1>   0.0800 
 41 H       -5.8530     3.4080     0.7000 H     1 <1>   0.0800 
 42 H       -9.4840     3.4820     3.2350 H     1 <1>   0.0800 
 43 H       -9.9470     1.9750     2.5010 H     1 <1>   0.0800 
 44 H       -7.6490     4.6030     0.1320 H     1 <1>   0.0800 
 45 H       -7.9320     5.0540     1.7900 H     1 <1>   0.0800 
 46 H       -8.7330     2.5190     0.5800 H     1 <1>   0.4500 
 47 H      -10.6540     4.6390     1.2720 H     1 <1>   0.0800 
 48 H       -9.9560     4.4480    -0.3250 H     1 <1>   0.0800 
 49 H      -11.6420     2.4100     1.1500 H     1 <1>   0.1500 
 50 H      -10.9160     2.7910    -1.8070 H     1 <1>   0.1500 
 51 H      -11.6060     1.2110    -3.3690 H     1 <1>   0.1500 
 52 H      -13.2930     1.0540     0.5470 H     1 <1>   0.1500 
 53 H      -13.0890    -0.5960    -4.0710 H     1 <1>   0.1500 
 54 H      -14.7590    -0.7540    -0.1620 H     1 <1>   0.1500 
 55 H      -14.6700    -1.5910    -2.4710 H     1 <1>   0.1500 
@<TRIPOS>BOND
  1   1   2  1   
  2   1   3  1   
  3   2   4  ar  
  4   2   5  ar  
  5   3   6  1   
  6   3  27  1   
  7   3  28  1   
  8   4   7  1   
  9   4   8  ar  
 10   5   9  ar  
 11   5  29  1   
 12   6  30  1   
 13   6  31  1   
 14   6  32  1   
 15   7  33  1   
 16   8  10  ar  
 17   8  34  1   
 18   9  10  ar  
 19   9  11  1   
 20  10  35  1   
 21  11  12  1   
 22  11  36  1   
 23  11  37  1   
 24  12  13  1   
 25  12  14  1   
 26  13  15  1   
 27  13  38  1   
 28  13  39  1   
 29  14  16  1   
 30  14  40  1   
 31  14  41  1   
 32  15  17  1   
 33  15  42  1   
 34  15  43  1   
 35  16  17  1   
 36  16  44  1   
 37  16  45  1   
 38  17  18  1   
 39  17  46  1   
 40  18  19  1   
 41  18  47  1   
 42  18  48  1   
 43  19  20  2   
 44  19  49  1   
 45  20  21  1   
 46  20  50  1   
 47  21  22  ar  
 48  21  23  ar  
 49  22  24  ar  
 50  22  51  1   
 51  23  25  ar  
 52  23  52  1   
 53  24  26  ar  
 54  24  53  1   
 55  25  26  ar  
 56  25  54  1   
 57  26  55  1   
@<TRIPOS>SUBSTRUCTURE
  1 ****  12 GROUP 4 **** **** 0

# MOE 2024.06 (io_trps.svl 2023.06)
