@<TRIPOS>MOLECULE
NONAME
43 44 1 0 0 
SMALL
USER_CHARGES


@<TRIPOS>ATOM
  1 O        7.3870    -1.0170     0.5750 O.3   1 <1>  -0.5600 
  2 C        6.9460    -2.2460     0.0800 C.3   1 <1>   0.1200 
  3 C        6.6440     0.0690     0.1050 C.3   1 <1>   0.1200 
  4 C        5.4770    -2.4820     0.4760 C.3   1 <1>   0.1100 
  5 C        5.1640    -0.0890     0.4960 C.3   1 <1>   0.1100 
  6 N        4.6060    -1.3740     0.0110 N.3   1 <1>  -0.8100 
  7 C        3.2100    -1.5330     0.4280 C.3   1 <1>   0.1100 
  8 C        2.5090    -2.5530    -0.4800 C.3   1 <1>   0.3430 
  9 N        1.0520    -2.6380    -0.1820 N.4   1 <1>  -0.9060 
 10 C        0.3310    -3.5850    -1.0550 C.3   1 <1>   0.4860 
 11 C       -1.1110    -3.5390    -0.6160 C.ar  1 <1>  -0.1440 
 12 C       -1.5700    -4.4000     0.3710 C.ar  1 <1>  -0.1500 
 13 C       -1.9870    -2.6280    -1.1870 C.ar  1 <1>  -0.1500 
 14 C       -2.8880    -4.3400     0.7880 C.ar  1 <1>  -0.1500 
 15 C       -3.3040    -2.5720    -0.7670 C.ar  1 <1>  -0.1500 
 16 C       -3.7610    -3.4250     0.2240 C.ar  1 <1>  -0.1440 
 17 C       -5.2100    -3.3630     0.6810 C.3   1 <1>  -0.0170 
 18 C       -6.0780    -4.3050    -0.1570 C.3   1 <1>  -0.2400 
 19 H        7.5760    -3.0110     0.4980 H     1 <1>   0.0800 
 20 H        7.0600    -2.2480    -0.9900 H     1 <1>   0.0800 
 21 H        6.7520     0.1250    -0.9650 H     1 <1>   0.0800 
 22 H        7.0550     0.9610     0.5430 H     1 <1>   0.0800 
 23 H        5.4260    -2.5690     1.5490 H     1 <1>   0.0800 
 24 H        5.1530    -3.4120     0.0450 H     1 <1>   0.0800 
 25 H        4.6080     0.7300     0.0740 H     1 <1>   0.0800 
 26 H        5.0850    -0.0310     1.5690 H     1 <1>   0.0800 
 27 H        2.7090    -0.5850     0.3270 H     1 <1>   0.0800 
 28 H        3.1680    -1.8400     1.4600 H     1 <1>   0.0800 
 29 H        2.9690    -3.5170    -0.3430 H     1 <1>   0.0800 
 30 H        2.6540    -2.2470    -1.5040 H     1 <1>   0.0800 
 31 H        0.6020    -1.7210    -0.2890 H     1 <1>   0.4500 
 32 H        0.8830    -2.9210     0.7900 H     1 <1>   0.4500 
 33 H        0.7220    -4.5840    -0.9400 H     1 <1>   0.0800 
 34 H        0.4140    -3.2910    -2.0890 H     1 <1>   0.0800 
 35 H       -0.9200    -5.1280     0.8260 H     1 <1>   0.1500 
 36 H       -1.6670    -1.9550    -1.9650 H     1 <1>   0.1500 
 37 H       -3.2390    -5.0120     1.5520 H     1 <1>   0.1500 
 38 H       -3.9790    -1.8640    -1.2170 H     1 <1>   0.1500 
 39 H       -5.5800    -2.3570     0.5900 H     1 <1>   0.0800 
 40 H       -5.2780    -3.6410     1.7190 H     1 <1>   0.0800 
 41 H       -6.0340    -4.0250    -1.1950 H     1 <1>   0.0800 
 42 H       -7.1010    -4.2560     0.1710 H     1 <1>   0.0800 
 43 H       -5.7300    -5.3180    -0.0580 H     1 <1>   0.0800 
@<TRIPOS>BOND
  1   1   2  1   
  2   1   3  1   
  3   2   4  1   
  4   2  19  1   
  5   2  20  1   
  6   3   5  1   
  7   3  21  1   
  8   3  22  1   
  9   4   6  1   
 10   4  23  1   
 11   4  24  1   
 12   5   6  1   
 13   5  25  1   
 14   5  26  1   
 15   6   7  1   
 16   7   8  1   
 17   7  27  1   
 18   7  28  1   
 19   8   9  1   
 20   8  29  1   
 21   8  30  1   
 22   9  10  1   
 23   9  31  1   
 24   9  32  1   
 25  10  11  1   
 26  10  33  1   
 27  10  34  1   
 28  11  12  ar  
 29  11  13  ar  
 30  12  14  ar  
 31  12  35  1   
 32  13  15  ar  
 33  13  36  1   
 34  14  16  ar  
 35  14  37  1   
 36  15  16  ar  
 37  15  38  1   
 38  16  17  1   
 39  17  18  1   
 40  17  39  1   
 41  17  40  1   
 42  18  41  1   
 43  18  42  1   
 44  18  43  1   
@<TRIPOS>SUBSTRUCTURE
  1 ****   9 GROUP 4 **** **** 0

# MOE 2024.06 (io_trps.svl 2023.06)
