@<TRIPOS>MOLECULE
NONAME
40 41 1 0 0 
SMALL
USER_CHARGES


@<TRIPOS>ATOM
  1 O        1.0810    -1.3970     2.1300 O.3   1 <1>  -0.6800 
  2 C        2.2840    -1.9080     1.6700 C.3   1 <1>   0.1200 
  3 C        2.9990    -0.8100     0.8760 C.3   1 <1>   0.1100 
  4 N        4.2950    -1.2750     0.3310 N.3   1 <1>  -0.8100 
  5 C        4.1220    -2.1490    -0.8570 C.3   1 <1>   0.1100 
  6 C        5.1520    -0.1120    -0.0150 C.3   1 <1>   0.1100 
  7 C        5.4750    -2.6390    -1.4320 C.3   1 <1>   0.3430 
  8 C        6.5000    -0.5260    -0.6560 C.3   1 <1>   0.3430 
  9 N        6.6290    -2.0190    -0.7070 N.4   1 <1>  -0.9590 
 10 C        7.9650    -2.5040    -1.1370 C.3   1 <1>   0.4860 
 11 C        9.0210    -1.9010    -0.2290 C.ar  1 <1>  -0.1440 
 12 C        9.1870    -2.3180     1.0910 C.ar  1 <1>  -0.1440 
 13 C        9.8310    -0.8950    -0.7400 C.ar  1 <1>  -0.1500 
 14 C       10.1500    -1.7050     1.8780 C.ar  1 <1>  -0.1500 
 15 C        8.3550    -3.4310     1.7180 C.3   1 <1>  -0.0970 
 16 C       10.7890    -0.2940     0.0540 C.ar  1 <1>  -0.1500 
 17 C       10.9460    -0.6970     1.3650 C.ar  1 <1>  -0.1500 
 18 H        0.6120    -2.0490     2.6870 H     1 <1>   0.4000 
 19 H        2.0650    -2.7610     1.0530 H     1 <1>   0.0800 
 20 H        2.8740    -2.2020     2.5200 H     1 <1>   0.0800 
 21 H        3.1720     0.0120     1.5500 H     1 <1>   0.0800 
 22 H        2.3630    -0.4660     0.0780 H     1 <1>   0.0800 
 23 H        3.5870    -1.6160    -1.6250 H     1 <1>   0.0800 
 24 H        3.5320    -3.0100    -0.5950 H     1 <1>   0.0800 
 25 H        5.3590     0.4520     0.8800 H     1 <1>   0.0800 
 26 H        4.6290     0.5420    -0.6920 H     1 <1>   0.0800 
 27 H        5.5210    -2.3960    -2.4800 H     1 <1>   0.0800 
 28 H        5.5210    -3.7120    -1.3410 H     1 <1>   0.0800 
 29 H        7.3020    -0.1040    -0.0720 H     1 <1>   0.0800 
 30 H        6.5640    -0.1140    -1.6490 H     1 <1>   0.0800 
 31 H        6.4970    -2.2860     0.2790 H     1 <1>   0.4500 
 32 H        8.1530    -2.2130    -2.1570 H     1 <1>   0.0800 
 33 H        8.0100    -3.5780    -1.0750 H     1 <1>   0.0800 
 34 H        9.7300    -0.5660    -1.7600 H     1 <1>   0.1500 
 35 H       10.2930    -2.0080     2.9010 H     1 <1>   0.1500 
 36 H        8.2180    -4.2470     1.0330 H     1 <1>   0.0800 
 37 H        7.3970    -3.0530     2.0250 H     1 <1>   0.0800 
 38 H        8.8510    -3.8230     2.5890 H     1 <1>   0.0800 
 39 H       11.4160     0.4860    -0.3450 H     1 <1>   0.1500 
 40 H       11.6920    -0.2310     1.9880 H     1 <1>   0.1500 
@<TRIPOS>BOND
  1   1   2  1   
  2   1  18  1   
  3   2   3  1   
  4   2  19  1   
  5   2  20  1   
  6   3   4  1   
  7   3  21  1   
  8   3  22  1   
  9   4   5  1   
 10   4   6  1   
 11   5   7  1   
 12   5  23  1   
 13   5  24  1   
 14   6   8  1   
 15   6  25  1   
 16   6  26  1   
 17   7   9  1   
 18   7  27  1   
 19   7  28  1   
 20   8   9  1   
 21   8  29  1   
 22   8  30  1   
 23   9  10  1   
 24   9  31  1   
 25  10  11  1   
 26  10  32  1   
 27  10  33  1   
 28  11  12  ar  
 29  11  13  ar  
 30  12  14  ar  
 31  12  15  1   
 32  13  16  ar  
 33  13  34  1   
 34  14  17  ar  
 35  14  35  1   
 36  15  36  1   
 37  15  37  1   
 38  15  38  1   
 39  16  17  ar  
 40  16  39  1   
 41  17  40  1   
@<TRIPOS>SUBSTRUCTURE
  1 ****   9 GROUP 4 **** **** 0

# MOE 2024.06 (io_trps.svl 2023.06)
