@<TRIPOS>MOLECULE
NONAME
50 51 1 0 0 
SMALL
USER_CHARGES


@<TRIPOS>ATOM
  1 O        4.0380    -5.6580    -0.3910 O.3   1 <1>  -0.3630 
  2 C        5.3710    -5.5570    -0.1390 C.ar  1 <1>   0.0830 
  3 C        3.3120    -6.8150    -0.0680 C.3   1 <1>   0.1200 
  4 C        6.0010    -4.3630    -0.4770 C.ar  1 <1>  -0.1440 
  5 C        6.1130    -6.5870     0.4350 C.ar  1 <1>  -0.1500 
  6 C        1.8620    -6.5590    -0.4780 C.3   1 <1>   0.3430 
  7 C        7.3580    -4.2140    -0.2370 C.ar  1 <1>  -0.1500 
  8 C        5.2220    -3.2160    -1.1060 C.3   1 <1>  -0.0960 
  9 C        7.4660    -6.4240     0.6680 C.ar  1 <1>  -0.1500 
 10 N        0.9820    -7.7270    -0.1680 N.4   1 <1>  -0.9060 
 11 C        8.0950    -5.2370     0.3350 C.ar  1 <1>  -0.1430 
 12 C       -0.4300    -7.5350    -0.5790 C.3   1 <1>   0.4230 
 13 C        9.5810    -5.0570     0.5890 C.3   1 <1>  -0.0970 
 14 C       -1.1200    -6.4290     0.2690 C.3   1 <1>  -0.0800 
 15 C       -1.1190    -8.9000    -0.4870 C.3   1 <1>  -0.1600 
 16 C       -2.4970    -6.8870     0.8260 C.3   1 <1>  -0.0800 
 17 C       -1.2140    -5.1320    -0.5640 C.3   1 <1>  -0.2400 
 18 C       -2.6020    -8.8050    -0.8800 C.3   1 <1>  -0.1600 
 19 C       -3.3290    -7.6020    -0.2520 C.3   1 <1>  -0.1600 
 20 C       -3.3140    -5.7550     1.4680 C.3   1 <1>  -0.2400 
 21 H        3.3950    -6.9730     0.9930 H     1 <1>   0.0800 
 22 H        3.7350    -7.6370    -0.6190 H     1 <1>   0.0800 
 23 H        5.6690    -7.5230     0.7090 H     1 <1>   0.1500 
 24 H        1.8330    -6.3550    -1.5360 H     1 <1>   0.0800 
 25 H        1.5080    -5.6880     0.0490 H     1 <1>   0.0800 
 26 H        7.8500    -3.2940    -0.4970 H     1 <1>   0.1500 
 27 H        4.4350    -2.9030    -0.4450 H     1 <1>   0.0800 
 28 H        4.7900    -3.5370    -2.0370 H     1 <1>   0.0800 
 29 H        5.8610    -2.3740    -1.2990 H     1 <1>   0.0800 
 30 H        8.0320    -7.2250     1.1100 H     1 <1>   0.1500 
 31 H        0.9920    -7.9220     0.8400 H     1 <1>   0.4500 
 32 H        1.3380    -8.5640    -0.6430 H     1 <1>   0.4500 
 33 H       -0.4620    -7.2310    -1.6130 H     1 <1>   0.0800 
 34 H        9.7940    -4.0360     0.8520 H     1 <1>   0.0800 
 35 H       10.1340    -5.3100    -0.2970 H     1 <1>   0.0800 
 36 H        9.9070    -5.6880     1.3960 H     1 <1>   0.0800 
 37 H       -0.5120    -6.2110     1.1300 H     1 <1>   0.0800 
 38 H       -1.0540    -9.2790     0.5190 H     1 <1>   0.0800 
 39 H       -0.6390    -9.6050    -1.1440 H     1 <1>   0.0800 
 40 H       -2.3120    -7.6000     1.6130 H     1 <1>   0.0800 
 41 H       -1.9160    -5.2440    -1.3720 H     1 <1>   0.0800 
 42 H       -0.2640    -4.8590    -0.9840 H     1 <1>   0.0800 
 43 H       -1.5370    -4.3070     0.0480 H     1 <1>   0.0800 
 44 H       -3.0980    -9.7140    -0.5820 H     1 <1>   0.0800 
 45 H       -2.6880    -8.7380    -1.9520 H     1 <1>   0.0800 
 46 H       -3.5880    -6.9010    -1.0270 H     1 <1>   0.0800 
 47 H       -4.2560    -7.9420     0.1800 H     1 <1>   0.0800 
 48 H       -3.6640    -5.0550     0.7310 H     1 <1>   0.0800 
 49 H       -2.7250    -5.2280     2.1970 H     1 <1>   0.0800 
 50 H       -4.1750    -6.1620     1.9690 H     1 <1>   0.0800 
@<TRIPOS>BOND
  1   1   2  1   
  2   1   3  1   
  3   2   4  ar  
  4   2   5  ar  
  5   3   6  1   
  6   3  21  1   
  7   3  22  1   
  8   4   7  ar  
  9   4   8  1   
 10   5   9  ar  
 11   5  23  1   
 12   6  10  1   
 13   6  24  1   
 14   6  25  1   
 15   7  11  ar  
 16   7  26  1   
 17   8  27  1   
 18   8  28  1   
 19   8  29  1   
 20   9  11  ar  
 21   9  30  1   
 22  10  12  1   
 23  10  31  1   
 24  10  32  1   
 25  11  13  1   
 26  12  14  1   
 27  12  15  1   
 28  12  33  1   
 29  13  34  1   
 30  13  35  1   
 31  13  36  1   
 32  14  16  1   
 33  14  17  1   
 34  14  37  1   
 35  15  18  1   
 36  15  38  1   
 37  15  39  1   
 38  16  19  1   
 39  16  20  1   
 40  16  40  1   
 41  17  41  1   
 42  17  42  1   
 43  17  43  1   
 44  18  19  1   
 45  18  44  1   
 46  18  45  1   
 47  19  46  1   
 48  19  47  1   
 49  20  48  1   
 50  20  49  1   
 51  20  50  1   
@<TRIPOS>SUBSTRUCTURE
  1 ****   6 GROUP 4 **** **** 0

# MOE 2024.06 (io_trps.svl 2023.06)
