@<TRIPOS>MOLECULE
Structure2490
35 36 1 0 0 
SMALL
USER_CHARGES


@<TRIPOS>ATOM
  1 O       -0.0320     0.3730     0.2710 O.3   1 <1>  -0.3630 
  2 C       -1.2290     0.9580     0.0150 C.ar  1 <1>   0.0830 
  3 C        1.1800     1.0320    -0.0110 C.3   1 <1>   0.1200 
  4 C       -2.3610     0.2060     0.2900 C.ar  1 <1>  -0.1500 
  5 C       -1.3700     2.2440    -0.4980 C.ar  1 <1>  -0.1500 
  6 C        2.3390     0.0880     0.3470 C.3   1 <1>  -0.0800 
  7 C       -3.6260     0.7170     0.0560 C.ar  1 <1>  -0.1430 
  8 C       -2.6340     2.7580    -0.7310 C.ar  1 <1>  -0.1500 
  9 C        3.6970     0.7550     0.0670 C.3   1 <1>  -0.1600 
 10 C        2.2450    -1.2470    -0.4180 C.3   1 <1>  -0.1600 
 11 C       -3.7570     1.9980    -0.4550 C.ar  1 <1>  -0.1500 
 12 C       -4.8630    -0.1100     0.3590 C.3   1 <1>  -0.0970 
 13 C        4.8630    -0.1920     0.3610 C.3   1 <1>   0.3430 
 14 C        3.4320    -2.1600    -0.1170 C.3   1 <1>   0.3430 
 15 N        4.7000    -1.4440    -0.4270 N.4   1 <1>  -0.9060 
 16 H        1.2190     1.9300     0.5820 H     1 <1>   0.0800 
 17 H        1.1920     1.2790    -1.0580 H     1 <1>   0.0800 
 18 H       -2.2390    -0.7840     0.6900 H     1 <1>   0.1500 
 19 H       -0.5200     2.8590    -0.7200 H     1 <1>   0.1500 
 20 H        2.2740    -0.1130     1.4040 H     1 <1>   0.0800 
 21 H       -2.7470     3.7520    -1.1270 H     1 <1>   0.1500 
 22 H        3.7980     1.6300     0.6870 H     1 <1>   0.0800 
 23 H        3.7490     1.0800    -0.9580 H     1 <1>   0.0800 
 24 H        2.1850    -1.0670    -1.4770 H     1 <1>   0.0800 
 25 H        1.3430    -1.7620    -0.1330 H     1 <1>   0.0800 
 26 H       -4.7350     2.4080    -0.6390 H     1 <1>   0.1500 
 27 H       -4.6110    -1.1500     0.4580 H     1 <1>   0.0800 
 28 H       -5.5800    -0.0080    -0.4350 H     1 <1>   0.0800 
 29 H       -5.3090     0.2270     1.2770 H     1 <1>   0.0800 
 30 H        4.8800    -0.4240     1.4140 H     1 <1>   0.0800 
 31 H        5.7940     0.2900     0.1050 H     1 <1>   0.0800 
 32 H        3.3570    -3.0590    -0.7090 H     1 <1>   0.0800 
 33 H        3.4140    -2.4380     0.9250 H     1 <1>   0.0800 
 34 H        5.5000    -2.0680    -0.2580 H     1 <1>   0.4500 
 35 H        4.7080    -1.2110    -1.4270 H     1 <1>   0.4500 
@<TRIPOS>BOND
  1   1   2  1   
  2   1   3  1   
  3   2   4  ar  
  4   2   5  ar  
  5   3   6  1   
  6   3  16  1   
  7   3  17  1   
  8   4   7  ar  
  9   4  18  1   
 10   5   8  ar  
 11   5  19  1   
 12   6   9  1   
 13   6  10  1   
 14   6  20  1   
 15   7  11  ar  
 16   7  12  1   
 17   8  11  ar  
 18   8  21  1   
 19   9  13  1   
 20   9  22  1   
 21   9  23  1   
 22  10  14  1   
 23  10  24  1   
 24  10  25  1   
 25  11  26  1   
 26  12  27  1   
 27  12  28  1   
 28  12  29  1   
 29  13  15  1   
 30  13  30  1   
 31  13  31  1   
 32  14  15  1   
 33  14  32  1   
 34  14  33  1   
 35  15  34  1   
 36  15  35  1   
@<TRIPOS>SUBSTRUCTURE
  1 ****   1 GROUP 4 **** **** 0

# MOE 2024.06 (io_trps.svl 2023.06)
