@<TRIPOS>MOLECULE
NONAME
55 58 1 0 0 
SMALL
USER_CHARGES


@<TRIPOS>ATOM
  1 O        2.5080     0.2150    -0.5610 O.2   1 <1>  -0.5700 
  2 C        1.4910     0.8580    -0.3740 C.2   1 <1>   0.5440 
  3 N        1.4750     2.2190    -0.2130 N.am  1 <1>  -0.4200 
  4 C        0.1470     0.3630    -0.2580 C.ar  1 <1>   0.0860 
  5 C        0.1810     2.6170     0.0030 C.2   1 <1>   0.5440 
  6 C        2.6240     3.1330    -0.4000 C.3   1 <1>   0.1400 
  7 C       -0.6680     1.4600    -0.0210 C.ar  1 <1>   0.0860 
  8 C       -0.4000    -0.9120    -0.3380 C.ar  1 <1>  -0.1500 
  9 O       -0.1460     3.7690     0.1830 O.2   1 <1>  -0.5700 
 10 C        3.2710     3.4910     0.9420 C.3   1 <1>  -0.0990 
 11 C       -2.0380     1.2950     0.1400 C.ar  1 <1>  -0.1500 
 12 C       -1.7660    -1.0750    -0.1770 C.ar  1 <1>  -0.1500 
 13 C        4.7790     3.4490     0.8070 C.2   1 <1>   0.5690 
 14 C       -2.5820     0.0240     0.0610 C.ar  1 <1>  -0.1500 
 15 O        5.3160     4.4370     0.3720 O.2   1 <1>  -0.5700 
 16 N        5.5090     2.3240     1.1050 N.am  1 <1>  -0.6600 
 17 C        4.9490     0.9590     1.3500 C.3   1 <1>   0.1400 
 18 C        6.9950     2.3180     0.9390 C.3   1 <1>   0.1400 
 19 C        5.3470     0.0070     0.2060 C.3   1 <1>   0.3430 
 20 C        7.3920     1.3900    -0.2240 C.3   1 <1>   0.3430 
 21 N        6.8350     0.0000    -0.0530 N.4   1 <1>  -0.9590 
 22 C        7.1590    -0.8700    -1.2140 C.3   1 <1>   0.4860 
 23 C        6.8260    -2.2990    -0.8390 C.ar  1 <1>  -0.1430 
 24 C        5.6550    -2.8890    -1.2910 C.ar  1 <1>  -0.1500 
 25 C        7.6880    -3.0280    -0.0310 C.ar  1 <1>  -0.1500 
 26 C        5.3450    -4.1880    -0.9300 C.ar  1 <1>  -0.1500 
 27 C        7.3730    -4.3260     0.3280 C.ar  1 <1>  -0.1500 
 28 C        6.2010    -4.9120    -0.1180 C.ar  1 <1>  -0.1430 
 29 C        5.8560    -6.3370     0.2760 C.3   1 <1>  -0.0970 
 30 H        2.2900     4.0330    -0.8910 H     1 <1>   0.0800 
 31 H        3.3410     2.6560    -1.0470 H     1 <1>   0.0800 
 32 H        0.2380    -1.7600    -0.5230 H     1 <1>   0.1500 
 33 H        2.9420     2.8480     1.7350 H     1 <1>   0.0800 
 34 H        2.9820     4.4920     1.2060 H     1 <1>   0.0800 
 35 H       -2.6600     2.1560     0.3230 H     1 <1>   0.1500 
 36 H       -2.2020    -2.0590    -0.2370 H     1 <1>   0.1500 
 37 H       -3.6440    -0.1150     0.1830 H     1 <1>   0.1500 
 38 H        3.8790     0.9790     1.4260 H     1 <1>   0.0800 
 39 H        5.3270     0.5810     2.2840 H     1 <1>   0.0800 
 40 H        7.4560     1.9840     1.8520 H     1 <1>   0.0800 
 41 H        7.3630     3.3110     0.7410 H     1 <1>   0.0800 
 42 H        4.8290     0.3180    -0.6860 H     1 <1>   0.0800 
 43 H        5.0080    -0.9890     0.4450 H     1 <1>   0.0800 
 44 H        8.4660     1.3510    -0.2920 H     1 <1>   0.0800 
 45 H        7.0170     1.8220    -1.1370 H     1 <1>   0.0800 
 46 H        7.2740    -0.4390     0.7660 H     1 <1>   0.4500 
 47 H        8.2080    -0.8020    -1.4530 H     1 <1>   0.0800 
 48 H        6.5890    -0.5710    -2.0790 H     1 <1>   0.0800 
 49 H        4.9710    -2.3520    -1.9270 H     1 <1>   0.1500 
 50 H        8.6110    -2.6040     0.3250 H     1 <1>   0.1500 
 51 H        4.4330    -4.6380    -1.2840 H     1 <1>   0.1500 
 52 H        8.0470    -4.8860     0.9560 H     1 <1>   0.1500 
 53 H        5.2480    -6.3340     1.1630 H     1 <1>   0.0800 
 54 H        6.7500    -6.9030     0.4710 H     1 <1>   0.0800 
 55 H        5.3150    -6.8260    -0.5140 H     1 <1>   0.0800 
@<TRIPOS>BOND
  1   1   2  2   
  2   2   3  am  
  3   2   4  1   
  4   3   5  am  
  5   3   6  1   
  6   4   7  ar  
  7   4   8  ar  
  8   5   7  1   
  9   5   9  2   
 10   6  10  1   
 11   6  30  1   
 12   6  31  1   
 13   7  11  ar  
 14   8  12  ar  
 15   8  32  1   
 16  10  13  1   
 17  10  33  1   
 18  10  34  1   
 19  11  14  ar  
 20  11  35  1   
 21  12  14  ar  
 22  12  36  1   
 23  13  15  2   
 24  13  16  am  
 25  14  37  1   
 26  16  17  1   
 27  16  18  1   
 28  17  19  1   
 29  17  38  1   
 30  17  39  1   
 31  18  20  1   
 32  18  40  1   
 33  18  41  1   
 34  19  21  1   
 35  19  42  1   
 36  19  43  1   
 37  20  21  1   
 38  20  44  1   
 39  20  45  1   
 40  21  22  1   
 41  21  46  1   
 42  22  23  1   
 43  22  47  1   
 44  22  48  1   
 45  23  24  ar  
 46  23  25  ar  
 47  24  26  ar  
 48  24  49  1   
 49  25  27  ar  
 50  25  50  1   
 51  26  28  ar  
 52  26  51  1   
 53  27  28  ar  
 54  27  52  1   
 55  28  29  1   
 56  29  53  1   
 57  29  54  1   
 58  29  55  1   
@<TRIPOS>SUBSTRUCTURE
  1 ****   1 GROUP 4 **** **** 0

# MOE 2024.06 (io_trps.svl 2023.06)
