@<TRIPOS>MOLECULE
NONAME
42 42 1 0 0 
SMALL
USER_CHARGES


@<TRIPOS>ATOM
  1 S        0.1130    -0.8210     0.5290 S.3   1 <1>  -0.4600 
  2 C        0.6120     0.8120    -0.0830 C.3   1 <1>   0.0700 
  3 C       -1.4770    -1.0860    -0.2960 C.3   1 <1>  -0.0100 
  4 C        1.9930     1.1460     0.4820 C.3   1 <1>  -0.1600 
  5 C        2.5320     2.4790    -0.0630 C.3   1 <1>   0.1140 
  6 N        1.6090     3.5940     0.3380 N.am  1 <1>  -0.7300 
  7 C        3.9690     2.7500     0.4290 C.2   1 <1>   0.9060 
  8 C        0.6760     4.2050    -0.4440 C.2   1 <1>   0.6160 
  9 O        4.1240     3.5620     1.3560 O.co2 1 <1>  -0.9000 
 10 O        4.9210     2.1880    -0.1240 O.co2 1 <1>  -0.9000 
 11 O        0.3140     3.6500    -1.4670 O.2   1 <1>  -0.5700 
 12 C        0.0860     5.4770    -0.0460 C.2   1 <1>   0.1230 
 13 N        0.8620     6.4380     0.6350 N.am  1 <1>  -0.5390 
 14 C       -1.2270     5.7430    -0.2830 C.2   1 <1>  -0.1780 
 15 C        2.1100     6.9360     0.4250 C.2   1 <1>   0.5690 
 16 C       -1.9970     6.9210     0.0090 C.ar  1 <1>   0.0280 
 17 O        2.4600     7.9040     1.0490 O.2   1 <1>  -0.5700 
 18 C        3.0460     6.3670    -0.6160 C.3   1 <1>  -0.1790 
 19 C       -1.4960     8.2130    -0.1540 C.ar  1 <1>  -0.1500 
 20 C       -3.3090     6.7930     0.4640 C.ar  1 <1>  -0.1500 
 21 C       -2.2610     9.3250     0.1450 C.ar  1 <1>  -0.1500 
 22 C       -4.0800     7.9000     0.7620 C.ar  1 <1>  -0.1500 
 23 C       -3.5560     9.1710     0.6070 C.ar  1 <1>  -0.1500 
 24 H        0.6310     0.7680    -1.1580 H     1 <1>   0.0800 
 25 H       -0.1300     1.5190     0.2430 H     1 <1>   0.0800 
 26 H       -1.8520    -2.0430     0.0190 H     1 <1>   0.0800 
 27 H       -1.3060    -1.0700    -1.3570 H     1 <1>   0.0800 
 28 H       -2.1410    -0.2950     0.0020 H     1 <1>   0.0800 
 29 H        1.9550     1.1900     1.5560 H     1 <1>   0.0800 
 30 H        2.6820     0.3670     0.2070 H     1 <1>   0.0800 
 31 H        2.5760     2.4280    -1.1360 H     1 <1>   0.0800 
 32 H        2.0480     4.1220     1.1080 H     1 <1>   0.3700 
 33 H        0.3430     7.0160     1.2980 H     1 <1>   0.3700 
 34 H       -1.8070     4.9680    -0.7530 H     1 <1>   0.1500 
 35 H        2.5060     6.0040    -1.4680 H     1 <1>   0.0800 
 36 H        3.6190     5.5680    -0.1850 H     1 <1>   0.0800 
 37 H        3.7280     7.1300    -0.9400 H     1 <1>   0.0800 
 38 H       -0.4990     8.3550    -0.5300 H     1 <1>   0.1500 
 39 H       -3.7270     5.8100     0.5900 H     1 <1>   0.1500 
 40 H       -1.8510    10.3120     0.0160 H     1 <1>   0.1500 
 41 H       -5.0890     7.7760     1.1160 H     1 <1>   0.1500 
 42 H       -4.1540    10.0360     0.8400 H     1 <1>   0.1500 
@<TRIPOS>BOND
  1   1   2  1   
  2   1   3  1   
  3   2   4  1   
  4   2  24  1   
  5   2  25  1   
  6   3  26  1   
  7   3  27  1   
  8   3  28  1   
  9   4   5  1   
 10   4  29  1   
 11   4  30  1   
 12   5   6  1   
 13   5   7  1   
 14   5  31  1   
 15   6   8  am  
 16   6  32  1   
 17   7   9  ar  
 18   7  10  ar  
 19   8  11  2   
 20   8  12  1   
 21  12  13  1   
 22  12  14  2   
 23  13  15  am  
 24  13  33  1   
 25  14  16  1   
 26  14  34  1   
 27  15  17  2   
 28  15  18  1   
 29  16  19  ar  
 30  16  20  ar  
 31  18  35  1   
 32  18  36  1   
 33  18  37  1   
 34  19  21  ar  
 35  19  38  1   
 36  20  22  ar  
 37  20  39  1   
 38  21  23  ar  
 39  21  40  1   
 40  22  23  ar  
 41  22  41  1   
 42  23  42  1   
@<TRIPOS>SUBSTRUCTURE
  1 ****  12 GROUP 4 **** **** 0

# MOE 2024.06 (io_trps.svl 2023.06)
