@<TRIPOS>MOLECULE
NONAME
30 30 1 0 0 
SMALL
USER_CHARGES


@<TRIPOS>ATOM
  1 S       -0.4330    -0.3470    -1.3130 S.2   1 <1>  -0.3800 
  2 C       -0.8620    -1.5680    -0.3660 C.2   1 <1>   0.5810 
  3 S       -2.4550    -1.5040     0.4060 S.3   1 <1>  -0.3710 
  4 N       -0.0650    -2.6170    -0.1380 N.am  1 <1>  -0.7300 
  5 C       -3.2500     0.0600    -0.1910 C.3   1 <1>   0.0700 
  6 C       -0.3220    -3.8150     0.7030 C.3   1 <1>   0.0600 
  7 C       -4.6420     0.1960     0.4270 C.3   1 <1>   0.1200 
  8 O       -5.4750    -0.8270    -0.0710 O.3   1 <1>  -0.3630 
  9 C       -6.7660    -0.9620     0.3340 C.ar  1 <1>   0.0820 
 10 C       -7.4880    -2.0420    -0.1670 C.ar  1 <1>  -0.1430 
 11 C       -7.3800    -0.0730     1.2150 C.ar  1 <1>  -0.1500 
 12 C       -8.8090    -2.2210     0.2130 C.ar  1 <1>  -0.1500 
 13 C       -6.8350    -3.0280    -1.1260 C.3   1 <1>  -0.0970 
 14 C       -8.6990    -0.2610     1.5880 C.ar  1 <1>  -0.1500 
 15 C       -9.4130    -1.3350     1.0870 C.ar  1 <1>  -0.1500 
 16 H        0.8470    -2.6090    -0.6030 H     1 <1>   0.3700 
 17 H       -3.3060     0.0190    -1.2640 H     1 <1>   0.0800 
 18 H       -2.6160     0.8730     0.1140 H     1 <1>   0.0800 
 19 H       -1.3010    -3.7780     1.1490 H     1 <1>   0.0800 
 20 H        0.4110    -3.8690     1.4890 H     1 <1>   0.0800 
 21 H       -0.2550    -4.7020     0.0980 H     1 <1>   0.0800 
 22 H       -5.0760     1.1420     0.1550 H     1 <1>   0.0800 
 23 H       -4.5870     0.1050     1.4970 H     1 <1>   0.0800 
 24 H       -6.8520     0.7680     1.6190 H     1 <1>   0.1500 
 25 H       -9.3750    -3.0520    -0.1680 H     1 <1>   0.1500 
 26 H       -6.5290    -2.5140    -2.0200 H     1 <1>   0.0800 
 27 H       -7.5130    -3.8170    -1.3960 H     1 <1>   0.0800 
 28 H       -5.9670    -3.4620    -0.6640 H     1 <1>   0.0800 
 29 H       -9.1700     0.4260     2.2680 H     1 <1>   0.1500 
 30 H      -10.4390    -1.4810     1.3770 H     1 <1>   0.1500 
@<TRIPOS>BOND
  1   1   2  2   
  2   2   3  1   
  3   2   4  am  
  4   3   5  1   
  5   4   6  1   
  6   4  16  1   
  7   5   7  1   
  8   5  17  1   
  9   5  18  1   
 10   6  19  1   
 11   6  20  1   
 12   6  21  1   
 13   7   8  1   
 14   7  22  1   
 15   7  23  1   
 16   8   9  1   
 17   9  10  ar  
 18   9  11  ar  
 19  10  12  ar  
 20  10  13  1   
 21  11  14  ar  
 22  11  24  1   
 23  12  15  ar  
 24  12  25  1   
 25  13  26  1   
 26  13  27  1   
 27  13  28  1   
 28  14  15  ar  
 29  14  29  1   
 30  15  30  1   
@<TRIPOS>SUBSTRUCTURE
  1 ****   8 GROUP 4 **** **** 0

# MOE 2024.06 (io_trps.svl 2023.06)
