@<TRIPOS>MOLECULE
NONAME
40 41 1 0 0 
SMALL
USER_CHARGES


@<TRIPOS>ATOM
  1 S       -0.0700    -0.2020    -0.5790 S.3   1 <1>  -0.0800 
  2 C        0.9400    -0.9800     0.6010 C.2   1 <1>   0.4420 
  3 C       -1.4350    -0.8220     0.2830 C.2   1 <1>   0.1980 
  4 N        0.2540    -1.6000     1.4880 N.2   1 <1>  -0.3380 
  5 N        2.3160    -0.9140     0.5550 N.am  1 <1>  -0.4940 
  6 N       -1.0970    -1.5070     1.3020 N.2   1 <1>  -0.3380 
  7 C       -2.8030    -0.4720    -0.2810 C.3   1 <1>   0.3000 
  8 C        3.1650    -0.3010    -0.3170 C.2   1 <1>   0.5690 
  9 O       -3.8370    -1.0240     0.5100 O.3   1 <1>  -0.3630 
 10 O        2.8070     0.3390    -1.2700 O.2   1 <1>  -0.5700 
 11 C        4.6440    -0.4420    -0.0560 C.3   1 <1>  -0.1790 
 12 C       -5.1410    -0.8310     0.1950 C.ar  1 <1>   0.0830 
 13 C       -5.5790    -0.1030    -0.9080 C.ar  1 <1>  -0.1500 
 14 C       -6.0740    -1.4060     1.0400 C.ar  1 <1>  -0.1500 
 15 C       -6.9340     0.0400    -1.1490 C.ar  1 <1>  -0.1500 
 16 C       -7.4280    -1.2590     0.7960 C.ar  1 <1>  -0.1500 
 17 C       -7.8720    -0.5340    -0.3020 C.ar  1 <1>  -0.1430 
 18 C       -9.3650    -0.3600    -0.5850 C.3   1 <1>   0.0630 
 19 C      -10.0940     0.3630     0.5620 C.3   1 <1>  -0.1600 
 20 C      -10.0140    -1.7210    -0.8650 C.3   1 <1>  -0.2400 
 21 C       -9.5300     1.7650     0.8320 C.3   1 <1>  -0.2400 
 22 H        2.7540    -1.4220     1.3180 H     1 <1>   0.3700 
 23 H       -2.8960    -0.8680    -1.2760 H     1 <1>   0.0800 
 24 H       -2.9260     0.5960    -0.2930 H     1 <1>   0.0800 
 25 H        4.9240    -1.4780    -0.0840 H     1 <1>   0.0800 
 26 H        4.8880    -0.0260     0.9040 H     1 <1>   0.0800 
 27 H        5.1970     0.0860    -0.8110 H     1 <1>   0.0800 
 28 H       -4.8910     0.3580    -1.5900 H     1 <1>   0.1500 
 29 H       -5.7330    -1.9680     1.8910 H     1 <1>   0.1500 
 30 H       -7.2590     0.6060    -2.0040 H     1 <1>   0.1500 
 31 H       -8.1340    -1.7140     1.4670 H     1 <1>   0.1500 
 32 H       -9.4800     0.2380    -1.4730 H     1 <1>   0.0800 
 33 H      -10.0290    -0.2220     1.4630 H     1 <1>   0.0800 
 34 H      -11.1370     0.4560     0.3100 H     1 <1>   0.0800 
 35 H       -9.9760    -2.3500     0.0060 H     1 <1>   0.0800 
 36 H       -9.4940    -2.2140    -1.6670 H     1 <1>   0.0800 
 37 H      -11.0420    -1.5920    -1.1520 H     1 <1>   0.0800 
 38 H       -8.5020     1.7050     1.1470 H     1 <1>   0.0800 
 39 H      -10.0950     2.2440     1.6120 H     1 <1>   0.0800 
 40 H       -9.5860     2.3710    -0.0540 H     1 <1>   0.0800 
@<TRIPOS>BOND
  1   1   2  1   
  2   1   3  1   
  3   2   4  2   
  4   2   5  1   
  5   3   6  2   
  6   3   7  1   
  7   4   6  1   
  8   5   8  am  
  9   5  22  1   
 10   7   9  1   
 11   7  23  1   
 12   7  24  1   
 13   8  10  2   
 14   8  11  1   
 15   9  12  1   
 16  11  25  1   
 17  11  26  1   
 18  11  27  1   
 19  12  13  ar  
 20  12  14  ar  
 21  13  15  ar  
 22  13  28  1   
 23  14  16  ar  
 24  14  29  1   
 25  15  17  ar  
 26  15  30  1   
 27  16  17  ar  
 28  16  31  1   
 29  17  18  1   
 30  18  19  1   
 31  18  20  1   
 32  18  32  1   
 33  19  21  1   
 34  19  33  1   
 35  19  34  1   
 36  20  35  1   
 37  20  36  1   
 38  20  37  1   
 39  21  38  1   
 40  21  39  1   
 41  21  40  1   
@<TRIPOS>SUBSTRUCTURE
  1 ****   9 GROUP 4 **** **** 0

# MOE 2024.06 (io_trps.svl 2023.06)
