@<TRIPOS>MOLECULE
NONAME
55 59 1 0 0 
SMALL
USER_CHARGES


@<TRIPOS>ATOM
  1 S       -0.2050    -0.6290     0.2540 S.3   1 <1>  -0.0800 
  2 C       -1.6240     0.4130     0.0850 C.ar  1 <1>   0.2970 
  3 C        0.8940     0.7520     0.1270 C.ar  1 <1>   0.0400 
  4 N       -2.8270    -0.1080     0.0820 N.ar  1 <1>  -0.5670 
  5 C       -1.2510     1.7500    -0.0340 C.ar  1 <1>   0.0000 
  6 C        2.2870     0.7350     0.1600 C.ar  1 <1>   0.4100 
  7 C        0.1780     1.9070    -0.0310 C.ar  1 <1>   0.3070 
  8 C       -3.7990     0.7810    -0.0570 C.ar  1 <1>   0.4100 
  9 C       -2.2930     2.6770    -0.1350 C.ar  1 <1>  -0.1430 
 10 N        2.9560     1.8920     0.0200 N.ar  1 <1>  -0.6200 
 11 N        2.9950    -0.3920     0.3260 N.pl3 1 <1>  -0.8690 
 12 N        0.9120     3.0390    -0.1840 N.ar  1 <1>  -0.1250 
 13 N       -5.0760     0.2800    -0.0860 N.pl3 1 <1>  -0.8380 
 14 C       -3.5740     2.1630    -0.1680 C.ar  1 <1>  -0.1430 
 15 C       -2.1000     4.1900    -0.2150 C.3   1 <1>  -0.0170 
 16 C        2.2670     2.9850    -0.1490 C.ar  1 <1>   0.5210 
 17 C        4.4610    -0.5360     0.3490 C.3   1 <1>   0.3470 
 18 C       -5.5120    -0.5890     1.0480 C.3   1 <1>   0.2090 
 19 C       -5.5670    -0.2550    -1.3890 C.3   1 <1>   0.2090 
 20 C       -4.7910     3.0750    -0.3060 C.3   1 <1>   0.2630 
 21 C       -3.3920     4.9690     0.0980 C.3   1 <1>   0.2800 
 22 C        4.7730    -1.8750    -0.2770 C.2   1 <1>  -0.2880 
 23 C       -7.0310    -0.8360     0.9920 C.3   1 <1>   0.1200 
 24 C       -7.0830    -0.5170    -1.3350 C.3   1 <1>   0.1200 
 25 O       -4.4290     4.3920    -0.6230 O.3   1 <1>  -0.5600 
 26 C       -3.7330     4.9890     1.5980 C.3   1 <1>  -0.2400 
 27 C       -3.2900     6.4080    -0.4100 C.3   1 <1>  -0.2400 
 28 C        5.3340    -2.9160     0.3480 C.2   1 <1>  -0.3000 
 29 O       -7.4140    -1.3490    -0.2550 O.3   1 <1>  -0.5600 
 30 H        2.5250    -1.2970     0.4440 H     1 <1>   0.4000 
 31 H        0.4400     3.9290    -0.3370 H     1 <1>   0.4570 
 32 H       -1.7820     4.4420    -1.2100 H     1 <1>   0.0800 
 33 H       -1.3510     4.5130     0.4830 H     1 <1>   0.0800 
 34 H        2.8110     3.9100    -0.2700 H     1 <1>   0.1500 
 35 H        4.8090    -0.5060     1.3680 H     1 <1>   0.0800 
 36 H        4.9360     0.2550    -0.2070 H     1 <1>   0.0800 
 37 H       -5.2560    -0.1180     1.9810 H     1 <1>   0.0800 
 38 H       -4.9980    -1.5340     0.9970 H     1 <1>   0.0800 
 39 H       -5.0550    -1.1760    -1.6120 H     1 <1>   0.0800 
 40 H       -5.3500     0.4470    -2.1740 H     1 <1>   0.0800 
 41 H       -5.3630     3.0830     0.6050 H     1 <1>   0.0800 
 42 H       -5.4300     2.7260    -1.0980 H     1 <1>   0.0800 
 43 H        4.4900    -1.9100    -1.3160 H     1 <1>   0.1500 
 44 H       -7.5660     0.0820     1.1650 H     1 <1>   0.0800 
 45 H       -7.3170    -1.5510     1.7420 H     1 <1>   0.0800 
 46 H       -7.4070    -1.0070    -2.2360 H     1 <1>   0.0800 
 47 H       -7.6200     0.4090    -1.2310 H     1 <1>   0.0800 
 48 H       -3.7290     4.0010     2.0210 H     1 <1>   0.0800 
 49 H       -4.7000     5.4350     1.7500 H     1 <1>   0.0800 
 50 H       -3.0090     5.5740     2.1340 H     1 <1>   0.0800 
 51 H       -3.1160     6.4230    -1.4710 H     1 <1>   0.0800 
 52 H       -2.4890     6.9300     0.0800 H     1 <1>   0.0800 
 53 H       -4.2070     6.9340    -0.2080 H     1 <1>   0.0800 
 54 H        5.5450    -3.8580    -0.1290 H     1 <1>   0.1500 
 55 H        5.6300    -2.9190     1.3830 H     1 <1>   0.1500 
@<TRIPOS>BOND
  1   1   2  1   
  2   1   3  1   
  3   2   4  ar  
  4   2   5  ar  
  5   3   6  ar  
  6   3   7  ar  
  7   4   8  ar  
  8   5   7  1   
  9   5   9  ar  
 10   6  10  ar  
 11   6  11  1   
 12   7  12  ar  
 13   8  13  1   
 14   8  14  ar  
 15   9  14  ar  
 16   9  15  1   
 17  10  16  ar  
 18  11  17  1   
 19  11  30  1   
 20  12  16  ar  
 21  12  31  1   
 22  13  18  1   
 23  13  19  1   
 24  14  20  1   
 25  15  21  1   
 26  15  32  1   
 27  15  33  1   
 28  16  34  1   
 29  17  22  1   
 30  17  35  1   
 31  17  36  1   
 32  18  23  1   
 33  18  37  1   
 34  18  38  1   
 35  19  24  1   
 36  19  39  1   
 37  19  40  1   
 38  20  25  1   
 39  20  41  1   
 40  20  42  1   
 41  21  25  1   
 42  21  26  1   
 43  21  27  1   
 44  22  28  2   
 45  22  43  1   
 46  23  29  1   
 47  23  44  1   
 48  23  45  1   
 49  24  29  1   
 50  24  46  1   
 51  24  47  1   
 52  26  48  1   
 53  26  49  1   
 54  26  50  1   
 55  27  51  1   
 56  27  52  1   
 57  27  53  1   
 58  28  54  1   
 59  28  55  1   
@<TRIPOS>SUBSTRUCTURE
  1 ****   5 GROUP 4 **** **** 0

# MOE 2024.06 (io_trps.svl 2023.06)
