@<TRIPOS>MOLECULE
NONAME
36 37 1 0 0 
SMALL
USER_CHARGES


@<TRIPOS>ATOM
  1 CL      -2.8620    -0.0310     3.2180 Cl    1 <1>  -0.1770 
  2 C       -3.4980     0.9500     1.9230 C.ar  1 <1>   0.1770 
  3 C       -3.5840     0.4200     0.6500 C.ar  1 <1>  -0.1500 
  4 C       -3.9040     2.2440     2.1890 C.ar  1 <1>  -0.1500 
  5 C       -4.0860     1.2020    -0.3760 C.ar  1 <1>  -0.1500 
  6 C       -4.4040     3.0220     1.1580 C.ar  1 <1>  -0.1500 
  7 C       -4.4960     2.5050    -0.1270 C.ar  1 <1>  -0.1430 
  8 C       -5.0550     3.3610    -1.2610 C.3   1 <1>   0.0450 
  9 C       -6.5620     3.2420    -1.4300 C.2   1 <1>   0.5690 
 10 O       -7.0680     3.6690    -2.4390 O.2   1 <1>  -0.5700 
 11 N       -7.3100     2.6750    -0.4540 N.am  1 <1>  -0.7300 
 12 C       -8.7680     2.5390    -0.5010 C.3   1 <1>   0.2010 
 13 C       -9.3830     1.9810     0.7990 C.2   1 <1>   0.5690 
 14 O       -8.6490     1.6650     1.7340 O.2   1 <1>  -0.5700 
 15 N      -10.7430     1.8480     0.8960 N.am  1 <1>  -0.6600 
 16 C      -11.7370     2.1940    -0.1450 C.3   1 <1>   0.1400 
 17 C      -11.4030     1.3400     2.1170 C.3   1 <1>   0.1400 
 18 C      -13.0580     1.6500     0.3870 C.3   1 <1>  -0.1600 
 19 C      -12.8850     1.6240     1.9040 C.3   1 <1>  -0.1600 
 20 H       -3.2630    -0.5900     0.4700 H     1 <1>   0.1500 
 21 H       -3.8310     2.6320     3.1890 H     1 <1>   0.1500 
 22 H       -4.1570     0.7890    -1.3690 H     1 <1>   0.1500 
 23 H       -4.7240     4.0300     1.3650 H     1 <1>   0.1500 
 24 H       -4.5900     3.0800    -2.1880 H     1 <1>   0.0800 
 25 H       -4.8210     4.3940    -1.0860 H     1 <1>   0.0800 
 26 H       -6.8560     2.3100     0.3760 H     1 <1>   0.3700 
 27 H       -9.0380     1.8730    -1.3200 H     1 <1>   0.0800 
 28 H       -9.2120     3.5140    -0.6980 H     1 <1>   0.0800 
 29 H      -11.4850     1.7480    -1.0920 H     1 <1>   0.0800 
 30 H      -11.7880     3.2650    -0.2430 H     1 <1>   0.0800 
 31 H      -11.0220     1.8340     2.9950 H     1 <1>   0.0800 
 32 H      -11.2250     0.2800     2.1960 H     1 <1>   0.0800 
 33 H      -13.1980     0.6480     0.0200 H     1 <1>   0.0800 
 34 H      -13.8940     2.2540     0.0800 H     1 <1>   0.0800 
 35 H      -13.1170     2.5900     2.3170 H     1 <1>   0.0800 
 36 H      -13.5050     0.8830     2.3770 H     1 <1>   0.0800 
@<TRIPOS>BOND
  1   1   2  1   
  2   2   3  ar  
  3   2   4  ar  
  4   3   5  ar  
  5   3  20  1   
  6   4   6  ar  
  7   4  21  1   
  8   5   7  ar  
  9   5  22  1   
 10   6   7  ar  
 11   6  23  1   
 12   7   8  1   
 13   8   9  1   
 14   8  24  1   
 15   8  25  1   
 16   9  10  2   
 17   9  11  am  
 18  11  12  1   
 19  11  26  1   
 20  12  13  1   
 21  12  27  1   
 22  12  28  1   
 23  13  14  2   
 24  13  15  am  
 25  15  16  1   
 26  15  17  1   
 27  16  18  1   
 28  16  29  1   
 29  16  30  1   
 30  17  19  1   
 31  17  31  1   
 32  17  32  1   
 33  18  19  1   
 34  18  33  1   
 35  18  34  1   
 36  19  35  1   
 37  19  36  1   
@<TRIPOS>SUBSTRUCTURE
  1 ****  11 GROUP 4 **** **** 0

# MOE 2024.06 (io_trps.svl 2023.06)
