@<TRIPOS>MOLECULE
NONAME
48 50 1 0 0 
SMALL
USER_CHARGES


@<TRIPOS>ATOM
  1 S       -6.0100     2.9730     0.7970 S.3   1 <1>  -0.4600 
  2 C       -7.1170     3.4920    -0.5300 C.3   1 <1>   0.5940 
  3 C       -5.3250     4.5960     1.1910 C.3   1 <1>   0.1310 
  4 N       -6.9260     4.9600    -0.6180 N.am  1 <1>  -0.6600 
  5 C       -8.5620     3.1870    -0.1530 C.ar  1 <1>  -0.1440 
  6 C       -6.1140     5.5370     0.3080 C.2   1 <1>   0.5690 
  7 C       -7.6870     5.7170    -1.6630 C.3   1 <1>   0.1400 
  8 C       -9.1080     3.7160     1.0090 C.ar  1 <1>  -0.1500 
  9 C       -9.3650     2.4230    -0.9870 C.ar  1 <1>  -0.1500 
 10 O       -6.0790     6.7330     0.4680 O.2   1 <1>  -0.5700 
 11 C       -9.0310     6.2670    -1.1400 C.3   1 <1>   0.3430 
 12 C      -10.4430     3.5390     1.3220 C.ar  1 <1>   0.0820 
 13 C      -10.7000     2.2200    -0.6800 C.ar  1 <1>  -0.1500 
 14 N       -8.8350     7.2000     0.0080 N.4   1 <1>  -0.9590 
 15 O      -10.8660     4.1610     2.4550 O.3   1 <1>  -0.3620 
 16 C      -11.2500     2.7850     0.4600 C.ar  1 <1>   0.0820 
 17 C       -9.9230     7.0710     1.0180 C.3   1 <1>   0.3430 
 18 C       -8.6190     8.6090    -0.4220 C.3   1 <1>   0.3430 
 19 C      -11.7560     3.4940     3.3260 C.3   1 <1>   0.0400 
 20 O      -12.5680     2.6030     0.6790 O.3   1 <1>  -0.5320 
 21 C       -9.5720     7.8940     2.2570 C.3   1 <1>  -0.1600 
 22 C       -8.2560     9.4660     0.7930 C.3   1 <1>  -0.1600 
 23 C       -9.3090     9.3640     1.9040 C.3   1 <1>  -0.1600 
 24 H       -6.8040     2.9920    -1.4320 H     1 <1>   0.0800 
 25 H       -4.2800     4.5950     0.9410 H     1 <1>   0.0800 
 26 H       -5.4830     4.7900     2.2350 H     1 <1>   0.0800 
 27 H       -7.8740     5.0700    -2.5030 H     1 <1>   0.0800 
 28 H       -7.0820     6.5350    -2.0170 H     1 <1>   0.0800 
 29 H       -8.4980     4.2830     1.6880 H     1 <1>   0.1500 
 30 H       -8.9610     1.9810    -1.8840 H     1 <1>   0.1500 
 31 H       -9.6410     5.4340    -0.8310 H     1 <1>   0.0800 
 32 H       -9.5530     6.7730    -1.9350 H     1 <1>   0.0800 
 33 H      -11.3080     1.6240    -1.3380 H     1 <1>   0.1500 
 34 H       -7.9430     6.9230     0.4640 H     1 <1>   0.4500 
 35 H      -10.0490     6.0400     1.3020 H     1 <1>   0.0800 
 36 H      -10.8540     7.4220     0.6030 H     1 <1>   0.0800 
 37 H       -9.5160     8.9930    -0.8790 H     1 <1>   0.0800 
 38 H       -7.8170     8.6560    -1.1400 H     1 <1>   0.0800 
 39 H      -11.6640     3.9320     4.3030 H     1 <1>   0.0800 
 40 H      -11.4960     2.4500     3.3650 H     1 <1>   0.0800 
 41 H      -12.7600     3.6200     2.9650 H     1 <1>   0.0800 
 42 H      -12.9920     2.0150     0.0270 H     1 <1>   0.4500 
 43 H       -8.7040     7.4680     2.7300 H     1 <1>   0.0800 
 44 H      -10.3840     7.8330     2.9600 H     1 <1>   0.0800 
 45 H       -8.1600    10.4920     0.4840 H     1 <1>   0.0800 
 46 H       -7.2960     9.1530     1.1680 H     1 <1>   0.0800 
 47 H       -8.9700     9.8940     2.7790 H     1 <1>   0.0800 
 48 H      -10.2260     9.8240     1.5760 H     1 <1>   0.0800 
@<TRIPOS>BOND
  1   1   2  1   
  2   1   3  1   
  3   2   4  1   
  4   2   5  1   
  5   2  24  1   
  6   3   6  1   
  7   3  25  1   
  8   3  26  1   
  9   4   6  am  
 10   4   7  1   
 11   5   8  ar  
 12   5   9  ar  
 13   6  10  2   
 14   7  11  1   
 15   7  27  1   
 16   7  28  1   
 17   8  12  ar  
 18   8  29  1   
 19   9  13  ar  
 20   9  30  1   
 21  11  14  1   
 22  11  31  1   
 23  11  32  1   
 24  12  15  1   
 25  12  16  ar  
 26  13  16  ar  
 27  13  33  1   
 28  14  17  1   
 29  14  18  1   
 30  14  34  1   
 31  15  19  1   
 32  16  20  1   
 33  17  21  1   
 34  17  35  1   
 35  17  36  1   
 36  18  22  1   
 37  18  37  1   
 38  18  38  1   
 39  19  39  1   
 40  19  40  1   
 41  19  41  1   
 42  20  42  1   
 43  21  23  1   
 44  21  43  1   
 45  21  44  1   
 46  22  23  1   
 47  22  45  1   
 48  22  46  1   
 49  23  47  1   
 50  23  48  1   
@<TRIPOS>SUBSTRUCTURE
  1 ****   8 GROUP 4 **** **** 0

# MOE 2024.06 (io_trps.svl 2023.06)
