@<TRIPOS>MOLECULE
NONAME
44 45 1 0 0 
SMALL
USER_CHARGES


@<TRIPOS>ATOM
  1 O       -6.6980    -0.1750    -0.5170 O.3   1 <1>  -0.5600 
  2 C       -7.9660     0.4580    -0.5340 C.3   1 <1>   0.4870 
  3 C       -6.3600    -0.9750     0.5940 C.3   1 <1>   0.1200 
  4 C       -7.8500     1.9430    -0.1470 C.ar  1 <1>  -0.1440 
  5 C       -9.0140    -0.3210     0.2720 C.ar  1 <1>  -0.1440 
  6 C       -4.9270    -1.4950     0.4060 C.3   1 <1>   0.3430 
  7 C       -8.8020     2.8600    -0.5980 C.ar  1 <1>  -0.1440 
  8 C       -6.8130     2.4060     0.6570 C.ar  1 <1>  -0.1500 
  9 C       -9.6030    -1.4460    -0.2910 C.ar  1 <1>  -0.1500 
 10 C       -9.3910     0.0640     1.5540 C.ar  1 <1>  -0.1500 
 11 N       -4.0880    -0.4450    -0.2490 N.4   1 <1>  -0.9590 
 12 C       -8.6920     4.1980    -0.2490 C.ar  1 <1>  -0.1500 
 13 C       -9.9860     2.4460    -1.4650 C.3   1 <1>  -0.0970 
 14 C       -6.7110     3.7410     1.0010 C.ar  1 <1>  -0.1500 
 15 C      -10.5420    -2.1780     0.4150 C.ar  1 <1>  -0.1500 
 16 C      -10.3290    -0.6680     2.2600 C.ar  1 <1>  -0.1500 
 17 C       -3.1030    -1.0310    -1.2050 C.3   1 <1>   0.2630 
 18 C       -3.4310     0.4670     0.7340 C.3   1 <1>   0.2630 
 19 C       -7.6520     4.6400     0.5450 C.ar  1 <1>  -0.1500 
 20 C      -10.9040    -1.7900     1.6920 C.ar  1 <1>  -0.1500 
 21 H       -8.2690     0.4280    -1.5650 H     1 <1>   0.0800 
 22 H       -7.0330    -1.8130     0.6580 H     1 <1>   0.0800 
 23 H       -6.4410    -0.3890     1.4920 H     1 <1>   0.0800 
 24 H       -4.9750    -2.3640    -0.2300 H     1 <1>   0.0800 
 25 H       -4.5050    -1.8000     1.3500 H     1 <1>   0.0800 
 26 H       -6.0700     1.7350     1.0310 H     1 <1>   0.1500 
 27 H       -9.3330    -1.7610    -1.2840 H     1 <1>   0.1500 
 28 H       -8.9630     0.9390     2.0130 H     1 <1>   0.1500 
 29 H       -4.7910     0.1020    -0.7910 H     1 <1>   0.4500 
 30 H       -9.4200     4.9120    -0.5940 H     1 <1>   0.1500 
 31 H       -9.6440     2.0940    -2.4210 H     1 <1>   0.0800 
 32 H      -10.6490     3.2760    -1.6350 H     1 <1>   0.0800 
 33 H      -10.5530     1.6700    -0.9820 H     1 <1>   0.0800 
 34 H       -5.9040     4.0850     1.6250 H     1 <1>   0.1500 
 35 H      -10.9940    -3.0490    -0.0290 H     1 <1>   0.1500 
 36 H      -10.6160    -0.3610     3.2510 H     1 <1>   0.1500 
 37 H       -2.3890    -1.6440    -0.6800 H     1 <1>   0.0800 
 38 H       -2.5740    -0.2470    -1.7220 H     1 <1>   0.0800 
 39 H       -3.6110    -1.6390    -1.9370 H     1 <1>   0.0800 
 40 H       -2.7000    -0.0720     1.3140 H     1 <1>   0.0800 
 41 H       -4.1630     0.8870     1.4040 H     1 <1>   0.0800 
 42 H       -2.9360     1.2740     0.2180 H     1 <1>   0.0800 
 43 H       -7.5800     5.6820     0.8080 H     1 <1>   0.1500 
 44 H      -11.6350    -2.3580     2.2410 H     1 <1>   0.1500 
@<TRIPOS>BOND
  1   1   2  1   
  2   1   3  1   
  3   2   4  1   
  4   2   5  1   
  5   2  21  1   
  6   3   6  1   
  7   3  22  1   
  8   3  23  1   
  9   4   7  ar  
 10   4   8  ar  
 11   5   9  ar  
 12   5  10  ar  
 13   6  11  1   
 14   6  24  1   
 15   6  25  1   
 16   7  12  ar  
 17   7  13  1   
 18   8  14  ar  
 19   8  26  1   
 20   9  15  ar  
 21   9  27  1   
 22  10  16  ar  
 23  10  28  1   
 24  11  17  1   
 25  11  18  1   
 26  11  29  1   
 27  12  19  ar  
 28  12  30  1   
 29  13  31  1   
 30  13  32  1   
 31  13  33  1   
 32  14  19  ar  
 33  14  34  1   
 34  15  20  ar  
 35  15  35  1   
 36  16  20  ar  
 37  16  36  1   
 38  17  37  1   
 39  17  38  1   
 40  17  39  1   
 41  18  40  1   
 42  18  41  1   
 43  18  42  1   
 44  19  43  1   
 45  20  44  1   
@<TRIPOS>SUBSTRUCTURE
  1 ****   2 GROUP 4 **** **** 0

# MOE 2024.06 (io_trps.svl 2023.06)
