@<TRIPOS>MOLECULE
NONAME
49 50 1 0 0 
SMALL
USER_CHARGES


@<TRIPOS>ATOM
  1 O       -4.8400     6.2120    -1.3340 O.2   1 <1>  -0.5700 
  2 C       -5.9960     5.9980    -1.0570 C.2   1 <1>   0.5690 
  3 N       -6.5250     4.7580    -0.8670 N.am  1 <1>  -0.5470 
  4 C       -6.8930     7.2010    -0.8580 C.3   1 <1>  -0.0990 
  5 C       -5.9520     3.4730    -0.8500 C.ar  1 <1>   0.1170 
  6 C       -6.3630     8.0800     0.2780 C.3   1 <1>   0.3430 
  7 C       -6.7150     2.4320    -0.3120 C.ar  1 <1>   0.0820 
  8 C       -4.6810     3.1920    -1.3400 C.ar  1 <1>  -0.1500 
  9 N       -5.0090     8.6130    -0.0390 N.4   1 <1>  -0.9590 
 10 O       -7.9650     2.7490     0.1460 O.3   1 <1>  -0.3630 
 11 C       -6.1940     1.1430    -0.2620 C.ar  1 <1>  -0.1500 
 12 C       -4.1640     1.9080    -1.2910 C.ar  1 <1>  -0.1430 
 13 C       -4.1860     8.9380     1.1650 C.3   1 <1>   0.3430 
 14 C       -4.9900     9.7470    -1.0290 C.3   1 <1>   0.3430 
 15 C       -8.8230     1.7530     0.6630 C.3   1 <1>   0.0400 
 16 C       -4.9240     0.8870    -0.7470 C.ar  1 <1>  -0.1500 
 17 C       -2.7730     1.6190    -1.8270 C.3   1 <1>  -0.0970 
 18 C       -2.7180     9.2400     0.7670 C.3   1 <1>   0.2000 
 19 C       -3.6490    10.5290    -1.0460 C.3   1 <1>   0.2000 
 20 O       -2.6060     9.7420    -0.5420 O.3   1 <1>  -0.5600 
 21 C       -1.8590     7.9770     0.8010 C.3   1 <1>  -0.2400 
 22 C       -3.6970    11.8620    -0.2860 C.3   1 <1>  -0.2400 
 23 H       -7.5150     4.7010    -0.6160 H     1 <1>   0.3700 
 24 H       -7.8850     6.8730    -0.6100 H     1 <1>   0.0800 
 25 H       -6.9520     7.7570    -1.7740 H     1 <1>   0.0800 
 26 H       -6.3090     7.4800     1.1730 H     1 <1>   0.0800 
 27 H       -7.0440     8.8960     0.4630 H     1 <1>   0.0800 
 28 H       -4.0850     3.9740    -1.7690 H     1 <1>   0.1500 
 29 H       -4.4900     7.8380    -0.5120 H     1 <1>   0.4500 
 30 H       -6.7530     0.3250     0.1500 H     1 <1>   0.1500 
 31 H       -4.1980     8.1170     1.8630 H     1 <1>   0.0800 
 32 H       -4.5980     9.7990     1.6650 H     1 <1>   0.0800 
 33 H       -5.7850    10.4400    -0.8130 H     1 <1>   0.0800 
 34 H       -5.1660     9.3530    -2.0160 H     1 <1>   0.0800 
 35 H       -9.7510     2.2200     0.9420 H     1 <1>   0.0800 
 36 H       -8.3640     1.3100     1.5290 H     1 <1>   0.0800 
 37 H       -9.0020     1.0150    -0.0990 H     1 <1>   0.0800 
 38 H       -4.5280    -0.1130    -0.7020 H     1 <1>   0.1500 
 39 H       -2.4830     2.3610    -2.5500 H     1 <1>   0.0800 
 40 H       -2.7480     0.6560    -2.3030 H     1 <1>   0.0800 
 41 H       -2.0630     1.6270    -1.0190 H     1 <1>   0.0800 
 42 H       -2.3010     9.9700     1.4410 H     1 <1>   0.0800 
 43 H       -3.3990    10.7460    -2.0710 H     1 <1>   0.0800 
 44 H       -2.2370     7.2410     0.1130 H     1 <1>   0.0800 
 45 H       -1.8520     7.5530     1.7900 H     1 <1>   0.0800 
 46 H       -0.8460     8.2180     0.5330 H     1 <1>   0.0800 
 47 H       -3.9990    11.7380     0.7370 H     1 <1>   0.0800 
 48 H       -4.3940    12.5270    -0.7620 H     1 <1>   0.0800 
 49 H       -2.7270    12.3280    -0.3140 H     1 <1>   0.0800 
@<TRIPOS>BOND
  1   1   2  2   
  2   2   3  am  
  3   2   4  1   
  4   3   5  1   
  5   3  23  1   
  6   4   6  1   
  7   4  24  1   
  8   4  25  1   
  9   5   7  ar  
 10   5   8  ar  
 11   6   9  1   
 12   6  26  1   
 13   6  27  1   
 14   7  10  1   
 15   7  11  ar  
 16   8  12  ar  
 17   8  28  1   
 18   9  13  1   
 19   9  14  1   
 20   9  29  1   
 21  10  15  1   
 22  11  16  ar  
 23  11  30  1   
 24  12  16  ar  
 25  12  17  1   
 26  13  18  1   
 27  13  31  1   
 28  13  32  1   
 29  14  19  1   
 30  14  33  1   
 31  14  34  1   
 32  15  35  1   
 33  15  36  1   
 34  15  37  1   
 35  16  38  1   
 36  17  39  1   
 37  17  40  1   
 38  17  41  1   
 39  18  20  1   
 40  18  21  1   
 41  18  42  1   
 42  19  20  1   
 43  19  22  1   
 44  19  43  1   
 45  21  44  1   
 46  21  45  1   
 47  21  46  1   
 48  22  47  1   
 49  22  48  1   
 50  22  49  1   
@<TRIPOS>SUBSTRUCTURE
  1 ****   1 GROUP 4 **** **** 0

# MOE 2024.06 (io_trps.svl 2023.06)
