@<TRIPOS>MOLECULE
NONAME
40 41 1 0 0 
SMALL
USER_CHARGES


@<TRIPOS>ATOM
  1 S        0.0410    -0.2650    -0.9570 S.3   1 <1>  -0.3320 
  2 C        0.0150    -1.9650    -0.4070 C.ar  1 <1>   0.7220 
  3 C        1.7290     0.3530    -0.5240 C.3   1 <1>  -0.0100 
  4 N       -1.0980    -2.5950    -0.6210 N.ar  1 <1>  -0.6200 
  5 N        1.1030    -2.4050     0.1470 N.ar  1 <1>  -0.6200 
  6 C       -1.0740    -3.8390    -0.2030 C.ar  1 <1>   0.7200 
  7 C        0.9950    -3.6550     0.5130 C.ar  1 <1>   0.7200 
  8 N       -0.0480    -4.4190     0.3710 N.ar  1 <1>  -0.6200 
  9 N       -2.2140    -4.5900    -0.3860 N.pl3 1 <1>  -0.8380 
 10 N        2.0570    -4.2540     1.0960 N.pl3 1 <1>  -0.8690 
 11 C       -2.3540    -6.0080     0.0750 C.3   1 <1>   0.2090 
 12 C       -3.4250    -4.0960    -1.1180 C.3   1 <1>   0.2090 
 13 C        3.4520    -3.7570     1.1230 C.3   1 <1>   0.2090 
 14 C       -3.7040    -6.2240     0.7810 C.3   1 <1>   0.1200 
 15 C       -4.7090    -4.4280    -0.3380 C.3   1 <1>   0.1200 
 16 C        4.3400    -4.5820     0.1750 C.3   1 <1>  -0.0800 
 17 O       -4.7700    -5.7920    -0.0190 O.3   1 <1>  -0.5600 
 18 C        5.8020    -4.1320     0.2960 C.3   1 <1>  -0.2400 
 19 C        3.8890    -4.4640    -1.2910 C.3   1 <1>  -0.2400 
 20 H        1.7930     1.3790    -0.8370 H     1 <1>   0.0800 
 21 H        2.4460    -0.2560    -1.0450 H     1 <1>   0.0800 
 22 H        1.8490     0.2640     0.5400 H     1 <1>   0.0800 
 23 H        1.9270    -5.2500     1.2580 H     1 <1>   0.4000 
 24 H       -1.5670    -6.2780     0.7550 H     1 <1>   0.0800 
 25 H       -2.2920    -6.6620    -0.7770 H     1 <1>   0.0800 
 26 H       -3.4680    -4.5670    -2.0840 H     1 <1>   0.0800 
 27 H       -3.3860    -3.0330    -1.2740 H     1 <1>   0.0800 
 28 H        3.8240    -3.8390     2.1300 H     1 <1>   0.0800 
 29 H        3.4890    -2.7180     0.8430 H     1 <1>   0.0800 
 30 H       -3.7290    -5.6820     1.7100 H     1 <1>   0.0800 
 31 H       -3.8510    -7.2690     0.9860 H     1 <1>   0.0800 
 32 H       -5.5730    -4.1910    -0.9320 H     1 <1>   0.0800 
 33 H       -4.7490    -3.8580     0.5740 H     1 <1>   0.0800 
 34 H        4.2860    -5.6150     0.4730 H     1 <1>   0.0800 
 35 H        5.9070    -3.1020     0.0030 H     1 <1>   0.0800 
 36 H        6.4310    -4.7330    -0.3360 H     1 <1>   0.0800 
 37 H        6.1450    -4.2380     1.3100 H     1 <1>   0.0800 
 38 H        3.8910    -3.4360    -1.6050 H     1 <1>   0.0800 
 39 H        2.8940    -4.8540    -1.4120 H     1 <1>   0.0800 
 40 H        4.5460    -5.0240    -1.9330 H     1 <1>   0.0800 
@<TRIPOS>BOND
  1   1   2  1   
  2   1   3  1   
  3   2   4  ar  
  4   2   5  ar  
  5   3  20  1   
  6   3  21  1   
  7   3  22  1   
  8   4   6  ar  
  9   5   7  ar  
 10   6   8  ar  
 11   6   9  1   
 12   7   8  ar  
 13   7  10  1   
 14   9  11  1   
 15   9  12  1   
 16  10  13  1   
 17  10  23  1   
 18  11  14  1   
 19  11  24  1   
 20  11  25  1   
 21  12  15  1   
 22  12  26  1   
 23  12  27  1   
 24  13  16  1   
 25  13  28  1   
 26  13  29  1   
 27  14  17  1   
 28  14  30  1   
 29  14  31  1   
 30  15  17  1   
 31  15  32  1   
 32  15  33  1   
 33  16  18  1   
 34  16  19  1   
 35  16  34  1   
 36  18  35  1   
 37  18  36  1   
 38  18  37  1   
 39  19  38  1   
 40  19  39  1   
 41  19  40  1   
@<TRIPOS>SUBSTRUCTURE
  1 ****   8 GROUP 4 **** **** 0

# MOE 2024.06 (io_trps.svl 2023.06)
