@<TRIPOS>MOLECULE
NONAME
41 42 1 0 0 
SMALL
USER_CHARGES


@<TRIPOS>ATOM
  1 S        0.5950     0.0050    -1.6590 S.3   1 <1>  -0.0800 
  2 C       -0.4220    -0.9210    -0.5680 C.2   1 <1>   0.1040 
  3 C        1.9730    -0.1040    -0.5770 C.2   1 <1>  -0.1400 
  4 N       -1.7330    -1.2070    -0.9100 N.am  1 <1>  -0.4940 
  5 C        0.2740    -1.2740     0.5550 C.2   1 <1>  -0.0860 
  6 C        1.6350    -0.8010     0.5230 C.2   1 <1>  -0.1500 
  7 C        3.2480     0.5740    -1.0460 C.3   1 <1>   0.0200 
  8 C       -2.5840    -0.7500    -1.8800 C.2   1 <1>   0.5690 
  9 C       -0.2670    -2.0180     1.6570 C.2   1 <1>   0.8060 
 10 C        4.3890     0.4230    -0.0360 C.3   1 <1>  -0.2400 
 11 O       -2.3070     0.0900    -2.7000 O.2   1 <1>  -0.5700 
 12 C       -3.9880    -1.3620    -1.8880 C.3   1 <1>   0.1710 
 13 O       -1.4330    -2.3660     1.7240 O.2   1 <1>  -0.5700 
 14 O        0.5550    -2.3420     2.6640 O.3   1 <1>  -0.4300 
 15 N       -4.3180    -2.1340    -0.6520 N.3   1 <1>  -0.8100 
 16 C        0.1070    -3.0770     3.7870 C.3   1 <1>   0.0400 
 17 C       -5.4570    -3.0450    -0.8730 C.3   1 <1>   0.1100 
 18 C       -4.6220    -1.2470     0.4940 C.3   1 <1>   0.1100 
 19 C       -5.8050    -3.8130     0.4150 C.3   1 <1>   0.1200 
 20 C       -4.9850    -2.0720     1.7420 C.3   1 <1>   0.1200 
 21 O       -6.0610    -2.9230     1.4630 O.3   1 <1>  -0.5600 
 22 H       -2.2250    -1.8610    -0.2840 H     1 <1>   0.3700 
 23 H        2.3040    -1.0090     1.3410 H     1 <1>   0.1500 
 24 H        3.0480     1.6190    -1.2060 H     1 <1>   0.0800 
 25 H        3.5440     0.1450    -1.9870 H     1 <1>   0.0800 
 26 H        4.1140     0.8670     0.9040 H     1 <1>   0.0800 
 27 H        5.2720     0.9150    -0.4030 H     1 <1>   0.0800 
 28 H        4.6140    -0.6170     0.1190 H     1 <1>   0.0800 
 29 H       -4.0330    -2.0190    -2.7380 H     1 <1>   0.0800 
 30 H       -4.7090    -0.5790    -2.0390 H     1 <1>   0.0800 
 31 H        0.9370    -3.2180     4.4550 H     1 <1>   0.0800 
 32 H       -0.2670    -4.0300     3.4540 H     1 <1>   0.0800 
 33 H       -0.6740    -2.5220     4.2780 H     1 <1>   0.0800 
 34 H       -5.2070    -3.7530    -1.6450 H     1 <1>   0.0800 
 35 H       -6.3220    -2.4880    -1.1920 H     1 <1>   0.0800 
 36 H       -5.4480    -0.5990     0.2540 H     1 <1>   0.0800 
 37 H       -3.7700    -0.6310     0.7250 H     1 <1>   0.0800 
 38 H       -4.9910    -4.4570     0.7010 H     1 <1>   0.0800 
 39 H       -6.6860    -4.4110     0.2690 H     1 <1>   0.0800 
 40 H       -5.2780    -1.4230     2.5470 H     1 <1>   0.0800 
 41 H       -4.1450    -2.6660     2.0590 H     1 <1>   0.0800 
@<TRIPOS>BOND
  1   1   2  1   
  2   1   3  1   
  3   2   4  1   
  4   2   5  2   
  5   3   6  2   
  6   3   7  1   
  7   4   8  am  
  8   4  22  1   
  9   5   6  1   
 10   5   9  1   
 11   6  23  1   
 12   7  10  1   
 13   7  24  1   
 14   7  25  1   
 15   8  11  2   
 16   8  12  1   
 17   9  13  2   
 18   9  14  1   
 19  10  26  1   
 20  10  27  1   
 21  10  28  1   
 22  12  15  1   
 23  12  29  1   
 24  12  30  1   
 25  14  16  1   
 26  15  17  1   
 27  15  18  1   
 28  16  31  1   
 29  16  32  1   
 30  16  33  1   
 31  17  19  1   
 32  17  34  1   
 33  17  35  1   
 34  18  20  1   
 35  18  36  1   
 36  18  37  1   
 37  19  21  1   
 38  19  38  1   
 39  19  39  1   
 40  20  21  1   
 41  20  40  1   
 42  20  41  1   
@<TRIPOS>SUBSTRUCTURE
  1 ****   4 GROUP 4 **** **** 0

# MOE 2024.06 (io_trps.svl 2023.06)
