@<TRIPOS>MOLECULE
NONAME
47 48 1 0 0 
SMALL
USER_CHARGES


@<TRIPOS>ATOM
  1 S      -10.2860    -2.8390    -1.5930 S.3   1 <1>  -0.4600 
  2 C       -9.3800    -1.4190    -2.2470 C.3   1 <1>   0.5940 
  3 C       -8.8770    -3.7030    -0.8620 C.3   1 <1>   0.1310 
  4 N       -7.9660    -1.6750    -1.8750 N.am  1 <1>  -0.6600 
  5 C       -9.8400    -0.1250    -1.5780 C.ar  1 <1>  -0.1440 
  6 C       -7.7040    -2.7870    -1.1330 C.2   1 <1>   0.5690 
  7 C       -6.9040    -0.7970    -2.4470 C.3   1 <1>   0.1400 
  8 C      -10.0830    -0.0660    -0.2090 C.ar  1 <1>  -0.1500 
  9 C       -9.9240     1.0390    -2.3310 C.ar  1 <1>  -0.1500 
 10 O       -6.6120    -3.0350    -0.6820 O.2   1 <1>  -0.5700 
 11 C       -6.1320    -0.0240    -1.3640 C.3   1 <1>  -0.1600 
 12 C      -10.3340     1.1470     0.4150 C.ar  1 <1>   0.0830 
 13 C      -10.1810     2.2530    -1.7180 C.ar  1 <1>  -0.1500 
 14 C       -7.0760     0.6780    -0.3910 C.3   1 <1>   0.3430 
 15 O      -10.4830     1.2190     1.7640 O.3   1 <1>  -0.3630 
 16 C      -10.3640     2.3150    -0.3480 C.ar  1 <1>   0.0830 
 17 N       -6.3540     1.4980     0.6190 N.4   1 <1>  -0.9590 
 18 C      -11.2980     0.2600     2.4070 C.3   1 <1>   0.0400 
 19 O      -10.5180     3.5350     0.2160 O.3   1 <1>  -0.3630 
 20 C       -5.6190     0.6390     1.5980 C.3   1 <1>   0.2630 
 21 C       -7.3450     2.3710     1.3290 C.3   1 <1>   0.2630 
 22 C      -11.8090     3.8460     0.6940 C.3   1 <1>   0.0400 
 23 H       -9.5170    -1.4080    -3.3150 H     1 <1>   0.0800 
 24 H       -8.7640    -4.6500    -1.3570 H     1 <1>   0.0800 
 25 H       -9.0570    -3.8260     0.1890 H     1 <1>   0.0800 
 26 H       -7.3460    -0.1020    -3.1400 H     1 <1>   0.0800 
 27 H       -6.2120    -1.4110    -3.0010 H     1 <1>   0.0800 
 28 H      -10.0360    -0.9630     0.3810 H     1 <1>   0.1500 
 29 H       -9.7720     1.0150    -3.3980 H     1 <1>   0.1500 
 30 H       -5.5040     0.7010    -1.8500 H     1 <1>   0.0800 
 31 H       -5.5000    -0.7160    -0.8390 H     1 <1>   0.0800 
 32 H      -10.2330     3.1590    -2.2970 H     1 <1>   0.1500 
 33 H       -7.6720    -0.0650     0.1140 H     1 <1>   0.0800 
 34 H       -7.7420     1.3130    -0.9520 H     1 <1>   0.0800 
 35 H       -5.6830     2.1030     0.1250 H     1 <1>   0.4500 
 36 H      -11.5230     0.6200     3.3950 H     1 <1>   0.0800 
 37 H      -10.7670    -0.6720     2.4740 H     1 <1>   0.0800 
 38 H      -12.2090     0.1390     1.8460 H     1 <1>   0.0800 
 39 H       -6.3060    -0.0180     2.1070 H     1 <1>   0.0800 
 40 H       -5.1200     1.2510     2.3320 H     1 <1>   0.0800 
 41 H       -4.8800     0.0390     1.0930 H     1 <1>   0.0800 
 42 H       -8.0680     1.7680     1.8550 H     1 <1>   0.0800 
 43 H       -7.8760     2.9910     0.6230 H     1 <1>   0.0800 
 44 H       -6.8460     3.0100     2.0390 H     1 <1>   0.0800 
 45 H      -11.8100     4.8700     1.0220 H     1 <1>   0.0800 
 46 H      -12.0490     3.1980     1.5170 H     1 <1>   0.0800 
 47 H      -12.5180     3.7160    -0.1050 H     1 <1>   0.0800 
@<TRIPOS>BOND
  1   1   2  1   
  2   1   3  1   
  3   2   4  1   
  4   2   5  1   
  5   2  23  1   
  6   3   6  1   
  7   3  24  1   
  8   3  25  1   
  9   4   6  am  
 10   4   7  1   
 11   5   8  ar  
 12   5   9  ar  
 13   6  10  2   
 14   7  11  1   
 15   7  26  1   
 16   7  27  1   
 17   8  12  ar  
 18   8  28  1   
 19   9  13  ar  
 20   9  29  1   
 21  11  14  1   
 22  11  30  1   
 23  11  31  1   
 24  12  15  1   
 25  12  16  ar  
 26  13  16  ar  
 27  13  32  1   
 28  14  17  1   
 29  14  33  1   
 30  14  34  1   
 31  15  18  1   
 32  16  19  1   
 33  17  20  1   
 34  17  21  1   
 35  17  35  1   
 36  18  36  1   
 37  18  37  1   
 38  18  38  1   
 39  19  22  1   
 40  20  39  1   
 41  20  40  1   
 42  20  41  1   
 43  21  42  1   
 44  21  43  1   
 45  21  44  1   
 46  22  45  1   
 47  22  46  1   
 48  22  47  1   
@<TRIPOS>SUBSTRUCTURE
  1 ****   8 GROUP 4 **** **** 0

# MOE 2024.06 (io_trps.svl 2023.06)
