@<TRIPOS>MOLECULE
NONAME
43 45 1 0 0 
SMALL
USER_CHARGES


@<TRIPOS>ATOM
  1 N       -7.5460     3.7500     1.8630 N.pl3 1 <1>  -0.8440 
  2 C       -8.5630     3.3440     1.1330 C.cat 1 <1>   1.2000 
  3 C       -7.1030     5.1060     1.4370 C.3   1 <1>   0.1680 
  4 N       -8.9240     4.2310     0.2330 N.pl3 1 <1>  -0.7050 
  5 N       -9.2980     2.2360     1.0890 N.pl3 1 <1>  -0.7050 
  6 C       -8.0800     5.4430     0.2820 C.3   1 <1>   0.1680 
  7 C       -9.9740     3.6940    -0.4840 C.ar  1 <1>   0.3110 
  8 C      -10.2140     2.4360     0.0550 C.ar  1 <1>   0.3110 
  9 C       -9.1760     1.0170     1.9200 C.3   1 <1>   0.1680 
 10 C      -10.7300     4.1800    -1.5410 C.ar  1 <1>  -0.1500 
 11 C      -11.2270     1.6350    -0.4590 C.ar  1 <1>  -0.1500 
 12 C       -8.4470    -0.0930     1.1540 C.3   1 <1>  -0.1600 
 13 C      -11.7360     3.3810    -2.0500 C.ar  1 <1>  -0.1500 
 14 C      -11.9830     2.1160    -1.5120 C.ar  1 <1>  -0.1500 
 15 C       -7.0100     0.2820     0.7520 C.3   1 <1>  -0.1600 
 16 C       -6.3060    -0.8980     0.0730 C.3   1 <1>  -0.1600 
 17 C       -4.8770    -0.5250    -0.3390 C.3   1 <1>  -0.1600 
 18 C       -4.1740    -1.7050    -1.0190 C.3   1 <1>  -0.1600 
 19 C       -2.7470    -1.3330    -1.4320 C.3   1 <1>  -0.2400 
 20 H       -7.1000     3.2060     2.5980 H     1 <1>   0.4500 
 21 H       -6.0840     5.0880     1.0870 H     1 <1>   0.0800 
 22 H       -7.1980     5.8150     2.2430 H     1 <1>   0.0800 
 23 H       -7.5550     5.5850    -0.6480 H     1 <1>   0.0800 
 24 H       -8.6720     6.3150     0.5100 H     1 <1>   0.0800 
 25 H      -10.1600     0.6770     2.1990 H     1 <1>   0.0800 
 26 H       -8.6390     1.2440     2.8260 H     1 <1>   0.0800 
 27 H      -10.5300     5.1560    -1.9450 H     1 <1>   0.1500 
 28 H      -11.4130     0.6610    -0.0430 H     1 <1>   0.1500 
 29 H       -9.0130    -0.3570     0.2780 H     1 <1>   0.0800 
 30 H       -8.4140    -0.9650     1.7850 H     1 <1>   0.0800 
 31 H      -12.3410     3.7310    -2.8720 H     1 <1>   0.1500 
 32 H      -12.7740     1.5130    -1.9290 H     1 <1>   0.1500 
 33 H       -6.4520     0.5670     1.6270 H     1 <1>   0.0800 
 34 H       -7.0240     1.1120     0.0690 H     1 <1>   0.0800 
 35 H       -6.8620    -1.1940    -0.8020 H     1 <1>   0.0800 
 36 H       -6.2740    -1.7380     0.7470 H     1 <1>   0.0800 
 37 H       -4.3160    -0.2330     0.5320 H     1 <1>   0.0800 
 38 H       -4.9040     0.3100    -1.0180 H     1 <1>   0.0800 
 39 H       -4.7280    -2.0030    -1.8940 H     1 <1>   0.0800 
 40 H       -4.1390    -2.5450    -0.3450 H     1 <1>   0.0800 
 41 H       -2.7570    -0.5110    -2.1260 H     1 <1>   0.0800 
 42 H       -2.2710    -2.1740    -1.9050 H     1 <1>   0.0800 
 43 H       -2.1670    -1.0530    -0.5700 H     1 <1>   0.0800 
@<TRIPOS>BOND
  1   1   2  ar  
  2   1   3  1   
  3   1  20  1   
  4   2   4  ar  
  5   2   5  ar  
  6   3   6  1   
  7   3  21  1   
  8   3  22  1   
  9   4   6  1   
 10   4   7  1   
 11   5   8  1   
 12   5   9  1   
 13   6  23  1   
 14   6  24  1   
 15   7   8  ar  
 16   7  10  ar  
 17   8  11  ar  
 18   9  12  1   
 19   9  25  1   
 20   9  26  1   
 21  10  13  ar  
 22  10  27  1   
 23  11  14  ar  
 24  11  28  1   
 25  12  15  1   
 26  12  29  1   
 27  12  30  1   
 28  13  14  ar  
 29  13  31  1   
 30  14  32  1   
 31  15  16  1   
 32  15  33  1   
 33  15  34  1   
 34  16  17  1   
 35  16  35  1   
 36  16  36  1   
 37  17  18  1   
 38  17  37  1   
 39  17  38  1   
 40  18  19  1   
 41  18  39  1   
 42  18  40  1   
 43  19  41  1   
 44  19  42  1   
 45  19  43  1   
@<TRIPOS>SUBSTRUCTURE
  1 ****   5 GROUP 4 **** **** 0

# MOE 2024.06 (io_trps.svl 2023.06)
