@<TRIPOS>MOLECULE
NONAME
50 53 1 0 0 
SMALL
USER_CHARGES


@<TRIPOS>ATOM
  1 O       -0.5970     1.2060    -1.6860 O.2   1 <1>  -0.5700 
  2 C       -0.6040     2.2750    -1.1220 C.2   1 <1>   0.5690 
  3 N       -1.6360     2.7720    -0.3720 N.am  1 <1>  -0.2370 
  4 C        0.5440     3.2910    -1.2350 C.3   1 <1>   0.2510 
  5 C       -2.7650     2.0440     0.0540 C.ar  1 <1>   0.1170 
  6 C       -1.3940     4.0890    -0.0900 C.2   1 <1>   0.5690 
  7 N        1.7700     2.9850    -0.4410 N.3   1 <1>  -0.8100 
  8 C       -0.0990     4.5720    -0.6890 C.3   1 <1>  -0.0990 
  9 C       -3.4970     1.2590    -0.8310 C.ar  1 <1>  -0.1500 
 10 C       -3.1820     2.0830     1.3800 C.ar  1 <1>  -0.1500 
 11 O       -2.1080     4.8270     0.5370 O.2   1 <1>  -0.5700 
 12 C        2.2150     1.5720    -0.5980 C.3   1 <1>   0.1100 
 13 C        2.8940     3.8860    -0.8210 C.3   1 <1>   0.1100 
 14 C       -4.5970     0.5390    -0.4060 C.ar  1 <1>  -0.1500 
 15 C       -4.2820     1.3630     1.8010 C.ar  1 <1>  -0.1500 
 16 C        3.5020     1.2550     0.1890 C.3   1 <1>   0.2090 
 17 C        4.1760     3.6080    -0.0160 C.3   1 <1>   0.2090 
 18 C       -5.0250     0.5660     0.9260 C.ar  1 <1>   0.0860 
 19 N        4.6020     2.1890    -0.1770 N.pl3 1 <1>  -0.8380 
 20 C       -6.1700    -0.1790     1.4090 C.2   1 <1>   0.4230 
 21 C        5.8750     1.8390     0.2290 C.ar  1 <1>   0.4100 
 22 O       -6.5170    -0.1790     2.5620 O.2   1 <1>  -0.5700 
 23 C       -7.0030    -1.0150     0.4560 C.3   1 <1>  -0.1790 
 24 N        6.4180     2.5370     1.2210 N.ar  1 <1>  -0.6200 
 25 C        6.5250     0.7800    -0.4000 C.ar  1 <1>  -0.1500 
 26 C        7.6310     2.1660     1.5940 C.ar  1 <1>   0.1600 
 27 C        7.7870     0.4040    -0.0030 C.ar  1 <1>  -0.1500 
 28 C        8.3490     1.1260     1.0300 C.ar  1 <1>  -0.1500 
 29 H        0.8010     3.4020    -2.2750 H     1 <1>   0.0800 
 30 H       -0.3160     5.2620    -1.4830 H     1 <1>   0.0800 
 31 H        0.4900     5.0530     0.0700 H     1 <1>   0.0800 
 32 H       -3.1980     1.2080    -1.8630 H     1 <1>   0.1500 
 33 H       -2.6420     2.6870     2.0890 H     1 <1>   0.1500 
 34 H        2.3840     1.3540    -1.6390 H     1 <1>   0.0800 
 35 H        1.4490     0.9070    -0.2390 H     1 <1>   0.0800 
 36 H        2.6170     4.9110    -0.6580 H     1 <1>   0.0800 
 37 H        3.1220     3.7640    -1.8660 H     1 <1>   0.0800 
 38 H       -5.1230    -0.0540    -1.1310 H     1 <1>   0.1500 
 39 H       -4.5810     1.4160     2.8350 H     1 <1>   0.1500 
 40 H        3.8030     0.2420    -0.0140 H     1 <1>   0.0800 
 41 H        3.3030     1.3390     1.2430 H     1 <1>   0.0800 
 42 H        3.9990     3.8150     1.0260 H     1 <1>   0.0800 
 43 H        4.9650     4.2550    -0.3570 H     1 <1>   0.0800 
 44 H       -6.4000    -1.7930     0.0260 H     1 <1>   0.0800 
 45 H       -7.4070    -0.3940    -0.3210 H     1 <1>   0.0800 
 46 H       -7.8190    -1.4700     0.9880 H     1 <1>   0.0800 
 47 H        6.0250     0.2720    -1.2010 H     1 <1>   0.1500 
 48 H        8.0800     2.7240     2.3970 H     1 <1>   0.1500 
 49 H        8.3100    -0.4100    -0.4730 H     1 <1>   0.1500 
 50 H        9.3320     0.8880     1.3920 H     1 <1>   0.1500 
@<TRIPOS>BOND
  1   1   2  2   
  2   2   3  am  
  3   2   4  1   
  4   3   5  1   
  5   3   6  am  
  6   4   7  1   
  7   4   8  1   
  8   4  29  1   
  9   5   9  ar  
 10   5  10  ar  
 11   6   8  1   
 12   6  11  2   
 13   7  12  1   
 14   7  13  1   
 15   8  30  1   
 16   8  31  1   
 17   9  14  ar  
 18   9  32  1   
 19  10  15  ar  
 20  10  33  1   
 21  12  16  1   
 22  12  34  1   
 23  12  35  1   
 24  13  17  1   
 25  13  36  1   
 26  13  37  1   
 27  14  18  ar  
 28  14  38  1   
 29  15  18  ar  
 30  15  39  1   
 31  16  19  1   
 32  16  40  1   
 33  16  41  1   
 34  17  19  1   
 35  17  42  1   
 36  17  43  1   
 37  18  20  1   
 38  19  21  1   
 39  20  22  2   
 40  20  23  1   
 41  21  24  ar  
 42  21  25  ar  
 43  23  44  1   
 44  23  45  1   
 45  23  46  1   
 46  24  26  ar  
 47  25  27  ar  
 48  25  47  1   
 49  26  28  ar  
 50  26  48  1   
 51  27  28  ar  
 52  27  49  1   
 53  28  50  1   
@<TRIPOS>SUBSTRUCTURE
  1 ****   2 GROUP 4 **** **** 0

# MOE 2024.06 (io_trps.svl 2023.06)
