@<TRIPOS>MOLECULE
NONAME
38 39 1 0 0 
SMALL
USER_CHARGES


@<TRIPOS>ATOM
  1 O       -0.8230     1.1190     1.1980 O.2   1 <1>  -0.5760 
  2 C       -0.6030     1.7410     0.1990 C.2   1 <1>   0.8480 
  3 N       -1.6050     2.1520    -0.6180 N.pl3 1 <1>  -0.7350 
  4 C        0.8100     2.0890    -0.1870 C.3   1 <1>  -0.1890 
  5 C       -2.9080     2.0880    -0.3630 C.cat 1 <1>   1.0680 
  6 N       -3.6800     3.1440    -0.5390 N.pl3 1 <1>  -0.7050 
  7 N       -3.6350     1.0390     0.0560 N.pl3 1 <1>  -0.7690 
  8 C       -4.9620     2.8260    -0.1490 C.ar  1 <1>   0.3000 
  9 C       -4.9370     1.5030     0.2540 C.ar  1 <1>   0.3000 
 10 C       -3.1920    -0.3630     0.3420 C.3   1 <1>   0.3460 
 11 C       -6.1280     3.5800    -0.0990 C.ar  1 <1>  -0.1190 
 12 C       -6.0920     0.9080     0.7580 C.ar  1 <1>  -0.1190 
 13 C       -4.0000    -1.4270    -0.4450 C.3   1 <1>   0.3350 
 14 C       -7.2740     2.9800     0.3820 C.ar  1 <1>  -0.1600 
 15 C       -7.2550     1.6520     0.8120 C.ar  1 <1>  -0.1600 
 16 N       -3.5430    -2.8500    -0.2310 N.4   1 <1>  -0.9620 
 17 C       -4.2900    -3.7710    -1.1440 C.3   1 <1>   0.2540 
 18 C       -3.7100    -3.3190     1.1830 C.3   1 <1>   0.2540 
 19 H       -1.3180     2.7880    -1.3510 H     1 <1>   0.4430 
 20 H        0.9470     3.1540    -0.1700 H     1 <1>   0.0690 
 21 H        1.0340     1.7130    -1.1680 H     1 <1>   0.0690 
 22 H        1.4970     1.6470     0.5130 H     1 <1>   0.0690 
 23 H       -3.3940     4.0810    -0.8190 H     1 <1>   0.4430 
 24 H       -3.2820    -0.5390     1.4000 H     1 <1>   0.0690 
 25 H       -2.1620    -0.4840     0.0620 H     1 <1>   0.0690 
 26 H       -6.1350     4.6060    -0.4230 H     1 <1>   0.1400 
 27 H       -6.0920    -0.1060     1.1110 H     1 <1>   0.1400 
 28 H       -3.9200    -1.1970    -1.4950 H     1 <1>   0.0690 
 29 H       -5.0370    -1.3550    -0.1700 H     1 <1>   0.0690 
 30 H       -8.1970     3.5370     0.4340 H     1 <1>   0.1400 
 31 H       -8.1640     1.2150     1.1940 H     1 <1>   0.1400 
 32 H       -2.5430    -2.9370    -0.4780 H     1 <1>   0.4430 
 33 H       -5.3450    -3.7420    -0.9260 H     1 <1>   0.0690 
 34 H       -3.9400    -4.7840    -1.0180 H     1 <1>   0.0690 
 35 H       -4.1400    -3.4840    -2.1720 H     1 <1>   0.0690 
 36 H       -4.7450    -3.2590     1.4780 H     1 <1>   0.0690 
 37 H       -3.1190    -2.7190     1.8550 H     1 <1>   0.0690 
 38 H       -3.3890    -4.3450     1.2720 H     1 <1>   0.0690 
@<TRIPOS>BOND
  1   1   2  2   
  2   2   3  1   
  3   2   4  1   
  4   3   5  ar  
  5   3  19  1   
  6   4  20  1   
  7   4  21  1   
  8   4  22  1   
  9   5   6  ar  
 10   5   7  ar  
 11   6   8  1   
 12   6  23  1   
 13   7   9  1   
 14   7  10  1   
 15   8   9  ar  
 16   8  11  ar  
 17   9  12  ar  
 18  10  13  1   
 19  10  24  1   
 20  10  25  1   
 21  11  14  ar  
 22  11  26  1   
 23  12  15  ar  
 24  12  27  1   
 25  13  16  1   
 26  13  28  1   
 27  13  29  1   
 28  14  15  ar  
 29  14  30  1   
 30  15  31  1   
 31  16  17  1   
 32  16  18  1   
 33  16  32  1   
 34  17  33  1   
 35  17  34  1   
 36  17  35  1   
 37  18  36  1   
 38  18  37  1   
 39  18  38  1   
@<TRIPOS>SUBSTRUCTURE
  1 ****   7 GROUP 4 **** **** 0

# MOE 2024.06 (io_trps.svl 2023.06)
