@<TRIPOS>MOLECULE
NONAME
56 58 1 0 0 
SMALL
USER_CHARGES


@<TRIPOS>ATOM
  1 N       -0.0500    -0.0350     1.0370 N.4   1 <1>  -0.9590 
  2 C        1.3810     0.3880     0.9350 C.3   1 <1>   0.4230 
  3 C       -0.1960    -1.5250     0.9800 C.3   1 <1>   0.3430 
  4 C       -0.9930     0.6250     0.0740 C.3   1 <1>   0.3430 
  5 C        1.5430     1.8400     1.3910 C.3   1 <1>  -0.1600 
  6 C        1.9540     0.2080    -0.4770 C.3   1 <1>  -0.1600 
  7 C       -1.6230    -1.9230     1.3600 C.3   1 <1>  -0.1600 
  8 C       -2.4330     0.2720     0.4370 C.3   1 <1>  -0.1600 
  9 C        3.0120     2.2630     1.3310 C.3   1 <1>   0.3430 
 10 C        3.4190     0.6480    -0.5220 C.3   1 <1>   0.3430 
 11 C       -2.6630    -1.2490     0.4520 C.3   1 <1>  -0.0800 
 12 N        3.5490     2.0590    -0.0470 N.4   1 <1>  -0.9590 
 13 C       -4.0950    -1.6120     0.8910 C.3   1 <1>  -0.0170 
 14 C        4.9700     2.5220    -0.1020 C.3   1 <1>   0.3430 
 15 C       -5.1350    -0.9760    -0.0190 C.ar  1 <1>  -0.1430 
 16 C        5.4130     2.7260    -1.5520 C.3   1 <1>  -0.1600 
 17 C       -5.8710     0.1190     0.4090 C.ar  1 <1>  -0.1500 
 18 C       -5.3520    -1.4830    -1.2910 C.ar  1 <1>  -0.1500 
 19 C        6.8270     3.3150    -1.6100 C.3   1 <1>  -0.2400 
 20 C       -6.8040     0.7060    -0.4280 C.ar  1 <1>  -0.1500 
 21 C       -6.2850    -0.8970    -2.1290 C.ar  1 <1>  -0.1500 
 22 C       -7.0100     0.2000    -1.6980 C.ar  1 <1>  -0.1500 
 23 H       -0.3870     0.2300     1.9730 H     1 <1>   0.4500 
 24 H        1.9580    -0.2280     1.6070 H     1 <1>   0.0800 
 25 H        0.4940    -1.9940     1.6630 H     1 <1>   0.0800 
 26 H        0.0180    -1.8780    -0.0160 H     1 <1>   0.0800 
 27 H       -0.7900     0.2910    -0.9300 H     1 <1>   0.0800 
 28 H       -0.8780     1.6960     0.1070 H     1 <1>   0.0800 
 29 H        1.2070     1.9400     2.4080 H     1 <1>   0.0800 
 30 H        0.9690     2.5110     0.7780 H     1 <1>   0.0800 
 31 H        1.4050     0.7840    -1.2000 H     1 <1>   0.0800 
 32 H        1.9090    -0.8270    -0.7650 H     1 <1>   0.0800 
 33 H       -1.8040    -1.6680     2.3900 H     1 <1>   0.0800 
 34 H       -1.7170    -2.9920     1.2740 H     1 <1>   0.0800 
 35 H       -3.0820     0.7270    -0.2920 H     1 <1>   0.0800 
 36 H       -2.6820     0.6980     1.3940 H     1 <1>   0.0800 
 37 H        3.5880     1.6820     2.0350 H     1 <1>   0.0800 
 38 H        3.1000     3.3020     1.6090 H     1 <1>   0.0800 
 39 H        3.7840     0.5630    -1.5340 H     1 <1>   0.0800 
 40 H        4.0150    -0.0010     0.1000 H     1 <1>   0.0800 
 41 H       -2.5270    -1.6200    -0.5520 H     1 <1>   0.0800 
 42 H        3.0320     2.6750    -0.6930 H     1 <1>   0.4500 
 43 H       -4.2630    -1.2970     1.9060 H     1 <1>   0.0800 
 44 H       -4.2250    -2.6810     0.8630 H     1 <1>   0.0800 
 45 H        5.6190     1.8100     0.3830 H     1 <1>   0.0800 
 46 H        5.0650     3.4640     0.4160 H     1 <1>   0.0800 
 47 H        4.7430     3.4050    -2.0510 H     1 <1>   0.0800 
 48 H        5.4210     1.7900    -2.0830 H     1 <1>   0.0800 
 49 H       -5.7260     0.5230     1.3960 H     1 <1>   0.1500 
 50 H       -4.8010    -2.3390    -1.6380 H     1 <1>   0.1500 
 51 H        6.8660     4.2720    -1.1180 H     1 <1>   0.0800 
 52 H        7.1250     3.4550    -2.6350 H     1 <1>   0.0800 
 53 H        7.5390     2.6560    -1.1430 H     1 <1>   0.0800 
 54 H       -7.3720     1.5560    -0.0900 H     1 <1>   0.1500 
 55 H       -6.4500    -1.2950    -3.1150 H     1 <1>   0.1500 
 56 H       -7.7360     0.6550    -2.3490 H     1 <1>   0.1500 
@<TRIPOS>BOND
  1   1   2  1   
  2   1   3  1   
  3   1   4  1   
  4   1  23  1   
  5   2   5  1   
  6   2   6  1   
  7   2  24  1   
  8   3   7  1   
  9   3  25  1   
 10   3  26  1   
 11   4   8  1   
 12   4  27  1   
 13   4  28  1   
 14   5   9  1   
 15   5  29  1   
 16   5  30  1   
 17   6  10  1   
 18   6  31  1   
 19   6  32  1   
 20   7  11  1   
 21   7  33  1   
 22   7  34  1   
 23   8  11  1   
 24   8  35  1   
 25   8  36  1   
 26   9  12  1   
 27   9  37  1   
 28   9  38  1   
 29  10  12  1   
 30  10  39  1   
 31  10  40  1   
 32  11  13  1   
 33  11  41  1   
 34  12  14  1   
 35  12  42  1   
 36  13  15  1   
 37  13  43  1   
 38  13  44  1   
 39  14  16  1   
 40  14  45  1   
 41  14  46  1   
 42  15  17  ar  
 43  15  18  ar  
 44  16  19  1   
 45  16  47  1   
 46  16  48  1   
 47  17  20  ar  
 48  17  49  1   
 49  18  21  ar  
 50  18  50  1   
 51  19  51  1   
 52  19  52  1   
 53  19  53  1   
 54  20  22  ar  
 55  20  54  1   
 56  21  22  ar  
 57  21  55  1   
 58  22  56  1   
@<TRIPOS>SUBSTRUCTURE
  1 ****   4 GROUP 4 **** **** 0

# MOE 2024.06 (io_trps.svl 2023.06)
