@<TRIPOS>MOLECULE
NONAME
47 50 1 0 0 
SMALL
USER_CHARGES


@<TRIPOS>ATOM
  1 O       -0.0700     1.2920     1.7060 O.3   1 <1>  -0.6800 
  2 C        1.0940     2.0380     1.5860 C.3   1 <1>   0.1200 
  3 C        1.4160     2.2590     0.0860 C.3   1 <1>   0.4230 
  4 N        2.7410     2.9370    -0.1390 N.4   1 <1>  -0.9590 
  5 C        0.3070     3.0940    -0.5810 C.3   1 <1>  -0.1600 
  6 C        3.0380     3.1150    -1.5960 C.3   1 <1>   0.3430 
  7 C        3.8920     2.2650     0.5390 C.3   1 <1>   0.4860 
  8 C        0.5730     3.3550    -2.0680 C.3   1 <1>  -0.1600 
  9 C        1.9600     3.9710    -2.2550 C.3   1 <1>  -0.1600 
 10 C        5.1100     3.1630     0.4310 C.ar  1 <1>  -0.1440 
 11 C        6.1110     2.8600    -0.5040 C.ar  1 <1>   0.0000 
 12 C        5.1720     4.2960     1.2520 C.ar  1 <1>   0.0000 
 13 C        7.1840     3.7790    -0.6620 C.ar  1 <1>   0.0000 
 14 C        6.1320     1.6970    -1.3320 C.ar  1 <1>  -0.1500 
 15 C        6.2480     5.2050     1.0710 C.ar  1 <1>   0.0000 
 16 C        4.2190     4.6170     2.2660 C.ar  1 <1>  -0.1500 
 17 C        7.2190     4.9190     0.1250 C.ar  1 <1>  -0.1500 
 18 C        8.1890     3.5160    -1.6260 C.ar  1 <1>  -0.1500 
 19 C        7.1140     1.4760    -2.2480 C.ar  1 <1>  -0.1500 
 20 C        6.3010     6.3840     1.8550 C.ar  1 <1>  -0.1500 
 21 C        4.3030     5.7580     3.0050 C.ar  1 <1>  -0.1500 
 22 C        8.1590     2.4010    -2.4020 C.ar  1 <1>  -0.1500 
 23 C        5.3560     6.6610     2.7930 C.ar  1 <1>  -0.1500 
 24 H       -0.3370     1.1720     2.6430 H     1 <1>   0.4000 
 25 H        1.8680     1.4810     2.0810 H     1 <1>   0.0800 
 26 H        0.9370     2.9790     2.0860 H     1 <1>   0.0800 
 27 H        1.4450     1.2900    -0.3860 H     1 <1>   0.0800 
 28 H        2.6850     3.8870     0.2490 H     1 <1>   0.4500 
 29 H        0.1990     4.0310    -0.0630 H     1 <1>   0.0800 
 30 H       -0.6310     2.5730    -0.4920 H     1 <1>   0.0800 
 31 H        3.0810     2.1540    -2.0820 H     1 <1>   0.0800 
 32 H        3.9930     3.6020    -1.7280 H     1 <1>   0.0800 
 33 H        4.0720     1.3010     0.0980 H     1 <1>   0.0800 
 34 H        3.6790     2.1080     1.5820 H     1 <1>   0.0800 
 35 H       -0.1800     4.0170    -2.4630 H     1 <1>   0.0800 
 36 H        0.5110     2.4270    -2.6130 H     1 <1>   0.0800 
 37 H        2.1730     4.0560    -3.3070 H     1 <1>   0.0800 
 38 H        1.9860     4.9640    -1.8410 H     1 <1>   0.0800 
 39 H        5.3660     0.9530    -1.2430 H     1 <1>   0.1500 
 40 H        3.4130     3.9450     2.4790 H     1 <1>   0.1500 
 41 H        8.0340     5.6090    -0.0030 H     1 <1>   0.1500 
 42 H        8.9880     4.2290    -1.7320 H     1 <1>   0.1500 
 43 H        7.1200     0.5940    -2.8670 H     1 <1>   0.1500 
 44 H        7.1170     7.0660     1.6910 H     1 <1>   0.1500 
 45 H        3.5790     5.9920     3.7690 H     1 <1>   0.1500 
 46 H        8.9240     2.2050    -3.1340 H     1 <1>   0.1500 
 47 H        5.4010     7.5590     3.3860 H     1 <1>   0.1500 
@<TRIPOS>BOND
  1   1   2  1   
  2   1  24  1   
  3   2   3  1   
  4   2  25  1   
  5   2  26  1   
  6   3   4  1   
  7   3   5  1   
  8   3  27  1   
  9   4   6  1   
 10   4   7  1   
 11   4  28  1   
 12   5   8  1   
 13   5  29  1   
 14   5  30  1   
 15   6   9  1   
 16   6  31  1   
 17   6  32  1   
 18   7  10  1   
 19   7  33  1   
 20   7  34  1   
 21   8   9  1   
 22   8  35  1   
 23   8  36  1   
 24   9  37  1   
 25   9  38  1   
 26  10  11  ar  
 27  10  12  ar  
 28  11  13  ar  
 29  11  14  ar  
 30  12  15  ar  
 31  12  16  ar  
 32  13  17  ar  
 33  13  18  ar  
 34  14  19  ar  
 35  14  39  1   
 36  15  17  ar  
 37  15  20  ar  
 38  16  21  ar  
 39  16  40  1   
 40  17  41  1   
 41  18  22  ar  
 42  18  42  1   
 43  19  22  ar  
 44  19  43  1   
 45  20  23  ar  
 46  20  44  1   
 47  21  23  ar  
 48  21  45  1   
 49  22  46  1   
 50  23  47  1   
@<TRIPOS>SUBSTRUCTURE
  1 ****  10 GROUP 4 **** **** 0

# MOE 2024.06 (io_trps.svl 2023.06)
