@<TRIPOS>MOLECULE
NONAME
46 48 1 0 0 
SMALL
USER_CHARGES


@<TRIPOS>ATOM
  1 F        1.6650     0.0150    -1.8690 F     1 <1>  -0.1900 
  2 C        2.7400    -0.6000    -1.4610 C.ar  1 <1>   0.1900 
  3 C        2.8310    -0.9780    -0.1350 C.ar  1 <1>  -0.1500 
  4 C        3.7510    -0.8550    -2.3670 C.ar  1 <1>  -0.1500 
  5 C        3.9780    -1.6270     0.2910 C.ar  1 <1>  -0.1500 
  6 C        4.8890    -1.5050    -1.9230 C.ar  1 <1>  -0.1500 
  7 C        5.0320    -1.8960    -0.5880 C.ar  1 <1>   0.0860 
  8 C        6.2360    -2.5720    -0.1420 C.2   1 <1>   0.5440 
  9 O        6.6550    -3.5170    -0.7830 O.2   1 <1>  -0.5700 
 10 N        6.9310    -2.1690     0.9820 N.am  1 <1>  -0.6600 
 11 C        7.9740    -3.0320     1.6010 C.3   1 <1>   0.1400 
 12 C        6.8900    -0.7820     1.5180 C.3   1 <1>   0.1400 
 13 C        9.3500    -2.4030     1.3740 C.3   1 <1>  -0.1600 
 14 C        8.2530    -0.1180     1.3000 C.3   1 <1>  -0.1600 
 15 C        9.4000    -0.9550     1.8990 C.3   1 <1>  -0.0190 
 16 C       10.7560    -0.3030     1.6460 C.2   1 <1>   0.5690 
 17 O       11.3770     0.1350     2.5830 O.2   1 <1>  -0.5700 
 18 N       11.2210    -0.2310     0.3740 N.am  1 <1>  -0.7300 
 19 C       12.5060     0.3540    -0.0390 C.3   1 <1>   0.2200 
 20 C       12.2410     1.4090    -1.1050 C.3   1 <1>  -0.1600 
 21 C       13.3060    -0.7050    -0.7860 C.3   1 <1>  -0.1600 
 22 C       12.0670     0.6400    -2.4200 C.3   1 <1>  -0.1600 
 23 C       12.7480    -0.7190    -2.2140 C.3   1 <1>  -0.1600 
 24 H        2.0200    -0.7690     0.5400 H     1 <1>   0.1500 
 25 H        3.6430    -0.5530    -3.3930 H     1 <1>   0.1500 
 26 H        4.0640    -1.9380     1.3180 H     1 <1>   0.1500 
 27 H        5.6870    -1.7230    -2.6130 H     1 <1>   0.1500 
 28 H        7.9500    -4.0220     1.1770 H     1 <1>   0.0800 
 29 H        7.7770    -3.1200     2.6550 H     1 <1>   0.0800 
 30 H        6.6610    -0.8170     2.5700 H     1 <1>   0.0800 
 31 H        6.1310    -0.1990     1.0270 H     1 <1>   0.0800 
 32 H        9.5620    -2.4310     0.3190 H     1 <1>   0.0800 
 33 H       10.0970    -2.9940     1.8740 H     1 <1>   0.0800 
 34 H        8.2490     0.8580     1.7520 H     1 <1>   0.0800 
 35 H        8.4050     0.0130     0.2430 H     1 <1>   0.0800 
 36 H        9.2610    -0.9880     2.9660 H     1 <1>   0.0800 
 37 H       10.6750    -0.6260    -0.3900 H     1 <1>   0.3700 
 38 H       13.0380     0.7500     0.8110 H     1 <1>   0.0800 
 39 H       13.1100     2.0390    -1.1810 H     1 <1>   0.0800 
 40 H       11.3920     2.0260    -0.8650 H     1 <1>   0.0800 
 41 H       13.2530    -1.6680    -0.3070 H     1 <1>   0.0800 
 42 H       14.3350    -0.3940    -0.8160 H     1 <1>   0.0800 
 43 H       12.5070     1.1810    -3.2410 H     1 <1>   0.0800 
 44 H       11.0200     0.4940    -2.6240 H     1 <1>   0.0800 
 45 H       12.0230    -1.5080    -2.3170 H     1 <1>   0.0800 
 46 H       13.5360    -0.8780    -2.9310 H     1 <1>   0.0800 
@<TRIPOS>BOND
  1   1   2  1   
  2   2   3  ar  
  3   2   4  ar  
  4   3   5  ar  
  5   3  24  1   
  6   4   6  ar  
  7   4  25  1   
  8   5   7  ar  
  9   5  26  1   
 10   6   7  ar  
 11   6  27  1   
 12   7   8  1   
 13   8   9  2   
 14   8  10  am  
 15  10  11  1   
 16  10  12  1   
 17  11  13  1   
 18  11  28  1   
 19  11  29  1   
 20  12  14  1   
 21  12  30  1   
 22  12  31  1   
 23  13  15  1   
 24  13  32  1   
 25  13  33  1   
 26  14  15  1   
 27  14  34  1   
 28  14  35  1   
 29  15  16  1   
 30  15  36  1   
 31  16  17  2   
 32  16  18  am  
 33  18  19  1   
 34  18  37  1   
 35  19  20  1   
 36  19  21  1   
 37  19  38  1   
 38  20  22  1   
 39  20  39  1   
 40  20  40  1   
 41  21  23  1   
 42  21  41  1   
 43  21  42  1   
 44  22  23  1   
 45  22  43  1   
 46  22  44  1   
 47  23  45  1   
 48  23  46  1   
@<TRIPOS>SUBSTRUCTURE
  1 ****  14 GROUP 4 **** **** 0

# MOE 2024.06 (io_trps.svl 2023.06)
