@<TRIPOS>MOLECULE
NONAME
38 41 1 0 0 
SMALL
USER_CHARGES


@<TRIPOS>ATOM
  1 O       -0.6800    -0.1360    -1.1890 O.2   1 <1>  -0.5700 
  2 C       -1.0370    -1.1130    -0.5770 C.2   1 <1>   0.6300 
  3 N       -0.1920    -2.0470    -0.0510 N.am  1 <1>  -0.5470 
  4 C       -2.5260    -1.3560    -0.3880 C.3   1 <1>  -0.1000 
  5 C        1.2100    -2.1430    -0.0330 C.ar  1 <1>   0.1170 
  6 C       -3.3410    -0.4250     0.4600 C.3   1 <1>  -0.1950 
  7 C       -3.0740    -1.8340     0.9290 C.3   1 <1>  -0.1950 
  8 C        1.7860    -3.3670     0.2870 C.ar  1 <1>  -0.1500 
  9 C        2.0530    -1.0700    -0.3070 C.ar  1 <1>  -0.1500 
 10 C       -4.8730    -0.2900     0.5560 C.3   1 <1>   0.0150 
 11 C       -4.4790    -2.3820     1.2470 C.3   1 <1>   0.0150 
 12 C        3.1600    -3.5170     0.3280 C.ar  1 <1>  -0.1500 
 13 C        3.4290    -1.2140    -0.2690 C.ar  1 <1>  -0.1500 
 14 C       -5.1480    -1.1300     1.7930 C.3   1 <1>  -0.1600 
 15 C       -5.5430    -1.1470    -0.5330 C.3   1 <1>  -0.1600 
 16 C       -5.2700    -2.5900    -0.0570 C.3   1 <1>  -0.1600 
 17 C        3.9920    -2.4460     0.0500 C.ar  1 <1>   0.0830 
 18 O        5.3300    -2.6770     0.1100 O.3   1 <1>  -0.3620 
 19 C        6.2550    -1.6530    -0.1810 C.3   1 <1>   0.0400 
 20 H       -0.6780    -2.8230     0.3910 H     1 <1>   0.3700 
 21 H       -2.9570    -1.7130    -1.3030 H     1 <1>   0.1000 
 22 H       -2.8210     0.3690     0.9700 H     1 <1>   0.1000 
 23 H       -2.4070    -1.9170     1.7710 H     1 <1>   0.1000 
 24 H        1.1600    -4.2130     0.5030 H     1 <1>   0.1500 
 25 H        1.6390    -0.1090    -0.5510 H     1 <1>   0.1500 
 26 H       -5.2240     0.7260     0.6050 H     1 <1>   0.0800 
 27 H       -4.4850    -3.2280     1.9130 H     1 <1>   0.0800 
 28 H        3.6000    -4.4670     0.5740 H     1 <1>   0.1500 
 29 H        4.0390    -0.3590    -0.4890 H     1 <1>   0.1500 
 30 H       -6.1990    -1.2650     1.9820 H     1 <1>   0.0800 
 31 H       -4.6580    -0.7460     2.6710 H     1 <1>   0.0800 
 32 H       -5.1350    -0.9460    -1.5070 H     1 <1>   0.0800 
 33 H       -6.6030    -0.9570    -0.5530 H     1 <1>   0.0800 
 34 H       -6.1990    -3.0940     0.1490 H     1 <1>   0.0800 
 35 H       -4.7140    -3.1640    -0.7770 H     1 <1>   0.0800 
 36 H        7.2450    -2.0590    -0.0810 H     1 <1>   0.0800 
 37 H        6.1180    -0.8490     0.5200 H     1 <1>   0.0800 
 38 H        6.0980    -1.3170    -1.1900 H     1 <1>   0.0800 
@<TRIPOS>BOND
  1   1   2  2   
  2   2   3  am  
  3   2   4  1   
  4   3   5  1   
  5   3  20  1   
  6   4   6  1   
  7   4   7  1   
  8   4  21  1   
  9   5   8  ar  
 10   5   9  ar  
 11   6   7  1   
 12   6  10  1   
 13   6  22  1   
 14   7  11  1   
 15   7  23  1   
 16   8  12  ar  
 17   8  24  1   
 18   9  13  ar  
 19   9  25  1   
 20  10  14  1   
 21  10  15  1   
 22  10  26  1   
 23  11  14  1   
 24  11  16  1   
 25  11  27  1   
 26  12  17  ar  
 27  12  28  1   
 28  13  17  ar  
 29  13  29  1   
 30  14  30  1   
 31  14  31  1   
 32  15  16  1   
 33  15  32  1   
 34  15  33  1   
 35  16  34  1   
 36  16  35  1   
 37  17  18  1   
 38  18  19  1   
 39  19  36  1   
 40  19  37  1   
 41  19  38  1   
@<TRIPOS>SUBSTRUCTURE
  1 ****   3 GROUP 4 **** **** 0

# MOE 2024.06 (io_trps.svl 2023.06)
