@<TRIPOS>MOLECULE
NONAME
41 43 1 0 0 
SMALL
USER_CHARGES


@<TRIPOS>ATOM
  1 O        0.2120    -0.4800    -0.3330 O.3   1 <1>  -0.3630 
  2 C       -1.0060    -1.0640    -0.2310 C.ar  1 <1>   0.0830 
  3 C        1.3800    -1.1480     0.0730 C.3   1 <1>   0.1200 
  4 C       -1.2320    -2.3160     0.2930 C.ar  1 <1>  -0.1500 
  5 C       -2.0870    -0.3090    -0.7040 C.ar  1 <1>  -0.1500 
  6 C        2.5560    -0.2020    -0.1910 C.3   1 <1>   0.3430 
  7 C       -2.5310    -2.8550     0.3620 C.ar  1 <1>   0.0000 
  8 C       -3.3570    -0.8090    -0.6480 C.ar  1 <1>  -0.1500 
  9 N        3.8780    -0.7750     0.2280 N.4   1 <1>  -0.9590 
 10 C       -3.6160    -2.0890    -0.1170 C.ar  1 <1>   0.0000 
 11 C       -2.7930    -4.1350     0.8940 C.ar  1 <1>  -0.1500 
 12 C        4.9240     0.2900     0.2110 C.3   1 <1>   0.3430 
 13 C        4.2840    -1.9420    -0.6160 C.3   1 <1>   0.3430 
 14 C       -4.9150    -2.6310    -0.0470 C.ar  1 <1>  -0.1500 
 15 C       -4.0650    -4.6360     0.9500 C.ar  1 <1>  -0.1500 
 16 C        6.2340    -0.2630     0.7740 C.3   1 <1>  -0.1600 
 17 C        5.5800    -2.5460    -0.0710 C.3   1 <1>  -0.1600 
 18 C       -5.1380    -3.8750     0.4740 C.ar  1 <1>  -0.1500 
 19 C        6.7040    -1.5050     0.0060 C.3   1 <1>  -0.1600 
 20 H        1.4620    -2.0500    -0.5060 H     1 <1>   0.0800 
 21 H        1.2900    -1.3660     1.1230 H     1 <1>   0.0800 
 22 H       -0.4360    -2.9270     0.6670 H     1 <1>   0.1500 
 23 H       -1.8940     0.6680    -1.1100 H     1 <1>   0.1500 
 24 H        2.3760     0.7100     0.3550 H     1 <1>   0.0800 
 25 H        2.5820     0.0350    -1.2430 H     1 <1>   0.0800 
 26 H       -4.1870    -0.2290    -1.0110 H     1 <1>   0.1500 
 27 H        3.8070    -1.1030     1.2000 H     1 <1>   0.4500 
 28 H       -1.9690    -4.7200     1.2600 H     1 <1>   0.1500 
 29 H        4.6070     1.1320     0.8050 H     1 <1>   0.0800 
 30 H        5.0840     0.6300    -0.8010 H     1 <1>   0.0800 
 31 H        4.4380    -1.6200    -1.6340 H     1 <1>   0.0800 
 32 H        3.5130    -2.6950    -0.6120 H     1 <1>   0.0800 
 33 H       -5.7360    -2.0420    -0.4140 H     1 <1>   0.1500 
 34 H       -4.2580    -5.6140     1.3570 H     1 <1>   0.1500 
 35 H        6.1040    -0.5020     1.8160 H     1 <1>   0.0800 
 36 H        6.9920     0.4990     0.7130 H     1 <1>   0.0800 
 37 H        5.8890    -3.3530    -0.7130 H     1 <1>   0.0800 
 38 H        5.3990    -2.9640     0.9040 H     1 <1>   0.0800 
 39 H       -6.1320    -4.2840     0.5250 H     1 <1>   0.1500 
 40 H        7.5670    -1.9320     0.4910 H     1 <1>   0.0800 
 41 H        6.9980    -1.2200    -0.9910 H     1 <1>   0.0800 
@<TRIPOS>BOND
  1   1   2  1   
  2   1   3  1   
  3   2   4  ar  
  4   2   5  ar  
  5   3   6  1   
  6   3  20  1   
  7   3  21  1   
  8   4   7  ar  
  9   4  22  1   
 10   5   8  ar  
 11   5  23  1   
 12   6   9  1   
 13   6  24  1   
 14   6  25  1   
 15   7  10  ar  
 16   7  11  ar  
 17   8  10  ar  
 18   8  26  1   
 19   9  12  1   
 20   9  13  1   
 21   9  27  1   
 22  10  14  ar  
 23  11  15  ar  
 24  11  28  1   
 25  12  16  1   
 26  12  29  1   
 27  12  30  1   
 28  13  17  1   
 29  13  31  1   
 30  13  32  1   
 31  14  18  ar  
 32  14  33  1   
 33  15  18  ar  
 34  15  34  1   
 35  16  19  1   
 36  16  35  1   
 37  16  36  1   
 38  17  19  1   
 39  17  37  1   
 40  17  38  1   
 41  18  39  1   
 42  19  40  1   
 43  19  41  1   
@<TRIPOS>SUBSTRUCTURE
  1 ****   3 GROUP 4 **** **** 0

# MOE 2024.06 (io_trps.svl 2023.06)
