@<TRIPOS>MOLECULE
NONAME
51 53 1 0 0 
SMALL
USER_CHARGES


@<TRIPOS>ATOM
  1 CL       2.3830     0.6190     4.2120 Cl    1 <1>  -0.1770 
  2 C        3.5840     0.7890     2.9540 C.ar  1 <1>   0.1770 
  3 C        4.9110     0.5310     3.2440 C.ar  1 <1>  -0.1500 
  4 C        3.1890     1.1780     1.6870 C.ar  1 <1>  -0.1500 
  5 C        5.8590     0.6670     2.2460 C.ar  1 <1>  -0.1500 
  6 C        4.1450     1.3110     0.6950 C.ar  1 <1>  -0.1500 
  7 C        5.4850     1.0580     0.9620 C.ar  1 <1>   0.1000 
  8 N        6.4190     1.2020    -0.0550 N.pl3 1 <1>  -0.8380 
  9 C        7.3590     2.3550     0.0820 C.3   1 <1>   0.2090 
 10 C        7.1200    -0.0430    -0.4900 C.3   1 <1>   0.2090 
 11 C        8.1910     2.5440    -1.2000 C.3   1 <1>   0.1100 
 12 C        7.9690     0.2040    -1.7540 C.3   1 <1>   0.1100 
 13 N        8.9340     1.3090    -1.5610 N.3   1 <1>  -0.8100 
 14 C        9.7800     1.5130    -2.7770 C.3   1 <1>   0.1710 
 15 C       11.0120     2.3890    -2.5300 C.2   1 <1>   0.5690 
 16 O       11.5640     2.9120    -3.4700 O.2   1 <1>  -0.5700 
 17 N       11.4000     2.5330    -1.2320 N.am  1 <1>  -0.5470 
 18 C       12.3330     3.3600    -0.5840 C.ar  1 <1>   0.1170 
 19 C       12.1610     3.6210     0.7800 C.ar  1 <1>   0.0830 
 20 C       13.4180     3.9200    -1.2470 C.ar  1 <1>  -0.1500 
 21 O       11.0800     3.0520     1.3960 O.3   1 <1>  -0.3630 
 22 C       13.0690     4.4340     1.4490 C.ar  1 <1>  -0.1500 
 23 C       14.3190     4.7300    -0.5770 C.ar  1 <1>  -0.1500 
 24 C       10.8580     3.2210     2.7790 C.3   1 <1>   0.0400 
 25 C       14.1450     4.9900     0.7780 C.ar  1 <1>   0.0830 
 26 O       14.9790     5.7740     1.5110 O.3   1 <1>  -0.3620 
 27 C       16.0950     6.3990     0.9170 C.3   1 <1>   0.0400 
 28 H        5.1910     0.2300     4.2370 H     1 <1>   0.1500 
 29 H        2.1510     1.3730     1.4850 H     1 <1>   0.1500 
 30 H        6.8940     0.4720     2.4540 H     1 <1>   0.1500 
 31 H        3.8660     1.6120    -0.2980 H     1 <1>   0.1500 
 32 H        8.0240     2.1860     0.9110 H     1 <1>   0.0800 
 33 H        6.7950     3.2500     0.2780 H     1 <1>   0.0800 
 34 H        6.3900    -0.8060    -0.6930 H     1 <1>   0.0800 
 35 H        7.7610    -0.3920     0.3000 H     1 <1>   0.0800 
 36 H        8.8770     3.3570    -1.0410 H     1 <1>   0.0800 
 37 H        7.5290     2.8220    -2.0020 H     1 <1>   0.0800 
 38 H        7.3100     0.4300    -2.5740 H     1 <1>   0.0800 
 39 H        8.5030    -0.7000    -1.9900 H     1 <1>   0.0800 
 40 H        9.1930     1.9540    -3.5630 H     1 <1>   0.0800 
 41 H       10.1370     0.5610    -3.1240 H     1 <1>   0.0800 
 42 H       10.7520     2.0650    -0.5880 H     1 <1>   0.3700 
 43 H       13.5630     3.7230    -2.2930 H     1 <1>   0.1500 
 44 H       12.9690     4.6580     2.4930 H     1 <1>   0.1500 
 45 H       15.1420     5.1430    -1.1280 H     1 <1>   0.1500 
 46 H        9.9730     2.6730     3.0470 H     1 <1>   0.0800 
 47 H       10.7150     4.2680     2.9850 H     1 <1>   0.0800 
 48 H       11.7050     2.8350     3.3190 H     1 <1>   0.0800 
 49 H       16.6020     6.9680     1.6750 H     1 <1>   0.0800 
 50 H       15.7520     7.0550     0.1360 H     1 <1>   0.0800 
 51 H       16.7520     5.6430     0.5270 H     1 <1>   0.0800 
@<TRIPOS>BOND
  1   1   2  1   
  2   2   3  ar  
  3   2   4  ar  
  4   3   5  ar  
  5   3  28  1   
  6   4   6  ar  
  7   4  29  1   
  8   5   7  ar  
  9   5  30  1   
 10   6   7  ar  
 11   6  31  1   
 12   7   8  1   
 13   8   9  1   
 14   8  10  1   
 15   9  11  1   
 16   9  32  1   
 17   9  33  1   
 18  10  12  1   
 19  10  34  1   
 20  10  35  1   
 21  11  13  1   
 22  11  36  1   
 23  11  37  1   
 24  12  13  1   
 25  12  38  1   
 26  12  39  1   
 27  13  14  1   
 28  14  15  1   
 29  14  40  1   
 30  14  41  1   
 31  15  16  2   
 32  15  17  am  
 33  17  18  1   
 34  17  42  1   
 35  18  19  ar  
 36  18  20  ar  
 37  19  21  1   
 38  19  22  ar  
 39  20  23  ar  
 40  20  43  1   
 41  21  24  1   
 42  22  25  ar  
 43  22  44  1   
 44  23  25  ar  
 45  23  45  1   
 46  24  46  1   
 47  24  47  1   
 48  24  48  1   
 49  25  26  1   
 50  26  27  1   
 51  27  49  1   
 52  27  50  1   
 53  27  51  1   
@<TRIPOS>SUBSTRUCTURE
  1 ****  11 GROUP 4 **** **** 0

# MOE 2024.06 (io_trps.svl 2023.06)
