@<TRIPOS>MOLECULE
NONAME
49 51 1 0 0 
SMALL
USER_CHARGES


@<TRIPOS>ATOM
  1 O       -0.3120     0.5240     1.6060 O.co2 1 <1>  -0.9000 
  2 C       -0.1970     1.3070     0.6570 C.2   1 <1>   0.9060 
  3 O        0.3210     0.9680    -0.4070 O.co2 1 <1>  -0.9000 
  4 C       -0.8150     2.6820     0.8320 C.3   1 <1>  -0.1860 
  5 C       -2.4940     2.7590     0.5370 C.3   1 <1>  -0.0190 
  6 C       -0.1070     3.8800    -0.0590 C.3   1 <1>   0.0580 
  7 C       -3.2390     1.4600     0.1760 C.2   1 <1>   0.5690 
  8 C       -2.7180     4.0040    -0.5370 C.3   1 <1>   0.0580 
  9 C       -0.5240     5.1670    -0.9580 C.2   1 <1>  -0.2880 
 10 C       -1.4170     3.8990    -0.2890 C.3   1 <1>  -0.1600 
 11 O       -4.1110     1.4980    -0.6630 O.2   1 <1>  -0.5700 
 12 N       -2.9480     0.3160     0.8600 N.am  1 <1>  -0.5470 
 13 C       -1.8960     5.2330    -1.2080 C.2   1 <1>  -0.2880 
 14 C       -3.4150    -0.9820     0.6140 C.ar  1 <1>   0.1170 
 15 C       -4.7430    -1.3820     0.7800 C.ar  1 <1>   0.0830 
 16 C       -2.4860    -1.9230     0.1970 C.ar  1 <1>  -0.1500 
 17 O       -5.6820    -0.5100     1.2240 O.3   1 <1>  -0.3630 
 18 C       -5.1070    -2.6930     0.5190 C.ar  1 <1>  -0.1500 
 19 C       -2.8290    -3.2440    -0.0750 C.ar  1 <1>  -0.1430 
 20 C       -6.6700    -0.1420     0.2890 C.3   1 <1>   0.0400 
 21 C       -4.1620    -3.6120     0.0930 C.ar  1 <1>  -0.1500 
 22 C       -1.7280    -4.2190    -0.5410 C.3   1 <1>   0.1430 
 23 C       -0.6370    -4.3140     0.5370 C.3   1 <1>  -0.2400 
 24 C       -1.1070    -3.7040    -1.8480 C.3   1 <1>  -0.2400 
 25 C       -2.2530    -5.6410    -0.8020 C.3   1 <1>  -0.2400 
 26 H       -0.6540     2.9130     1.8730 H     1 <1>   0.0800 
 27 H       -2.9560     3.0570     1.4640 H     1 <1>   0.0800 
 28 H        0.5660     3.3590    -0.7260 H     1 <1>   0.0800 
 29 H       -3.1380     3.5380    -1.4180 H     1 <1>   0.0800 
 30 H        0.2560     5.8360    -1.2810 H     1 <1>   0.1500 
 31 H       -1.2840     3.1730    -1.1920 H     1 <1>   0.0800 
 32 H       -1.5650     4.5920     0.7030 H     1 <1>   0.0800 
 33 H       -2.0310     0.3280     1.3470 H     1 <1>   0.3700 
 34 H       -2.4440     5.9670    -1.7730 H     1 <1>   0.1500 
 35 H       -1.4680    -1.5860     0.0860 H     1 <1>   0.1500 
 36 H       -6.1270    -2.9960     0.6580 H     1 <1>   0.1500 
 37 H       -7.1920     0.7150     0.6740 H     1 <1>   0.0800 
 38 H       -7.3480    -0.9640     0.1540 H     1 <1>   0.0800 
 39 H       -6.1930     0.1090    -0.6430 H     1 <1>   0.0800 
 40 H       -4.4940    -4.6140    -0.0970 H     1 <1>   0.1500 
 41 H        0.1250    -5.0160     0.2490 H     1 <1>   0.0800 
 42 H       -1.0680    -4.6320     1.4690 H     1 <1>   0.0800 
 43 H       -0.1680    -3.3590     0.6940 H     1 <1>   0.0800 
 44 H       -0.6370    -2.7480    -1.7000 H     1 <1>   0.0800 
 45 H       -1.8680    -3.5890    -2.5980 H     1 <1>   0.0800 
 46 H       -0.3610    -4.3870    -2.2130 H     1 <1>   0.0800 
 47 H       -3.0030    -5.6290    -1.5720 H     1 <1>   0.0800 
 48 H       -2.6750    -6.0560     0.0960 H     1 <1>   0.0800 
 49 H       -1.4540    -6.2850    -1.1240 H     1 <1>   0.0800 
@<TRIPOS>BOND
  1   1   2  ar  
  2   2   3  ar  
  3   2   4  1   
  4   4   5  1   
  5   4   6  1   
  6   4  26  1   
  7   5   7  1   
  8   5   8  1   
  9   5  27  1   
 10   6   9  1   
 11   6  10  1   
 12   6  28  1   
 13   7  11  2   
 14   7  12  am  
 15   8  10  1   
 16   8  13  1   
 17   8  29  1   
 18   9  13  2   
 19   9  30  1   
 20  10  31  1   
 21  10  32  1   
 22  12  14  1   
 23  12  33  1   
 24  13  34  1   
 25  14  15  ar  
 26  14  16  ar  
 27  15  17  1   
 28  15  18  ar  
 29  16  19  ar  
 30  16  35  1   
 31  17  20  1   
 32  18  21  ar  
 33  18  36  1   
 34  19  21  ar  
 35  19  22  1   
 36  20  37  1   
 37  20  38  1   
 38  20  39  1   
 39  21  40  1   
 40  22  23  1   
 41  22  24  1   
 42  22  25  1   
 43  23  41  1   
 44  23  42  1   
 45  23  43  1   
 46  24  44  1   
 47  24  45  1   
 48  24  46  1   
 49  25  47  1   
 50  25  48  1   
 51  25  49  1   
@<TRIPOS>SUBSTRUCTURE
  1 ****  12 GROUP 4 **** **** 0

# MOE 2024.06 (io_trps.svl 2023.06)
