@<TRIPOS>MOLECULE
NONAME
43 44 1 0 0 
SMALL
USER_CHARGES


@<TRIPOS>ATOM
  1 CL       0.4140     0.3910    -1.1520 Cl    1 <1>  -0.1770 
  2 C        1.7460    -0.6560    -0.7360 C.ar  1 <1>   0.1770 
  3 C        1.5060    -1.9990    -0.5220 C.ar  1 <1>  -0.1500 
  4 C        3.0160    -0.1220    -0.6290 C.ar  1 <1>  -0.1500 
  5 C        2.5790    -2.8020    -0.1920 C.ar  1 <1>   0.1770 
  6 C        4.0960    -0.9360    -0.3000 C.ar  1 <1>   0.1170 
  7 CL       2.3090    -4.5020     0.0930 Cl    1 <1>  -0.1770 
  8 C        3.8580    -2.2910    -0.0780 C.ar  1 <1>  -0.1500 
  9 N        5.3700    -0.3560    -0.1890 N.am  1 <1>  -0.5470 
 10 C        6.6120    -0.9190    -0.3410 C.2   1 <1>   0.5690 
 11 O        6.7660    -2.0760    -0.6550 O.2   1 <1>  -0.5700 
 12 C        7.8400    -0.0150    -0.1040 C.3   1 <1>   0.1710 
 13 N        9.1550    -0.7090     0.0330 N.3   1 <1>  -0.8100 
 14 C       10.3190     0.2050     0.0040 C.3   1 <1>   0.1100 
 15 C        9.2250    -1.6130     1.2090 C.3   1 <1>   0.1100 
 16 C       11.6620    -0.5670     0.0860 C.3   1 <1>   0.3430 
 17 C       10.5300    -2.4460     1.2160 C.3   1 <1>   0.3430 
 18 N       11.4350    -2.0500     0.0830 N.4   1 <1>  -0.9590 
 19 C       12.6900    -2.8370    -0.0210 C.3   1 <1>   0.3430 
 20 C       12.3830    -4.2870    -0.4010 C.3   1 <1>  -0.1600 
 21 C       13.6760    -5.0780    -0.6340 C.3   1 <1>  -0.2400 
 22 H        0.5160    -2.4060    -0.6080 H     1 <1>   0.1500 
 23 H        3.1550     0.9280    -0.8080 H     1 <1>   0.1500 
 24 H        4.6580    -2.9570     0.1850 H     1 <1>   0.1500 
 25 H        5.3580     0.6500    -0.0280 H     1 <1>   0.3700 
 26 H        7.6630     0.5750     0.7770 H     1 <1>   0.0800 
 27 H        7.8980     0.6550    -0.9430 H     1 <1>   0.0800 
 28 H       10.2600     0.9050     0.8210 H     1 <1>   0.0800 
 29 H       10.3020     0.7720    -0.9110 H     1 <1>   0.0800 
 30 H        8.3940    -2.2980     1.2020 H     1 <1>   0.0800 
 31 H        9.1610    -1.0400     2.1180 H     1 <1>   0.0800 
 32 H       12.1830    -0.2780     0.9840 H     1 <1>   0.0800 
 33 H       12.2760    -0.2870    -0.7540 H     1 <1>   0.0800 
 34 H       10.2690    -3.4880     1.1280 H     1 <1>   0.0800 
 35 H       11.0330    -2.3120     2.1590 H     1 <1>   0.0800 
 36 H       10.8480    -2.2070    -0.7540 H     1 <1>   0.4500 
 37 H       13.2260    -2.8070     0.9150 H     1 <1>   0.0800 
 38 H       13.3200    -2.4080    -0.7830 H     1 <1>   0.0800 
 39 H       11.7980    -4.3100    -1.3040 H     1 <1>   0.0800 
 40 H       11.8280    -4.7710     0.3840 H     1 <1>   0.0800 
 41 H       14.2510    -4.6450    -1.4350 H     1 <1>   0.0800 
 42 H       13.4410    -6.0940    -0.9030 H     1 <1>   0.0800 
 43 H       14.2800    -5.0970     0.2560 H     1 <1>   0.0800 
@<TRIPOS>BOND
  1   1   2  1   
  2   2   3  ar  
  3   2   4  ar  
  4   3   5  ar  
  5   3  22  1   
  6   4   6  ar  
  7   4  23  1   
  8   5   7  1   
  9   5   8  ar  
 10   6   8  ar  
 11   6   9  1   
 12   8  24  1   
 13   9  10  am  
 14   9  25  1   
 15  10  11  2   
 16  10  12  1   
 17  12  13  1   
 18  12  26  1   
 19  12  27  1   
 20  13  14  1   
 21  13  15  1   
 22  14  16  1   
 23  14  28  1   
 24  14  29  1   
 25  15  17  1   
 26  15  30  1   
 27  15  31  1   
 28  16  18  1   
 29  16  32  1   
 30  16  33  1   
 31  17  18  1   
 32  17  34  1   
 33  17  35  1   
 34  18  19  1   
 35  18  36  1   
 36  19  20  1   
 37  19  37  1   
 38  19  38  1   
 39  20  21  1   
 40  20  39  1   
 41  20  40  1   
 42  21  41  1   
 43  21  42  1   
 44  21  43  1   
@<TRIPOS>SUBSTRUCTURE
  1 ****  11 GROUP 4 **** **** 0

# MOE 2024.06 (io_trps.svl 2023.06)
