@<TRIPOS>MOLECULE
ka-06939
35 36 1 0 0 
SMALL
USER_CHARGES


@<TRIPOS>ATOM
  1 S       -0.1800     3.1240     3.2950 S.2   1 <1>  -0.3800 
  2 C        0.8630     3.0240     2.0710 C.2   1 <1>   0.5810 
  3 S        2.3960     2.2250     2.2970 S.3   1 <1>  -0.2420 
  4 N        0.7570     3.4950     0.8070 N.am  1 <1>  -0.4690 
  5 C        2.8880     2.5930     0.6400 C.2   1 <1>  -0.0370 
  6 C        1.9100     3.2760     0.0160 C.2   1 <1>  -0.0290 
  7 C       -0.4910     4.1540     0.3350 C.3   1 <1>   0.2840 
  8 C        4.2720     2.1070     0.2440 C.3   1 <1>  -0.0220 
  9 C        1.9740     3.8140    -1.4070 C.3   1 <1>  -0.1020 
 10 C       -1.5740     3.1200     0.0690 C.ar  1 <1>  -0.1440 
 11 C        4.3080     0.5790     0.1920 C.3   1 <1>   0.1200 
 12 C       -2.7610     3.1010     0.7810 C.ar  1 <1>   0.4100 
 13 C       -1.4330     2.1670    -0.9050 C.ar  1 <1>   0.1600 
 14 O        5.5520     0.1700    -0.2620 O.3   1 <1>  -0.6800 
 15 N       -3.7210     2.2500     0.5170 N.ar  1 <1>  -0.6200 
 16 N       -3.0280     3.9300     1.8160 N.pl3 1 <1>  -0.9000 
 17 N       -2.3770     1.2900    -1.1820 N.ar  1 <1>  -0.6200 
 18 C       -3.4720     1.3920    -0.4520 C.ar  1 <1>   0.4770 
 19 C       -4.5670     0.4000    -0.7590 C.3   1 <1>  -0.0970 
 20 H       -0.3040     4.7100    -0.5640 H     1 <1>   0.0800 
 21 H       -0.8120     4.8640     1.0760 H     1 <1>   0.0800 
 22 H        4.9860     2.4580     0.9680 H     1 <1>   0.0800 
 23 H        4.5360     2.5050    -0.7180 H     1 <1>   0.0800 
 24 H        1.1860     3.4050    -2.0090 H     1 <1>   0.0800 
 25 H        2.9080     3.5620    -1.8730 H     1 <1>   0.0800 
 26 H        1.8890     4.8860    -1.3970 H     1 <1>   0.0800 
 27 H        3.5570     0.1920    -0.4740 H     1 <1>   0.0800 
 28 H        4.1600     0.1620     1.1740 H     1 <1>   0.0800 
 29 H       -0.5300     2.1060    -1.4830 H     1 <1>   0.1500 
 30 H        5.6820     0.4110    -1.1990 H     1 <1>   0.4000 
 31 H       -3.9620     3.7770     2.2010 H     1 <1>   0.4000 
 32 H       -2.3280     3.9430     2.5650 H     1 <1>   0.4000 
 33 H       -5.5240     0.8060    -0.4870 H     1 <1>   0.0800 
 34 H       -4.3950    -0.5010    -0.2010 H     1 <1>   0.0800 
 35 H       -4.5720     0.1700    -1.8080 H     1 <1>   0.0800 
@<TRIPOS>BOND
  1   1   2  2   
  2   2   3  1   
  3   2   4  am  
  4   3   5  1   
  5   4   6  1   
  6   4   7  1   
  7   5   6  2   
  8   5   8  1   
  9   6   9  1   
 10   7  10  1   
 11   7  20  1   
 12   7  21  1   
 13   8  11  1   
 14   8  22  1   
 15   8  23  1   
 16   9  24  1   
 17   9  25  1   
 18   9  26  1   
 19  10  12  ar  
 20  10  13  ar  
 21  11  14  1   
 22  11  27  1   
 23  11  28  1   
 24  12  15  ar  
 25  12  16  1   
 26  13  17  ar  
 27  13  29  1   
 28  14  30  1   
 29  15  18  ar  
 30  16  31  1   
 31  16  32  1   
 32  17  18  ar  
 33  18  19  1   
 34  19  33  1   
 35  19  34  1   
 36  19  35  1   
@<TRIPOS>SUBSTRUCTURE
  1 ****   4 GROUP 4 **** **** 0

# MOE 2024.06 (io_trps.svl 2023.06)
