@<TRIPOS>MOLECULE
NONAME
42 42 1 0 0 
SMALL
USER_CHARGES


@<TRIPOS>ATOM
  1 O       -0.3450     1.0590     0.7930 O.2   1 <1>  -0.5700 
  2 C       -1.3310     1.2630     0.1280 C.2   1 <1>   0.6590 
  3 O       -2.1640     0.3220    -0.2930 O.3   1 <1>  -0.4300 
  4 C       -1.6930     2.6610    -0.3000 C.3   1 <1>  -0.1790 
  5 C       -2.1620    -1.0340     0.1030 C.3   1 <1>   0.6180 
  6 C       -0.7880    -1.6020    -0.1000 C.1   1 <1>  -0.2000 
  7 C       -2.6420    -1.1150     1.5710 C.2   1 <1>  -0.2760 
  8 C       -3.1250    -1.7610    -0.8320 C.3   1 <1>  -0.2400 
  9 C        0.3790    -1.8260    -0.1070 C.1   1 <1>  -0.2000 
 10 C       -2.0000    -1.7510     2.5620 C.2   1 <1>  -0.3000 
 11 C       -3.9600    -0.3990     1.8720 C.3   1 <1>  -0.1020 
 12 C        1.8430    -1.7620     0.0960 C.3   1 <1>   0.5430 
 13 N        2.1450    -0.3210     0.2320 N.4   1 <1>  -0.9590 
 14 C        2.4080     0.3110    -1.0890 C.3   1 <1>   0.3430 
 15 C        3.2020    -0.0490     1.2400 C.3   1 <1>   0.3430 
 16 C        2.5630     1.8250    -0.9260 C.3   1 <1>  -0.1600 
 17 C        3.3410     1.4610     1.4400 C.3   1 <1>  -0.1600 
 18 C        3.6280     2.1850     0.1180 C.3   1 <1>  -0.1600 
 19 H       -2.6660     2.9100     0.0780 H     1 <1>   0.0800 
 20 H       -1.7040     2.7200    -1.3720 H     1 <1>   0.0800 
 21 H       -0.9770     3.3620     0.0870 H     1 <1>   0.0800 
 22 H       -2.7510    -1.7460    -1.8390 H     1 <1>   0.0800 
 23 H       -4.0960    -1.3030    -0.8150 H     1 <1>   0.0800 
 24 H       -3.2240    -2.7850    -0.5200 H     1 <1>   0.0800 
 25 H       -2.3550    -1.7930     3.5780 H     1 <1>   0.1500 
 26 H       -1.0740    -2.2870     2.4600 H     1 <1>   0.1500 
 27 H       -4.7720    -0.8450     1.3270 H     1 <1>   0.0800 
 28 H       -3.8990     0.6430     1.6160 H     1 <1>   0.0800 
 29 H       -4.1960    -0.4650     2.9190 H     1 <1>   0.0800 
 30 H        2.3730    -2.1970    -0.7360 H     1 <1>   0.0800 
 31 H        2.0980    -2.2900     1.0000 H     1 <1>   0.0800 
 32 H        1.2620     0.1090     0.5870 H     1 <1>   0.4500 
 33 H        1.5910     0.1070    -1.7620 H     1 <1>   0.0800 
 34 H        3.3110    -0.0960    -1.5140 H     1 <1>   0.0800 
 35 H        4.1420    -0.4550     0.9040 H     1 <1>   0.0800 
 36 H        2.9430    -0.5100     2.1800 H     1 <1>   0.0800 
 37 H        1.6170     2.2490    -0.6390 H     1 <1>   0.0800 
 38 H        2.8330     2.2560    -1.8740 H     1 <1>   0.0800 
 39 H        4.1400     1.6540     2.1350 H     1 <1>   0.0800 
 40 H        2.4340     1.8440     1.8770 H     1 <1>   0.0800 
 41 H        3.6350     3.2500     0.2800 H     1 <1>   0.0800 
 42 H        4.6020     1.9010    -0.2450 H     1 <1>   0.0800 
@<TRIPOS>BOND
  1   1   2  2   
  2   2   3  1   
  3   2   4  1   
  4   3   5  1   
  5   4  19  1   
  6   4  20  1   
  7   4  21  1   
  8   5   6  1   
  9   5   7  1   
 10   5   8  1   
 11   6   9  3   
 12   7  10  2   
 13   7  11  1   
 14   8  22  1   
 15   8  23  1   
 16   8  24  1   
 17   9  12  1   
 18  10  25  1   
 19  10  26  1   
 20  11  27  1   
 21  11  28  1   
 22  11  29  1   
 23  12  13  1   
 24  12  30  1   
 25  12  31  1   
 26  13  14  1   
 27  13  15  1   
 28  13  32  1   
 29  14  16  1   
 30  14  33  1   
 31  14  34  1   
 32  15  17  1   
 33  15  35  1   
 34  15  36  1   
 35  16  18  1   
 36  16  37  1   
 37  16  38  1   
 38  17  18  1   
 39  17  39  1   
 40  17  40  1   
 41  18  41  1   
 42  18  42  1   
@<TRIPOS>SUBSTRUCTURE
  1 ****   1 GROUP 4 **** **** 0

# MOE 2024.06 (io_trps.svl 2023.06)
