@<TRIPOS>MOLECULE
NONAME
33 34 1 0 0 
SMALL
USER_CHARGES


@<TRIPOS>ATOM
  1 S        0.3890     0.2600     0.4700 S.3   1 <1>  -0.3320 
  2 C       -1.1940     1.0870     0.2400 C.ar  1 <1>   0.1020 
  3 C        1.3930     0.6050    -1.0570 C.3   1 <1>   0.1310 
  4 C       -1.5300     1.7280    -0.9430 C.ar  1 <1>  -0.1500 
  5 C       -2.0750     1.0590     1.3060 C.ar  1 <1>  -0.1500 
  6 C        2.7970     0.0260    -0.9370 C.2   1 <1>   0.5690 
  7 C       -2.7630     2.3490    -1.0500 C.ar  1 <1>  -0.1500 
  8 C       -3.3060     1.6820     1.1930 C.ar  1 <1>  -0.1500 
  9 O        3.0630    -0.9020    -1.6670 O.2   1 <1>  -0.5700 
 10 N        3.7270     0.5550    -0.0710 N.am  1 <1>  -0.6600 
 11 C       -3.6480     2.3270     0.0160 C.ar  1 <1>  -0.1500 
 12 C        3.4790     1.6840     0.8710 C.3   1 <1>   0.1400 
 13 C        5.0960    -0.0260     0.0360 C.3   1 <1>   0.1400 
 14 C        4.5090     2.7930     0.6320 C.3   1 <1>  -0.1600 
 15 C        6.1430     1.0660    -0.2100 C.3   1 <1>  -0.1600 
 16 C        5.9460     2.2620     0.7320 C.3   1 <1>  -0.1600 
 17 H        1.4330     1.6690    -1.1920 H     1 <1>   0.0800 
 18 H        0.8770     0.1470    -1.8800 H     1 <1>   0.0800 
 19 H       -0.8600     1.7510    -1.7800 H     1 <1>   0.1500 
 20 H       -1.7970     0.5540     2.2140 H     1 <1>   0.1500 
 21 H       -3.0370     2.8500    -1.9630 H     1 <1>   0.1500 
 22 H       -3.9960     1.6640     2.0190 H     1 <1>   0.1500 
 23 H       -4.6060     2.8110    -0.0710 H     1 <1>   0.1500 
 24 H        3.5650     1.3180     1.8800 H     1 <1>   0.0800 
 25 H        2.4910     2.0880     0.7510 H     1 <1>   0.0800 
 26 H        5.2320    -0.8200    -0.6780 H     1 <1>   0.0800 
 27 H        5.2220    -0.4410     1.0210 H     1 <1>   0.0800 
 28 H        4.3630     3.5750     1.3570 H     1 <1>   0.0800 
 29 H        4.3460     3.2160    -0.3440 H     1 <1>   0.0800 
 30 H        6.0670     1.3910    -1.2330 H     1 <1>   0.0800 
 31 H        7.1250     0.6520    -0.0700 H     1 <1>   0.0800 
 32 H        6.1430     1.9530     1.7450 H     1 <1>   0.0800 
 33 H        6.6430     3.0430     0.4800 H     1 <1>   0.0800 
@<TRIPOS>BOND
  1   1   2  1   
  2   1   3  1   
  3   2   4  ar  
  4   2   5  ar  
  5   3   6  1   
  6   3  17  1   
  7   3  18  1   
  8   4   7  ar  
  9   4  19  1   
 10   5   8  ar  
 11   5  20  1   
 12   6   9  2   
 13   6  10  am  
 14   7  11  ar  
 15   7  21  1   
 16   8  11  ar  
 17   8  22  1   
 18  10  12  1   
 19  10  13  1   
 20  11  23  1   
 21  12  14  1   
 22  12  24  1   
 23  12  25  1   
 24  13  15  1   
 25  13  26  1   
 26  13  27  1   
 27  14  16  1   
 28  14  28  1   
 29  14  29  1   
 30  15  16  1   
 31  15  30  1   
 32  15  31  1   
 33  16  32  1   
 34  16  33  1   
@<TRIPOS>SUBSTRUCTURE
  1 ****   3 GROUP 4 **** **** 0

# MOE 2024.06 (io_trps.svl 2023.06)
