@<TRIPOS>MOLECULE
NONAME
39 40 1 0 0 
SMALL
USER_CHARGES


@<TRIPOS>ATOM
  1 CL       0.2730     0.3420     0.8940 Cl    1 <1>  -0.1770 
  2 C        1.6000    -0.6910     0.4170 C.ar  1 <1>   0.1770 
  3 C        1.3710    -1.9920    -0.0020 C.ar  1 <1>   0.1770 
  4 C        2.8870    -0.1890     0.4640 C.ar  1 <1>  -0.1500 
  5 CL      -0.2520    -2.6410    -0.0670 Cl    1 <1>  -0.1770 
  6 C        2.4290    -2.8010    -0.3780 C.ar  1 <1>  -0.1500 
  7 C        3.9550    -0.9920     0.0900 C.ar  1 <1>   0.0830 
  8 C        3.7220    -2.3030    -0.3330 C.ar  1 <1>  -0.1500 
  9 O        5.1880    -0.4310     0.1630 O.3   1 <1>  -0.3630 
 10 C        6.3520    -1.1490    -0.1730 C.3   1 <1>   0.1200 
 11 C        7.5410    -0.1990     0.0120 C.3   1 <1>   0.3430 
 12 N        8.8560    -0.8390    -0.3140 N.4   1 <1>  -0.9590 
 13 C        9.2710    -1.9330     0.6290 C.3   1 <1>   0.3430 
 14 C        9.9670     0.1770    -0.4060 C.3   1 <1>   0.3430 
 15 C       10.5520    -2.6450     0.1200 C.3   1 <1>   0.2000 
 16 C       11.3720    -0.4750    -0.5090 C.3   1 <1>   0.2000 
 17 O       11.2610    -1.8450    -0.7920 O.3   1 <1>  -0.5600 
 18 C       10.2230    -3.9380    -0.6240 C.3   1 <1>  -0.2400 
 19 C       12.2320    -0.2770     0.7460 C.3   1 <1>  -0.2400 
 20 H        3.0550     0.8210     0.7900 H     1 <1>   0.1500 
 21 H        2.2340    -3.8090    -0.7020 H     1 <1>   0.1500 
 22 H        4.5240    -2.9510    -0.6300 H     1 <1>   0.1500 
 23 H        6.2680    -1.4620    -1.1990 H     1 <1>   0.0800 
 24 H        6.4190    -1.9960     0.4860 H     1 <1>   0.0800 
 25 H        7.5530     0.1500     1.0310 H     1 <1>   0.0800 
 26 H        7.3900     0.6510    -0.6340 H     1 <1>   0.0800 
 27 H        8.8230    -1.2770    -1.2480 H     1 <1>   0.4500 
 28 H        8.4870    -2.6610     0.7410 H     1 <1>   0.0800 
 29 H        9.4700    -1.5150     1.6020 H     1 <1>   0.0800 
 30 H        9.9520     0.8200     0.4590 H     1 <1>   0.0800 
 31 H        9.8140     0.8020    -1.2700 H     1 <1>   0.0800 
 32 H       11.2020    -2.8730     0.9490 H     1 <1>   0.0800 
 33 H       11.8940    -0.0320    -1.3400 H     1 <1>   0.0800 
 34 H        9.6040    -3.7420    -1.4810 H     1 <1>   0.0800 
 35 H        9.7110    -4.6250     0.0260 H     1 <1>   0.0800 
 36 H       11.1330    -4.4080    -0.9520 H     1 <1>   0.0800 
 37 H       11.7400    -0.6270     1.6350 H     1 <1>   0.0800 
 38 H       12.4500     0.7680     0.8760 H     1 <1>   0.0800 
 39 H       13.1680    -0.7960     0.6300 H     1 <1>   0.0800 
@<TRIPOS>BOND
  1   1   2  1   
  2   2   3  ar  
  3   2   4  ar  
  4   3   5  1   
  5   3   6  ar  
  6   4   7  ar  
  7   4  20  1   
  8   6   8  ar  
  9   6  21  1   
 10   7   8  ar  
 11   7   9  1   
 12   8  22  1   
 13   9  10  1   
 14  10  11  1   
 15  10  23  1   
 16  10  24  1   
 17  11  12  1   
 18  11  25  1   
 19  11  26  1   
 20  12  13  1   
 21  12  14  1   
 22  12  27  1   
 23  13  15  1   
 24  13  28  1   
 25  13  29  1   
 26  14  16  1   
 27  14  30  1   
 28  14  31  1   
 29  15  17  1   
 30  15  18  1   
 31  15  32  1   
 32  16  17  1   
 33  16  19  1   
 34  16  33  1   
 35  18  34  1   
 36  18  35  1   
 37  18  36  1   
 38  19  37  1   
 39  19  38  1   
 40  19  39  1   
@<TRIPOS>SUBSTRUCTURE
  1 ****  10 GROUP 4 **** **** 0

# MOE 2024.06 (io_trps.svl 2023.06)
