@<TRIPOS>MOLECULE
NONAME
38 38 1 0 0 
SMALL
USER_CHARGES


@<TRIPOS>ATOM
  1 O        0.7560     1.6290    -2.3720 O.2   1 <1>  -0.5700 
  2 C        0.4350     2.0930    -1.3020 C.2   1 <1>   0.4950 
  3 C        1.3500     2.2690    -0.2140 C.2   1 <1>   0.0290 
  4 C       -1.0310     2.4730    -1.1770 C.3   1 <1>  -0.0990 
  5 C        0.8490     2.8190     1.0160 C.2   1 <1>   0.4950 
  6 C        2.6720     1.9110    -0.3850 C.2   1 <1>  -0.0500 
  7 C       -1.2770     3.5950    -0.1610 C.3   1 <1>   0.0000 
  8 O        1.5180     3.0150     2.0070 O.2   1 <1>  -0.5700 
  9 C       -0.6180     3.1910     1.1640 C.3   1 <1>  -0.0990 
 10 N        3.6570     2.0170     0.5410 N.pl3 1 <1>  -0.8690 
 11 C       -2.7880     3.7770     0.0490 C.3   1 <1>  -0.2400 
 12 C       -0.6950     4.9270    -0.6720 C.3   1 <1>  -0.2400 
 13 C        5.0760     1.6530     0.4190 C.3   1 <1>   0.3690 
 14 C        5.6870     2.3550    -0.8210 C.3   1 <1>   0.1200 
 15 C        5.7390     2.1210     1.7160 C.3   1 <1>  -0.2400 
 16 C        5.1570     0.1300     0.3070 C.3   1 <1>  -0.2400 
 17 O        7.0670     2.1570    -0.9220 O.3   1 <1>  -0.6800 
 18 H       -1.3950     2.7740    -2.1440 H     1 <1>   0.0800 
 19 H       -1.5720     1.5890    -0.8920 H     1 <1>   0.0800 
 20 H        2.9660     1.5020    -1.3410 H     1 <1>   0.1500 
 21 H       -1.1270     2.3440     1.5880 H     1 <1>   0.0800 
 22 H       -0.7020     3.9990     1.8690 H     1 <1>   0.0800 
 23 H        3.4060     2.3860     1.4760 H     1 <1>   0.4000 
 24 H       -3.2390     2.8680     0.4080 H     1 <1>   0.0800 
 25 H       -3.2690     4.0480    -0.8750 H     1 <1>   0.0800 
 26 H       -2.9800     4.5540     0.7690 H     1 <1>   0.0800 
 27 H       -1.1620     5.2100    -1.5990 H     1 <1>   0.0800 
 28 H        0.3650     4.8670    -0.8400 H     1 <1>   0.0800 
 29 H       -0.8720     5.7130     0.0420 H     1 <1>   0.0800 
 30 H        5.5080     3.4150    -0.7690 H     1 <1>   0.0800 
 31 H        5.2410     1.9680    -1.7190 H     1 <1>   0.0800 
 32 H        6.7730     1.8290     1.7350 H     1 <1>   0.0800 
 33 H        5.2530     1.6760     2.5650 H     1 <1>   0.0800 
 34 H        5.6820     3.1920     1.7980 H     1 <1>   0.0800 
 35 H        4.6850    -0.3340     1.1530 H     1 <1>   0.0800 
 36 H        6.1840    -0.1840     0.2710 H     1 <1>   0.0800 
 37 H        4.6730    -0.2040    -0.5920 H     1 <1>   0.0800 
 38 H        7.5240     2.5670    -0.1640 H     1 <1>   0.4000 
@<TRIPOS>BOND
  1   1   2  2   
  2   2   3  1   
  3   2   4  1   
  4   3   5  1   
  5   3   6  2   
  6   4   7  1   
  7   4  18  1   
  8   4  19  1   
  9   5   8  2   
 10   5   9  1   
 11   6  10  1   
 12   6  20  1   
 13   7   9  1   
 14   7  11  1   
 15   7  12  1   
 16   9  21  1   
 17   9  22  1   
 18  10  13  1   
 19  10  23  1   
 20  11  24  1   
 21  11  25  1   
 22  11  26  1   
 23  12  27  1   
 24  12  28  1   
 25  12  29  1   
 26  13  14  1   
 27  13  15  1   
 28  13  16  1   
 29  14  17  1   
 30  14  30  1   
 31  14  31  1   
 32  15  32  1   
 33  15  33  1   
 34  15  34  1   
 35  16  35  1   
 36  16  36  1   
 37  16  37  1   
 38  17  38  1   
@<TRIPOS>SUBSTRUCTURE
  1 ****   3 GROUP 4 **** **** 0

# MOE 2024.06 (io_trps.svl 2023.06)
