@<TRIPOS>MOLECULE
NONAME
45 46 1 0 0 
SMALL
USER_CHARGES


@<TRIPOS>ATOM
  1 O       -3.2500     3.3920    -0.6900 O.3   1 <1>  -0.5600 
  2 C       -3.6100     2.4690    -1.6810 C.3   1 <1>   0.1200 
  3 C       -2.9330     2.8120     0.5470 C.3   1 <1>   0.1200 
  4 C       -4.8350     1.6300    -1.2460 C.3   1 <1>   0.3430 
  5 C       -4.1090     1.9630     1.0870 C.3   1 <1>   0.3430 
  6 N       -5.2810     1.9850     0.1470 N.4   1 <1>  -0.9590 
  7 C       -6.4350     1.1890     0.6490 C.3   1 <1>   0.3430 
  8 C       -7.6880     1.4960    -0.1670 C.3   1 <1>  -0.1600 
  9 C       -8.9030     0.7850     0.4250 C.3   1 <1>   0.1200 
 10 O      -10.0050     1.0920    -0.3870 O.3   1 <1>  -0.3630 
 11 C      -11.1860     0.5720     0.0170 C.ar  1 <1>   0.0830 
 12 C      -11.5670    -0.7080    -0.3930 C.ar  1 <1>  -0.1430 
 13 C      -12.0060     1.3350     0.8440 C.ar  1 <1>  -0.1430 
 14 C      -12.7600    -1.2430     0.0820 C.ar  1 <1>  -0.1430 
 15 C      -10.6930    -1.5110    -1.3560 C.3   1 <1>  -0.0970 
 16 C      -13.1930     0.7900     1.2990 C.ar  1 <1>  -0.1500 
 17 C      -11.6340     2.7530     1.2530 C.3   1 <1>  -0.0970 
 18 C      -13.5620    -0.4890     0.9250 C.ar  1 <1>  -0.1500 
 19 C      -13.2280    -2.6420    -0.2970 C.3   1 <1>  -0.0970 
 20 H       -2.7650     1.8340    -1.8860 H     1 <1>   0.0800 
 21 H       -3.8390     3.0210    -2.5770 H     1 <1>   0.0800 
 22 H       -2.7050     3.6090     1.2330 H     1 <1>   0.0800 
 23 H       -2.0490     2.2090     0.4290 H     1 <1>   0.0800 
 24 H       -4.5790     0.5850    -1.2980 H     1 <1>   0.0800 
 25 H       -5.6360     1.8010    -1.9460 H     1 <1>   0.0800 
 26 H       -4.4010     2.3460     2.0510 H     1 <1>   0.0800 
 27 H       -3.7700     0.9500     1.2300 H     1 <1>   0.0800 
 28 H       -5.5520     2.9800     0.0900 H     1 <1>   0.4500 
 29 H       -6.6220     1.4420     1.6810 H     1 <1>   0.0800 
 30 H       -6.2100     0.1360     0.5950 H     1 <1>   0.0800 
 31 H       -7.5670     1.1580    -1.1800 H     1 <1>   0.0800 
 32 H       -7.8790     2.5540    -0.1590 H     1 <1>   0.0800 
 33 H       -9.1160     1.1270     1.4240 H     1 <1>   0.0800 
 34 H       -8.7770    -0.2850     0.4280 H     1 <1>   0.0800 
 35 H      -10.0020    -0.8800    -1.8820 H     1 <1>   0.0800 
 36 H      -11.3010    -1.9960    -2.0980 H     1 <1>   0.0800 
 37 H      -10.1420    -2.2570    -0.8140 H     1 <1>   0.0800 
 38 H      -13.8390     1.3560     1.9450 H     1 <1>   0.1500 
 39 H      -11.2270     3.2860     0.4130 H     1 <1>   0.0800 
 40 H      -10.9040     2.7280     2.0410 H     1 <1>   0.0800 
 41 H      -12.4990     3.2880     1.6010 H     1 <1>   0.0800 
 42 H      -14.4880    -0.8910     1.2960 H     1 <1>   0.1500 
 43 H      -12.4380    -3.3540    -0.1410 H     1 <1>   0.0800 
 44 H      -13.5220    -2.6610    -1.3310 H     1 <1>   0.0800 
 45 H      -14.0700    -2.9430     0.3000 H     1 <1>   0.0800 
@<TRIPOS>BOND
  1   1   2  1   
  2   1   3  1   
  3   2   4  1   
  4   2  20  1   
  5   2  21  1   
  6   3   5  1   
  7   3  22  1   
  8   3  23  1   
  9   4   6  1   
 10   4  24  1   
 11   4  25  1   
 12   5   6  1   
 13   5  26  1   
 14   5  27  1   
 15   6   7  1   
 16   6  28  1   
 17   7   8  1   
 18   7  29  1   
 19   7  30  1   
 20   8   9  1   
 21   8  31  1   
 22   8  32  1   
 23   9  10  1   
 24   9  33  1   
 25   9  34  1   
 26  10  11  1   
 27  11  12  ar  
 28  11  13  ar  
 29  12  14  ar  
 30  12  15  1   
 31  13  16  ar  
 32  13  17  1   
 33  14  18  ar  
 34  14  19  1   
 35  15  35  1   
 36  15  36  1   
 37  15  37  1   
 38  16  18  ar  
 39  16  38  1   
 40  17  39  1   
 41  17  40  1   
 42  17  41  1   
 43  18  42  1   
 44  19  43  1   
 45  19  44  1   
 46  19  45  1   
@<TRIPOS>SUBSTRUCTURE
  1 ****   9 GROUP 4 **** **** 0

# MOE 2024.06 (io_trps.svl 2023.06)
