@<TRIPOS>MOLECULE
NONAME
42 43 1 0 0 
SMALL
USER_CHARGES


@<TRIPOS>ATOM
  1 O       -0.9130     1.4150    -1.9460 O.2   1 <1>  -0.5700 
  2 C       -1.6540     1.6290    -1.0150 C.2   1 <1>   0.4950 
  3 C       -1.4360     2.6770    -0.0620 C.2   1 <1>   0.0290 
  4 C       -2.8440     0.6940    -0.9130 C.3   1 <1>  -0.0990 
  5 C       -2.3610     2.8120     1.0300 C.2   1 <1>   0.4950 
  6 C       -0.3520     3.5150    -0.2250 C.2   1 <1>  -0.0500 
  7 C       -4.0160     1.3500    -0.1850 C.3   1 <1>   0.0640 
  8 O       -2.2750     3.6460     1.9030 O.2   1 <1>  -0.5700 
  9 C       -3.5470     1.8740     1.1710 C.3   1 <1>  -0.0990 
 10 N        0.0000     4.5460     0.5850 N.pl3 1 <1>  -0.8690 
 11 C       -5.1900     0.3860    -0.0350 C.ar  1 <1>  -0.1430 
 12 C        1.1820     5.4460     0.4530 C.3   1 <1>   0.2890 
 13 C       -6.4080     0.6920    -0.6250 C.ar  1 <1>  -0.1500 
 14 C       -5.0700    -0.7980     0.6810 C.ar  1 <1>  -0.1500 
 15 C        1.1950     6.1330    -0.9280 C.3   1 <1>   0.1200 
 16 C        2.4520     4.6300     0.7290 C.3   1 <1>  -0.1600 
 17 C       -7.4860    -0.1670    -0.5030 C.ar  1 <1>  -0.1500 
 18 C       -6.1480    -1.6580     0.8040 C.ar  1 <1>  -0.1500 
 19 O       -0.0880     6.5590    -1.2340 O.3   1 <1>  -0.6800 
 20 C        3.7270     5.4860     0.7730 C.3   1 <1>  -0.2400 
 21 C       -7.3570    -1.3430     0.2120 C.ar  1 <1>  -0.1500 
 22 H       -2.5290    -0.1990    -0.4050 H     1 <1>   0.0800 
 23 H       -3.1580     0.4130    -1.9030 H     1 <1>   0.0800 
 24 H        0.2950     3.3460    -1.0750 H     1 <1>   0.1500 
 25 H       -4.3380     2.1950    -0.7720 H     1 <1>   0.0800 
 26 H       -4.3580     2.4010     1.6420 H     1 <1>   0.0800 
 27 H       -3.2630     1.0650     1.8170 H     1 <1>   0.0800 
 28 H       -0.5770     4.7240     1.4300 H     1 <1>   0.4000 
 29 H        1.1010     6.2150     1.2030 H     1 <1>   0.0800 
 30 H       -6.5320     1.6020    -1.1860 H     1 <1>   0.1500 
 31 H       -4.1410    -1.0670     1.1510 H     1 <1>   0.1500 
 32 H        1.5030     5.4360    -1.6880 H     1 <1>   0.0800 
 33 H        1.8510     6.9850    -0.9400 H     1 <1>   0.0800 
 34 H        2.5620     3.8720    -0.0270 H     1 <1>   0.0800 
 35 H        2.3390     4.1370     1.6790 H     1 <1>   0.0800 
 36 H       -8.4270     0.0800    -0.9640 H     1 <1>   0.1500 
 37 H       -6.0460    -2.5740     1.3610 H     1 <1>   0.1500 
 38 H       -0.6950     5.8860    -0.8480 H     1 <1>   0.4000 
 39 H        3.9230     5.9380    -0.1830 H     1 <1>   0.0800 
 40 H        4.5700     4.8700     1.0320 H     1 <1>   0.0800 
 41 H        3.6350     6.2620     1.5140 H     1 <1>   0.0800 
 42 H       -8.1950    -2.0120     0.3080 H     1 <1>   0.1500 
@<TRIPOS>BOND
  1   1   2  2   
  2   2   3  1   
  3   2   4  1   
  4   3   5  1   
  5   3   6  2   
  6   4   7  1   
  7   4  22  1   
  8   4  23  1   
  9   5   8  2   
 10   5   9  1   
 11   6  10  1   
 12   6  24  1   
 13   7   9  1   
 14   7  11  1   
 15   7  25  1   
 16   9  26  1   
 17   9  27  1   
 18  10  12  1   
 19  10  28  1   
 20  11  13  ar  
 21  11  14  ar  
 22  12  15  1   
 23  12  16  1   
 24  12  29  1   
 25  13  17  ar  
 26  13  30  1   
 27  14  18  ar  
 28  14  31  1   
 29  15  19  1   
 30  15  32  1   
 31  15  33  1   
 32  16  20  1   
 33  16  34  1   
 34  16  35  1   
 35  17  21  ar  
 36  17  36  1   
 37  18  21  ar  
 38  18  37  1   
 39  19  38  1   
 40  20  39  1   
 41  20  40  1   
 42  20  41  1   
 43  21  42  1   
@<TRIPOS>SUBSTRUCTURE
  1 ****   3 GROUP 4 **** **** 0

# MOE 2024.06 (io_trps.svl 2023.06)
