@<TRIPOS>MOLECULE
NONAME
50 53 1 0 0 
SMALL
USER_CHARGES


@<TRIPOS>ATOM
  1 S       -0.4960    -0.5410     1.5120 S.3   1 <1>  -0.3320 
  2 C       -1.8010     0.5860     1.0480 C.ar  1 <1>   0.7220 
  3 C        1.0570     0.4600     1.6020 C.3   1 <1>   0.2140 
  4 N       -1.4540     1.8080     0.7970 N.ar  1 <1>  -0.6200 
  5 N       -2.9810     0.0550     1.0010 N.ar  1 <1>  -0.6200 
  6 C        2.1400    -0.3030     0.8450 C.ar  1 <1>  -0.1440 
  7 C       -2.4610     2.5620     0.4270 C.ar  1 <1>   0.7200 
  8 C       -3.9130     0.9070     0.6500 C.ar  1 <1>   0.7200 
  9 C        2.4770     0.0080    -0.4750 C.ar  1 <1>   0.0730 
 10 C        2.7920    -1.3380     1.5000 C.ar  1 <1>  -0.1500 
 11 N       -3.7060     2.1650     0.3520 N.ar  1 <1>  -0.6200 
 12 N       -2.1770     3.8660     0.0870 N.pl3 1 <1>  -0.8380 
 13 N       -5.2060     0.4380     0.5840 N.pl3 1 <1>  -0.8380 
 14 C        1.8420     1.0700    -1.2080 C.1   1 <1>   0.4840 
 15 C        3.4740    -0.7360    -1.1000 C.ar  1 <1>  -0.1500 
 16 C        3.7800    -2.0650     0.8630 C.ar  1 <1>  -0.1500 
 17 C       -3.2310     4.8320    -0.3530 C.3   1 <1>   0.2090 
 18 C       -0.8300     4.2710    -0.4320 C.3   1 <1>   0.2090 
 19 C       -5.5680    -1.0120     0.6970 C.3   1 <1>   0.2090 
 20 C       -6.3850     1.3110     0.2840 C.3   1 <1>   0.2090 
 21 N        1.3630     1.9340    -1.7800 N.1   1 <1>  -0.5570 
 22 C        4.1220    -1.7630    -0.4410 C.ar  1 <1>  -0.1500 
 23 C       -3.1790     5.0090    -1.8820 C.3   1 <1>   0.1200 
 24 C       -0.8890     4.4840    -1.9550 C.3   1 <1>   0.1200 
 25 C       -6.8010    -1.2030     1.5980 C.3   1 <1>   0.1200 
 26 C       -7.5680     0.9760     1.2090 C.3   1 <1>   0.1200 
 27 O       -1.8970     5.4000    -2.2970 O.3   1 <1>  -0.5600 
 28 O       -7.8640    -0.3930     1.1760 O.3   1 <1>  -0.5600 
 29 H        1.3030     0.5540     2.6450 H     1 <1>   0.0800 
 30 H        0.8890     1.4380     1.1960 H     1 <1>   0.0800 
 31 H        2.5280    -1.5880     2.5140 H     1 <1>   0.1500 
 32 H        3.7470    -0.5100    -2.1170 H     1 <1>   0.1500 
 33 H        4.2800    -2.8660     1.3810 H     1 <1>   0.1500 
 34 H       -3.0540     5.7840     0.1160 H     1 <1>   0.0800 
 35 H       -4.2130     4.5070    -0.0590 H     1 <1>   0.0800 
 36 H       -0.0800     3.5360    -0.2080 H     1 <1>   0.0800 
 37 H       -0.5300     5.1890     0.0410 H     1 <1>   0.0800 
 38 H       -4.7560    -1.5900     1.1020 H     1 <1>   0.0800 
 39 H       -5.7860    -1.3960    -0.2830 H     1 <1>   0.0800 
 40 H       -6.6820     1.1610    -0.7390 H     1 <1>   0.0800 
 41 H       -6.1400     2.3510     0.4080 H     1 <1>   0.0800 
 42 H        4.8910    -2.3290    -0.9400 H     1 <1>   0.1500 
 43 H       -3.8700     5.7720    -2.1910 H     1 <1>   0.0800 
 44 H       -3.4340     4.0870    -2.3730 H     1 <1>   0.0800 
 45 H       -1.0830     3.5500    -2.4540 H     1 <1>   0.0800 
 46 H        0.0480     4.8730    -2.3110 H     1 <1>   0.0800 
 47 H       -6.5610    -0.9550     2.6170 H     1 <1>   0.0800 
 48 H       -7.1320    -2.2250     1.5590 H     1 <1>   0.0800 
 49 H       -8.4460     1.5090     0.8940 H     1 <1>   0.0800 
 50 H       -7.3390     1.2540     2.2230 H     1 <1>   0.0800 
@<TRIPOS>BOND
  1   1   2  1   
  2   1   3  1   
  3   2   4  ar  
  4   2   5  ar  
  5   3   6  1   
  6   3  29  1   
  7   3  30  1   
  8   4   7  ar  
  9   5   8  ar  
 10   6   9  ar  
 11   6  10  ar  
 12   7  11  ar  
 13   7  12  1   
 14   8  11  ar  
 15   8  13  1   
 16   9  14  1   
 17   9  15  ar  
 18  10  16  ar  
 19  10  31  1   
 20  12  17  1   
 21  12  18  1   
 22  13  19  1   
 23  13  20  1   
 24  14  21  3   
 25  15  22  ar  
 26  15  32  1   
 27  16  22  ar  
 28  16  33  1   
 29  17  23  1   
 30  17  34  1   
 31  17  35  1   
 32  18  24  1   
 33  18  36  1   
 34  18  37  1   
 35  19  25  1   
 36  19  38  1   
 37  19  39  1   
 38  20  26  1   
 39  20  40  1   
 40  20  41  1   
 41  22  42  1   
 42  23  27  1   
 43  23  43  1   
 44  23  44  1   
 45  24  27  1   
 46  24  45  1   
 47  24  46  1   
 48  25  28  1   
 49  25  47  1   
 50  25  48  1   
 51  26  28  1   
 52  26  49  1   
 53  26  50  1   
@<TRIPOS>SUBSTRUCTURE
  1 ****   4 GROUP 4 **** **** 0

# MOE 2024.06 (io_trps.svl 2023.06)
