@<TRIPOS>MOLECULE
Structure1885
41 42 1 0 0 
SMALL
USER_CHARGES


@<TRIPOS>ATOM
  1 F        1.6200    -0.2120     1.7970 F     1 <1>  -0.1900 
  2 C        1.6700    -1.5070     1.6110 C.ar  1 <1>   0.1900 
  3 C        2.7810    -2.0530     1.0180 C.ar  1 <1>  -0.1500 
  4 C        0.5760    -2.2690     2.0310 C.ar  1 <1>  -0.1500 
  5 C        2.8080    -3.4400     0.8320 C.ar  1 <1>   0.0000 
  6 C        0.5990    -3.6330     1.8480 C.ar  1 <1>  -0.1500 
  7 C        1.7230    -4.2120     1.2460 C.ar  1 <1>  -0.1520 
  8 C        3.7530    -4.3330     0.2770 C.2   1 <1>  -0.1810 
  9 N        1.9990    -5.5230     0.9500 N.pl3 1 <1>   0.0330 
 10 C        3.2290    -5.5790     0.3680 C.2   1 <1>  -0.3020 
 11 C        5.0910    -3.8850    -0.2990 C.3   1 <1>   0.0210 
 12 C        6.0840    -5.0180    -0.6030 C.3   1 <1>   0.1140 
 13 N        7.4500    -4.4080    -0.7430 N.am  1 <1>  -0.7300 
 14 C        5.7020    -5.7960    -1.8770 C.2   1 <1>   0.9060 
 15 C        8.4180    -4.3710     0.1920 C.2   1 <1>   0.7800 
 16 O        5.9620    -5.2740    -2.9740 O.co2 1 <1>  -0.9000 
 17 O        5.2190    -6.9340    -1.7960 O.co2 1 <1>  -0.9000 
 18 O        8.2060    -4.6010     1.3660 O.2   1 <1>  -0.5700 
 19 O        9.6310    -4.0500    -0.2560 O.3   1 <1>  -0.4300 
 20 C       10.8180    -3.9510     0.5000 C.3   1 <1>   0.2800 
 21 C       11.9020    -3.5700    -0.5100 C.3   1 <1>  -0.2400 
 22 C       10.6900    -2.8400     1.5480 C.3   1 <1>  -0.2400 
 23 C       11.1640    -5.3090     1.1240 C.3   1 <1>  -0.2400 
 24 H        3.6080    -1.4480     0.7020 H     1 <1>   0.1500 
 25 H       -0.2620    -1.7760     2.4880 H     1 <1>   0.1500 
 26 H       -0.2240    -4.2520     2.1580 H     1 <1>   0.1500 
 27 H        1.3820    -6.3220     1.1180 H     1 <1>   0.2700 
 28 H        3.6580    -6.5130     0.0410 H     1 <1>   0.1500 
 29 H        5.5440    -3.2300     0.4220 H     1 <1>   0.0800 
 30 H        4.9130    -3.3260    -1.2000 H     1 <1>   0.0800 
 31 H        6.0940    -5.7110     0.2190 H     1 <1>   0.0800 
 32 H        7.7180    -4.3360    -1.7300 H     1 <1>   0.3700 
 33 H       12.8530    -3.4720    -0.0200 H     1 <1>   0.0800 
 34 H       11.6610    -2.6320    -0.9770 H     1 <1>   0.0800 
 35 H       11.9850    -4.3270    -1.2680 H     1 <1>   0.0800 
 36 H       10.3740    -1.9240     1.0820 H     1 <1>   0.0800 
 37 H       11.6380    -2.6730     2.0250 H     1 <1>   0.0800 
 38 H        9.9840    -3.1080     2.3120 H     1 <1>   0.0800 
 39 H       11.1700    -6.0740     0.3690 H     1 <1>   0.0800 
 40 H       10.4580    -5.5740     1.8890 H     1 <1>   0.0800 
 41 H       12.1370    -5.2670     1.5780 H     1 <1>   0.0800 
@<TRIPOS>BOND
  1   1   2  1   
  2   2   3  ar  
  3   2   4  ar  
  4   3   5  ar  
  5   3  24  1   
  6   4   6  ar  
  7   4  25  1   
  8   5   7  ar  
  9   5   8  1   
 10   6   7  ar  
 11   6  26  1   
 12   7   9  1   
 13   8  10  2   
 14   8  11  1   
 15   9  10  1   
 16   9  27  1   
 17  10  28  1   
 18  11  12  1   
 19  11  29  1   
 20  11  30  1   
 21  12  13  1   
 22  12  14  1   
 23  12  31  1   
 24  13  15  am  
 25  13  32  1   
 26  14  16  ar  
 27  14  17  ar  
 28  15  18  2   
 29  15  19  1   
 30  19  20  1   
 31  20  21  1   
 32  20  22  1   
 33  20  23  1   
 34  21  33  1   
 35  21  34  1   
 36  21  35  1   
 37  22  36  1   
 38  22  37  1   
 39  22  38  1   
 40  23  39  1   
 41  23  40  1   
 42  23  41  1   
@<TRIPOS>SUBSTRUCTURE
  1 ****  11 GROUP 4 **** **** 0

# MOE 2024.06 (io_trps.svl 2023.06)
