@<TRIPOS>MOLECULE
NONAME
43 44 1 0 0 
SMALL
USER_CHARGES


@<TRIPOS>ATOM
  1 N        0.0290     0.1600    -0.6440 N.4   1 <1>  -0.9590 
  2 C       -1.2120    -0.6660    -0.8690 C.3   1 <1>   0.3430 
  3 C       -0.0660     1.6000    -1.0450 C.3   1 <1>   0.3430 
  4 C        1.2130    -0.4530    -1.3280 C.3   1 <1>   0.4860 
  5 C       -2.2320    -0.6060     0.3060 C.3   1 <1>   0.3430 
  6 C       -1.3810     2.2800    -0.6550 C.3   1 <1>  -0.1600 
  7 C        2.4490     0.1780    -0.7270 C.ar  1 <1>  -0.1440 
  8 N       -2.8640     0.7380     0.5980 N.4   1 <1>  -0.9590 
  9 C       -1.9320     1.9000     0.7180 C.3   1 <1>   0.3430 
 10 C        2.8870    -0.2060     0.5330 C.ar  1 <1>  -0.1500 
 11 C        3.1470     1.1560    -1.4220 C.ar  1 <1>  -0.1500 
 12 C       -3.6970     0.6410     1.8440 C.3   1 <1>   0.2630 
 13 C        3.9960     0.3990     1.0970 C.ar  1 <1>  -0.1500 
 14 C        4.2540     1.7570    -0.8520 C.ar  1 <1>  -0.1500 
 15 C        4.6810     1.3870     0.4120 C.ar  1 <1>  -0.1440 
 16 C        5.9010     2.0480     1.0340 C.3   1 <1>  -0.0170 
 17 C        7.1720     1.2750     0.6730 C.3   1 <1>  -0.2400 
 18 H        0.3050     0.1360     0.3480 H     1 <1>   0.4500 
 19 H       -0.9240    -1.6990    -0.9860 H     1 <1>   0.0800 
 20 H       -1.6940    -0.3680    -1.7860 H     1 <1>   0.0800 
 21 H        0.0590     1.6900    -2.1130 H     1 <1>   0.0800 
 22 H        0.7510     2.1390    -0.5870 H     1 <1>   0.0800 
 23 H        1.1790    -0.2750    -2.3910 H     1 <1>   0.0800 
 24 H        1.2440    -1.5170    -1.1570 H     1 <1>   0.0800 
 25 H       -1.7360    -0.9610     1.1940 H     1 <1>   0.0800 
 26 H       -3.0200    -1.3110     0.0920 H     1 <1>   0.0800 
 27 H       -2.1210     2.1290    -1.4200 H     1 <1>   0.0800 
 28 H       -1.1810     3.3380    -0.6440 H     1 <1>   0.0800 
 29 H       -3.5270     0.9620    -0.1640 H     1 <1>   0.4500 
 30 H       -2.4820     2.7460     1.1040 H     1 <1>   0.0800 
 31 H       -1.1330     1.6870     1.4110 H     1 <1>   0.0800 
 32 H        2.3900    -0.9810     1.0910 H     1 <1>   0.1500 
 33 H        2.8490     1.4620    -2.4110 H     1 <1>   0.1500 
 34 H       -3.0770     0.4260     2.7000 H     1 <1>   0.0800 
 35 H       -4.4330    -0.1410     1.7480 H     1 <1>   0.0800 
 36 H       -4.2150     1.5700     2.0240 H     1 <1>   0.0800 
 37 H        4.3350     0.0950     2.0740 H     1 <1>   0.1500 
 38 H        4.7930     2.5150    -1.3970 H     1 <1>   0.1500 
 39 H        5.7930     2.0810     2.1040 H     1 <1>   0.0800 
 40 H        5.9860     3.0620     0.6840 H     1 <1>   0.0800 
 41 H        7.1090     0.2650     1.0360 H     1 <1>   0.0800 
 42 H        8.0310     1.7480     1.1150 H     1 <1>   0.0800 
 43 H        7.3020     1.2510    -0.3940 H     1 <1>   0.0800 
@<TRIPOS>BOND
  1   1   2  1   
  2   1   3  1   
  3   1   4  1   
  4   1  18  1   
  5   2   5  1   
  6   2  19  1   
  7   2  20  1   
  8   3   6  1   
  9   3  21  1   
 10   3  22  1   
 11   4   7  1   
 12   4  23  1   
 13   4  24  1   
 14   5   8  1   
 15   5  25  1   
 16   5  26  1   
 17   6   9  1   
 18   6  27  1   
 19   6  28  1   
 20   7  10  ar  
 21   7  11  ar  
 22   8   9  1   
 23   8  12  1   
 24   8  29  1   
 25   9  30  1   
 26   9  31  1   
 27  10  13  ar  
 28  10  32  1   
 29  11  14  ar  
 30  11  33  1   
 31  12  34  1   
 32  12  35  1   
 33  12  36  1   
 34  13  15  ar  
 35  13  37  1   
 36  14  15  ar  
 37  14  38  1   
 38  15  16  1   
 39  16  17  1   
 40  16  39  1   
 41  16  40  1   
 42  17  41  1   
 43  17  42  1   
 44  17  43  1   
@<TRIPOS>SUBSTRUCTURE
  1 ****   7 GROUP 4 **** **** 0

# MOE 2024.06 (io_trps.svl 2023.06)
