@<TRIPOS>MOLECULE
NONAME
40 42 1 0 0 
SMALL
USER_CHARGES


@<TRIPOS>ATOM
  1 S        0.7400     1.6100     0.3630 S.3   1 <1>  -0.3320 
  2 C       -1.0580     1.7240     0.3400 C.ar  1 <1>   0.1020 
  3 C        1.2840     1.4450    -1.4120 C.3   1 <1>   0.1310 
  4 C       -1.6930     1.8510     1.5620 C.ar  1 <1>  -0.1500 
  5 C       -1.7890     1.6860    -0.8370 C.ar  1 <1>  -0.1500 
  6 C        2.7970     1.3340    -1.5400 C.2   1 <1>   0.5690 
  7 C       -3.0730     1.9430     1.6100 C.ar  1 <1>  -0.1500 
  8 C       -3.1690     1.7790    -0.7810 C.ar  1 <1>  -0.1500 
  9 O        3.2660     1.1930    -2.6430 O.2   1 <1>  -0.5700 
 10 N        3.5750     1.3960    -0.4300 N.am  1 <1>  -0.7300 
 11 C       -3.8170     1.9080     0.4390 C.ar  1 <1>  -0.1430 
 12 C        5.0450     1.2900    -0.3930 C.3   1 <1>   0.2200 
 13 C       -5.3310     2.0080     0.4950 C.3   1 <1>  -0.0970 
 14 C        5.4640     0.1560     0.5590 C.3   1 <1>  -0.0800 
 15 C        5.6460     2.5370     0.2790 C.3   1 <1>  -0.1600 
 16 C        5.4200     0.8390     1.9200 C.3   1 <1>  -0.1600 
 17 C        6.9760    -0.0710     0.3890 C.3   1 <1>  -0.1600 
 18 C        6.3570     1.9650     1.5200 C.3   1 <1>  -0.0800 
 19 C        7.5900     1.1780     1.0470 C.3   1 <1>  -0.1600 
 20 H        0.9380     2.3160    -1.9360 H     1 <1>   0.0800 
 21 H        0.8200     0.5620    -1.8090 H     1 <1>   0.0800 
 22 H       -1.1120     1.8770     2.4660 H     1 <1>   0.1500 
 23 H       -1.3130     1.5870    -1.7920 H     1 <1>   0.1500 
 24 H       -3.5660     2.0400     2.5610 H     1 <1>   0.1500 
 25 H       -3.7410     1.7490    -1.6920 H     1 <1>   0.1500 
 26 H        3.1200     1.5040     0.4790 H     1 <1>   0.3700 
 27 H        5.4370     1.1400    -1.3850 H     1 <1>   0.0800 
 28 H       -5.7560     1.0260     0.5980 H     1 <1>   0.0800 
 29 H       -5.7130     2.4600    -0.4020 H     1 <1>   0.0800 
 30 H       -5.6370     2.6080     1.3330 H     1 <1>   0.0800 
 31 H        4.8780    -0.7410     0.4580 H     1 <1>   0.0800 
 32 H        4.8790     3.2330     0.5710 H     1 <1>   0.0800 
 33 H        6.3390     3.0330    -0.3770 H     1 <1>   0.0800 
 34 H        5.8210     0.2230     2.7080 H     1 <1>   0.0800 
 35 H        4.4380     1.1880     2.1890 H     1 <1>   0.0800 
 36 H        7.2550    -0.1610    -0.6470 H     1 <1>   0.0800 
 37 H        7.2830    -0.9590     0.9160 H     1 <1>   0.0800 
 38 H        6.5630     2.6930     2.2870 H     1 <1>   0.0800 
 39 H        8.1910     1.7450     0.3560 H     1 <1>   0.0800 
 40 H        8.1970     0.8930     1.8890 H     1 <1>   0.0800 
@<TRIPOS>BOND
  1   1   2  1   
  2   1   3  1   
  3   2   4  ar  
  4   2   5  ar  
  5   3   6  1   
  6   3  20  1   
  7   3  21  1   
  8   4   7  ar  
  9   4  22  1   
 10   5   8  ar  
 11   5  23  1   
 12   6   9  2   
 13   6  10  am  
 14   7  11  ar  
 15   7  24  1   
 16   8  11  ar  
 17   8  25  1   
 18  10  12  1   
 19  10  26  1   
 20  11  13  1   
 21  12  14  1   
 22  12  15  1   
 23  12  27  1   
 24  13  28  1   
 25  13  29  1   
 26  13  30  1   
 27  14  16  1   
 28  14  17  1   
 29  14  31  1   
 30  15  18  1   
 31  15  32  1   
 32  15  33  1   
 33  16  18  1   
 34  16  34  1   
 35  16  35  1   
 36  17  19  1   
 37  17  36  1   
 38  17  37  1   
 39  18  19  1   
 40  18  38  1   
 41  19  39  1   
 42  19  40  1   
@<TRIPOS>SUBSTRUCTURE
  1 ****   1 GROUP 4 **** **** 0

# MOE 2024.06 (io_trps.svl 2023.06)
