@<TRIPOS>MOLECULE
NONAME
46 47 1 0 0 
SMALL
USER_CHARGES


@<TRIPOS>ATOM
  1 O        0.0140     0.2550    -0.6700 O.2   1 <1>  -0.5700 
  2 C       -0.1260     1.3880    -0.2520 C.2   1 <1>   0.5440 
  3 N       -1.3770     1.8740     0.0540 N.am  1 <1>  -0.5470 
  4 C        1.0300     2.2410    -0.0630 C.ar  1 <1>   0.0860 
  5 C       -2.6620     1.3100    -0.0530 C.ar  1 <1>   0.1170 
  6 C        0.9850     3.6170    -0.3100 C.ar  1 <1>  -0.1500 
  7 C        2.2440     1.7120     0.3790 C.ar  1 <1>  -0.1500 
  8 C       -3.7670     2.1430    -0.2240 C.ar  1 <1>  -0.1440 
  9 C       -2.8720    -0.0620     0.0340 C.ar  1 <1>  -0.1500 
 10 C        2.0880     4.4260    -0.1080 C.ar  1 <1>  -0.1500 
 11 C        3.3500     2.5140     0.5830 C.ar  1 <1>  -0.1500 
 12 C       -5.0350     1.5950    -0.3080 C.ar  1 <1>  -0.1500 
 13 C       -3.6090     3.6560    -0.3280 C.3   1 <1>  -0.0970 
 14 C       -4.1370    -0.6240    -0.0530 C.ar  1 <1>  -0.1430 
 15 C        3.2840     3.8770     0.3460 C.ar  1 <1>   0.0830 
 16 C       -5.2340     0.2190    -0.2260 C.ar  1 <1>   0.0830 
 17 C       -4.2890    -2.1480     0.0440 C.3   1 <1>   0.0630 
 18 O        4.4060     4.5950     0.5720 O.3   1 <1>  -0.3630 
 19 O       -6.4750    -0.3420    -0.3080 O.3   1 <1>  -0.3630 
 20 C       -3.8120    -2.6610     1.4070 C.3   1 <1>  -0.2400 
 21 C       -3.5330    -2.8460    -1.0930 C.3   1 <1>  -0.2400 
 22 C        4.4630     5.9850     0.3390 C.3   1 <1>   0.0400 
 23 C       -7.6300     0.4320    -0.5440 C.3   1 <1>   0.0400 
 24 H       -1.3820     2.8250     0.4100 H     1 <1>   0.3700 
 25 H        0.0770     4.0590    -0.6770 H     1 <1>   0.1500 
 26 H        2.3120     0.6530     0.5630 H     1 <1>   0.1500 
 27 H       -2.0250    -0.7040     0.1770 H     1 <1>   0.1500 
 28 H        2.0060     5.4780    -0.3100 H     1 <1>   0.1500 
 29 H        4.2770     2.0890     0.9270 H     1 <1>   0.1500 
 30 H       -5.8700     2.2550    -0.4390 H     1 <1>   0.1500 
 31 H       -2.9240     3.9010    -1.1210 H     1 <1>   0.0800 
 32 H       -3.2380     4.0530     0.6000 H     1 <1>   0.0800 
 33 H       -4.5500     4.1290    -0.5440 H     1 <1>   0.0800 
 34 H       -5.3250    -2.4210    -0.0530 H     1 <1>   0.0800 
 35 H       -2.7600    -2.4830     1.5390 H     1 <1>   0.0800 
 36 H       -3.9960    -3.7160     1.4920 H     1 <1>   0.0800 
 37 H       -4.3470    -2.1550     2.1910 H     1 <1>   0.0800 
 38 H       -2.4750    -2.6690    -1.0180 H     1 <1>   0.0800 
 39 H       -3.8750    -2.4690    -2.0400 H     1 <1>   0.0800 
 40 H       -3.7080    -3.9050    -1.0610 H     1 <1>   0.0800 
 41 H        5.4550     6.3230     0.5820 H     1 <1>   0.0800 
 42 H        3.7450     6.4750     0.9710 H     1 <1>   0.0800 
 43 H        4.2580     6.1730    -0.7000 H     1 <1>   0.0800 
 44 H       -8.4720    -0.2350    -0.5940 H     1 <1>   0.0800 
 45 H       -7.5170     0.9490    -1.4800 H     1 <1>   0.0800 
 46 H       -7.7590     1.1230     0.2700 H     1 <1>   0.0800 
@<TRIPOS>BOND
  1   1   2  2   
  2   2   3  am  
  3   2   4  1   
  4   3   5  1   
  5   3  24  1   
  6   4   6  ar  
  7   4   7  ar  
  8   5   8  ar  
  9   5   9  ar  
 10   6  10  ar  
 11   6  25  1   
 12   7  11  ar  
 13   7  26  1   
 14   8  12  ar  
 15   8  13  1   
 16   9  14  ar  
 17   9  27  1   
 18  10  15  ar  
 19  10  28  1   
 20  11  15  ar  
 21  11  29  1   
 22  12  16  ar  
 23  12  30  1   
 24  13  31  1   
 25  13  32  1   
 26  13  33  1   
 27  14  16  ar  
 28  14  17  1   
 29  15  18  1   
 30  16  19  1   
 31  17  20  1   
 32  17  21  1   
 33  17  34  1   
 34  18  22  1   
 35  19  23  1   
 36  20  35  1   
 37  20  36  1   
 38  20  37  1   
 39  21  38  1   
 40  21  39  1   
 41  21  40  1   
 42  22  41  1   
 43  22  42  1   
 44  22  43  1   
 45  23  44  1   
 46  23  45  1   
 47  23  46  1   
@<TRIPOS>SUBSTRUCTURE
  1 ****   3 GROUP 4 **** **** 0

# MOE 2024.06 (io_trps.svl 2023.06)
