@<TRIPOS>MOLECULE
NONAME
35 36 1 0 0 
SMALL
USER_CHARGES


@<TRIPOS>ATOM
  1 O       -0.2990     0.0920    -0.5740 O.3   1 <1>  -0.0190 
  2 N       -1.5390    -0.2860    -0.5310 N.2   1 <1>  -0.4100 
  3 C       -0.3550     1.3880    -0.4120 C.2   1 <1>   0.2980 
  4 C       -2.2660     0.7580    -0.3450 C.2   1 <1>   0.4620 
  5 N       -1.5240     1.8690    -0.2730 N.2   1 <1>  -0.5650 
  6 C        0.9440     2.1810    -0.4310 C.3   1 <1>   0.3000 
  7 C       -3.7150     0.7700    -0.2290 C.ar  1 <1>   0.0540 
  8 O        1.8070     1.7420     0.5800 O.3   1 <1>  -0.5600 
  9 C       -4.4240     1.9490     0.0100 C.ar  1 <1>  -0.1500 
 10 C       -4.4580    -0.4040    -0.3540 C.ar  1 <1>  -0.1500 
 11 C        3.0160     2.4280     0.6380 C.3   1 <1>   0.0400 
 12 C       -5.8110     1.9640     0.1210 C.ar  1 <1>   0.0830 
 13 C       -5.8360    -0.4100    -0.2480 C.ar  1 <1>  -0.1500 
 14 O       -6.5150     3.1100     0.3550 O.3   1 <1>  -0.3620 
 15 C       -6.5280     0.7730    -0.0100 C.ar  1 <1>   0.0830 
 16 C       -5.8750     4.3540     0.5340 C.3   1 <1>   0.0400 
 17 O       -7.8850     0.8200     0.1030 O.3   1 <1>  -0.3630 
 18 C       -8.6860    -0.3310    -0.0170 C.3   1 <1>   0.1200 
 19 C      -10.1420     0.0880     0.1600 C.3   1 <1>  -0.2400 
 20 H        0.7310     3.2230    -0.2720 H     1 <1>   0.0800 
 21 H        1.4310     2.0490    -1.3800 H     1 <1>   0.0800 
 22 H       -3.8630     2.8570     0.1090 H     1 <1>   0.1500 
 23 H       -3.9450    -1.3330    -0.5380 H     1 <1>   0.1500 
 24 H        3.5970     2.0120     1.4430 H     1 <1>   0.0800 
 25 H        2.8270     3.4700     0.8320 H     1 <1>   0.0800 
 26 H        3.5450     2.3020    -0.2910 H     1 <1>   0.0800 
 27 H       -6.3500    -1.3460    -0.3530 H     1 <1>   0.1500 
 28 H       -6.6340     5.0940     0.7170 H     1 <1>   0.0800 
 29 H       -5.3330     4.6000    -0.3610 H     1 <1>   0.0800 
 30 H       -5.2160     4.2890     1.3820 H     1 <1>   0.0800 
 31 H       -8.3950    -1.0300     0.7480 H     1 <1>   0.0800 
 32 H       -8.5280    -0.7550    -0.9940 H     1 <1>   0.0800 
 33 H      -10.2820     0.5280     1.1310 H     1 <1>   0.0800 
 34 H      -10.7830    -0.7700     0.0730 H     1 <1>   0.0800 
 35 H      -10.4140     0.8010    -0.5980 H     1 <1>   0.0800 
@<TRIPOS>BOND
  1   1   2  1   
  2   1   3  1   
  3   2   4  2   
  4   3   5  2   
  5   3   6  1   
  6   4   5  1   
  7   4   7  1   
  8   6   8  1   
  9   6  20  1   
 10   6  21  1   
 11   7   9  ar  
 12   7  10  ar  
 13   8  11  1   
 14   9  12  ar  
 15   9  22  1   
 16  10  13  ar  
 17  10  23  1   
 18  11  24  1   
 19  11  25  1   
 20  11  26  1   
 21  12  14  1   
 22  12  15  ar  
 23  13  15  ar  
 24  13  27  1   
 25  14  16  1   
 26  15  17  1   
 27  16  28  1   
 28  16  29  1   
 29  16  30  1   
 30  17  18  1   
 31  18  19  1   
 32  18  31  1   
 33  18  32  1   
 34  19  33  1   
 35  19  34  1   
 36  19  35  1   
@<TRIPOS>SUBSTRUCTURE
  1 ****   7 GROUP 4 **** **** 0

# MOE 2024.06 (io_trps.svl 2023.06)
