@<TRIPOS>MOLECULE
NONAME
49 50 1 0 0 
SMALL
USER_CHARGES


@<TRIPOS>ATOM
  1 S        0.7420     0.7290     0.0740 S.3   1 <1>  -0.3320 
  2 C       -0.8260    -0.1180    -0.1940 C.ar  1 <1>   0.1020 
  3 C        2.0730    -0.5020    -0.2820 C.3   1 <1>   0.0700 
  4 C       -0.8920    -1.4320    -0.6320 C.ar  1 <1>  -0.1500 
  5 C       -1.9790     0.6050     0.0560 C.ar  1 <1>  -0.1500 
  6 C        3.4210     0.1830    -0.0580 C.3   1 <1>  -0.0990 
  7 C       -2.1310    -2.0230    -0.8170 C.ar  1 <1>  -0.1500 
  8 C       -3.2150     0.0090    -0.1300 C.ar  1 <1>  -0.1500 
  9 C        4.5700    -0.7810    -0.2700 C.2   1 <1>   0.5690 
 10 C       -3.2890    -1.3040    -0.5660 C.ar  1 <1>  -0.1500 
 11 O        4.5080    -1.5680    -1.1810 O.2   1 <1>  -0.5700 
 12 N        5.6320    -0.6910     0.5830 N.am  1 <1>  -0.5470 
 13 C        6.8320    -1.4120     0.6870 C.ar  1 <1>   0.1170 
 14 C        7.9330    -0.8270     1.3380 C.ar  1 <1>   0.0860 
 15 C        6.9510    -2.7040     0.1800 C.ar  1 <1>  -0.1500 
 16 C        7.8670     0.5260     1.8580 C.2   1 <1>   0.5440 
 17 C        9.1020    -1.5790     1.4740 C.ar  1 <1>  -0.1500 
 18 C        8.1230    -3.4210     0.3130 C.ar  1 <1>  -0.1500 
 19 O        6.8880     0.9250     2.4600 O.2   1 <1>  -0.5700 
 20 N        8.8610     1.4380     1.6820 N.am  1 <1>  -0.7300 
 21 C        9.2030    -2.8580     0.9670 C.ar  1 <1>  -0.1500 
 22 C        9.8440     1.4890     0.5750 C.3   1 <1>   0.1400 
 23 C        9.5230     2.6570    -0.3730 C.3   1 <1>  -0.0800 
 24 C       10.4980     2.6530    -1.5560 C.3   1 <1>  -0.2400 
 25 C        9.5820     4.0190     0.3370 C.3   1 <1>  -0.2400 
 26 H        1.9590    -0.8200    -1.3040 H     1 <1>   0.0800 
 27 H        1.9350    -1.3310     0.3890 H     1 <1>   0.0800 
 28 H       -0.0060    -2.0010    -0.8320 H     1 <1>   0.1500 
 29 H       -1.9060     1.6230     0.3940 H     1 <1>   0.1500 
 30 H        3.4560     0.5750     0.9420 H     1 <1>   0.0800 
 31 H        3.5270     0.9980    -0.7500 H     1 <1>   0.0800 
 32 H       -2.1950    -3.0420    -1.1560 H     1 <1>   0.1500 
 33 H       -4.1150     0.5650     0.0630 H     1 <1>   0.1500 
 34 H       -4.2500    -1.7670    -0.7110 H     1 <1>   0.1500 
 35 H        5.5850     0.0840     1.2610 H     1 <1>   0.3700 
 36 H        6.1180    -3.1630    -0.3200 H     1 <1>   0.1500 
 37 H        9.9430    -1.1470     1.9900 H     1 <1>   0.1500 
 38 H        8.1940    -4.4180    -0.0880 H     1 <1>   0.1500 
 39 H        8.6910     2.3380     2.1370 H     1 <1>   0.3700 
 40 H       10.1160    -3.4190     1.0790 H     1 <1>   0.1500 
 41 H        9.8230     0.5680     0.0190 H     1 <1>   0.0800 
 42 H       10.8320     1.6120     0.9860 H     1 <1>   0.0800 
 43 H        8.5290     2.5100    -0.7630 H     1 <1>   0.0800 
 44 H       11.5090     2.7980    -1.2180 H     1 <1>   0.0800 
 45 H       10.2520     3.4410    -2.2460 H     1 <1>   0.0800 
 46 H       10.4430     1.7170    -2.0850 H     1 <1>   0.0800 
 47 H       10.5490     4.1740     0.7820 H     1 <1>   0.0800 
 48 H        8.8330     4.0840     1.1050 H     1 <1>   0.0800 
 49 H        9.3990     4.8120    -0.3670 H     1 <1>   0.0800 
@<TRIPOS>BOND
  1   1   2  1   
  2   1   3  1   
  3   2   4  ar  
  4   2   5  ar  
  5   3   6  1   
  6   3  26  1   
  7   3  27  1   
  8   4   7  ar  
  9   4  28  1   
 10   5   8  ar  
 11   5  29  1   
 12   6   9  1   
 13   6  30  1   
 14   6  31  1   
 15   7  10  ar  
 16   7  32  1   
 17   8  10  ar  
 18   8  33  1   
 19   9  11  2   
 20   9  12  am  
 21  10  34  1   
 22  12  13  1   
 23  12  35  1   
 24  13  14  ar  
 25  13  15  ar  
 26  14  16  1   
 27  14  17  ar  
 28  15  18  ar  
 29  15  36  1   
 30  16  19  2   
 31  16  20  am  
 32  17  21  ar  
 33  17  37  1   
 34  18  21  ar  
 35  18  38  1   
 36  20  22  1   
 37  20  39  1   
 38  21  40  1   
 39  22  23  1   
 40  22  41  1   
 41  22  42  1   
 42  23  24  1   
 43  23  25  1   
 44  23  43  1   
 45  24  44  1   
 46  24  45  1   
 47  24  46  1   
 48  25  47  1   
 49  25  48  1   
 50  25  49  1   
@<TRIPOS>SUBSTRUCTURE
  1 ****   9 GROUP 4 **** **** 0

# MOE 2024.06 (io_trps.svl 2023.06)
