@<TRIPOS>MOLECULE
NONAME
36 37 1 0 0 
SMALL
USER_CHARGES


@<TRIPOS>ATOM
  1 CL       1.4500    -1.9190    -1.9980 Cl    1 <1>  -0.1770 
  2 C        0.8890    -2.5190    -0.4540 C.ar  1 <1>   0.1770 
  3 C        1.5920    -2.2640     0.7330 C.ar  1 <1>   0.0860 
  4 C       -0.2870    -3.2450    -0.4760 C.ar  1 <1>  -0.1500 
  5 C        2.8340    -1.5150     0.8020 C.2   1 <1>   0.5440 
  6 C        1.0380    -2.7710     1.9160 C.ar  1 <1>  -0.1500 
  7 C       -0.7820    -3.7270     0.7180 C.ar  1 <1>   0.1900 
  8 O        3.0660    -0.8210     1.7720 O.2   1 <1>  -0.5700 
  9 N        3.7850    -1.5960    -0.1770 N.am  1 <1>  -0.7300 
 10 C       -0.1390    -3.5000     1.9190 C.ar  1 <1>  -0.1500 
 11 F       -1.8880    -4.4140     0.7130 F     1 <1>  -0.1900 
 12 C        5.0740    -0.8720    -0.1910 C.3   1 <1>   0.1400 
 13 C        6.2140    -1.8870    -0.1580 C.3   1 <1>  -0.1600 
 14 C        7.5660    -1.1750    -0.1290 C.3   1 <1>   0.1400 
 15 N        8.6550    -2.1730    -0.1720 N.am  1 <1>  -0.6600 
 16 C        9.3890    -2.4810    -1.2650 C.2   1 <1>   0.5690 
 17 C        9.0470    -2.9420     1.0200 C.3   1 <1>   0.1400 
 18 O        9.2610    -1.9970    -2.3630 O.2   1 <1>  -0.5700 
 19 C       10.4080    -3.5370    -0.9420 C.3   1 <1>  -0.0990 
 20 C       10.3330    -3.6630     0.5900 C.3   1 <1>  -0.1600 
 21 H       -0.8090    -3.4300    -1.3970 H     1 <1>   0.1500 
 22 H        1.5450    -2.5850     2.8490 H     1 <1>   0.1500 
 23 H        3.5700    -2.1140    -1.0320 H     1 <1>   0.3700 
 24 H       -0.5550    -3.8860     2.8340 H     1 <1>   0.1500 
 25 H        5.1410    -0.2170     0.6620 H     1 <1>   0.0800 
 26 H        5.1340    -0.2720    -1.0840 H     1 <1>   0.0800 
 27 H        6.1640    -2.5070    -1.0360 H     1 <1>   0.0800 
 28 H        6.1130    -2.4970     0.7210 H     1 <1>   0.0800 
 29 H        7.6600    -0.5780     0.7620 H     1 <1>   0.0800 
 30 H        7.6520    -0.5250    -0.9840 H     1 <1>   0.0800 
 31 H        8.2720    -3.6490     1.2630 H     1 <1>   0.0800 
 32 H        9.2240    -2.2870     1.8560 H     1 <1>   0.0800 
 33 H       11.3830    -3.2350    -1.2740 H     1 <1>   0.0800 
 34 H       10.1210    -4.4540    -1.4230 H     1 <1>   0.0800 
 35 H       10.3320    -4.6900     0.9100 H     1 <1>   0.0800 
 36 H       11.1760    -3.1640     1.0360 H     1 <1>   0.0800 
@<TRIPOS>BOND
  1   1   2  1   
  2   2   3  ar  
  3   2   4  ar  
  4   3   5  1   
  5   3   6  ar  
  6   4   7  ar  
  7   4  21  1   
  8   5   8  2   
  9   5   9  am  
 10   6  10  ar  
 11   6  22  1   
 12   7  10  ar  
 13   7  11  1   
 14   9  12  1   
 15   9  23  1   
 16  10  24  1   
 17  12  13  1   
 18  12  25  1   
 19  12  26  1   
 20  13  14  1   
 21  13  27  1   
 22  13  28  1   
 23  14  15  1   
 24  14  29  1   
 25  14  30  1   
 26  15  16  am  
 27  15  17  1   
 28  16  18  2   
 29  16  19  1   
 30  17  20  1   
 31  17  31  1   
 32  17  32  1   
 33  19  20  1   
 34  19  33  1   
 35  19  34  1   
 36  20  35  1   
 37  20  36  1   
@<TRIPOS>SUBSTRUCTURE
  1 ****   9 GROUP 4 **** **** 0

# MOE 2024.06 (io_trps.svl 2023.06)
