@<TRIPOS>MOLECULE
NONAME
46 47 1 0 0 
SMALL
USER_CHARGES


@<TRIPOS>ATOM
  1 BR      -0.2020     0.0380    -0.5930 Br    1 <1>  -0.1110 
  2 C        1.4780    -0.8450    -0.2660 C.ar  1 <1>   0.1110 
  3 C        2.6490    -0.1580    -0.5220 C.ar  1 <1>  -0.1500 
  4 C        1.4620    -2.1410     0.2200 C.ar  1 <1>  -0.1500 
  5 C        3.8530    -0.7970    -0.2790 C.ar  1 <1>   0.0830 
  6 C        2.6720    -2.7790     0.4480 C.ar  1 <1>  -0.1500 
  7 O        5.0030    -0.1200    -0.5030 O.3   1 <1>  -0.3630 
  8 C        3.8630    -2.1170     0.1880 C.ar  1 <1>   0.0830 
  9 C        5.6860     0.3180     0.6560 C.3   1 <1>   0.1200 
 10 O        5.0260    -2.7770     0.3970 O.3   1 <1>  -0.3630 
 11 C        7.1730     0.5360     0.3670 C.3   1 <1>   0.1200 
 12 C        5.6940    -3.2110    -0.7730 C.3   1 <1>   0.1200 
 13 O        7.3540     1.5210    -0.6080 O.3   1 <1>  -0.5600 
 14 C        7.1890    -3.4060    -0.5120 C.3   1 <1>   0.1200 
 15 C        8.6580     2.0200    -0.7220 C.3   1 <1>   0.1200 
 16 O        7.4040    -4.3850     0.4620 O.3   1 <1>  -0.5600 
 17 C        9.6620     0.9830    -1.2560 C.3   1 <1>   0.1200 
 18 C        8.7160    -4.8670     0.5510 C.3   1 <1>   0.1200 
 19 O        9.9980     0.0650    -0.2580 O.3   1 <1>  -0.5600 
 20 C        9.7180    -3.8150     1.0620 C.3   1 <1>   0.1200 
 21 C       11.0160    -0.8230    -0.6080 C.3   1 <1>   0.1200 
 22 O       10.0210    -2.8950     0.0540 O.3   1 <1>  -0.5600 
 23 C       11.0350    -1.9940     0.3800 C.3   1 <1>   0.1200 
 24 H        2.6340     0.8480    -0.8970 H     1 <1>   0.1500 
 25 H        0.5280    -2.6370     0.4120 H     1 <1>   0.1500 
 26 H        2.7010    -3.7860     0.8230 H     1 <1>   0.1500 
 27 H        5.5830    -0.4300     1.4230 H     1 <1>   0.0800 
 28 H        5.2310     1.2320     0.9920 H     1 <1>   0.0800 
 29 H        7.6090    -0.3810     0.0180 H     1 <1>   0.0800 
 30 H        7.6740     0.8430     1.2680 H     1 <1>   0.0800 
 31 H        5.5660    -2.4690    -1.5410 H     1 <1>   0.0800 
 32 H        5.2460    -4.1330    -1.0960 H     1 <1>   0.0800 
 33 H        7.6180    -2.4830    -0.1740 H     1 <1>   0.0800 
 34 H        7.6770    -3.7090    -1.4220 H     1 <1>   0.0800 
 35 H        8.9760     2.4030     0.2310 H     1 <1>   0.0800 
 36 H        8.6060     2.8400    -1.4150 H     1 <1>   0.0800 
 37 H       10.5620     1.4870    -1.5620 H     1 <1>   0.0800 
 38 H        9.2410     0.4560    -2.0950 H     1 <1>   0.0800 
 39 H        9.0200    -5.2490    -0.4080 H     1 <1>   0.0800 
 40 H        8.6900    -5.6860     1.2470 H     1 <1>   0.0800 
 41 H       10.6300    -4.3060     1.3500 H     1 <1>   0.0800 
 42 H        9.3070    -3.2910     1.9080 H     1 <1>   0.0800 
 43 H       11.9470    -0.2870    -0.5650 H     1 <1>   0.0800 
 44 H       10.8530    -1.1910    -1.6060 H     1 <1>   0.0800 
 45 H       10.8910    -1.6280     1.3830 H     1 <1>   0.0800 
 46 H       11.9720    -2.5180     0.3160 H     1 <1>   0.0800 
@<TRIPOS>BOND
  1   1   2  1   
  2   2   3  ar  
  3   2   4  ar  
  4   3   5  ar  
  5   3  24  1   
  6   4   6  ar  
  7   4  25  1   
  8   5   7  1   
  9   5   8  ar  
 10   6   8  ar  
 11   6  26  1   
 12   7   9  1   
 13   8  10  1   
 14   9  11  1   
 15   9  27  1   
 16   9  28  1   
 17  10  12  1   
 18  11  13  1   
 19  11  29  1   
 20  11  30  1   
 21  12  14  1   
 22  12  31  1   
 23  12  32  1   
 24  13  15  1   
 25  14  16  1   
 26  14  33  1   
 27  14  34  1   
 28  15  17  1   
 29  15  35  1   
 30  15  36  1   
 31  16  18  1   
 32  17  19  1   
 33  17  37  1   
 34  17  38  1   
 35  18  20  1   
 36  18  39  1   
 37  18  40  1   
 38  19  21  1   
 39  20  22  1   
 40  20  41  1   
 41  20  42  1   
 42  21  23  1   
 43  21  43  1   
 44  21  44  1   
 45  22  23  1   
 46  23  45  1   
 47  23  46  1   
@<TRIPOS>SUBSTRUCTURE
  1 ****   7 GROUP 4 **** **** 0

# MOE 2024.06 (io_trps.svl 2023.06)
