@<TRIPOS>MOLECULE
NONAME
42 43 1 0 0 
SMALL
USER_CHARGES


@<TRIPOS>ATOM
  1 BR       0.1350    -0.3710    -2.7720 Br    1 <1>  -0.1110 
  2 C       -0.3270    -1.8190    -1.5830 C.ar  1 <1>   0.1110 
  3 C        0.6580    -2.4680    -0.8580 C.ar  1 <1>   0.0820 
  4 C       -1.6600    -2.1710    -1.4850 C.ar  1 <1>  -0.1500 
  5 O        1.9550    -2.1120    -0.9550 O.3   1 <1>  -0.5330 
  6 C        0.2990    -3.5130    -0.0120 C.ar  1 <1>   0.0820 
  7 C       -2.0250    -3.2010    -0.6280 C.ar  1 <1>  -0.1430 
  8 O        1.3020    -4.1310     0.6730 O.3   1 <1>  -0.3630 
  9 C       -1.0450    -3.8730     0.0980 C.ar  1 <1>  -0.1500 
 10 C       -3.4890    -3.5800    -0.4910 C.3   1 <1>   0.4860 
 11 C        1.0940    -5.3460     1.3610 C.3   1 <1>   0.0400 
 12 N       -4.0140    -3.0430     0.7970 N.4   1 <1>  -0.9590 
 13 C       -5.3520    -3.6400     1.1200 C.3   1 <1>   0.4860 
 14 C       -4.0270    -1.5520     0.7760 C.3   1 <1>   0.3430 
 15 C       -6.3460    -3.4040    -0.0070 C.ar  1 <1>  -0.1430 
 16 C       -4.2220    -1.0120     2.1890 C.3   1 <1>  -0.2400 
 17 C       -7.0990    -2.2390    -0.0540 C.ar  1 <1>  -0.1500 
 18 C       -6.5190    -4.3630    -0.9980 C.ar  1 <1>  -0.1500 
 19 C       -7.9900    -2.0230    -1.0900 C.ar  1 <1>  -0.1500 
 20 C       -7.4110    -4.1450    -2.0330 C.ar  1 <1>  -0.1500 
 21 C       -8.1430    -2.9740    -2.0820 C.ar  1 <1>  -0.1500 
 22 H       -2.3820    -1.6360    -2.0780 H     1 <1>   0.1500 
 23 H        2.5060    -2.6840    -0.3830 H     1 <1>   0.4500 
 24 H       -1.3270    -4.6790     0.7490 H     1 <1>   0.1500 
 25 H       -3.5780    -4.6540    -0.5090 H     1 <1>   0.0800 
 26 H       -4.0540    -3.1810    -1.3180 H     1 <1>   0.0800 
 27 H        2.0450    -5.6850     1.7330 H     1 <1>   0.0800 
 28 H        0.6920    -6.0730     0.6780 H     1 <1>   0.0800 
 29 H        0.4260    -5.1730     2.1860 H     1 <1>   0.0800 
 30 H       -3.3480    -3.3200     1.5260 H     1 <1>   0.4500 
 31 H       -5.7390    -3.2150     2.0310 H     1 <1>   0.0800 
 32 H       -5.2480    -4.7010     1.2750 H     1 <1>   0.0800 
 33 H       -4.8050    -1.1900     0.1230 H     1 <1>   0.0800 
 34 H       -3.0840    -1.1840     0.4030 H     1 <1>   0.0800 
 35 H       -5.1930    -1.2560     2.5800 H     1 <1>   0.0800 
 36 H       -4.1460     0.0610     2.1640 H     1 <1>   0.0800 
 37 H       -3.4570    -1.3790     2.8490 H     1 <1>   0.0800 
 38 H       -7.0120    -1.4870     0.7120 H     1 <1>   0.1500 
 39 H       -5.9740    -5.2910    -0.9790 H     1 <1>   0.1500 
 40 H       -8.5730    -1.1170    -1.1260 H     1 <1>   0.1500 
 41 H       -7.5440    -4.8880    -2.8020 H     1 <1>   0.1500 
 42 H       -8.8380    -2.8050    -2.8870 H     1 <1>   0.1500 
@<TRIPOS>BOND
  1   1   2  1   
  2   2   3  ar  
  3   2   4  ar  
  4   3   5  1   
  5   3   6  ar  
  6   4   7  ar  
  7   4  22  1   
  8   5  23  1   
  9   6   8  1   
 10   6   9  ar  
 11   7   9  ar  
 12   7  10  1   
 13   8  11  1   
 14   9  24  1   
 15  10  12  1   
 16  10  25  1   
 17  10  26  1   
 18  11  27  1   
 19  11  28  1   
 20  11  29  1   
 21  12  13  1   
 22  12  14  1   
 23  12  30  1   
 24  13  15  1   
 25  13  31  1   
 26  13  32  1   
 27  14  16  1   
 28  14  33  1   
 29  14  34  1   
 30  15  17  ar  
 31  15  18  ar  
 32  16  35  1   
 33  16  36  1   
 34  16  37  1   
 35  17  19  ar  
 36  17  38  1   
 37  18  20  ar  
 38  18  39  1   
 39  19  21  ar  
 40  19  40  1   
 41  20  21  ar  
 42  20  41  1   
 43  21  42  1   
@<TRIPOS>SUBSTRUCTURE
  1 ****  10 GROUP 4 **** **** 0

# MOE 2024.06 (io_trps.svl 2023.06)
