@<TRIPOS>MOLECULE
NONAME
44 45 1 0 0 
SMALL
USER_CHARGES


@<TRIPOS>ATOM
  1 F        0.9190    -0.6860     1.6640 F     1 <1>  -0.1900 
  2 C        2.1140    -0.7020     1.1390 C.ar  1 <1>   0.1900 
  3 C        2.9770     0.3420     1.4130 C.ar  1 <1>  -0.1500 
  4 C        2.4710    -1.7620     0.3280 C.ar  1 <1>  -0.1500 
  5 C        4.2430     0.3190     0.8520 C.ar  1 <1>  -0.1500 
  6 C        3.7400    -1.7730    -0.2270 C.ar  1 <1>  -0.1500 
  7 C        4.6260    -0.7340     0.0320 C.ar  1 <1>  -0.1430 
  8 C        6.0190    -0.7540    -0.5790 C.3   1 <1>  -0.0160 
  9 C        7.0220    -1.3750     0.3910 C.3   1 <1>   0.1400 
 10 N        8.3450    -1.4240    -0.2510 N.am  1 <1>  -0.7300 
 11 C        9.5280    -1.0040     0.2560 C.2   1 <1>   0.5690 
 12 O        9.5730    -0.4200     1.3160 O.2   1 <1>  -0.5700 
 13 C       10.7920    -1.2340    -0.5940 C.3   1 <1>  -0.0190 
 14 C       11.0580    -2.7190    -0.9610 C.3   1 <1>  -0.1860 
 15 C       12.0670    -0.6580     0.0560 C.3   1 <1>  -0.0220 
 16 C        9.9860    -3.3620    -1.8360 C.2   1 <1>   0.9060 
 17 C       11.3180    -3.5350     0.3170 C.3   1 <1>  -0.0220 
 18 C       12.6640    -1.5650     1.1330 C.2   1 <1>  -0.2760 
 19 O        9.8630    -4.5890    -1.8450 O.co2 1 <1>  -0.9000 
 20 O        9.2480    -2.6390    -2.5180 O.co2 1 <1>  -0.9000 
 21 C       12.3100    -2.8550     1.2610 C.2   1 <1>  -0.2760 
 22 C       13.6660    -0.8060     1.9940 C.3   1 <1>  -0.1020 
 23 C       12.7970    -3.8310     2.3250 C.3   1 <1>  -0.1020 
 24 H        2.6640     1.1490     2.0500 H     1 <1>   0.1500 
 25 H        1.7730    -2.5560     0.1380 H     1 <1>   0.1500 
 26 H        4.9320     1.1220     1.0560 H     1 <1>   0.1500 
 27 H        4.0390    -2.5910    -0.8600 H     1 <1>   0.1500 
 28 H        6.3280     0.2490    -0.8120 H     1 <1>   0.0800 
 29 H        6.0100    -1.3230    -1.4920 H     1 <1>   0.0800 
 30 H        6.7190    -2.3780     0.6410 H     1 <1>   0.0800 
 31 H        7.0740    -0.7950     1.2960 H     1 <1>   0.0800 
 32 H        8.3940    -1.9120    -1.1720 H     1 <1>   0.3700 
 33 H       10.6330    -0.6920    -1.5080 H     1 <1>   0.0800 
 34 H       11.9550    -2.7530    -1.5490 H     1 <1>   0.0800 
 35 H       11.8410     0.3100     0.4700 H     1 <1>   0.0800 
 36 H       12.8100    -0.5130    -0.7070 H     1 <1>   0.0800 
 37 H       11.6950    -4.5000     0.0250 H     1 <1>   0.0800 
 38 H       10.3880    -3.6950     0.8360 H     1 <1>   0.0800 
 39 H       13.1550    -0.0430     2.5520 H     1 <1>   0.0800 
 40 H       14.4040    -0.3400     1.3670 H     1 <1>   0.0800 
 41 H       14.1820    -1.4390     2.6860 H     1 <1>   0.0800 
 42 H       13.3620    -4.6200     1.8640 H     1 <1>   0.0800 
 43 H       11.9500    -4.2640     2.8270 H     1 <1>   0.0800 
 44 H       13.4100    -3.3650     3.0690 H     1 <1>   0.0800 
@<TRIPOS>BOND
  1   1   2  1   
  2   2   3  ar  
  3   2   4  ar  
  4   3   5  ar  
  5   3  24  1   
  6   4   6  ar  
  7   4  25  1   
  8   5   7  ar  
  9   5  26  1   
 10   6   7  ar  
 11   6  27  1   
 12   7   8  1   
 13   8   9  1   
 14   8  28  1   
 15   8  29  1   
 16   9  10  1   
 17   9  30  1   
 18   9  31  1   
 19  10  11  am  
 20  10  32  1   
 21  11  12  2   
 22  11  13  1   
 23  13  14  1   
 24  13  15  1   
 25  13  33  1   
 26  14  16  1   
 27  14  17  1   
 28  14  34  1   
 29  15  18  1   
 30  15  35  1   
 31  15  36  1   
 32  16  19  ar  
 33  16  20  ar  
 34  17  21  1   
 35  17  37  1   
 36  17  38  1   
 37  18  21  2   
 38  18  22  1   
 39  21  23  1   
 40  22  39  1   
 41  22  40  1   
 42  22  41  1   
 43  23  42  1   
 44  23  43  1   
 45  23  44  1   
@<TRIPOS>SUBSTRUCTURE
  1 ****  10 GROUP 4 **** **** 0

# MOE 2024.06 (io_trps.svl 2023.06)
