@<TRIPOS>MOLECULE
NONAME
31 32 1 0 0 
SMALL
USER_CHARGES


@<TRIPOS>ATOM
  1 CL       1.0140     0.4720    -0.9670 Cl    1 <1>  -0.1770 
  2 C       -0.1100     1.7810    -0.7000 C.ar  1 <1>   0.1770 
  3 C        0.0690     2.6710     0.3510 C.ar  1 <1>  -0.0090 
  4 C       -1.1650     1.8930    -1.5850 C.ar  1 <1>  -0.1500 
  5 S        1.4570     2.5110     1.4980 S.o2  1 <1>   1.6670 
  6 C       -0.8650     3.6960     0.4940 C.ar  1 <1>  -0.1500 
  7 C       -2.0680     2.9220    -1.4180 C.ar  1 <1>   0.1770 
  8 O        1.5580     3.6990     2.3070 O.2   1 <1>  -0.6500 
  9 O        1.4900     1.2080     2.1110 O.2   1 <1>  -0.6500 
 10 N        2.8770     2.5650     0.4970 N.pl3 1 <1>  -0.7020 
 11 C       -1.9330     3.8340    -0.3820 C.ar  1 <1>  -0.1440 
 12 CL      -3.3920     3.0540    -2.5480 Cl    1 <1>  -0.1770 
 13 C        3.2810     3.4910    -0.3250 C.cat 1 <1>   0.6040 
 14 C        3.8740     1.4790     0.6280 C.3   1 <1>   0.3300 
 15 C       -2.9360     4.9650    -0.2000 C.3   1 <1>  -0.0960 
 16 N        4.4350     3.2040    -0.8610 N.pl3 1 <1>  -0.7940 
 17 C        2.5360     4.7650    -0.6500 C.3   1 <1>  -0.1350 
 18 C        4.9700     1.9130    -0.3640 C.3   1 <1>   0.3290 
 19 H       -1.2870     1.1920    -2.3920 H     1 <1>   0.1500 
 20 H       -0.7610     4.4000     1.3060 H     1 <1>   0.1500 
 21 H        3.4560     0.5250     0.3560 H     1 <1>   0.0800 
 22 H        4.2580     1.4330     1.6340 H     1 <1>   0.0800 
 23 H       -2.6870     5.5790     0.6480 H     1 <1>   0.0800 
 24 H       -3.9210     4.5610    -0.0460 H     1 <1>   0.0800 
 25 H       -2.9550     5.5880    -1.0770 H     1 <1>   0.0800 
 26 H        4.9650     3.7680    -1.5360 H     1 <1>   0.4500 
 27 H        1.6480     4.5450    -1.2130 H     1 <1>   0.0800 
 28 H        3.1550     5.4190    -1.2360 H     1 <1>   0.0800 
 29 H        2.2670     5.2830     0.2540 H     1 <1>   0.0800 
 30 H        5.0720     1.2020    -1.1670 H     1 <1>   0.0800 
 31 H        5.9160     2.0490     0.1340 H     1 <1>   0.0800 
@<TRIPOS>BOND
  1   1   2  1   
  2   2   3  ar  
  3   2   4  ar  
  4   3   5  1   
  5   3   6  ar  
  6   4   7  ar  
  7   4  19  1   
  8   5   8  2   
  9   5   9  2   
 10   5  10  1   
 11   6  11  ar  
 12   6  20  1   
 13   7  11  ar  
 14   7  12  1   
 15  10  13  ar  
 16  10  14  1   
 17  11  15  1   
 18  13  16  ar  
 19  13  17  1   
 20  14  18  1   
 21  14  21  1   
 22  14  22  1   
 23  15  23  1   
 24  15  24  1   
 25  15  25  1   
 26  16  18  1   
 27  16  26  1   
 28  17  27  1   
 29  17  28  1   
 30  17  29  1   
 31  18  30  1   
 32  18  31  1   
@<TRIPOS>SUBSTRUCTURE
  1 ****   3 GROUP 4 **** **** 0

# MOE 2024.06 (io_trps.svl 2023.06)
