@<TRIPOS>MOLECULE
NONAME
55 56 1 0 0 
SMALL
USER_CHARGES


@<TRIPOS>ATOM
  1 S        0.3300    -0.6180     1.3830 S.o2  1 <1>   1.3330 
  2 O        1.6760    -0.7040     1.9070 O.2   1 <1>  -0.6500 
  3 O       -0.7800    -0.8420     2.2760 O.2   1 <1>  -0.6500 
  4 N        0.2390    -1.6520     0.0390 N.am  1 <1>  -0.8490 
  5 C        0.1670     1.0010     0.6600 C.3   1 <1>  -0.1350 
  6 C       -1.0570    -2.2020    -0.3950 C.3   1 <1>   0.2760 
  7 C        1.3350    -2.6600    -0.0420 C.3   1 <1>   0.2570 
  8 C       -2.1040    -1.1120    -0.6680 C.3   1 <1>  -0.1600 
  9 C       -1.6160    -3.2930     0.5390 C.3   1 <1>  -0.1600 
 10 C        2.6250    -2.1870    -0.7280 C.2   1 <1>   0.5690 
 11 C       -3.3870    -1.7200    -1.2510 C.3   1 <1>  -0.1600 
 12 C       -2.9030    -3.8990    -0.0420 C.3   1 <1>  -0.1600 
 13 O        2.8320    -2.5470    -1.8620 O.2   1 <1>  -0.5700 
 14 N        3.5110    -1.4180    -0.0290 N.am  1 <1>  -0.5470 
 15 C       -3.9480    -2.8120    -0.3290 C.3   1 <1>  -0.1600 
 16 C        4.7900    -0.9940    -0.4190 C.ar  1 <1>   0.1170 
 17 C        4.9930     0.3280    -0.8270 C.ar  1 <1>  -0.1440 
 18 C        5.8780    -1.8730    -0.3750 C.ar  1 <1>  -0.1440 
 19 C        6.2640     0.7540    -1.1760 C.ar  1 <1>  -0.1500 
 20 C        3.8510     1.3350    -0.9110 C.3   1 <1>  -0.0170 
 21 C        7.1390    -1.4240    -0.7290 C.ar  1 <1>  -0.1500 
 22 C        5.7330    -3.3290     0.0620 C.3   1 <1>  -0.0170 
 23 C        7.3350    -0.1160    -1.1290 C.ar  1 <1>  -0.1500 
 24 C        3.6510     2.0410     0.4330 C.3   1 <1>  -0.2400 
 25 C        5.7160    -3.4460     1.5890 C.3   1 <1>  -0.2400 
 26 H        0.8740     1.1230    -0.1350 H     1 <1>   0.0800 
 27 H        0.3500     1.7520     1.4040 H     1 <1>   0.0800 
 28 H       -0.8190     1.1460     0.2700 H     1 <1>   0.0800 
 29 H       -0.8830    -2.6750    -1.3490 H     1 <1>   0.0800 
 30 H        1.0000    -3.5110    -0.6090 H     1 <1>   0.0800 
 31 H        1.5720    -3.0220     0.9430 H     1 <1>   0.0800 
 32 H       -1.7060    -0.3980    -1.3660 H     1 <1>   0.0800 
 33 H       -2.3640    -0.6080     0.2460 H     1 <1>   0.0800 
 34 H       -1.8490    -2.8830     1.5030 H     1 <1>   0.0800 
 35 H       -0.8980    -4.0810     0.6730 H     1 <1>   0.0800 
 36 H       -3.1780    -2.1430    -2.2190 H     1 <1>   0.0800 
 37 H       -4.1260    -0.9480    -1.3820 H     1 <1>   0.0800 
 38 H       -3.3110    -4.6120     0.6550 H     1 <1>   0.0800 
 39 H       -2.6750    -4.4240    -0.9540 H     1 <1>   0.0800 
 40 H        3.1740    -1.0590     0.8740 H     1 <1>   0.3700 
 41 H       -4.8160    -3.2580    -0.7850 H     1 <1>   0.0800 
 42 H       -4.2600    -2.3660     0.6010 H     1 <1>   0.0800 
 43 H        6.4280     1.7700    -1.4890 H     1 <1>   0.1500 
 44 H        2.9450     0.8410    -1.2150 H     1 <1>   0.0800 
 45 H        4.0740     2.0680    -1.6660 H     1 <1>   0.0800 
 46 H        7.9820    -2.0920    -0.6960 H     1 <1>   0.1500 
 47 H        6.5540    -3.9060    -0.3250 H     1 <1>   0.0800 
 48 H        4.8360    -3.7540    -0.3510 H     1 <1>   0.0800 
 49 H        8.3190     0.2220    -1.4020 H     1 <1>   0.1500 
 50 H        3.4110     1.3260     1.1990 H     1 <1>   0.0800 
 51 H        2.8550     2.7600     0.3620 H     1 <1>   0.0800 
 52 H        4.5540     2.5520     0.7170 H     1 <1>   0.0800 
 53 H        6.6250    -3.0420     1.9980 H     1 <1>   0.0800 
 54 H        5.6320    -4.4770     1.8810 H     1 <1>   0.0800 
 55 H        4.8840    -2.9010     1.9970 H     1 <1>   0.0800 
@<TRIPOS>BOND
  1   1   2  2   
  2   1   3  2   
  3   1   4  am  
  4   1   5  1   
  5   4   6  1   
  6   4   7  1   
  7   5  26  1   
  8   5  27  1   
  9   5  28  1   
 10   6   8  1   
 11   6   9  1   
 12   6  29  1   
 13   7  10  1   
 14   7  30  1   
 15   7  31  1   
 16   8  11  1   
 17   8  32  1   
 18   8  33  1   
 19   9  12  1   
 20   9  34  1   
 21   9  35  1   
 22  10  13  2   
 23  10  14  am  
 24  11  15  1   
 25  11  36  1   
 26  11  37  1   
 27  12  15  1   
 28  12  38  1   
 29  12  39  1   
 30  14  16  1   
 31  14  40  1   
 32  15  41  1   
 33  15  42  1   
 34  16  17  ar  
 35  16  18  ar  
 36  17  19  ar  
 37  17  20  1   
 38  18  21  ar  
 39  18  22  1   
 40  19  23  ar  
 41  19  43  1   
 42  20  24  1   
 43  20  44  1   
 44  20  45  1   
 45  21  23  ar  
 46  21  46  1   
 47  22  25  1   
 48  22  47  1   
 49  22  48  1   
 50  23  49  1   
 51  24  50  1   
 52  24  51  1   
 53  24  52  1   
 54  25  53  1   
 55  25  54  1   
 56  25  55  1   
@<TRIPOS>SUBSTRUCTURE
  1 ****  10 GROUP 4 **** **** 0

# MOE 2024.06 (io_trps.svl 2023.06)
