@<TRIPOS>MOLECULE
NONAME
41 41 1 0 0 
SMALL
USER_CHARGES


@<TRIPOS>ATOM
  1 O       -0.9110    -0.1340     0.8200 O.2   1 <1>  -0.5700 
  2 C       -1.7960     0.6310     0.5120 C.2   1 <1>   0.4950 
  3 C       -1.7350     2.0510     0.6700 C.2   1 <1>   0.0290 
  4 C       -3.0420    -0.0010    -0.0830 C.3   1 <1>  -0.0990 
  5 C       -2.8480     2.8430     0.4510 C.2   1 <1>  -0.0380 
  6 C       -0.4780     2.6230     1.0600 C.2   1 <1>   0.4950 
  7 C       -4.3190     0.7360     0.3440 C.3   1 <1>   0.0000 
  8 N       -2.8210     4.1930     0.5980 N.pl3 1 <1>  -0.8690 
  9 C       -4.1740     2.2290    -0.0070 C.3   1 <1>  -0.0220 
 10 O       -0.3820     3.5240     1.8670 O.2   1 <1>  -0.5700 
 11 C        0.8310     2.1590     0.4190 C.3   1 <1>  -0.0990 
 12 C       -4.5540     0.5660     1.8580 C.3   1 <1>  -0.2400 
 13 C       -5.5260     0.1430    -0.4000 C.3   1 <1>  -0.2400 
 14 C       -3.8700     5.2110     0.3760 C.3   1 <1>   0.3470 
 15 C        1.6870     3.3240    -0.1090 C.3   1 <1>  -0.1600 
 16 C       -4.0900     5.3580    -1.1160 C.2   1 <1>  -0.2880 
 17 C        2.9660     2.8170    -0.7830 C.3   1 <1>  -0.2400 
 18 C       -5.2600     5.2250    -1.7520 C.2   1 <1>  -0.3000 
 19 H       -3.0950    -1.0310     0.2230 H     1 <1>   0.0800 
 20 H       -2.9430     0.0190    -1.1530 H     1 <1>   0.0800 
 21 H       -1.9510     4.6030     0.9840 H     1 <1>   0.4000 
 22 H       -4.2440     2.3620    -1.0720 H     1 <1>   0.0800 
 23 H       -4.9990     2.7550     0.4350 H     1 <1>   0.0800 
 24 H        0.6220     1.4980    -0.4020 H     1 <1>   0.0800 
 25 H        1.3870     1.6080     1.1550 H     1 <1>   0.0800 
 26 H       -4.6250    -0.4760     2.1150 H     1 <1>   0.0800 
 27 H       -3.7550     0.9990     2.4330 H     1 <1>   0.0800 
 28 H       -5.4690     1.0470     2.1530 H     1 <1>   0.0800 
 29 H       -5.4020     0.2350    -1.4650 H     1 <1>   0.0800 
 30 H       -6.4310     0.6550    -0.1220 H     1 <1>   0.0800 
 31 H       -5.6420    -0.9000    -0.1630 H     1 <1>   0.0800 
 32 H       -3.5450     6.1500     0.7890 H     1 <1>   0.0800 
 33 H       -4.7800     4.9220     0.8720 H     1 <1>   0.0800 
 34 H        1.9520     3.9740     0.7090 H     1 <1>   0.0800 
 35 H        1.1130     3.9000    -0.8150 H     1 <1>   0.0800 
 36 H       -3.1730     5.5850    -1.6300 H     1 <1>   0.1500 
 37 H        3.5620     2.2560    -0.0850 H     1 <1>   0.0800 
 38 H        3.5490     3.6490    -1.1380 H     1 <1>   0.0800 
 39 H        2.7270     2.1860    -1.6210 H     1 <1>   0.0800 
 40 H       -5.3770     5.3360    -2.8160 H     1 <1>   0.1500 
 41 H       -6.1930     4.9960    -1.2670 H     1 <1>   0.1500 
@<TRIPOS>BOND
  1   1   2  2   
  2   2   3  1   
  3   2   4  1   
  4   3   5  2   
  5   3   6  1   
  6   4   7  1   
  7   4  19  1   
  8   4  20  1   
  9   5   8  1   
 10   5   9  1   
 11   6  10  2   
 12   6  11  1   
 13   7   9  1   
 14   7  12  1   
 15   7  13  1   
 16   8  14  1   
 17   8  21  1   
 18   9  22  1   
 19   9  23  1   
 20  11  15  1   
 21  11  24  1   
 22  11  25  1   
 23  12  26  1   
 24  12  27  1   
 25  12  28  1   
 26  13  29  1   
 27  13  30  1   
 28  13  31  1   
 29  14  16  1   
 30  14  32  1   
 31  14  33  1   
 32  15  17  1   
 33  15  34  1   
 34  15  35  1   
 35  16  18  2   
 36  16  36  1   
 37  17  37  1   
 38  17  38  1   
 39  17  39  1   
 40  18  40  1   
 41  18  41  1   
@<TRIPOS>SUBSTRUCTURE
  1 ****   3 GROUP 4 **** **** 0

# MOE 2024.06 (io_trps.svl 2023.06)
