@<TRIPOS>MOLECULE
NONAME
47 48 1 0 0 
SMALL
USER_CHARGES


@<TRIPOS>ATOM
  1 O      -10.7230    -0.5710     0.2080 O.3   1 <1>  -0.3630 
  2 C      -11.9800    -0.5010     0.7230 C.ar  1 <1>   0.0830 
  3 C       -9.6600     0.1820     0.7350 C.3   1 <1>   0.1200 
  4 C      -12.9750    -1.2740     0.1250 C.ar  1 <1>  -0.1440 
  5 C      -12.3010     0.3080     1.8120 C.ar  1 <1>  -0.1500 
  6 C       -8.4110    -0.1450    -0.0860 C.3   1 <1>  -0.1600 
  7 C      -14.2690    -1.2240     0.6190 C.ar  1 <1>  -0.1500 
  8 C      -12.6790    -2.1760    -1.0680 C.3   1 <1>  -0.0160 
  9 C      -13.5960     0.3470     2.2970 C.ar  1 <1>  -0.1500 
 10 C       -7.1800     0.6250     0.4150 C.3   1 <1>  -0.1600 
 11 C      -14.5810    -0.4190     1.7000 C.ar  1 <1>  -0.1500 
 12 C      -12.8160    -1.3990    -2.3790 C.3   1 <1>  -0.2400 
 13 C       -5.9520     0.2760    -0.4300 C.3   1 <1>   0.3430 
 14 N       -4.7790     1.0980    -0.0200 N.4   1 <1>  -0.9590 
 15 C       -3.7220     1.0570    -1.0740 C.3   1 <1>   0.3430 
 16 C       -4.2330     0.6890     1.3100 C.3   1 <1>   0.3430 
 17 C       -2.5920     2.0240    -0.7110 C.3   1 <1>  -0.1600 
 18 C       -3.1140     1.6460     1.7260 C.3   1 <1>  -0.1600 
 19 C       -2.0020     1.7150     0.6710 C.3   1 <1>  -0.1600 
 20 H       -9.5300    -0.0970     1.7670 H     1 <1>   0.0800 
 21 H       -9.9150     1.2250     0.6560 H     1 <1>   0.0800 
 22 H      -11.5630     0.9150     2.2980 H     1 <1>   0.1500 
 23 H       -8.6060     0.1080    -1.1150 H     1 <1>   0.0800 
 24 H       -8.2300    -1.2040    -0.0220 H     1 <1>   0.0800 
 25 H      -15.0430    -1.8130     0.1620 H     1 <1>   0.1500 
 26 H      -13.3620    -3.0070    -1.0730 H     1 <1>   0.0800 
 27 H      -11.6850    -2.5810    -0.9880 H     1 <1>   0.0800 
 28 H      -13.8400     0.9730     3.1370 H     1 <1>   0.1500 
 29 H       -7.0100     0.3660     1.4450 H     1 <1>   0.0800 
 30 H       -7.3790     1.6810     0.3460 H     1 <1>   0.0800 
 31 H      -15.5890    -0.3890     2.0750 H     1 <1>   0.1500 
 32 H      -13.8140    -1.0110    -2.4780 H     1 <1>   0.0800 
 33 H      -12.6060    -2.0410    -3.2160 H     1 <1>   0.0800 
 34 H      -12.1240    -0.5760    -2.3910 H     1 <1>   0.0800 
 35 H       -6.1830     0.4720    -1.4660 H     1 <1>   0.0800 
 36 H       -5.7220    -0.7730    -0.3320 H     1 <1>   0.0800 
 37 H       -5.0840     2.0770     0.0600 H     1 <1>   0.4500 
 38 H       -4.1380     1.3360    -2.0290 H     1 <1>   0.0800 
 39 H       -3.3260     0.0570    -1.1550 H     1 <1>   0.0800 
 40 H       -3.8440    -0.3150     1.2510 H     1 <1>   0.0800 
 41 H       -5.0100     0.7080     2.0560 H     1 <1>   0.0800 
 42 H       -2.9640     3.0340    -0.7350 H     1 <1>   0.0800 
 43 H       -1.8160     1.9510    -1.4530 H     1 <1>   0.0800 
 44 H       -2.6960     1.3130     2.6600 H     1 <1>   0.0800 
 45 H       -3.5250     2.6270     1.8910 H     1 <1>   0.0800 
 46 H       -1.2860     2.4730     0.9410 H     1 <1>   0.0800 
 47 H       -1.4810     0.7720     0.6360 H     1 <1>   0.0800 
@<TRIPOS>BOND
  1   1   2  1   
  2   1   3  1   
  3   2   4  ar  
  4   2   5  ar  
  5   3   6  1   
  6   3  20  1   
  7   3  21  1   
  8   4   7  ar  
  9   4   8  1   
 10   5   9  ar  
 11   5  22  1   
 12   6  10  1   
 13   6  23  1   
 14   6  24  1   
 15   7  11  ar  
 16   7  25  1   
 17   8  12  1   
 18   8  26  1   
 19   8  27  1   
 20   9  11  ar  
 21   9  28  1   
 22  10  13  1   
 23  10  29  1   
 24  10  30  1   
 25  11  31  1   
 26  12  32  1   
 27  12  33  1   
 28  12  34  1   
 29  13  14  1   
 30  13  35  1   
 31  13  36  1   
 32  14  15  1   
 33  14  16  1   
 34  14  37  1   
 35  15  17  1   
 36  15  38  1   
 37  15  39  1   
 38  16  18  1   
 39  16  40  1   
 40  16  41  1   
 41  17  19  1   
 42  17  42  1   
 43  17  43  1   
 44  18  19  1   
 45  18  44  1   
 46  18  45  1   
 47  19  46  1   
 48  19  47  1   
@<TRIPOS>SUBSTRUCTURE
  1 ****   6 GROUP 4 **** **** 0

# MOE 2024.06 (io_trps.svl 2023.06)
