@<TRIPOS>MOLECULE
NONAME
47 49 1 0 0 
SMALL
USER_CHARGES


@<TRIPOS>ATOM
  1 S        0.3130    -1.1370     0.1670 S.o2  1 <1>   1.4470 
  2 O        1.1700    -0.0820     0.6550 O.2   1 <1>  -0.6500 
  3 O        0.5100    -2.4590     0.7170 O.2   1 <1>  -0.6500 
  4 N        0.7830    -1.2480    -1.4430 N.am  1 <1>  -0.9140 
  5 C       -1.4260    -0.6310     0.1320 C.ar  1 <1>  -0.0090 
  6 C        2.0640    -1.9250    -1.6930 C.3   1 <1>   0.1960 
  7 C       -2.4310    -1.4340    -0.4740 C.ar  1 <1>   0.0000 
  8 C       -1.7790     0.5690     0.7010 C.ar  1 <1>  -0.1500 
  9 C        3.3080    -1.1740    -1.1440 C.3   1 <1>   0.3430 
 10 C       -3.7710    -0.9680    -0.4910 C.ar  1 <1>   0.0000 
 11 C       -2.1690    -2.6920    -1.0720 C.ar  1 <1>  -0.1500 
 12 C       -3.0950     1.0280     0.6940 C.ar  1 <1>  -0.1500 
 13 N        4.1610    -1.9730    -0.1950 N.4   1 <1>  -0.9590 
 14 C       -4.0830     0.2790     0.1060 C.ar  1 <1>   0.0830 
 15 C       -4.7600    -1.7680    -1.1060 C.ar  1 <1>  -0.1500 
 16 C       -3.1510    -3.4400    -1.6560 C.ar  1 <1>  -0.1500 
 17 C        3.4410    -2.3330     1.0830 C.3   1 <1>   0.3430 
 18 C        5.4130    -1.2060     0.1380 C.3   1 <1>   0.3430 
 19 O       -5.3770     0.6820     0.0670 O.3   1 <1>  -0.3630 
 20 C       -4.4650    -2.9730    -1.6760 C.ar  1 <1>  -0.1500 
 21 C        4.3770    -2.9920     2.1140 C.3   1 <1>   0.1200 
 22 C        6.2710    -1.9380     1.1880 C.3   1 <1>   0.1200 
 23 C       -5.8140     1.8940     0.6410 C.3   1 <1>   0.0400 
 24 O        5.5110    -2.2020     2.3290 O.3   1 <1>  -0.5600 
 25 H        0.8060    -0.2890    -1.7890 H     1 <1>   0.4200 
 26 H        2.1780    -2.0190    -2.7600 H     1 <1>   0.0800 
 27 H        2.0200    -2.9240    -1.2930 H     1 <1>   0.0800 
 28 H       -1.0360     1.1910     1.1730 H     1 <1>   0.1500 
 29 H        2.9910    -0.2670    -0.6570 H     1 <1>   0.0800 
 30 H        3.9130    -0.8860    -1.9880 H     1 <1>   0.0800 
 31 H       -1.1740    -3.0930    -1.0770 H     1 <1>   0.1500 
 32 H       -3.2960     1.9750     1.1580 H     1 <1>   0.1500 
 33 H        4.4460    -2.8540    -0.6430 H     1 <1>   0.4500 
 34 H       -5.7750    -1.4120    -1.1220 H     1 <1>   0.1500 
 35 H       -2.9310    -4.3940    -2.1050 H     1 <1>   0.1500 
 36 H        2.6370    -3.0170     0.8720 H     1 <1>   0.0800 
 37 H        3.0140    -1.4470     1.5270 H     1 <1>   0.0800 
 38 H        5.1510    -0.2390     0.5360 H     1 <1>   0.0800 
 39 H        6.0010    -1.0510    -0.7520 H     1 <1>   0.0800 
 40 H       -5.2310    -3.5700    -2.1400 H     1 <1>   0.1500 
 41 H        4.6910    -3.9680     1.7850 H     1 <1>   0.0800 
 42 H        3.8680    -3.0980     3.0570 H     1 <1>   0.0800 
 43 H        7.1000    -1.3190     1.4870 H     1 <1>   0.0800 
 44 H        6.6570    -2.8660     0.8040 H     1 <1>   0.0800 
 45 H       -6.8740     1.9750     0.4810 H     1 <1>   0.0800 
 46 H       -5.3090     2.7110     0.1580 H     1 <1>   0.0800 
 47 H       -5.6040     1.8770     1.6960 H     1 <1>   0.0800 
@<TRIPOS>BOND
  1   1   2  2   
  2   1   3  2   
  3   1   4  am  
  4   1   5  1   
  5   4   6  1   
  6   4  25  1   
  7   5   7  ar  
  8   5   8  ar  
  9   6   9  1   
 10   6  26  1   
 11   6  27  1   
 12   7  10  ar  
 13   7  11  ar  
 14   8  12  ar  
 15   8  28  1   
 16   9  13  1   
 17   9  29  1   
 18   9  30  1   
 19  10  14  ar  
 20  10  15  ar  
 21  11  16  ar  
 22  11  31  1   
 23  12  14  ar  
 24  12  32  1   
 25  13  17  1   
 26  13  18  1   
 27  13  33  1   
 28  14  19  1   
 29  15  20  ar  
 30  15  34  1   
 31  16  20  ar  
 32  16  35  1   
 33  17  21  1   
 34  17  36  1   
 35  17  37  1   
 36  18  22  1   
 37  18  38  1   
 38  18  39  1   
 39  19  23  1   
 40  20  40  1   
 41  21  24  1   
 42  21  41  1   
 43  21  42  1   
 44  22  24  1   
 45  22  43  1   
 46  22  44  1   
 47  23  45  1   
 48  23  46  1   
 49  23  47  1   
@<TRIPOS>SUBSTRUCTURE
  1 ****   1 GROUP 4 **** **** 0

# MOE 2024.06 (io_trps.svl 2023.06)
