@<TRIPOS>MOLECULE
NONAME
50 54 1 0 0 
SMALL
USER_CHARGES


@<TRIPOS>ATOM
  1 S       -0.9350    -1.4620     1.0140 S.3   1 <1>  -0.2860 
  2 C       -2.3880    -0.4020     0.8870 C.2   1 <1>   0.2420 
  3 C        0.1010    -1.1360    -0.4940 C.3   1 <1>   0.1310 
  4 N       -3.1120    -0.0770     1.8990 N.2   1 <1>  -0.3380 
  5 N       -2.8290     0.1180    -0.2520 N.pl3 1 <1>   0.0330 
  6 C       -0.5570    -1.6870    -1.7510 C.2   1 <1>   0.5690 
  7 N       -4.0870     0.7080     1.4180 N.2   1 <1>  -0.3380 
  8 C       -3.9000     0.8060     0.1450 C.2   1 <1>   0.0360 
  9 O       -1.3630    -0.9980    -2.3290 O.2   1 <1>  -0.5700 
 10 N       -0.2340    -2.9100    -2.2500 N.am  1 <1>  -0.5470 
 11 C        0.6740    -3.8560    -1.7680 C.ar  1 <1>   0.1170 
 12 C        0.5420    -4.4110    -0.5050 C.ar  1 <1>  -0.1500 
 13 C        1.7330    -4.2650    -2.5620 C.ar  1 <1>  -0.1500 
 14 C        1.4580    -5.3370    -0.0440 C.ar  1 <1>  -0.1500 
 15 C        2.6480    -5.1940    -2.1000 C.ar  1 <1>  -0.1500 
 16 C        2.5320    -5.7490    -0.8270 C.ar  1 <1>  -0.1430 
 17 C        3.5300    -6.7870    -0.2650 C.3   1 <1>   0.1440 
 18 C        4.6700    -7.1380    -1.2560 C.3   1 <1>  -0.1600 
 19 C        4.1870    -6.2410     1.0260 C.3   1 <1>  -0.1600 
 20 C        2.7870    -8.1020     0.0740 C.3   1 <1>  -0.1600 
 21 C        5.6410    -8.1730    -0.6590 C.3   1 <1>  -0.0800 
 22 C        5.1500    -7.2750     1.6420 C.3   1 <1>  -0.0800 
 23 C        3.7450    -9.1420     0.6860 C.3   1 <1>  -0.0800 
 24 C        6.2610    -7.6000     0.6270 C.3   1 <1>  -0.1600 
 25 C        4.8630    -9.4580    -0.3230 C.3   1 <1>  -0.1600 
 26 C        4.3690    -8.5610     1.9690 C.3   1 <1>  -0.1600 
 27 H        1.0570    -1.5960    -0.3230 H     1 <1>   0.0800 
 28 H        0.2250    -0.0710    -0.5670 H     1 <1>   0.0800 
 29 H       -2.4490    -0.0210    -1.1960 H     1 <1>   0.2700 
 30 H       -4.5250     1.3640    -0.5290 H     1 <1>   0.1500 
 31 H       -0.6830    -3.1250    -3.1420 H     1 <1>   0.3700 
 32 H       -0.2840    -4.1270     0.1220 H     1 <1>   0.1500 
 33 H        1.8490    -3.8530    -3.5480 H     1 <1>   0.1500 
 34 H        1.3200    -5.7400     0.9440 H     1 <1>   0.1500 
 35 H        3.4490    -5.4690    -2.7600 H     1 <1>   0.1500 
 36 H        5.2210    -6.2480    -1.5050 H     1 <1>   0.0800 
 37 H        4.2520    -7.5370    -2.1630 H     1 <1>   0.0800 
 38 H        3.4360    -5.9960     1.7540 H     1 <1>   0.0800 
 39 H        4.7220    -5.3360     0.7990 H     1 <1>   0.0800 
 40 H        2.3410    -8.5010    -0.8200 H     1 <1>   0.0800 
 41 H        1.9930    -7.9140     0.7720 H     1 <1>   0.0800 
 42 H        6.4190    -8.3950    -1.3700 H     1 <1>   0.0800 
 43 H        5.5860    -6.8740     2.5410 H     1 <1>   0.0800 
 44 H        3.2030   -10.0430     0.9200 H     1 <1>   0.0800 
 45 H        6.8190    -6.7090     0.3990 H     1 <1>   0.0800 
 46 H        6.9450    -8.3140     1.0520 H     1 <1>   0.0800 
 47 H        5.5330   -10.1910     0.0910 H     1 <1>   0.0800 
 48 H        4.4380    -9.8730    -1.2200 H     1 <1>   0.0800 
 49 H        3.5960    -8.3470     2.6860 H     1 <1>   0.0800 
 50 H        5.0310    -9.2860     2.4110 H     1 <1>   0.0800 
@<TRIPOS>BOND
  1   1   2  1   
  2   1   3  1   
  3   2   4  2   
  4   2   5  1   
  5   3   6  1   
  6   3  27  1   
  7   3  28  1   
  8   4   7  1   
  9   5   8  1   
 10   5  29  1   
 11   6   9  2   
 12   6  10  am  
 13   7   8  2   
 14   8  30  1   
 15  10  11  1   
 16  10  31  1   
 17  11  12  ar  
 18  11  13  ar  
 19  12  14  ar  
 20  12  32  1   
 21  13  15  ar  
 22  13  33  1   
 23  14  16  ar  
 24  14  34  1   
 25  15  16  ar  
 26  15  35  1   
 27  16  17  1   
 28  17  18  1   
 29  17  19  1   
 30  17  20  1   
 31  18  21  1   
 32  18  36  1   
 33  18  37  1   
 34  19  22  1   
 35  19  38  1   
 36  19  39  1   
 37  20  23  1   
 38  20  40  1   
 39  20  41  1   
 40  21  24  1   
 41  21  25  1   
 42  21  42  1   
 43  22  24  1   
 44  22  26  1   
 45  22  43  1   
 46  23  25  1   
 47  23  26  1   
 48  23  44  1   
 49  24  45  1   
 50  24  46  1   
 51  25  47  1   
 52  25  48  1   
 53  26  49  1   
 54  26  50  1   
@<TRIPOS>SUBSTRUCTURE
  1 ****  12 GROUP 4 **** **** 0

# MOE 2024.06 (io_trps.svl 2023.06)
