@<TRIPOS>MOLECULE
NONAME
36 37 1 0 0 
SMALL
USER_CHARGES


@<TRIPOS>ATOM
  1 O       -1.5450     0.3440     2.0120 O.2   1 <1>  -0.5700 
  2 C       -2.2710    -0.4300     1.4220 C.2   1 <1>   0.7060 
  3 O       -3.5100    -0.0420     1.1230 O.3   1 <1>  -0.2330 
  4 C       -1.8660    -1.7390     1.0310 C.2   1 <1>  -0.1360 
  5 C       -4.4030    -0.8270     0.4710 C.ar  1 <1>   0.0820 
  6 C       -2.6990    -2.5770     0.3760 C.2   1 <1>  -0.1670 
  7 C       -4.0280    -2.1220     0.0710 C.ar  1 <1>   0.0280 
  8 C       -5.6780    -0.3250     0.2100 C.ar  1 <1>  -0.1440 
  9 C       -2.2450    -3.9720    -0.0330 C.3   1 <1>  -0.1020 
 10 C       -4.9780    -2.8910    -0.6050 C.ar  1 <1>  -0.1500 
 11 C       -6.5970    -1.1150    -0.4680 C.ar  1 <1>   0.0830 
 12 C       -6.0820     1.0840     0.6510 C.3   1 <1>  -0.0960 
 13 C       -6.2380    -2.4010    -0.8720 C.ar  1 <1>  -0.1500 
 14 O       -7.8240    -0.5930    -0.7130 O.3   1 <1>  -0.3630 
 15 C       -8.8810    -1.3590    -1.2690 C.3   1 <1>   0.1810 
 16 C      -10.1620    -0.5440    -1.3480 C.2   1 <1>   0.6590 
 17 O      -10.7010    -0.3150    -2.4020 O.2   1 <1>  -0.5700 
 18 O      -10.6690    -0.1250    -0.1930 O.3   1 <1>  -0.4300 
 19 C      -11.8480     0.6430    -0.1430 C.3   1 <1>   0.1200 
 20 C      -12.1490     0.9530     1.3200 C.3   1 <1>  -0.2400 
 21 H       -0.8600    -2.0030     1.2950 H     1 <1>   0.1500 
 22 H       -2.2990    -4.0810    -1.1020 H     1 <1>   0.0800 
 23 H       -2.8700    -4.7150     0.4290 H     1 <1>   0.0800 
 24 H       -1.2300    -4.1500     0.2720 H     1 <1>   0.0800 
 25 H       -4.7310    -3.8850    -0.9290 H     1 <1>   0.1500 
 26 H       -5.3930     1.5040     1.3600 H     1 <1>   0.0800 
 27 H       -7.0520     1.0620     1.1140 H     1 <1>   0.0800 
 28 H       -6.1260     1.7300    -0.2060 H     1 <1>   0.0800 
 29 H       -6.9270    -3.0320    -1.4000 H     1 <1>   0.1500 
 30 H       -9.0440    -2.2170    -0.6440 H     1 <1>   0.0800 
 31 H       -8.5930    -1.6650    -2.2580 H     1 <1>   0.0800 
 32 H      -12.6460     0.0740    -0.5900 H     1 <1>   0.0800 
 33 H      -11.6900     1.5480    -0.7060 H     1 <1>   0.0800 
 34 H      -12.2930     0.0410     1.8710 H     1 <1>   0.0800 
 35 H      -13.0460     1.5410     1.3900 H     1 <1>   0.0800 
 36 H      -11.3390     1.5110     1.7540 H     1 <1>   0.0800 
@<TRIPOS>BOND
  1   1   2  2   
  2   2   3  1   
  3   2   4  1   
  4   3   5  1   
  5   4   6  2   
  6   4  21  1   
  7   5   7  ar  
  8   5   8  ar  
  9   6   7  1   
 10   6   9  1   
 11   7  10  ar  
 12   8  11  ar  
 13   8  12  1   
 14   9  22  1   
 15   9  23  1   
 16   9  24  1   
 17  10  13  ar  
 18  10  25  1   
 19  11  13  ar  
 20  11  14  1   
 21  12  26  1   
 22  12  27  1   
 23  12  28  1   
 24  13  29  1   
 25  14  15  1   
 26  15  16  1   
 27  15  30  1   
 28  15  31  1   
 29  16  17  2   
 30  16  18  1   
 31  18  19  1   
 32  19  20  1   
 33  19  32  1   
 34  19  33  1   
 35  20  34  1   
 36  20  35  1   
 37  20  36  1   
@<TRIPOS>SUBSTRUCTURE
  1 ****  11 GROUP 4 **** **** 0

# MOE 2024.06 (io_trps.svl 2023.06)
