@<TRIPOS>MOLECULE
NONAME
38 39 1 0 0 
SMALL
USER_CHARGES


@<TRIPOS>ATOM
  1 S        0.2580    -0.1530    -1.0570 S.3   1 <1>  -0.0800 
  2 C        0.9420    -1.4350    -0.1110 C.2   1 <1>   0.4420 
  3 C       -1.2800    -0.5910    -0.4000 C.2   1 <1>   0.2280 
  4 N        0.0530    -2.0530     0.5800 N.2   1 <1>  -0.3380 
  5 N        2.3070    -1.6090    -0.2090 N.am  1 <1>  -0.4940 
  6 N       -1.2150    -1.5660     0.4090 N.2   1 <1>  -0.3380 
  7 C        3.1060    -2.5980     0.3110 C.2   1 <1>   0.5440 
  8 O        2.6080    -3.5890     0.7980 O.2   1 <1>  -0.5700 
  9 C        4.5480    -2.4660     0.2320 C.ar  1 <1>   0.0860 
 10 C        5.3530    -3.5910     0.0580 C.ar  1 <1>  -0.1500 
 11 C        5.1860    -1.2270     0.3240 C.ar  1 <1>  -0.1500 
 12 C        6.7360    -3.4960    -0.0410 C.ar  1 <1>   0.0830 
 13 C        6.5600    -1.1130     0.2250 C.ar  1 <1>  -0.1500 
 14 O        7.5320    -4.5900    -0.2140 O.3   1 <1>  -0.3620 
 15 C        7.3490    -2.2430     0.0370 C.ar  1 <1>   0.0830 
 16 C        7.0180    -5.9010    -0.1500 C.3   1 <1>   0.0400 
 17 O        8.7030    -2.1820    -0.0690 O.3   1 <1>  -0.3630 
 18 C        9.4200    -0.9750     0.0510 C.3   1 <1>   0.1200 
 19 C       10.9090    -1.2910    -0.0920 C.3   1 <1>  -0.1600 
 20 C       11.7630    -0.0220     0.0290 C.3   1 <1>  -0.1600 
 21 C       13.2520    -0.3460    -0.1150 C.3   1 <1>  -0.2400 
 22 H       -2.1430    -0.0300    -0.7110 H     1 <1>   0.1500 
 23 H        2.7840    -0.9250    -0.7870 H     1 <1>   0.3700 
 24 H        4.8610    -4.5440     0.0000 H     1 <1>   0.1500 
 25 H        4.6050    -0.3370     0.4870 H     1 <1>   0.1500 
 26 H        7.0010    -0.1370     0.3000 H     1 <1>   0.1500 
 27 H        7.8420    -6.5860    -0.2470 H     1 <1>   0.0800 
 28 H        6.3260    -6.0460    -0.9600 H     1 <1>   0.0800 
 29 H        6.5370    -6.0420     0.8010 H     1 <1>   0.0800 
 30 H        9.2140    -0.5520     1.0190 H     1 <1>   0.0800 
 31 H        9.0970    -0.3090    -0.7290 H     1 <1>   0.0800 
 32 H       11.0780    -1.7480    -1.0520 H     1 <1>   0.0800 
 33 H       11.1930    -1.9900     0.6760 H     1 <1>   0.0800 
 34 H       11.5930     0.4400     0.9870 H     1 <1>   0.0800 
 35 H       11.4790     0.6800    -0.7370 H     1 <1>   0.0800 
 36 H       13.5630    -1.0320     0.6540 H     1 <1>   0.0800 
 37 H       13.8350     0.5530    -0.0280 H     1 <1>   0.0800 
 38 H       13.4490    -0.7900    -1.0750 H     1 <1>   0.0800 
@<TRIPOS>BOND
  1   1   2  1   
  2   1   3  1   
  3   2   4  2   
  4   2   5  1   
  5   3   6  2   
  6   3  22  1   
  7   4   6  1   
  8   5   7  am  
  9   5  23  1   
 10   7   8  2   
 11   7   9  1   
 12   9  10  ar  
 13   9  11  ar  
 14  10  12  ar  
 15  10  24  1   
 16  11  13  ar  
 17  11  25  1   
 18  12  14  1   
 19  12  15  ar  
 20  13  15  ar  
 21  13  26  1   
 22  14  16  1   
 23  15  17  1   
 24  16  27  1   
 25  16  28  1   
 26  16  29  1   
 27  17  18  1   
 28  18  19  1   
 29  18  30  1   
 30  18  31  1   
 31  19  20  1   
 32  19  32  1   
 33  19  33  1   
 34  20  21  1   
 35  20  34  1   
 36  20  35  1   
 37  21  36  1   
 38  21  37  1   
 39  21  38  1   
@<TRIPOS>SUBSTRUCTURE
  1 ****   9 GROUP 4 **** **** 0

# MOE 2024.06 (io_trps.svl 2023.06)
