@<TRIPOS>MOLECULE
Structure541
18 18 1 0 0 
SMALL
USER_CHARGES


@<TRIPOS>ATOM
  1 CL      -0.4250    -0.2530     0.5640 Cl    1 <1>  -0.1770 
  2 C       -1.7700     0.8070     0.2660 C.ar  1 <1>   0.7970 
  3 N       -2.9010     0.2060    -0.0480 N.ar  1 <1>  -0.6200 
  4 N       -1.5080     2.0990     0.3900 N.ar  1 <1>  -0.6200 
  5 C       -3.9060     1.0160    -0.2670 C.ar  1 <1>   0.4100 
  6 C       -2.5390     2.8860     0.1560 C.ar  1 <1>   0.1600 
  7 N       -5.0750     0.4010    -0.5900 N.pl3 1 <1>  -0.8690 
  8 C       -3.7690     2.3890    -0.1800 C.ar  1 <1>  -0.1500 
  9 C       -6.4080     0.8760    -0.1840 C.3   1 <1>   0.2090 
 10 C       -7.2350    -0.3320     0.2300 C.3   1 <1>  -0.2400 
 11 H       -2.3850     3.9500     0.2350 H     1 <1>   0.1500 
 12 H       -4.9870    -0.6190    -0.6170 H     1 <1>   0.4000 
 13 H       -4.6010     3.0340    -0.3770 H     1 <1>   0.1500 
 14 H       -6.8760     1.3800    -1.0140 H     1 <1>   0.0800 
 15 H       -6.3220     1.5630     0.6410 H     1 <1>   0.0800 
 16 H       -7.3400    -1.0140    -0.5950 H     1 <1>   0.0800 
 17 H       -8.2150    -0.0120     0.5340 H     1 <1>   0.0800 
 18 H       -6.7690    -0.8360     1.0590 H     1 <1>   0.0800 
@<TRIPOS>BOND
  1   1   2  1   
  2   2   3  ar  
  3   2   4  ar  
  4   3   5  ar  
  5   4   6  ar  
  6   5   7  1   
  7   5   8  ar  
  8   6   8  ar  
  9   6  11  1   
 10   7   9  1   
 11   7  12  1   
 12   8  13  1   
 13   9  10  1   
 14   9  14  1   
 15   9  15  1   
 16  10  16  1   
 17  10  17  1   
 18  10  18  1   
@<TRIPOS>SUBSTRUCTURE
  1 ****   5 GROUP 4 **** **** 0

# MOE 2024.06 (io_trps.svl 2023.06)
