@<TRIPOS>MOLECULE
NONAME
34 34 1 0 0 
SMALL
USER_CHARGES


@<TRIPOS>ATOM
  1 N        5.3800     2.7340     0.0240 N.ar  1 <1>  -0.6200 
  2 C        4.2190     2.1020    -0.1470 C.ar  1 <1>   0.4100 
  3 C        6.4140     2.0320     0.3800 C.ar  1 <1>   0.5280 
  4 N        3.2090     2.8900    -0.5130 N.pl3 1 <1>  -0.8690 
  5 C        4.1110     0.7230     0.0590 C.ar  1 <1>  -0.1500 
  6 N        6.3680     0.6980     0.5890 N.ar  1 <1>  -0.1790 
  7 C        7.7430     2.7470     0.5730 C.3   1 <1>  -0.0160 
  8 C        1.8010     2.5600    -0.8250 C.3   1 <1>   0.2090 
  9 C        5.2140     0.0160     0.4330 C.ar  1 <1>   0.2180 
 10 C        8.7700     2.3820    -0.5140 C.3   1 <1>  -0.1600 
 11 C        0.9410     2.8600     0.4010 C.3   1 <1>  -0.1600 
 12 C        5.1970    -1.4840     0.6780 C.3   1 <1>  -0.0960 
 13 C       10.0920     3.1260    -0.2990 C.3   1 <1>  -0.2400 
 14 C       -0.5350     2.5340     0.1460 C.3   1 <1>  -0.2400 
 15 H        3.4260     3.8900    -0.5900 H     1 <1>   0.4000 
 16 H        3.1600     0.2450    -0.0780 H     1 <1>   0.1500 
 17 H        7.2240     0.2170     0.8640 H     1 <1>   0.4570 
 18 H        8.1360     2.5160     1.5470 H     1 <1>   0.0800 
 19 H        7.5700     3.8100     0.5440 H     1 <1>   0.0800 
 20 H        1.7080     1.5240    -1.1020 H     1 <1>   0.0800 
 21 H        1.4750     3.1580    -1.6600 H     1 <1>   0.0800 
 22 H        8.3750     2.6480    -1.4810 H     1 <1>   0.0800 
 23 H        8.9660     1.3240    -0.5140 H     1 <1>   0.0800 
 24 H        1.0320     3.9030     0.6520 H     1 <1>   0.0800 
 25 H        1.2910     2.2780     1.2350 H     1 <1>   0.0800 
 26 H        4.2100    -1.8800     0.5140 H     1 <1>   0.0800 
 27 H        5.4810    -1.7030     1.6930 H     1 <1>   0.0800 
 28 H        5.8730    -1.9840     0.0070 H     1 <1>   0.0800 
 29 H        9.9380     4.1920    -0.3320 H     1 <1>   0.0800 
 30 H       10.7920     2.8660    -1.0750 H     1 <1>   0.0800 
 31 H       10.5300     2.8700     0.6500 H     1 <1>   0.0800 
 32 H       -0.9170     3.1210    -0.6710 H     1 <1>   0.0800 
 33 H       -1.1170     2.7570     1.0240 H     1 <1>   0.0800 
 34 H       -0.6600     1.4910    -0.0870 H     1 <1>   0.0800 
@<TRIPOS>BOND
  1   1   2  ar  
  2   1   3  ar  
  3   2   4  1   
  4   2   5  ar  
  5   3   6  ar  
  6   3   7  1   
  7   4   8  1   
  8   4  15  1   
  9   5   9  ar  
 10   5  16  1   
 11   6   9  ar  
 12   6  17  1   
 13   7  10  1   
 14   7  18  1   
 15   7  19  1   
 16   8  11  1   
 17   8  20  1   
 18   8  21  1   
 19   9  12  1   
 20  10  13  1   
 21  10  22  1   
 22  10  23  1   
 23  11  14  1   
 24  11  24  1   
 25  11  25  1   
 26  12  26  1   
 27  12  27  1   
 28  12  28  1   
 29  13  29  1   
 30  13  30  1   
 31  13  31  1   
 32  14  32  1   
 33  14  33  1   
 34  14  34  1   
@<TRIPOS>SUBSTRUCTURE
  1 ****   2 GROUP 4 **** **** 0

# MOE 2024.06 (io_trps.svl 2023.06)
