@<TRIPOS>MOLECULE
NONAME
38 39 1 0 0 
SMALL
USER_CHARGES


@<TRIPOS>ATOM
  1 BR      -0.1980     0.4820     0.0370 Br    1 <1>  -0.1110 
  2 C        1.6170     1.1170     0.1530 C.ar  1 <1>   0.1110 
  3 C        2.6400     0.2870    -0.2640 C.ar  1 <1>  -0.1500 
  4 C        1.8480     2.3850     0.6500 C.ar  1 <1>  -0.1500 
  5 C        3.9450     0.7440    -0.1800 C.ar  1 <1>  -0.1500 
  6 C        3.1560     2.8330     0.7300 C.ar  1 <1>  -0.1500 
  7 C        4.2060     2.0220     0.3190 C.ar  1 <1>   0.0830 
  8 O        5.4530     2.5450     0.4330 O.3   1 <1>  -0.3630 
  9 C        6.5910     1.8190     0.0460 C.3   1 <1>   0.1200 
 10 C        7.8040     2.7110     0.3070 C.3   1 <1>  -0.1600 
 11 C        9.0960     2.0050    -0.0980 C.3   1 <1>   0.3430 
 12 N       10.2780     2.8360     0.2610 N.4   1 <1>  -0.9590 
 13 C       10.4060     4.0520    -0.6020 C.3   1 <1>   0.3430 
 14 C       11.5250     2.0160     0.2290 C.3   1 <1>   0.3430 
 15 C       11.5610     4.9210    -0.1020 C.3   1 <1>  -0.1600 
 16 C       12.7030     2.8420     0.7490 C.3   1 <1>  -0.1600 
 17 C       12.8800     4.1410    -0.0480 C.3   1 <1>  -0.1600 
 18 H        2.4170    -0.6940    -0.6440 H     1 <1>   0.1500 
 19 H        1.0270     3.0040     0.9650 H     1 <1>   0.1500 
 20 H        4.7340     0.0930    -0.5050 H     1 <1>   0.1500 
 21 H        3.3680     3.8150     1.1120 H     1 <1>   0.1500 
 22 H        6.4980     1.5810    -1.0000 H     1 <1>   0.0800 
 23 H        6.6330     0.9180     0.6360 H     1 <1>   0.0800 
 24 H        7.8320     2.9460     1.3570 H     1 <1>   0.0800 
 25 H        7.6780     3.6160    -0.2600 H     1 <1>   0.0800 
 26 H        9.0920     1.8050    -1.1570 H     1 <1>   0.0800 
 27 H        9.1510     1.0620     0.4230 H     1 <1>   0.0800 
 28 H       10.1600     3.1640     1.2290 H     1 <1>   0.4500 
 29 H        9.4950     4.6270    -0.5760 H     1 <1>   0.0800 
 30 H       10.5930     3.7570    -1.6220 H     1 <1>   0.0800 
 31 H       11.7280     1.6990    -0.7820 H     1 <1>   0.0800 
 32 H       11.4080     1.1370     0.8430 H     1 <1>   0.0800 
 33 H       11.3220     5.3070     0.8740 H     1 <1>   0.0800 
 34 H       11.6750     5.7660    -0.7600 H     1 <1>   0.0800 
 35 H       13.6030     2.2560     0.6760 H     1 <1>   0.0800 
 36 H       12.5510     3.0670     1.7900 H     1 <1>   0.0800 
 37 H       13.6470     4.7470     0.4060 H     1 <1>   0.0800 
 38 H       13.2010     3.9070    -1.0500 H     1 <1>   0.0800 
@<TRIPOS>BOND
  1   1   2  1   
  2   2   3  ar  
  3   2   4  ar  
  4   3   5  ar  
  5   3  18  1   
  6   4   6  ar  
  7   4  19  1   
  8   5   7  ar  
  9   5  20  1   
 10   6   7  ar  
 11   6  21  1   
 12   7   8  1   
 13   8   9  1   
 14   9  10  1   
 15   9  22  1   
 16   9  23  1   
 17  10  11  1   
 18  10  24  1   
 19  10  25  1   
 20  11  12  1   
 21  11  26  1   
 22  11  27  1   
 23  12  13  1   
 24  12  14  1   
 25  12  28  1   
 26  13  15  1   
 27  13  29  1   
 28  13  30  1   
 29  14  16  1   
 30  14  31  1   
 31  14  32  1   
 32  15  17  1   
 33  15  33  1   
 34  15  34  1   
 35  16  17  1   
 36  16  35  1   
 37  16  36  1   
 38  17  37  1   
 39  17  38  1   
@<TRIPOS>SUBSTRUCTURE
  1 ****   9 GROUP 4 **** **** 0

# MOE 2024.06 (io_trps.svl 2023.06)
