@<TRIPOS>MOLECULE
NONAME
44 46 1 0 0 
SMALL
USER_CHARGES


@<TRIPOS>ATOM
  1 O       -2.0750     7.1980    -0.4850 O.3   1 <1>  -0.3630 
  2 C       -3.2940     6.6340    -0.3100 C.ar  1 <1>   0.0830 
  3 C       -0.9100     6.6120     0.0500 C.3   1 <1>   0.1200 
  4 C       -4.3680     7.2610    -0.9190 C.ar  1 <1>  -0.1500 
  5 C       -3.5160     5.4800     0.4360 C.ar  1 <1>  -0.1500 
  6 C        0.2790     7.5000    -0.3260 C.3   1 <1>   0.1100 
  7 C       -5.6450     6.7480    -0.7910 C.ar  1 <1>  -0.1500 
  8 C       -4.7970     4.9730     0.5600 C.ar  1 <1>  -0.1500 
  9 N        1.5590     6.9480     0.1750 N.3   1 <1>  -0.8100 
 10 C       -5.8840     5.5940    -0.0500 C.ar  1 <1>   0.0000 
 11 C        2.0390     5.8170    -0.6490 C.3   1 <1>   0.1100 
 12 C        2.5780     8.0130     0.2780 C.3   1 <1>   0.1100 
 13 C       -7.2190     5.0580     0.0840 C.ar  1 <1>   0.0000 
 14 C        3.3600     5.2410    -0.0980 C.3   1 <1>   0.3430 
 15 C        3.9040     7.4690     0.8460 C.3   1 <1>   0.3430 
 16 C       -7.5180     3.7660    -0.3380 C.ar  1 <1>  -0.1500 
 17 C       -8.2440     5.8180     0.6390 C.ar  1 <1>  -0.1500 
 18 N        4.4090     6.3050     0.0450 N.4   1 <1>  -0.9060 
 19 C       -8.7940     3.2490    -0.2100 C.ar  1 <1>  -0.1500 
 20 C       -9.5230     5.3070     0.7690 C.ar  1 <1>  -0.1500 
 21 C       -9.8000     4.0200     0.3440 C.ar  1 <1>  -0.1500 
 22 H       -0.8130     5.6290    -0.3700 H     1 <1>   0.0800 
 23 H       -1.0150     6.5640     1.1200 H     1 <1>   0.0800 
 24 H       -4.1960     8.1530    -1.4950 H     1 <1>   0.1500 
 25 H       -2.7130     4.9670     0.9280 H     1 <1>   0.1500 
 26 H        0.1070     8.4660     0.1180 H     1 <1>   0.0800 
 27 H        0.3190     7.6200    -1.3960 H     1 <1>   0.0800 
 28 H       -6.4700     7.2420    -1.2740 H     1 <1>   0.1500 
 29 H       -4.9670     4.0840     1.1410 H     1 <1>   0.1500 
 30 H        2.1780     6.1350    -1.6690 H     1 <1>   0.0800 
 31 H        1.3020     5.0320    -0.6480 H     1 <1>   0.0800 
 32 H        2.2160     8.7850     0.9370 H     1 <1>   0.0800 
 33 H        2.7480     8.4580    -0.6880 H     1 <1>   0.0800 
 34 H        3.7110     4.4610    -0.7530 H     1 <1>   0.0800 
 35 H        3.1590     4.8010     0.8650 H     1 <1>   0.0800 
 36 H        3.7330     7.1610     1.8650 H     1 <1>   0.0800 
 37 H        4.6390     8.2580     0.8570 H     1 <1>   0.0800 
 38 H       -6.7400     3.1640    -0.7740 H     1 <1>   0.1500 
 39 H       -8.0330     6.8180     0.9740 H     1 <1>   0.1500 
 40 H        4.6740     6.6370    -0.8900 H     1 <1>   0.4500 
 41 H        5.2500     5.9130     0.4860 H     1 <1>   0.4500 
 42 H       -9.0060     2.2480    -0.5430 H     1 <1>   0.1500 
 43 H      -10.3020     5.9100     1.2010 H     1 <1>   0.1500 
 44 H      -10.7950     3.6200     0.4450 H     1 <1>   0.1500 
@<TRIPOS>BOND
  1   1   2  1   
  2   1   3  1   
  3   2   4  ar  
  4   2   5  ar  
  5   3   6  1   
  6   3  22  1   
  7   3  23  1   
  8   4   7  ar  
  9   4  24  1   
 10   5   8  ar  
 11   5  25  1   
 12   6   9  1   
 13   6  26  1   
 14   6  27  1   
 15   7  10  ar  
 16   7  28  1   
 17   8  10  ar  
 18   8  29  1   
 19   9  11  1   
 20   9  12  1   
 21  10  13  1   
 22  11  14  1   
 23  11  30  1   
 24  11  31  1   
 25  12  15  1   
 26  12  32  1   
 27  12  33  1   
 28  13  16  ar  
 29  13  17  ar  
 30  14  18  1   
 31  14  34  1   
 32  14  35  1   
 33  15  18  1   
 34  15  36  1   
 35  15  37  1   
 36  16  19  ar  
 37  16  38  1   
 38  17  20  ar  
 39  17  39  1   
 40  18  40  1   
 41  18  41  1   
 42  19  21  ar  
 43  19  42  1   
 44  20  21  ar  
 45  20  43  1   
 46  21  44  1   
@<TRIPOS>SUBSTRUCTURE
  1 ****   2 GROUP 4 **** **** 0

# MOE 2024.06 (io_trps.svl 2023.06)
