@<TRIPOS>MOLECULE
NONAME
35 36 1 0 0 
SMALL
USER_CHARGES


@<TRIPOS>ATOM
  1 CL       0.8450    -0.9510     0.6830 Cl    1 <1>  -0.1770 
  2 C       -0.6190    -1.8040     0.2680 C.ar  1 <1>   0.1770 
  3 C       -1.7870    -1.5040     0.9420 C.ar  1 <1>  -0.1500 
  4 C       -0.5880    -2.7630    -0.7250 C.ar  1 <1>  -0.1500 
  5 C       -2.9560    -2.1760     0.6160 C.ar  1 <1>  -0.1440 
  6 C       -1.7520    -3.4370    -1.0540 C.ar  1 <1>  -0.1500 
  7 C       -2.9410    -3.1460    -0.3860 C.ar  1 <1>   0.0830 
  8 C       -4.2430    -1.8640     1.3490 C.3   1 <1>   0.4870 
  9 O       -4.1180    -3.7660    -0.6710 O.3   1 <1>  -0.3630 
 10 N       -5.1910    -1.3350     0.3520 N.4   1 <1>  -0.9060 
 11 C       -4.1570    -4.9070    -1.5070 C.3   1 <1>   0.0400 
 12 C       -6.5630    -1.1130     0.8320 C.3   1 <1>   0.4230 
 13 C       -7.2790    -2.4540     0.9670 C.3   1 <1>  -0.1600 
 14 C       -7.3420    -0.4300    -0.2850 C.3   1 <1>  -0.1600 
 15 C       -7.7080    -2.8460    -0.4530 C.3   1 <1>  -0.1600 
 16 C       -7.7340    -1.5440    -1.2640 C.3   1 <1>  -0.1600 
 17 H       -1.7570    -0.7510     1.7110 H     1 <1>   0.1500 
 18 H        0.3370    -2.9760    -1.2320 H     1 <1>   0.1500 
 19 H       -1.7070    -4.1770    -1.8320 H     1 <1>   0.1500 
 20 H       -4.0680    -1.1400     2.1280 H     1 <1>   0.0800 
 21 H       -4.6270    -2.7700     1.7900 H     1 <1>   0.0800 
 22 H       -5.2240    -2.0410    -0.3990 H     1 <1>   0.4500 
 23 H       -4.8050    -0.4860    -0.0680 H     1 <1>   0.4500 
 24 H       -5.1620    -5.2890    -1.5160 H     1 <1>   0.0800 
 25 H       -3.4900    -5.6560    -1.1140 H     1 <1>   0.0800 
 26 H       -3.8680    -4.6250    -2.5050 H     1 <1>   0.0800 
 27 H       -6.5730    -0.5370     1.7450 H     1 <1>   0.0800 
 28 H       -8.1670    -2.3010     1.5580 H     1 <1>   0.0800 
 29 H       -6.6930    -3.2190     1.4430 H     1 <1>   0.0800 
 30 H       -6.7970     0.3680    -0.7590 H     1 <1>   0.0800 
 31 H       -8.2410    -0.0140     0.1370 H     1 <1>   0.0800 
 32 H       -8.6780    -3.3160    -0.4420 H     1 <1>   0.0800 
 33 H       -7.0020    -3.5350    -0.8860 H     1 <1>   0.0800 
 34 H       -7.0250    -1.6020    -2.0730 H     1 <1>   0.0800 
 35 H       -8.7110    -1.3620    -1.6800 H     1 <1>   0.0800 
@<TRIPOS>BOND
  1   1   2  1   
  2   2   3  ar  
  3   2   4  ar  
  4   3   5  ar  
  5   3  17  1   
  6   4   6  ar  
  7   4  18  1   
  8   5   7  ar  
  9   5   8  1   
 10   6   7  ar  
 11   6  19  1   
 12   7   9  1   
 13   8  10  1   
 14   8  20  1   
 15   8  21  1   
 16   9  11  1   
 17  10  12  1   
 18  10  22  1   
 19  10  23  1   
 20  11  24  1   
 21  11  25  1   
 22  11  26  1   
 23  12  13  1   
 24  12  14  1   
 25  12  27  1   
 26  13  15  1   
 27  13  28  1   
 28  13  29  1   
 29  14  16  1   
 30  14  30  1   
 31  14  31  1   
 32  15  16  1   
 33  15  32  1   
 34  15  33  1   
 35  16  34  1   
 36  16  35  1   
@<TRIPOS>SUBSTRUCTURE
  1 ****   5 GROUP 4 **** **** 0

# MOE 2024.06 (io_trps.svl 2023.06)
