@<TRIPOS>MOLECULE
NONAME
41 41 1 0 0 
SMALL
USER_CHARGES


@<TRIPOS>ATOM
  1 O        0.3630     1.2300    -1.9430 O.2   1 <1>  -0.5700 
  2 C        0.8020     1.6390    -0.8830 C.2   1 <1>   0.6160 
  3 N        1.8140     0.9590    -0.2770 N.am  1 <1>  -0.7300 
  4 C        0.2270     2.8220    -0.2580 C.2   1 <1>   0.1230 
  5 C        2.6780    -0.1130    -0.8840 C.3   1 <1>   0.1140 
  6 N        1.0510     3.7290     0.4390 N.am  1 <1>  -0.5390 
  7 C       -1.1140     3.0500    -0.2990 C.2   1 <1>  -0.1780 
  8 C        4.1730     0.1490    -0.5990 C.2   1 <1>   0.9060 
  9 C        2.2420    -1.5160    -0.3900 C.3   1 <1>  -0.0800 
 10 C        2.2500     4.2980     0.1430 C.2   1 <1>   0.5690 
 11 C       -1.8820     4.1440     0.2300 C.ar  1 <1>   0.0280 
 12 O        5.0340    -0.3840    -1.3090 O.co2 1 <1>  -0.9000 
 13 O        4.4700     0.9130     0.3350 O.co2 1 <1>  -0.9000 
 14 C        0.8330    -1.8830    -0.8800 C.3   1 <1>  -0.2400 
 15 C        2.3170    -1.6650     1.1390 C.3   1 <1>  -0.2400 
 16 O        2.6520     5.1970     0.8360 O.2   1 <1>  -0.5700 
 17 C        3.0600     3.8950    -1.0670 C.3   1 <1>  -0.1790 
 18 C       -3.1220     3.8970     0.8160 C.ar  1 <1>  -0.1500 
 19 C       -1.4480     5.4700     0.1750 C.ar  1 <1>  -0.1500 
 20 C       -3.8880     4.9210     1.3430 C.ar  1 <1>  -0.1500 
 21 C       -2.2070     6.4970     0.7030 C.ar  1 <1>  -0.1500 
 22 C       -3.4300     6.2250     1.2900 C.ar  1 <1>  -0.1500 
 23 H        2.3370     1.4100     0.4880 H     1 <1>   0.3700 
 24 H        2.5690    -0.0790    -1.9530 H     1 <1>   0.0800 
 25 H        0.6020     4.2000     1.2260 H     1 <1>   0.3700 
 26 H       -1.7210     2.3090    -0.7910 H     1 <1>   0.1500 
 27 H        2.9310    -2.2220    -0.8230 H     1 <1>   0.0800 
 28 H        0.0990    -1.2340    -0.4360 H     1 <1>   0.0800 
 29 H        0.5990    -2.8990    -0.6200 H     1 <1>   0.0800 
 30 H        0.7750    -1.7780    -1.9490 H     1 <1>   0.0800 
 31 H        1.6310    -0.9920     1.6200 H     1 <1>   0.0800 
 32 H        3.3110    -1.4430     1.4860 H     1 <1>   0.0800 
 33 H        2.0750    -2.6710     1.4280 H     1 <1>   0.0800 
 34 H        2.4220     3.6510    -1.8950 H     1 <1>   0.0800 
 35 H        3.6740     3.0500    -0.8250 H     1 <1>   0.0800 
 36 H        3.7030     4.7050    -1.3550 H     1 <1>   0.0800 
 37 H       -3.4880     2.8870     0.8640 H     1 <1>   0.1500 
 38 H       -0.5100     5.7040    -0.2950 H     1 <1>   0.1500 
 39 H       -4.8400     4.7050     1.7950 H     1 <1>   0.1500 
 40 H       -1.8490     7.5110     0.6530 H     1 <1>   0.1500 
 41 H       -4.0220     7.0240     1.7010 H     1 <1>   0.1500 
@<TRIPOS>BOND
  1   1   2  2   
  2   2   3  am  
  3   2   4  1   
  4   3   5  1   
  5   3  23  1   
  6   4   6  1   
  7   4   7  2   
  8   5   8  1   
  9   5   9  1   
 10   5  24  1   
 11   6  10  am  
 12   6  25  1   
 13   7  11  1   
 14   7  26  1   
 15   8  12  ar  
 16   8  13  ar  
 17   9  14  1   
 18   9  15  1   
 19   9  27  1   
 20  10  16  2   
 21  10  17  1   
 22  11  18  ar  
 23  11  19  ar  
 24  14  28  1   
 25  14  29  1   
 26  14  30  1   
 27  15  31  1   
 28  15  32  1   
 29  15  33  1   
 30  17  34  1   
 31  17  35  1   
 32  17  36  1   
 33  18  20  ar  
 34  18  37  1   
 35  19  21  ar  
 36  19  38  1   
 37  20  22  ar  
 38  20  39  1   
 39  21  22  ar  
 40  21  40  1   
 41  22  41  1   
@<TRIPOS>SUBSTRUCTURE
  1 ****   4 GROUP 4 **** **** 0

# MOE 2024.06 (io_trps.svl 2023.06)
