@<TRIPOS>MOLECULE
NONAME
44 46 1 0 0 
SMALL
USER_CHARGES


@<TRIPOS>ATOM
  1 S       -0.1290     0.0820    -0.6390 S.o2  1 <1>   1.3330 
  2 O       -0.5760    -0.8160     0.3950 O.2   1 <1>  -0.6500 
  3 O       -0.8670     1.2720    -0.9770 O.2   1 <1>  -0.6500 
  4 N        1.4360     0.6530    -0.2300 N.am  1 <1>  -0.7570 
  5 C        0.1890    -0.8290    -2.1330 C.3   1 <1>  -0.1350 
  6 C        2.5710    -0.0430     0.1710 C.ar  1 <1>   0.1990 
  7 C        3.8040     0.5850     0.0760 C.ar  1 <1>  -0.1500 
  8 C        2.5290    -1.3420     0.6640 C.ar  1 <1>  -0.1500 
  9 C        4.9990    -0.0350     0.4440 C.ar  1 <1>   0.0860 
 10 C        3.6920    -1.9880     1.0360 C.ar  1 <1>  -0.1500 
 11 C        6.2550     0.6720     0.3170 C.2   1 <1>   0.3030 
 12 C        4.9100    -1.3440     0.9260 C.ar  1 <1>  -0.1500 
 13 N        6.4070     1.8380    -0.1670 N.2   1 <1>  -0.5120 
 14 C        7.5610     0.0630     0.7740 C.3   1 <1>  -0.0990 
 15 N        7.7300     2.2190    -0.1550 N.am  1 <1>  -0.2980 
 16 C        8.5700     1.1590     0.4450 C.3   1 <1>   0.4000 
 17 C        8.2080     3.4520    -0.5820 C.2   1 <1>   0.5690 
 18 C        9.6690     0.6560    -0.4880 C.2   1 <1>  -0.1400 
 19 O        7.4910     4.3190    -1.0220 O.2   1 <1>  -0.5700 
 20 C        9.6840     3.7840    -0.4940 C.3   1 <1>  -0.1790 
 21 S        9.1910     0.1710    -2.1130 S.3   1 <1>  -0.0800 
 22 C       11.0000     0.4980    -0.3250 C.2   1 <1>  -0.1810 
 23 C       10.8420    -0.2350    -2.5300 C.2   1 <1>  -0.1100 
 24 C       11.6620    -0.0080    -1.4900 C.2   1 <1>  -0.1500 
 25 C       11.8200     0.7960     0.9180 C.3   1 <1>  -0.0590 
 26 H        1.5130     1.6470    -0.4300 H     1 <1>   0.4200 
 27 H       -0.7290    -1.2200    -2.5260 H     1 <1>   0.0800 
 28 H        0.8540    -1.6460    -1.9360 H     1 <1>   0.0800 
 29 H        0.6340    -0.1900    -2.8700 H     1 <1>   0.0800 
 30 H        3.8420     1.5920    -0.2990 H     1 <1>   0.1500 
 31 H        1.5930    -1.8570     0.7710 H     1 <1>   0.1500 
 32 H        3.6450    -2.9950     1.4160 H     1 <1>   0.1500 
 33 H        5.7960    -1.8760     1.2220 H     1 <1>   0.1500 
 34 H        7.7710    -0.8430     0.2370 H     1 <1>   0.0800 
 35 H        7.5470    -0.1310     1.8300 H     1 <1>   0.0800 
 36 H        8.9950     1.5380     1.3560 H     1 <1>   0.0800 
 37 H        9.8250     4.8350    -0.6660 H     1 <1>   0.0800 
 38 H       10.0710     3.5440     0.4770 H     1 <1>   0.0800 
 39 H       10.2220     3.2430    -1.2490 H     1 <1>   0.0800 
 40 H       11.0250    -0.6050    -3.5240 H     1 <1>   0.1500 
 41 H       12.7250    -0.1790    -1.4940 H     1 <1>   0.1500 
 42 H       11.2030     1.1560     1.7200 H     1 <1>   0.0800 
 43 H       12.5620     1.5420     0.6950 H     1 <1>   0.0800 
 44 H       12.3190    -0.0980     1.2470 H     1 <1>   0.0800 
@<TRIPOS>BOND
  1   1   2  2   
  2   1   3  2   
  3   1   4  am  
  4   1   5  1   
  5   4   6  1   
  6   4  26  1   
  7   5  27  1   
  8   5  28  1   
  9   5  29  1   
 10   6   7  ar  
 11   6   8  ar  
 12   7   9  ar  
 13   7  30  1   
 14   8  10  ar  
 15   8  31  1   
 16   9  11  1   
 17   9  12  ar  
 18  10  12  ar  
 19  10  32  1   
 20  11  13  2   
 21  11  14  1   
 22  12  33  1   
 23  13  15  1   
 24  14  16  1   
 25  14  34  1   
 26  14  35  1   
 27  15  16  1   
 28  15  17  am  
 29  16  18  1   
 30  16  36  1   
 31  17  19  2   
 32  17  20  1   
 33  18  21  1   
 34  18  22  2   
 35  20  37  1   
 36  20  38  1   
 37  20  39  1   
 38  21  23  1   
 39  22  24  1   
 40  22  25  1   
 41  23  24  2   
 42  23  40  1   
 43  24  41  1   
 44  25  42  1   
 45  25  43  1   
 46  25  44  1   
@<TRIPOS>SUBSTRUCTURE
  1 ****  11 GROUP 4 **** **** 0

# MOE 2024.06 (io_trps.svl 2023.06)
