@<TRIPOS>MOLECULE
NONAME
56 59 1 0 0 
SMALL
USER_CHARGES


@<TRIPOS>ATOM
  1 F        0.7690     0.8520    -0.4050 F     1 <1>  -0.1900 
  2 C        2.0700     0.7150    -0.4270 C.ar  1 <1>   0.1900 
  3 C        2.8600     1.8480    -0.3610 C.ar  1 <1>  -0.1500 
  4 C        2.6070    -0.5550    -0.5170 C.ar  1 <1>  -0.1500 
  5 C        4.2360     1.6970    -0.3850 C.ar  1 <1>  -0.1500 
  6 C        3.9840    -0.6890    -0.5400 C.ar  1 <1>  -0.1500 
  7 C        4.8090     0.4300    -0.4750 C.ar  1 <1>   0.1000 
  8 N        6.1880     0.2610    -0.5000 N.pl3 1 <1>  -0.8380 
  9 C        6.9150     0.6100     0.7560 C.3   1 <1>   0.2090 
 10 C        6.8780     0.7080    -1.7460 C.3   1 <1>   0.2090 
 11 C        8.3700     0.0970     0.7100 C.3   1 <1>   0.3430 
 12 C        8.3350     0.2000    -1.7840 C.3   1 <1>   0.3430 
 13 N        9.1000     0.5470    -0.5310 N.4   1 <1>  -0.9590 
 14 C       10.5260     0.1010    -0.5650 C.3   1 <1>   0.3430 
 15 C       11.3900     1.0010     0.3440 C.3   1 <1>   0.2000 
 16 O       10.8860     2.3040     0.3040 O.3   1 <1>  -0.6800 
 17 C       12.8660     1.0230    -0.0740 C.3   1 <1>   0.1200 
 18 O       13.5280     2.0130     0.6850 O.3   1 <1>  -0.3630 
 19 C       14.8390     2.2920     0.5100 C.ar  1 <1>   0.0830 
 20 C       15.3740     3.3040     1.2830 C.ar  1 <1>  -0.1500 
 21 C       15.6620     1.6200    -0.3950 C.ar  1 <1>  -0.1500 
 22 C       16.7080     3.6530     1.1610 C.ar  1 <1>   0.0830 
 23 C       16.9930     1.9680    -0.5160 C.ar  1 <1>  -0.1500 
 24 O       17.1780     4.6540     1.9400 O.3   1 <1>  -0.2320 
 25 C       17.5530     2.9910     0.2550 C.ar  1 <1>   0.0280 
 26 C       18.4470     5.0650     1.8960 C.2   1 <1>   0.7060 
 27 C       18.9260     3.4080     0.1840 C.2   1 <1>  -0.1670 
 28 O       18.7890     5.9710     2.6280 O.2   1 <1>  -0.5700 
 29 C       19.3350     4.4150     0.9890 C.2   1 <1>  -0.1360 
 30 C       19.8880     2.7260    -0.7790 C.3   1 <1>  -0.1020 
 31 H        2.4030     2.8180    -0.2920 H     1 <1>   0.1500 
 32 H        1.9590    -1.4120    -0.5670 H     1 <1>   0.1500 
 33 H        4.8650     2.5650    -0.3350 H     1 <1>   0.1500 
 34 H        4.4310    -1.6640    -0.6090 H     1 <1>   0.1500 
 35 H        6.4060     0.1640     1.5940 H     1 <1>   0.0800 
 36 H        6.9100     1.6770     0.8950 H     1 <1>   0.0800 
 37 H        6.8650     1.7830    -1.8010 H     1 <1>   0.0800 
 38 H        6.3450     0.3270    -2.6010 H     1 <1>   0.0800 
 39 H        8.3450    -0.9790     0.7440 H     1 <1>   0.0800 
 40 H        8.8900     0.4470     1.5870 H     1 <1>   0.0800 
 41 H        8.8300     0.6190    -2.6440 H     1 <1>   0.0800 
 42 H        8.3110    -0.8710    -1.9040 H     1 <1>   0.0800 
 43 H        9.1780     1.5810    -0.4640 H     1 <1>   0.4500 
 44 H       10.9000     0.1900    -1.5720 H     1 <1>   0.0800 
 45 H       10.6150    -0.9320    -0.2700 H     1 <1>   0.0800 
 46 H       11.3230     0.6560     1.3620 H     1 <1>   0.0800 
 47 H       11.5690     2.9110     0.6780 H     1 <1>   0.4000 
 48 H       12.9640     1.2730    -1.1160 H     1 <1>   0.0800 
 49 H       13.3350     0.0740     0.1230 H     1 <1>   0.0800 
 50 H       14.7530     3.8280     1.9860 H     1 <1>   0.1500 
 51 H       15.2840     0.8270    -1.0110 H     1 <1>   0.1500 
 52 H       17.6050     1.4350    -1.2210 H     1 <1>   0.1500 
 53 H       20.3430     4.7830     0.9950 H     1 <1>   0.1500 
 54 H       19.9630     1.6780    -0.5480 H     1 <1>   0.0800 
 55 H       20.8710     3.1570    -0.7070 H     1 <1>   0.0800 
 56 H       19.5440     2.8410    -1.7910 H     1 <1>   0.0800 
@<TRIPOS>BOND
  1   1   2  1   
  2   2   3  ar  
  3   2   4  ar  
  4   3   5  ar  
  5   3  31  1   
  6   4   6  ar  
  7   4  32  1   
  8   5   7  ar  
  9   5  33  1   
 10   6   7  ar  
 11   6  34  1   
 12   7   8  1   
 13   8   9  1   
 14   8  10  1   
 15   9  11  1   
 16   9  35  1   
 17   9  36  1   
 18  10  12  1   
 19  10  37  1   
 20  10  38  1   
 21  11  13  1   
 22  11  39  1   
 23  11  40  1   
 24  12  13  1   
 25  12  41  1   
 26  12  42  1   
 27  13  14  1   
 28  13  43  1   
 29  14  15  1   
 30  14  44  1   
 31  14  45  1   
 32  15  16  1   
 33  15  17  1   
 34  15  46  1   
 35  16  47  1   
 36  17  18  1   
 37  17  48  1   
 38  17  49  1   
 39  18  19  1   
 40  19  20  ar  
 41  19  21  ar  
 42  20  22  ar  
 43  20  50  1   
 44  21  23  ar  
 45  21  51  1   
 46  22  24  1   
 47  22  25  ar  
 48  23  25  ar  
 49  23  52  1   
 50  24  26  1   
 51  25  27  1   
 52  26  28  2   
 53  26  29  1   
 54  27  29  2   
 55  27  30  1   
 56  29  53  1   
 57  30  54  1   
 58  30  55  1   
 59  30  56  1   
@<TRIPOS>SUBSTRUCTURE
  1 ****  16 GROUP 4 **** **** 0

# MOE 2024.06 (io_trps.svl 2023.06)
