@<TRIPOS>MOLECULE
NONAME
52 55 1 0 0 
SMALL
USER_CHARGES


@<TRIPOS>ATOM
  1 S       -1.1130     1.1370    -1.3090 S.3   1 <1>  -0.4600 
  2 C       -0.1110     2.3220    -0.3420 C.3   1 <1>   0.1310 
  3 C       -1.7810     0.0350    -0.0350 C.3   1 <1>   0.0700 
  4 C       -0.9410     3.0190     0.7330 C.2   1 <1>   0.5690 
  5 C       -2.6010    -1.0390    -0.7430 C.3   1 <1>  -0.2400 
  6 O       -0.7010     2.7340     1.8840 O.2   1 <1>  -0.5700 
  7 N       -1.9150     3.9320     0.4100 N.am  1 <1>  -0.6600 
  8 C       -2.7230     4.6040     1.4810 C.3   1 <1>   0.1400 
  9 C       -2.3270     4.2420    -1.0010 C.3   1 <1>   0.1400 
 10 C       -4.1950     4.7680     1.0690 C.3   1 <1>   0.2090 
 11 C       -3.1500     5.5380    -1.1130 C.3   1 <1>   0.2090 
 12 N       -4.3490     5.5290    -0.2140 N.pl3 1 <1>  -0.8380 
 13 C       -5.2270     6.5980    -0.2510 C.ar  1 <1>   0.4100 
 14 N       -4.7050     7.7980    -0.4320 N.ar  1 <1>  -0.3100 
 15 C       -6.6190     6.3960    -0.0750 C.ar  1 <1>   0.0000 
 16 N       -5.4640     8.8800    -0.3710 N.ar  1 <1>  -0.3100 
 17 C       -7.4150     7.5450     0.0140 C.ar  1 <1>   0.0000 
 18 C       -7.2490     5.1330    -0.0060 C.ar  1 <1>  -0.1500 
 19 C       -6.7550     8.7870    -0.1320 C.ar  1 <1>   0.3100 
 20 C       -8.8050     7.3940     0.2190 C.ar  1 <1>  -0.1500 
 21 C       -8.5970     5.0120     0.1900 C.ar  1 <1>  -0.1500 
 22 C       -7.5010    10.0170    -0.0280 C.ar  1 <1>   0.0000 
 23 C       -9.3850     6.1590     0.3100 C.ar  1 <1>  -0.1500 
 24 C       -7.7880    10.7800    -1.1580 C.ar  1 <1>  -0.1500 
 25 C       -7.9620    10.4790     1.2050 C.ar  1 <1>  -0.1500 
 26 C       -8.5180    11.9510    -1.0650 C.ar  1 <1>  -0.1500 
 27 C       -8.6920    11.6490     1.3030 C.ar  1 <1>  -0.1500 
 28 C       -8.9730    12.3870     0.1670 C.ar  1 <1>  -0.1500 
 29 H        0.3020     3.0340    -1.0300 H     1 <1>   0.0800 
 30 H        0.6840     1.7610     0.1130 H     1 <1>   0.0800 
 31 H       -2.3890     0.6280     0.6260 H     1 <1>   0.0800 
 32 H       -0.9490    -0.3860     0.5010 H     1 <1>   0.0800 
 33 H       -3.4060    -0.5870    -1.2940 H     1 <1>   0.0800 
 34 H       -3.0160    -1.7180    -0.0200 H     1 <1>   0.0800 
 35 H       -1.9780    -1.5940    -1.4210 H     1 <1>   0.0800 
 36 H       -2.3040     5.5750     1.6810 H     1 <1>   0.0800 
 37 H       -2.6800     4.0330     2.3910 H     1 <1>   0.0800 
 38 H       -2.9210     3.4280    -1.3780 H     1 <1>   0.0800 
 39 H       -1.4560     4.3340    -1.6240 H     1 <1>   0.0800 
 40 H       -4.7240     5.2780     1.8560 H     1 <1>   0.0800 
 41 H       -4.6300     3.7910     0.9550 H     1 <1>   0.0800 
 42 H       -3.4760     5.6690    -2.1300 H     1 <1>   0.0800 
 43 H       -2.5180     6.3730    -0.8600 H     1 <1>   0.0800 
 44 H       -6.6470     4.2500    -0.1210 H     1 <1>   0.1500 
 45 H       -9.4230     8.2720     0.2980 H     1 <1>   0.1500 
 46 H       -9.0640     4.0440     0.2460 H     1 <1>   0.1500 
 47 H      -10.4450     6.0540     0.4660 H     1 <1>   0.1500 
 48 H       -7.4310    10.4470    -2.1170 H     1 <1>   0.1500 
 49 H       -7.7410     9.9130     2.0930 H     1 <1>   0.1500 
 50 H       -8.7300    12.5250    -1.9500 H     1 <1>   0.1500 
 51 H       -9.0390    11.9890     2.2640 H     1 <1>   0.1500 
 52 H       -9.5410    13.2990     0.2410 H     1 <1>   0.1500 
@<TRIPOS>BOND
  1   1   2  1   
  2   1   3  1   
  3   2   4  1   
  4   2  29  1   
  5   2  30  1   
  6   3   5  1   
  7   3  31  1   
  8   3  32  1   
  9   4   6  2   
 10   4   7  am  
 11   5  33  1   
 12   5  34  1   
 13   5  35  1   
 14   7   8  1   
 15   7   9  1   
 16   8  10  1   
 17   8  36  1   
 18   8  37  1   
 19   9  11  1   
 20   9  38  1   
 21   9  39  1   
 22  10  12  1   
 23  10  40  1   
 24  10  41  1   
 25  11  12  1   
 26  11  42  1   
 27  11  43  1   
 28  12  13  1   
 29  13  14  ar  
 30  13  15  ar  
 31  14  16  ar  
 32  15  17  ar  
 33  15  18  ar  
 34  16  19  ar  
 35  17  19  ar  
 36  17  20  ar  
 37  18  21  ar  
 38  18  44  1   
 39  19  22  1   
 40  20  23  ar  
 41  20  45  1   
 42  21  23  ar  
 43  21  46  1   
 44  22  24  ar  
 45  22  25  ar  
 46  23  47  1   
 47  24  26  ar  
 48  24  48  1   
 49  25  27  ar  
 50  25  49  1   
 51  26  28  ar  
 52  26  50  1   
 53  27  28  ar  
 54  27  51  1   
 55  28  52  1   
@<TRIPOS>SUBSTRUCTURE
  1 ****  13 GROUP 4 **** **** 0

# MOE 2024.06 (io_trps.svl 2023.06)
