@<TRIPOS>MOLECULE
NONAME
49 51 1 0 0 
SMALL
USER_CHARGES


@<TRIPOS>ATOM
  1 F       -0.8110     1.3780    -0.1610 F     1 <1>  -0.1900 
  2 C        0.2040     2.1950    -0.1580 C.ar  1 <1>   0.1900 
  3 C        0.5320     2.8540     1.0100 C.ar  1 <1>  -0.1500 
  4 C        0.9190     2.3800    -1.3250 C.ar  1 <1>  -0.1500 
  5 C        1.6140     3.7170     1.0030 C.ar  1 <1>  -0.1500 
  6 C        1.9970     3.2480    -1.3140 C.ar  1 <1>  -0.1500 
  7 C        2.3750     3.9310    -0.1510 C.ar  1 <1>   0.0860 
  8 C        3.5160     4.8340    -0.1350 C.2   1 <1>   0.5440 
  9 O        3.6460     5.6730     0.7370 O.2   1 <1>  -0.5700 
 10 N        4.5310     4.7450    -1.0590 N.am  1 <1>  -0.6600 
 11 C        5.2600     5.9910    -1.4330 C.3   1 <1>   0.1400 
 12 C        5.4080     3.5410    -1.0280 C.3   1 <1>   0.1400 
 13 C        6.4200     6.2390    -0.4490 C.3   1 <1>   0.3430 
 14 C        6.5870     3.7750    -0.0580 C.3   1 <1>   0.3430 
 15 N        7.3420     5.0500    -0.3540 N.4   1 <1>  -0.9590 
 16 C        8.4100     5.2890     0.6540 C.3   1 <1>   0.4860 
 17 C        9.4070     4.1470     0.5840 C.ar  1 <1>  -0.1430 
 18 C       10.3270     4.0760    -0.4540 C.ar  1 <1>  -0.1500 
 19 C        9.4010     3.1590     1.5580 C.ar  1 <1>  -0.1500 
 20 C       11.2210     3.0220    -0.5270 C.ar  1 <1>  -0.1500 
 21 C       10.2940     2.1060     1.4840 C.ar  1 <1>  -0.1500 
 22 C       11.2060     2.0270     0.4450 C.ar  1 <1>   0.0830 
 23 O       12.0410     0.9600     0.4510 O.3   1 <1>  -0.3620 
 24 C       13.0720     0.8210    -0.5000 C.3   1 <1>   0.1200 
 25 C       13.8420    -0.4550    -0.1760 C.3   1 <1>  -0.2400 
 26 H       -0.0500     2.6920     1.9000 H     1 <1>   0.1500 
 27 H        0.6290     1.8550    -2.2190 H     1 <1>   0.1500 
 28 H        1.8740     4.2410     1.9080 H     1 <1>   0.1500 
 29 H        2.5490     3.4030    -2.2240 H     1 <1>   0.1500 
 30 H        4.5820     6.8280    -1.4000 H     1 <1>   0.0800 
 31 H        5.6320     5.9080    -2.4400 H     1 <1>   0.0800 
 32 H        5.7770     3.3360    -2.0180 H     1 <1>   0.0800 
 33 H        4.8450     2.6830    -0.7010 H     1 <1>   0.0800 
 34 H        5.9920     6.4450     0.5190 H     1 <1>   0.0800 
 35 H        6.9690     7.1120    -0.7620 H     1 <1>   0.0800 
 36 H        7.2580     2.9310    -0.1100 H     1 <1>   0.0800 
 37 H        6.1920     3.8190     0.9430 H     1 <1>   0.0800 
 38 H        7.8120     4.9210    -1.2580 H     1 <1>   0.4500 
 39 H        7.9840     5.3450     1.6430 H     1 <1>   0.0800 
 40 H        8.9180     6.2170     0.4480 H     1 <1>   0.0800 
 41 H       10.3650     4.8380    -1.2150 H     1 <1>   0.1500 
 42 H        8.7110     3.1940     2.3850 H     1 <1>   0.1500 
 43 H       11.9230     2.9900    -1.3390 H     1 <1>   0.1500 
 44 H       10.2980     1.3350     2.2350 H     1 <1>   0.1500 
 45 H       13.7160     1.6810    -0.4330 H     1 <1>   0.0800 
 46 H       12.6290     0.7580    -1.4780 H     1 <1>   0.0800 
 47 H       14.2680    -0.3890     0.8100 H     1 <1>   0.0800 
 48 H       14.6390    -0.5900    -0.8850 H     1 <1>   0.0800 
 49 H       13.1870    -1.3060    -0.2280 H     1 <1>   0.0800 
@<TRIPOS>BOND
  1   1   2  1   
  2   2   3  ar  
  3   2   4  ar  
  4   3   5  ar  
  5   3  26  1   
  6   4   6  ar  
  7   4  27  1   
  8   5   7  ar  
  9   5  28  1   
 10   6   7  ar  
 11   6  29  1   
 12   7   8  1   
 13   8   9  2   
 14   8  10  am  
 15  10  11  1   
 16  10  12  1   
 17  11  13  1   
 18  11  30  1   
 19  11  31  1   
 20  12  14  1   
 21  12  32  1   
 22  12  33  1   
 23  13  15  1   
 24  13  34  1   
 25  13  35  1   
 26  14  15  1   
 27  14  36  1   
 28  14  37  1   
 29  15  16  1   
 30  15  38  1   
 31  16  17  1   
 32  16  39  1   
 33  16  40  1   
 34  17  18  ar  
 35  17  19  ar  
 36  18  20  ar  
 37  18  41  1   
 38  19  21  ar  
 39  19  42  1   
 40  20  22  ar  
 41  20  43  1   
 42  21  22  ar  
 43  21  44  1   
 44  22  23  1   
 45  23  24  1   
 46  24  25  1   
 47  24  45  1   
 48  24  46  1   
 49  25  47  1   
 50  25  48  1   
 51  25  49  1   
@<TRIPOS>SUBSTRUCTURE
  1 ****  14 GROUP 4 **** **** 0

# MOE 2024.06 (io_trps.svl 2023.06)
