@<TRIPOS>MOLECULE
NONAME
41 43 1 0 0 
SMALL
USER_CHARGES


@<TRIPOS>ATOM
  1 O       -0.7850    -0.5870     1.9350 O.2   1 <1>  -0.5700 
  2 C       -1.1240    -1.1780     0.9390 C.2   1 <1>   0.5690 
  3 N       -2.2180    -0.8090     0.2300 N.am  1 <1>  -0.7300 
  4 C       -0.2980    -2.3740     0.4670 C.3   1 <1>  -0.0190 
  5 C       -3.1550     0.2420     0.6250 C.3   1 <1>   0.3640 
  6 C        0.2930    -2.2240    -0.9370 C.3   1 <1>  -0.1600 
  7 C       -1.0710    -3.6940     0.3960 C.3   1 <1>  -0.1600 
  8 C       -4.5380    -0.1370     0.1070 C.ar  1 <1>  -0.1440 
  9 C       -2.6750     1.5750     0.0570 C.3   1 <1>  -0.2400 
 10 C        0.6450    -3.6490    -1.3650 C.3   1 <1>  -0.1600 
 11 C       -0.2710    -4.5820    -0.5620 C.3   1 <1>  -0.1600 
 12 C       -5.5650    -0.3760     1.0110 C.ar  1 <1>  -0.1500 
 13 C       -4.7950    -0.2570    -1.2560 C.ar  1 <1>  -0.1500 
 14 C       -6.8270    -0.7270     0.5640 C.ar  1 <1>   0.0830 
 15 C       -6.0570    -0.6040    -1.7100 C.ar  1 <1>  -0.1500 
 16 O       -7.8030    -0.9680     1.4770 O.3   1 <1>  -0.3630 
 17 C       -7.0770    -0.8330    -0.8050 C.ar  1 <1>   0.0830 
 18 C       -8.9660    -1.6260     1.0110 C.3   1 <1>   0.1200 
 19 O       -8.3110    -1.1530    -1.2720 O.3   1 <1>  -0.3630 
 20 C       -9.3850    -1.0640    -0.3550 C.3   1 <1>   0.1200 
 21 H       -2.5280    -1.3720    -0.5600 H     1 <1>   0.3700 
 22 H        0.5180    -2.5050     1.1570 H     1 <1>   0.0800 
 23 H       -3.1750     0.3090     1.7010 H     1 <1>   0.0800 
 24 H        1.1530    -1.5770    -0.9400 H     1 <1>   0.0800 
 25 H       -0.4470    -1.8260    -1.6090 H     1 <1>   0.0800 
 26 H       -2.0520    -3.5290    -0.0160 H     1 <1>   0.0800 
 27 H       -1.1760    -4.1430     1.3690 H     1 <1>   0.0800 
 28 H       -2.5690     1.5280    -1.0100 H     1 <1>   0.0800 
 29 H       -1.7290     1.8340     0.4960 H     1 <1>   0.0800 
 30 H       -3.3840     2.3450     0.3010 H     1 <1>   0.0800 
 31 H        1.6720    -3.8570    -1.1140 H     1 <1>   0.0800 
 32 H        0.5150    -3.7810    -2.4250 H     1 <1>   0.0800 
 33 H       -0.9320    -5.1310    -1.2100 H     1 <1>   0.0800 
 34 H        0.3270    -5.2830    -0.0040 H     1 <1>   0.0800 
 35 H       -5.3980    -0.2970     2.0700 H     1 <1>   0.1500 
 36 H       -4.0140    -0.0790    -1.9740 H     1 <1>   0.1500 
 37 H       -6.2570    -0.6930    -2.7620 H     1 <1>   0.1500 
 38 H       -9.7430    -1.4810     1.7390 H     1 <1>   0.0800 
 39 H       -8.7460    -2.6760     0.9320 H     1 <1>   0.0800 
 40 H       -9.6620    -0.0290    -0.2640 H     1 <1>   0.0800 
 41 H      -10.2130    -1.6180    -0.7590 H     1 <1>   0.0800 
@<TRIPOS>BOND
  1   1   2  2   
  2   2   3  am  
  3   2   4  1   
  4   3   5  1   
  5   3  21  1   
  6   4   6  1   
  7   4   7  1   
  8   4  22  1   
  9   5   8  1   
 10   5   9  1   
 11   5  23  1   
 12   6  10  1   
 13   6  24  1   
 14   6  25  1   
 15   7  11  1   
 16   7  26  1   
 17   7  27  1   
 18   8  12  ar  
 19   8  13  ar  
 20   9  28  1   
 21   9  29  1   
 22   9  30  1   
 23  10  11  1   
 24  10  31  1   
 25  10  32  1   
 26  11  33  1   
 27  11  34  1   
 28  12  14  ar  
 29  12  35  1   
 30  13  15  ar  
 31  13  36  1   
 32  14  16  1   
 33  14  17  ar  
 34  15  17  ar  
 35  15  37  1   
 36  16  18  1   
 37  17  19  1   
 38  18  20  1   
 39  18  38  1   
 40  18  39  1   
 41  19  20  1   
 42  20  40  1   
 43  20  41  1   
@<TRIPOS>SUBSTRUCTURE
  1 ****   8 GROUP 4 **** **** 0

# MOE 2024.06 (io_trps.svl 2023.06)
