@<TRIPOS>MOLECULE
NONAME
36 37 1 0 0 
SMALL
USER_CHARGES


@<TRIPOS>ATOM
  1 O       -0.4500     0.4040    -0.4560 O.2   1 <1>  -0.5700 
  2 C       -0.3500     1.5930    -0.2100 C.2   1 <1>   0.5440 
  3 N        0.8890     2.1020     0.0880 N.am  1 <1>  -0.4940 
  4 C       -1.5150     2.4570    -0.2150 C.ar  1 <1>   0.0860 
  5 C        2.1200     1.4530     0.0970 C.2   1 <1>   0.2500 
  6 C       -2.7810     1.9450     0.0710 C.ar  1 <1>  -0.1500 
  7 C       -1.4270     3.8190    -0.5010 C.ar  1 <1>  -0.1500 
  8 N        3.2380     2.0310     0.3910 N.2   1 <1>  -0.3380 
  9 N        2.3040     0.1660    -0.1950 N.pl3 1 <1>   0.0330 
 10 C       -3.9230     2.7410     0.0880 C.ar  1 <1>   0.0830 
 11 C       -2.5470     4.6260    -0.4820 C.ar  1 <1>  -0.1500 
 12 N        4.1960     1.0990     0.2910 N.2   1 <1>  -0.3380 
 13 C        3.6210     0.0010    -0.0570 C.2   1 <1>   0.0360 
 14 O       -5.1450     2.2030     0.3680 O.3   1 <1>  -0.3630 
 15 C       -3.8000     4.1150    -0.1880 C.ar  1 <1>   0.0830 
 16 C       -5.3670     0.8120     0.4290 C.3   1 <1>   0.1200 
 17 O       -4.7950     5.0430    -0.2080 O.3   1 <1>  -0.3630 
 18 C       -6.8640     0.5850     0.6080 C.3   1 <1>  -0.2400 
 19 C       -6.1460     4.7620     0.0740 C.3   1 <1>   0.1200 
 20 C       -6.9320     6.0650    -0.0340 C.3   1 <1>  -0.2400 
 21 H        0.9420     3.0770     0.3780 H     1 <1>   0.3700 
 22 H       -2.8410     0.8950     0.2840 H     1 <1>   0.1500 
 23 H       -0.4790     4.2620    -0.7500 H     1 <1>   0.1500 
 24 H        1.5560    -0.4850    -0.4520 H     1 <1>   0.2700 
 25 H       -2.4600     5.6760    -0.7030 H     1 <1>   0.1500 
 26 H        4.1190    -0.9380    -0.2200 H     1 <1>   0.1500 
 27 H       -5.0220     0.3690    -0.4900 H     1 <1>   0.0800 
 28 H       -4.8210     0.4140     1.2670 H     1 <1>   0.0800 
 29 H       -7.0690    -0.4690     0.6590 H     1 <1>   0.0800 
 30 H       -7.4030     0.9990    -0.2260 H     1 <1>   0.0800 
 31 H       -7.2020     1.0450     1.5190 H     1 <1>   0.0800 
 32 H       -6.5010     4.0430    -0.6440 H     1 <1>   0.0800 
 33 H       -6.2100     4.3600     1.0700 H     1 <1>   0.0800 
 34 H       -7.9700     5.8810     0.1770 H     1 <1>   0.0800 
 35 H       -6.8480     6.4650    -1.0280 H     1 <1>   0.0800 
 36 H       -6.5580     6.7810     0.6760 H     1 <1>   0.0800 
@<TRIPOS>BOND
  1   1   2  2   
  2   2   3  am  
  3   2   4  1   
  4   3   5  1   
  5   3  21  1   
  6   4   6  ar  
  7   4   7  ar  
  8   5   8  2   
  9   5   9  1   
 10   6  10  ar  
 11   6  22  1   
 12   7  11  ar  
 13   7  23  1   
 14   8  12  1   
 15   9  13  1   
 16   9  24  1   
 17  10  14  1   
 18  10  15  ar  
 19  11  15  ar  
 20  11  25  1   
 21  12  13  2   
 22  13  26  1   
 23  14  16  1   
 24  15  17  1   
 25  16  18  1   
 26  16  27  1   
 27  16  28  1   
 28  17  19  1   
 29  18  29  1   
 30  18  30  1   
 31  18  31  1   
 32  19  20  1   
 33  19  32  1   
 34  19  33  1   
 35  20  34  1   
 36  20  35  1   
 37  20  36  1   
@<TRIPOS>SUBSTRUCTURE
  1 ****   4 GROUP 4 **** **** 0

# MOE 2024.06 (io_trps.svl 2023.06)
