@<TRIPOS>MOLECULE
NONAME
47 49 1 0 0 
SMALL
USER_CHARGES


@<TRIPOS>ATOM
  1 F       -1.9310     3.1460    -2.1610 F     1 <1>  -0.1900 
  2 C       -2.4070     2.5020    -1.1280 C.ar  1 <1>   0.1900 
  3 C       -1.7500     2.5400     0.0900 C.ar  1 <1>   0.1900 
  4 C       -3.5810     1.7860    -1.2790 C.ar  1 <1>  -0.1500 
  5 F       -0.6420     3.2210     0.2250 F     1 <1>  -0.1900 
  6 C       -2.2540     1.8610     1.1820 C.ar  1 <1>  -0.1500 
  7 C       -4.1030     1.1040    -0.1830 C.ar  1 <1>  -0.1440 
  8 C       -3.4340     1.1420     1.0390 C.ar  1 <1>  -0.1500 
  9 C       -5.3980     0.3210    -0.3200 C.3   1 <1>   0.4870 
 10 N       -6.5330     1.2760    -0.4050 N.4   1 <1>  -0.9590 
 11 C       -6.6780     2.1020     0.8520 C.3   1 <1>   0.3430 
 12 C       -7.8310     0.5780    -0.7300 C.3   1 <1>   0.3430 
 13 C       -7.8520     3.0970     0.7690 C.3   1 <1>   0.2090 
 14 C       -9.0160     1.5590    -0.8290 C.3   1 <1>   0.2090 
 15 N       -9.1200     2.4020     0.3980 N.pl3 1 <1>  -0.8380 
 16 C      -10.2560     3.2240     0.4350 C.ar  1 <1>   0.1000 
 17 C      -10.4740     4.3010    -0.4440 C.ar  1 <1>   0.0830 
 18 C      -11.2130     2.9450     1.4000 C.ar  1 <1>  -0.1500 
 19 O       -9.5210     4.5670    -1.3930 O.3   1 <1>  -0.3620 
 20 C      -11.6370     5.0580    -0.3280 C.ar  1 <1>  -0.1500 
 21 C      -12.3640     3.7020     1.5090 C.ar  1 <1>  -0.1500 
 22 C       -9.6640     5.6440    -2.2910 C.3   1 <1>   0.1200 
 23 C      -12.5760     4.7590     0.6440 C.ar  1 <1>  -0.1500 
 24 C       -8.4350     5.6710    -3.1950 C.3   1 <1>  -0.2400 
 25 H       -4.0560     1.7730    -2.2440 H     1 <1>   0.1500 
 26 H       -1.7290     1.8950     2.1220 H     1 <1>   0.1500 
 27 H       -3.8170     0.6100     1.8950 H     1 <1>   0.1500 
 28 H       -5.5250    -0.3330     0.5280 H     1 <1>   0.0800 
 29 H       -5.3540    -0.2830    -1.2120 H     1 <1>   0.0800 
 30 H       -6.3340     1.9370    -1.1650 H     1 <1>   0.4500 
 31 H       -5.7700     2.6530     1.0390 H     1 <1>   0.0800 
 32 H       -6.8510     1.4530     1.6950 H     1 <1>   0.0800 
 33 H       -8.0590    -0.1390     0.0410 H     1 <1>   0.0800 
 34 H       -7.7420     0.0470    -1.6630 H     1 <1>   0.0800 
 35 H       -7.6250     3.8630     0.0480 H     1 <1>   0.0800 
 36 H       -7.9820     3.5770     1.7250 H     1 <1>   0.0800 
 37 H       -9.9310     1.0040    -0.9500 H     1 <1>   0.0800 
 38 H       -8.8960     2.1830    -1.6970 H     1 <1>   0.0800 
 39 H      -11.0480     2.1230     2.0730 H     1 <1>   0.1500 
 40 H      -11.8400     5.8860    -0.9790 H     1 <1>   0.1500 
 41 H      -13.0940     3.4690     2.2650 H     1 <1>   0.1500 
 42 H       -9.7370     6.5560    -1.7230 H     1 <1>   0.0800 
 43 H      -10.5590     5.4910    -2.8700 H     1 <1>   0.0800 
 44 H      -13.4730     5.3490     0.7280 H     1 <1>   0.1500 
 45 H       -7.5460     5.8140    -2.6090 H     1 <1>   0.0800 
 46 H       -8.5190     6.4850    -3.8920 H     1 <1>   0.0800 
 47 H       -8.3630     4.7530    -3.7500 H     1 <1>   0.0800 
@<TRIPOS>BOND
  1   1   2  1   
  2   2   3  ar  
  3   2   4  ar  
  4   3   5  1   
  5   3   6  ar  
  6   4   7  ar  
  7   4  25  1   
  8   6   8  ar  
  9   6  26  1   
 10   7   8  ar  
 11   7   9  1   
 12   8  27  1   
 13   9  10  1   
 14   9  28  1   
 15   9  29  1   
 16  10  11  1   
 17  10  12  1   
 18  10  30  1   
 19  11  13  1   
 20  11  31  1   
 21  11  32  1   
 22  12  14  1   
 23  12  33  1   
 24  12  34  1   
 25  13  15  1   
 26  13  35  1   
 27  13  36  1   
 28  14  15  1   
 29  14  37  1   
 30  14  38  1   
 31  15  16  1   
 32  16  17  ar  
 33  16  18  ar  
 34  17  19  1   
 35  17  20  ar  
 36  18  21  ar  
 37  18  39  1   
 38  19  22  1   
 39  20  23  ar  
 40  20  40  1   
 41  21  23  ar  
 42  21  41  1   
 43  22  24  1   
 44  22  42  1   
 45  22  43  1   
 46  23  44  1   
 47  24  45  1   
 48  24  46  1   
 49  24  47  1   
@<TRIPOS>SUBSTRUCTURE
  1 ****  13 GROUP 4 **** **** 0

# MOE 2024.06 (io_trps.svl 2023.06)
