@<TRIPOS>MOLECULE
NONAME
49 52 1 0 0 
SMALL
USER_CHARGES


@<TRIPOS>ATOM
  1 S       -0.1400     0.0220    -0.3880 S.3   1 <1>  -0.0800 
  2 C        0.8350     1.4760    -0.2420 C.2   1 <1>   0.1660 
  3 C       -1.5920     0.9900    -0.5870 C.2   1 <1>  -0.1400 
  4 N        2.1720     1.4280    -0.0600 N.2   1 <1>  -0.5760 
  5 C        0.0750     2.6000    -0.3370 C.2   1 <1>  -0.0860 
  6 C       -1.3180     2.2990    -0.5290 C.2   1 <1>  -0.1810 
  7 C       -2.9560     0.3650    -0.7910 C.3   1 <1>   0.3000 
  8 C        2.7420     2.5820     0.0250 C.2   1 <1>   0.6510 
  9 C        0.7550     3.8470    -0.2380 C.2   1 <1>   0.7160 
 10 C       -2.4550     3.2930    -0.6770 C.3   1 <1>   0.0210 
 11 O       -3.8790     1.3680    -1.1490 O.3   1 <1>  -0.5600 
 12 S        4.5150     2.5820     0.2580 S.3   1 <1>  -0.3710 
 13 N        2.1270     3.8190    -0.0460 N.am  1 <1>  -0.2370 
 14 O        0.1580     4.9130    -0.3190 O.2   1 <1>  -0.5700 
 15 C       -3.8320     2.6020    -0.4740 C.3   1 <1>   0.2800 
 16 C        4.9850     0.7970     0.3050 C.3   1 <1>   0.0700 
 17 C        2.8500     5.0250     0.0780 C.ar  1 <1>   0.1170 
 18 C       -4.1500     2.3700     1.0110 C.3   1 <1>  -0.2400 
 19 C       -4.9440     3.4480    -1.0950 C.3   1 <1>  -0.2400 
 20 C        6.4960     0.7180     0.5050 C.3   1 <1>  -0.2400 
 21 C        3.0720     5.5890     1.3290 C.ar  1 <1>  -0.1500 
 22 C        3.3480     5.6680    -1.0490 C.ar  1 <1>  -0.1500 
 23 C        3.7830     6.7690     1.4490 C.ar  1 <1>  -0.1500 
 24 C        4.0600     6.8490    -0.9320 C.ar  1 <1>  -0.1500 
 25 C        4.2820     7.4070     0.3250 C.ar  1 <1>   0.0820 
 26 O        4.9690     8.5600     0.5310 O.3   1 <1>  -0.3620 
 27 C        5.5110     9.2880    -0.5480 C.3   1 <1>   0.0400 
 28 H       -3.2970    -0.1160     0.1080 H     1 <1>   0.0800 
 29 H       -2.9270    -0.3530    -1.5910 H     1 <1>   0.0800 
 30 H       -2.4030     3.7280    -1.6590 H     1 <1>   0.0800 
 31 H       -2.3480     4.0900     0.0370 H     1 <1>   0.0800 
 32 H        4.6810     0.3570    -0.6290 H     1 <1>   0.0800 
 33 H        4.4490     0.3420     1.1210 H     1 <1>   0.0800 
 34 H       -3.3550     1.8410     1.5030 H     1 <1>   0.0800 
 35 H       -5.0660     1.8160     1.1140 H     1 <1>   0.0800 
 36 H       -4.2690     3.3140     1.5120 H     1 <1>   0.0800 
 37 H       -4.7720     3.5720    -2.1490 H     1 <1>   0.0800 
 38 H       -4.9770     4.4200    -0.6370 H     1 <1>   0.0800 
 39 H       -5.8970     2.9710    -0.9530 H     1 <1>   0.0800 
 40 H        7.0030     1.2070    -0.3080 H     1 <1>   0.0800 
 41 H        6.8080    -0.3100     0.5380 H     1 <1>   0.0800 
 42 H        6.7720     1.1940     1.4290 H     1 <1>   0.0800 
 43 H        2.6900     5.1060     2.2100 H     1 <1>   0.1500 
 44 H        3.1780     5.2430    -2.0210 H     1 <1>   0.1500 
 45 H        3.9570     7.2060     2.4160 H     1 <1>   0.1500 
 46 H        4.4300     7.3180    -1.8230 H     1 <1>   0.1500 
 47 H        6.0040    10.1570    -0.1490 H     1 <1>   0.0800 
 48 H        4.7130     9.5890    -1.2020 H     1 <1>   0.0800 
 49 H        6.2230     8.6690    -1.0640 H     1 <1>   0.0800 
@<TRIPOS>BOND
  1   1   2  1   
  2   1   3  1   
  3   2   4  1   
  4   2   5  2   
  5   3   6  2   
  6   3   7  1   
  7   4   8  2   
  8   5   6  1   
  9   5   9  1   
 10   6  10  1   
 11   7  11  1   
 12   7  28  1   
 13   7  29  1   
 14   8  12  1   
 15   8  13  1   
 16   9  13  am  
 17   9  14  2   
 18  10  15  1   
 19  10  30  1   
 20  10  31  1   
 21  11  15  1   
 22  12  16  1   
 23  13  17  1   
 24  15  18  1   
 25  15  19  1   
 26  16  20  1   
 27  16  32  1   
 28  16  33  1   
 29  17  21  ar  
 30  17  22  ar  
 31  18  34  1   
 32  18  35  1   
 33  18  36  1   
 34  19  37  1   
 35  19  38  1   
 36  19  39  1   
 37  20  40  1   
 38  20  41  1   
 39  20  42  1   
 40  21  23  ar  
 41  21  43  1   
 42  22  24  ar  
 43  22  44  1   
 44  23  25  ar  
 45  23  45  1   
 46  24  25  ar  
 47  24  46  1   
 48  25  26  1   
 49  26  27  1   
 50  27  47  1   
 51  27  48  1   
 52  27  49  1   
@<TRIPOS>SUBSTRUCTURE
  1 ****   9 GROUP 4 **** **** 0

# MOE 2024.06 (io_trps.svl 2023.06)
