@<TRIPOS>MOLECULE
NONAME
37 39 1 0 0 
SMALL
USER_CHARGES


@<TRIPOS>ATOM
  1 N        0.0780     0.6160    -1.7580 N.1   1 <1>  -0.5570 
  2 C        0.6030     1.5600    -1.3890 C.1   1 <1>   0.4840 
  3 C        1.3020     2.7350    -0.9710 C.ar  1 <1>   0.0730 
  4 C        2.6940     2.7760    -1.0720 C.ar  1 <1>   0.4100 
  5 C        0.6320     3.8430    -0.4670 C.ar  1 <1>   0.0000 
  6 N        3.4350     3.8090    -0.7290 N.ar  1 <1>  -0.6200 
  7 N        3.4440     1.7410    -1.5480 N.pl3 1 <1>  -0.9000 
  8 C       -0.8070     3.8520    -0.3240 C.ar  1 <1>   0.0000 
  9 C        1.4160     4.9360    -0.1040 C.ar  1 <1>  -0.1430 
 10 C        2.7960     4.8600    -0.2500 C.ar  1 <1>   0.1670 
 11 C       -1.4060     3.5020     0.8810 C.ar  1 <1>  -0.1500 
 12 C       -1.6300     4.2130    -1.3850 C.ar  1 <1>  -0.1500 
 13 C        0.7390     6.1890     0.4620 C.3   1 <1>  -0.0170 
 14 C        3.7050     6.0220     0.1320 C.3   1 <1>  -0.0170 
 15 C       -2.7810     3.5150     1.0240 C.ar  1 <1>  -0.1500 
 16 C       -3.0060     4.2270    -1.2460 C.ar  1 <1>  -0.1500 
 17 C        1.6490     7.4220     0.4600 C.3   1 <1>  -0.1600 
 18 C        3.0250     7.0680     1.0230 C.3   1 <1>  -0.1600 
 19 C       -3.5910     3.8800    -0.0390 C.ar  1 <1>  -0.1430 
 20 C       -5.1010     3.8910     0.1130 C.3   1 <1>  -0.0970 
 21 H        4.4250     1.9820    -1.7080 H     1 <1>   0.4000 
 22 H        3.0500     1.0870    -2.2270 H     1 <1>   0.4000 
 23 H       -0.7870     3.2160     1.7140 H     1 <1>   0.1500 
 24 H       -1.1890     4.4850    -2.3270 H     1 <1>   0.1500 
 25 H        0.4340     5.9790     1.4730 H     1 <1>   0.0800 
 26 H       -0.1460     6.4220    -0.1030 H     1 <1>   0.0800 
 27 H        4.0400     6.4900    -0.7760 H     1 <1>   0.0800 
 28 H        4.5730     5.6400     0.6400 H     1 <1>   0.0800 
 29 H       -3.2210     3.2370     1.9660 H     1 <1>   0.1500 
 30 H       -3.6220     4.5070    -2.0820 H     1 <1>   0.1500 
 31 H        1.1980     8.2010     1.0500 H     1 <1>   0.0800 
 32 H        1.7550     7.7870    -0.5470 H     1 <1>   0.0800 
 33 H        3.6400     7.9490     1.0780 H     1 <1>   0.0800 
 34 H        2.9160     6.6730     2.0190 H     1 <1>   0.0800 
 35 H       -5.4990     2.9290    -0.1550 H     1 <1>   0.0800 
 36 H       -5.5380     4.6380    -0.5230 H     1 <1>   0.0800 
 37 H       -5.3750     4.1090     1.1300 H     1 <1>   0.0800 
@<TRIPOS>BOND
  1   1   2  3   
  2   2   3  1   
  3   3   4  ar  
  4   3   5  ar  
  5   4   6  ar  
  6   4   7  1   
  7   5   8  1   
  8   5   9  ar  
  9   6  10  ar  
 10   7  21  1   
 11   7  22  1   
 12   8  11  ar  
 13   8  12  ar  
 14   9  10  ar  
 15   9  13  1   
 16  10  14  1   
 17  11  15  ar  
 18  11  23  1   
 19  12  16  ar  
 20  12  24  1   
 21  13  17  1   
 22  13  25  1   
 23  13  26  1   
 24  14  18  1   
 25  14  27  1   
 26  14  28  1   
 27  15  19  ar  
 28  15  29  1   
 29  16  19  ar  
 30  16  30  1   
 31  17  18  1   
 32  17  31  1   
 33  17  32  1   
 34  18  33  1   
 35  18  34  1   
 36  19  20  1   
 37  20  35  1   
 38  20  36  1   
 39  20  37  1   
@<TRIPOS>SUBSTRUCTURE
  1 ****   5 GROUP 4 **** **** 0

# MOE 2024.06 (io_trps.svl 2023.06)
