@<TRIPOS>MOLECULE
NONAME
37 38 1 0 0 
SMALL
USER_CHARGES


@<TRIPOS>ATOM
  1 S       -0.0850    -0.0390    -0.2240 S.o2  1 <1>   1.4470 
  2 O       -0.4240    -1.0610     0.7400 O.2   1 <1>  -0.6500 
  3 O       -0.0520    -0.3470    -1.6350 O.2   1 <1>  -0.6500 
  4 N       -1.2560     1.1550    -0.1060 N.am  1 <1>  -0.9140 
  5 C        1.4330     0.8180     0.2810 C.ar  1 <1>  -0.0090 
  6 C       -2.6000     0.6150    -0.0300 C.3   1 <1>   0.1960 
  7 C        1.5670     1.3160     1.5750 C.ar  1 <1>  -0.1500 
  8 C        2.4890     1.0000    -0.6110 C.ar  1 <1>  -0.1500 
  9 C       -3.5910     1.7740    -0.0320 C.3   1 <1>  -0.1600 
 10 C        2.7170     1.9770     1.9770 C.ar  1 <1>  -0.1500 
 11 C        3.6470     1.6580    -0.2290 C.ar  1 <1>  -0.1500 
 12 C       -5.0250     1.2570     0.0850 C.3   1 <1>   0.1400 
 13 C        3.7390     2.1360     1.0630 C.ar  1 <1>   0.1900 
 14 N       -5.9660     2.3920    -0.0020 N.am  1 <1>  -0.6600 
 15 F        4.8250     2.7580     1.4310 F     1 <1>  -0.1900 
 16 C       -6.6360     2.7620    -1.1160 C.2   1 <1>   0.5690 
 17 C       -6.2620     3.2470     1.1590 C.3   1 <1>   0.1400 
 18 O       -6.5560     2.2320    -2.1970 O.2   1 <1>  -0.5700 
 19 C       -7.5060     3.9570    -0.8430 C.3   1 <1>  -0.0990 
 20 C       -7.4300     4.1250     0.6850 C.3   1 <1>  -0.1600 
 21 H       -1.1890     1.6400    -0.9990 H     1 <1>   0.4200 
 22 H       -2.7100     0.0430     0.8780 H     1 <1>   0.0800 
 23 H       -2.7860    -0.0350    -0.8720 H     1 <1>   0.0800 
 24 H        0.7580     1.1830     2.2750 H     1 <1>   0.1500 
 25 H        2.4050     0.6210    -1.6170 H     1 <1>   0.1500 
 26 H       -3.4960     2.3230    -0.9520 H     1 <1>   0.0800 
 27 H       -3.3770     2.4230     0.7980 H     1 <1>   0.0800 
 28 H        2.8220     2.3620     2.9760 H     1 <1>   0.1500 
 29 H        4.4630     1.7990    -0.9160 H     1 <1>   0.1500 
 30 H       -5.1690     0.7390     1.0190 H     1 <1>   0.0800 
 31 H       -5.2310     0.5700    -0.7190 H     1 <1>   0.0800 
 32 H       -5.3990     3.8480     1.3930 H     1 <1>   0.0800 
 33 H       -6.5400     2.6510     2.0120 H     1 <1>   0.0800 
 34 H       -8.5100     3.7750    -1.1780 H     1 <1>   0.0800 
 35 H       -7.0950     4.8100    -1.3510 H     1 <1>   0.0800 
 36 H       -7.2880     5.1520     0.9700 H     1 <1>   0.0800 
 37 H       -8.3390     3.7660     1.1340 H     1 <1>   0.0800 
@<TRIPOS>BOND
  1   1   2  2   
  2   1   3  2   
  3   1   4  am  
  4   1   5  1   
  5   4   6  1   
  6   4  21  1   
  7   5   7  ar  
  8   5   8  ar  
  9   6   9  1   
 10   6  22  1   
 11   6  23  1   
 12   7  10  ar  
 13   7  24  1   
 14   8  11  ar  
 15   8  25  1   
 16   9  12  1   
 17   9  26  1   
 18   9  27  1   
 19  10  13  ar  
 20  10  28  1   
 21  11  13  ar  
 22  11  29  1   
 23  12  14  1   
 24  12  30  1   
 25  12  31  1   
 26  13  15  1   
 27  14  16  am  
 28  14  17  1   
 29  16  18  2   
 30  16  19  1   
 31  17  20  1   
 32  17  32  1   
 33  17  33  1   
 34  19  20  1   
 35  19  34  1   
 36  19  35  1   
 37  20  36  1   
 38  20  37  1   
@<TRIPOS>SUBSTRUCTURE
  1 ****   4 GROUP 4 **** **** 0

# MOE 2024.06 (io_trps.svl 2023.06)
