@<TRIPOS>MOLECULE
NONAME
49 51 1 0 0 
SMALL
USER_CHARGES


@<TRIPOS>ATOM
  1 O        2.1100    -0.4220     0.9260 O.3   1 <1>  -0.3630 
  2 C        1.4510    -1.5930     0.6490 C.ar  1 <1>   0.0830 
  3 C        1.4730     0.6470     1.5930 C.3   1 <1>   0.0400 
  4 C        2.1750    -2.6240    -0.0090 C.ar  1 <1>   0.3100 
  5 C        0.1320    -1.7790     0.9900 C.ar  1 <1>  -0.1500 
  6 N        3.4740    -2.3680    -0.3160 N.ar  1 <1>  -0.6200 
  7 C        1.5350    -3.8580    -0.3160 C.ar  1 <1>   0.0000 
  8 C       -0.5030    -2.9790     0.6940 C.ar  1 <1>  -0.1500 
  9 C        4.1600    -3.2910    -0.9150 C.ar  1 <1>   0.4100 
 10 C        0.1670    -4.0010     0.0580 C.ar  1 <1>   0.0830 
 11 C        2.3310    -4.8430    -0.9760 C.ar  1 <1>  -0.1440 
 12 N        5.4720    -2.9960    -1.2100 N.pl3 1 <1>  -0.8380 
 13 C        3.6260    -4.5350    -1.2590 C.ar  1 <1>  -0.1500 
 14 O       -0.4690    -5.1700    -0.2240 O.3   1 <1>  -0.3630 
 15 C        1.8300    -6.2230    -1.3870 C.3   1 <1>  -0.0970 
 16 C        5.6560    -1.9230    -2.2310 C.3   1 <1>   0.2090 
 17 C        6.3560    -2.8200    -0.0200 C.3   1 <1>   0.2090 
 18 C       -1.8200    -5.4180     0.1020 C.3   1 <1>   0.0400 
 19 C        5.5070    -0.5160    -1.6060 C.3   1 <1>   0.3430 
 20 C        6.2070    -1.4080     0.5940 C.3   1 <1>   0.3430 
 21 N        6.4070    -0.2940    -0.4120 N.4   1 <1>  -0.9590 
 22 C        6.1110     1.0280     0.1890 C.3   1 <1>   0.3430 
 23 C        7.2210     1.4150     1.1600 C.3   1 <1>  -0.2400 
 24 H        2.1830     1.4460     1.7050 H     1 <1>   0.0800 
 25 H        1.1480     0.3110     2.5630 H     1 <1>   0.0800 
 26 H        0.6390     0.9820     1.0020 H     1 <1>   0.0800 
 27 H       -0.4470    -1.0230     1.4860 H     1 <1>   0.1500 
 28 H       -1.5330    -3.0660     0.9840 H     1 <1>   0.1500 
 29 H        4.2840    -5.2250    -1.7530 H     1 <1>   0.1500 
 30 H        1.0110    -6.1280    -2.0770 H     1 <1>   0.0800 
 31 H        1.5030    -6.7710    -0.5210 H     1 <1>   0.0800 
 32 H        2.6040    -6.7940    -1.8680 H     1 <1>   0.0800 
 33 H        4.9160    -2.0420    -3.0050 H     1 <1>   0.0800 
 34 H        6.6250    -2.0250    -2.6880 H     1 <1>   0.0800 
 35 H        7.3790    -2.9930    -0.3040 H     1 <1>   0.0800 
 36 H        6.0950    -3.5540     0.7250 H     1 <1>   0.0800 
 37 H       -2.0650    -6.4100    -0.2310 H     1 <1>   0.0800 
 38 H       -2.4400    -4.7000    -0.4050 H     1 <1>   0.0800 
 39 H       -1.9410    -5.3520     1.1690 H     1 <1>   0.0800 
 40 H        4.4790    -0.3990    -1.3020 H     1 <1>   0.0800 
 41 H        5.7100     0.2250    -2.3600 H     1 <1>   0.0800 
 42 H        6.9100    -1.3050     1.4020 H     1 <1>   0.0800 
 43 H        5.2160    -1.3340     1.0120 H     1 <1>   0.0800 
 44 H        7.3810    -0.3140    -0.7320 H     1 <1>   0.4500 
 45 H        5.1600     0.9970     0.7000 H     1 <1>   0.0800 
 46 H        6.0510     1.7740    -0.5870 H     1 <1>   0.0800 
 47 H        7.2540     0.7520     2.0050 H     1 <1>   0.0800 
 48 H        7.0300     2.4060     1.5320 H     1 <1>   0.0800 
 49 H        8.1760     1.4260     0.6660 H     1 <1>   0.0800 
@<TRIPOS>BOND
  1   1   2  1   
  2   1   3  1   
  3   2   4  ar  
  4   2   5  ar  
  5   3  24  1   
  6   3  25  1   
  7   3  26  1   
  8   4   6  ar  
  9   4   7  ar  
 10   5   8  ar  
 11   5  27  1   
 12   6   9  ar  
 13   7  10  ar  
 14   7  11  ar  
 15   8  10  ar  
 16   8  28  1   
 17   9  12  1   
 18   9  13  ar  
 19  10  14  1   
 20  11  13  ar  
 21  11  15  1   
 22  12  16  1   
 23  12  17  1   
 24  13  29  1   
 25  14  18  1   
 26  15  30  1   
 27  15  31  1   
 28  15  32  1   
 29  16  19  1   
 30  16  33  1   
 31  16  34  1   
 32  17  20  1   
 33  17  35  1   
 34  17  36  1   
 35  18  37  1   
 36  18  38  1   
 37  18  39  1   
 38  19  21  1   
 39  19  40  1   
 40  19  41  1   
 41  20  21  1   
 42  20  42  1   
 43  20  43  1   
 44  21  22  1   
 45  21  44  1   
 46  22  23  1   
 47  22  45  1   
 48  22  46  1   
 49  23  47  1   
 50  23  48  1   
 51  23  49  1   
@<TRIPOS>SUBSTRUCTURE
  1 ****   6 GROUP 4 **** **** 0

# MOE 2024.06 (io_trps.svl 2023.06)
