@<TRIPOS>MOLECULE
NONAME
35 36 1 0 0 
SMALL
USER_CHARGES


@<TRIPOS>ATOM
  1 O        0.2950     0.9310     1.6280 O.2   1 <1>  -0.5700 
  2 C        0.7340     1.8620     0.9990 C.2   1 <1>   0.5690 
  3 N        0.1530     3.0770     1.2120 N.am  1 <1>  -0.4900 
  4 C        1.8720     1.5960    -0.0370 C.3   1 <1>   0.0610 
  5 C        0.4940     4.3780     1.0000 C.2   1 <1>   0.5600 
  6 C        1.7780     2.4970    -1.2870 C.3   1 <1>  -0.2400 
  7 C        1.7820     0.1420    -0.5530 C.3   1 <1>  -0.2400 
  8 C        3.2620     1.7570     0.6070 C.3   1 <1>  -0.2400 
  9 N       -0.2950     5.3160     0.6320 N.2   1 <1>  -0.5760 
 10 N        1.7590     4.7240     1.2630 N.pl3 1 <1>  -0.8500 
 11 C       -1.6340     5.1350     0.4540 C.2   1 <1>   0.6040 
 12 O       -2.2930     6.1340    -0.1240 O.3   1 <1>  -0.2800 
 13 N       -2.3780     4.1290     0.7920 N.2   1 <1>  -0.5650 
 14 C       -3.5510     5.7490    -0.1730 C.ar  1 <1>   0.1400 
 15 C       -3.6170     4.5020     0.3930 C.ar  1 <1>   0.2270 
 16 C       -4.6670     6.4000    -0.6770 C.ar  1 <1>  -0.1500 
 17 C       -4.8410     3.8460     0.4750 C.ar  1 <1>  -0.1500 
 18 C       -5.8840     5.7480    -0.5950 C.ar  1 <1>  -0.1500 
 19 C       -5.9690     4.4750    -0.0210 C.ar  1 <1>  -0.1500 
 20 H       -0.8170     2.9830     1.5170 H     1 <1>   0.3700 
 21 H        2.4830     2.1830    -2.0360 H     1 <1>   0.0800 
 22 H        0.7900     2.4450    -1.7100 H     1 <1>   0.0800 
 23 H        1.9930     3.5230    -1.0590 H     1 <1>   0.0800 
 24 H        0.8200    -0.0350    -1.0010 H     1 <1>   0.0800 
 25 H        1.9040    -0.5560     0.2570 H     1 <1>   0.0800 
 26 H        2.5420    -0.0610    -1.2860 H     1 <1>   0.0800 
 27 H        3.4480     2.7730     0.8920 H     1 <1>   0.0800 
 28 H        4.0330     1.4630    -0.0830 H     1 <1>   0.0800 
 29 H        3.3360     1.1370     1.4840 H     1 <1>   0.0800 
 30 H        2.3710     4.1270     1.8160 H     1 <1>   0.4000 
 31 H        2.0060     5.7130     1.2210 H     1 <1>   0.4000 
 32 H       -4.5700     7.3780    -1.1130 H     1 <1>   0.1500 
 33 H       -4.8850     2.8690     0.9190 H     1 <1>   0.1500 
 34 H       -6.7750     6.2190    -0.9750 H     1 <1>   0.1500 
 35 H       -6.9260     3.9850     0.0330 H     1 <1>   0.1500 
@<TRIPOS>BOND
  1   1   2  2   
  2   2   3  am  
  3   2   4  1   
  4   3   5  1   
  5   3  20  1   
  6   4   6  1   
  7   4   7  1   
  8   4   8  1   
  9   5   9  2   
 10   5  10  1   
 11   6  21  1   
 12   6  22  1   
 13   6  23  1   
 14   7  24  1   
 15   7  25  1   
 16   7  26  1   
 17   8  27  1   
 18   8  28  1   
 19   8  29  1   
 20   9  11  1   
 21  10  30  1   
 22  10  31  1   
 23  11  12  1   
 24  11  13  2   
 25  12  14  1   
 26  13  15  1   
 27  14  15  ar  
 28  14  16  ar  
 29  15  17  ar  
 30  16  18  ar  
 31  16  32  1   
 32  17  19  ar  
 33  17  33  1   
 34  18  19  ar  
 35  18  34  1   
 36  19  35  1   
@<TRIPOS>SUBSTRUCTURE
  1 ****  13 GROUP 4 **** **** 0

# MOE 2024.06 (io_trps.svl 2023.06)
