@<TRIPOS>MOLECULE
NONAME
36 37 1 0 0 
SMALL
USER_CHARGES


@<TRIPOS>ATOM
  1 CL      -0.1700     0.1960    -1.0580 Cl    1 <1>  -0.1770 
  2 C       -1.0430    -1.3120    -0.9340 C.ar  1 <1>   0.1770 
  3 C       -2.4180    -1.2860    -0.7940 C.ar  1 <1>  -0.1500 
  4 C       -0.3400    -2.5020    -0.9820 C.ar  1 <1>  -0.1500 
  5 C       -3.1250    -2.4770    -0.6990 C.ar  1 <1>   0.1000 
  6 C       -1.0330    -3.6970    -0.8790 C.ar  1 <1>  -0.1500 
  7 N       -4.5270    -2.4710    -0.5930 N.pl3 1 <1>  -0.6000 
  8 C       -2.4100    -3.6790    -0.7310 C.ar  1 <1>   0.0830 
  9 C       -5.3100    -1.6520     0.1630 C.2   1 <1>  -0.0500 
 10 O       -3.0580    -4.8510    -0.5890 O.3   1 <1>  -0.5330 
 11 C       -6.6870    -1.6750     0.2300 C.2   1 <1>   0.0290 
 12 C       -7.3690    -0.7190     1.0500 C.2   1 <1>   0.4950 
 13 C       -7.4740    -2.6320    -0.4980 C.2   1 <1>   0.4950 
 14 O       -6.7930     0.0990     1.7260 O.2   1 <1>  -0.5700 
 15 C       -8.8870    -0.6830     1.1290 C.3   1 <1>  -0.0990 
 16 O       -6.9990    -3.5220    -1.1680 O.2   1 <1>  -0.5700 
 17 C       -8.9930    -2.6020    -0.4500 C.3   1 <1>  -0.0990 
 18 C       -9.5660    -1.2120    -0.1420 C.3   1 <1>   0.0000 
 19 C       -9.3250    -0.2530    -1.3240 C.3   1 <1>  -0.2400 
 20 C      -11.0800    -1.3190     0.0910 C.3   1 <1>  -0.2400 
 21 H       -2.9330    -0.3440    -0.7710 H     1 <1>   0.1500 
 22 H        0.7290    -2.4910    -1.0960 H     1 <1>   0.1500 
 23 H       -0.5150    -4.6390    -0.9070 H     1 <1>   0.1500 
 24 H       -5.0280    -3.1450    -1.2010 H     1 <1>   0.4000 
 25 H       -4.7780    -0.9260     0.7590 H     1 <1>   0.1500 
 26 H       -3.9840    -4.7060    -0.3180 H     1 <1>   0.4500 
 27 H       -9.1840    -1.2700     1.9800 H     1 <1>   0.0800 
 28 H       -9.2010     0.3290     1.3130 H     1 <1>   0.0800 
 29 H       -9.3770    -2.9490    -1.3940 H     1 <1>   0.0800 
 30 H       -9.3080    -3.3050     0.3000 H     1 <1>   0.0800 
 31 H       -8.2790    -0.1350    -1.5440 H     1 <1>   0.0800 
 32 H       -9.7290     0.7200    -1.1060 H     1 <1>   0.0800 
 33 H       -9.8100    -0.6220    -2.2110 H     1 <1>   0.0800 
 34 H      -11.4980    -0.3530     0.3190 H     1 <1>   0.0800 
 35 H      -11.2990    -1.9800     0.9120 H     1 <1>   0.0800 
 36 H      -11.5740    -1.6990    -0.7870 H     1 <1>   0.0800 
@<TRIPOS>BOND
  1   1   2  1   
  2   2   3  ar  
  3   2   4  ar  
  4   3   5  ar  
  5   3  21  1   
  6   4   6  ar  
  7   4  22  1   
  8   5   7  1   
  9   5   8  ar  
 10   6   8  ar  
 11   6  23  1   
 12   7   9  1   
 13   7  24  1   
 14   8  10  1   
 15   9  11  2   
 16   9  25  1   
 17  10  26  1   
 18  11  12  1   
 19  11  13  1   
 20  12  14  2   
 21  12  15  1   
 22  13  16  2   
 23  13  17  1   
 24  15  18  1   
 25  15  27  1   
 26  15  28  1   
 27  17  18  1   
 28  17  29  1   
 29  17  30  1   
 30  18  19  1   
 31  18  20  1   
 32  19  31  1   
 33  19  32  1   
 34  19  33  1   
 35  20  34  1   
 36  20  35  1   
 37  20  36  1   
@<TRIPOS>SUBSTRUCTURE
  1 ****   9 GROUP 4 **** **** 0

# MOE 2024.06 (io_trps.svl 2023.06)
