@<TRIPOS>MOLECULE
NONAME
44 45 1 0 0 
SMALL
USER_CHARGES


@<TRIPOS>ATOM
  1 BR       1.7220    -0.3760     1.5530 Br    1 <1>  -0.1110 
  2 C        0.6300    -1.7800     0.8180 C.ar  1 <1>   0.1110 
  3 C       -0.4440    -2.2380     1.5560 C.ar  1 <1>  -0.1500 
  4 C        0.9480    -2.2900    -0.4240 C.ar  1 <1>  -0.1500 
  5 C       -1.2360    -3.2470     1.0280 C.ar  1 <1>  -0.1440 
  6 C        0.1580    -3.2980    -0.9490 C.ar  1 <1>  -0.1500 
  7 C       -0.9360    -3.7800    -0.2270 C.ar  1 <1>   0.0830 
  8 C       -2.4220    -3.7670     1.8180 C.3   1 <1>   0.4870 
  9 O       -1.7530    -4.7620    -0.7000 O.3   1 <1>  -0.3620 
 10 N       -3.6540    -3.5660     1.0150 N.4   1 <1>  -0.9590 
 11 C       -1.4400    -5.4700    -1.8840 C.3   1 <1>   0.0400 
 12 C       -3.9500    -2.1270     0.7750 C.3   1 <1>   0.3430 
 13 C       -4.8120    -4.3210     1.5580 C.3   1 <1>   0.3430 
 14 C       -5.0940    -2.0090    -0.2290 C.3   1 <1>  -0.1600 
 15 C       -5.9720    -4.2440     0.5670 C.3   1 <1>  -0.1600 
 16 C       -6.3440    -2.7880     0.2220 C.3   1 <1>  -0.0190 
 17 C       -7.4290    -2.7360    -0.8500 C.2   1 <1>   0.6590 
 18 O       -7.2910    -3.2940    -1.9070 O.2   1 <1>  -0.5700 
 19 O       -8.5140    -2.0410    -0.5430 O.3   1 <1>  -0.4300 
 20 C       -9.5840    -1.9140    -1.4510 C.3   1 <1>   0.1200 
 21 C      -10.6630    -1.0590    -0.7940 C.3   1 <1>  -0.2400 
 22 H       -0.6370    -1.8030     2.5210 H     1 <1>   0.1500 
 23 H        1.7950    -1.9060    -0.9660 H     1 <1>   0.1500 
 24 H        0.4120    -3.6890    -1.9170 H     1 <1>   0.1500 
 25 H       -2.5000    -3.2530     2.7620 H     1 <1>   0.0800 
 26 H       -2.2750    -4.8180     2.0090 H     1 <1>   0.0800 
 27 H       -3.4030    -3.9780     0.0970 H     1 <1>   0.4500 
 28 H       -2.1800    -6.2370    -2.0270 H     1 <1>   0.0800 
 29 H       -0.4680    -5.9200    -1.7800 H     1 <1>   0.0800 
 30 H       -1.4590    -4.7900    -2.7180 H     1 <1>   0.0800 
 31 H       -3.0780    -1.6290     0.3810 H     1 <1>   0.0800 
 32 H       -4.2260    -1.6500     1.7020 H     1 <1>   0.0800 
 33 H       -5.1130    -3.9010     2.5040 H     1 <1>   0.0800 
 34 H       -4.5420    -5.3540     1.7120 H     1 <1>   0.0800 
 35 H       -4.7600    -2.3720    -1.1860 H     1 <1>   0.0800 
 36 H       -5.3460    -0.9700    -0.3530 H     1 <1>   0.0800 
 37 H       -6.8280    -4.7410     0.9890 H     1 <1>   0.0800 
 38 H       -5.7030    -4.7780    -0.3290 H     1 <1>   0.0800 
 39 H       -6.7380    -2.3190     1.1070 H     1 <1>   0.0800 
 40 H       -9.9580    -2.8980    -1.6810 H     1 <1>   0.0800 
 41 H       -9.2170    -1.4490    -2.3510 H     1 <1>   0.0800 
 42 H      -11.0140    -1.5300     0.1070 H     1 <1>   0.0800 
 43 H      -11.4940    -0.9460    -1.4660 H     1 <1>   0.0800 
 44 H      -10.2750    -0.0830    -0.5630 H     1 <1>   0.0800 
@<TRIPOS>BOND
  1   1   2  1   
  2   2   3  ar  
  3   2   4  ar  
  4   3   5  ar  
  5   3  22  1   
  6   4   6  ar  
  7   4  23  1   
  8   5   7  ar  
  9   5   8  1   
 10   6   7  ar  
 11   6  24  1   
 12   7   9  1   
 13   8  10  1   
 14   8  25  1   
 15   8  26  1   
 16   9  11  1   
 17  10  12  1   
 18  10  13  1   
 19  10  27  1   
 20  11  28  1   
 21  11  29  1   
 22  11  30  1   
 23  12  14  1   
 24  12  31  1   
 25  12  32  1   
 26  13  15  1   
 27  13  33  1   
 28  13  34  1   
 29  14  16  1   
 30  14  35  1   
 31  14  36  1   
 32  15  16  1   
 33  15  37  1   
 34  15  38  1   
 35  16  17  1   
 36  16  39  1   
 37  17  18  2   
 38  17  19  1   
 39  19  20  1   
 40  20  21  1   
 41  20  40  1   
 42  20  41  1   
 43  21  42  1   
 44  21  43  1   
 45  21  44  1   
@<TRIPOS>SUBSTRUCTURE
  1 ****  12 GROUP 4 **** **** 0

# MOE 2024.06 (io_trps.svl 2023.06)
