@<TRIPOS>MOLECULE
NONAME
49 50 1 0 0 
SMALL
USER_CHARGES


@<TRIPOS>ATOM
  1 O       -1.1870    -0.5020     0.9020 O.3   1 <1>  -0.3630 
  2 C       -1.9350     0.3270     0.1210 C.ar  1 <1>   0.0830 
  3 C       -0.1620    -1.2270     0.2520 C.3   1 <1>   0.0400 
  4 C       -3.2940     0.0680    -0.1320 C.ar  1 <1>   0.0830 
  5 C       -1.3400     1.4630    -0.4410 C.ar  1 <1>   0.0830 
  6 O       -4.0310    -0.9660     0.3890 O.3   1 <1>  -0.3630 
  7 C       -4.0030     0.9200    -0.9800 C.ar  1 <1>  -0.1430 
  8 O       -0.0540     1.8170    -0.2010 O.3   1 <1>  -0.3630 
  9 C       -2.0590     2.2860    -1.2890 C.ar  1 <1>  -0.1500 
 10 C       -3.5050    -1.9610     1.2440 C.3   1 <1>   0.0400 
 11 C       -3.3850     2.0160    -1.5610 C.ar  1 <1>  -0.1500 
 12 C       -5.4670     0.6500    -1.2780 C.3   1 <1>   0.4860 
 13 C        0.2500     2.2590     1.1040 C.3   1 <1>   0.0400 
 14 N       -6.2440     0.7510    -0.0090 N.4   1 <1>  -0.9590 
 15 C       -7.6240     0.1800    -0.0980 C.3   1 <1>   0.4230 
 16 C       -6.1790     2.1510     0.5240 C.3   1 <1>   0.2630 
 17 C       -8.3580     0.3440     1.2470 C.3   1 <1>  -0.1600 
 18 C       -7.5540    -1.3110    -0.4830 C.3   1 <1>  -0.1600 
 19 C       -9.7400    -0.3260     1.2430 C.3   1 <1>  -0.1600 
 20 C       -8.9370    -1.9800    -0.4810 C.3   1 <1>  -0.1600 
 21 C       -9.6360    -1.8070     0.8700 C.3   1 <1>  -0.1600 
 22 H        0.2380    -1.9410     0.9480 H     1 <1>   0.0800 
 23 H        0.6140    -0.5520    -0.0610 H     1 <1>   0.0800 
 24 H       -0.5790    -1.7350    -0.6000 H     1 <1>   0.0800 
 25 H       -1.5690     3.1370    -1.7300 H     1 <1>   0.1500 
 26 H       -3.1130    -1.4940     2.1300 H     1 <1>   0.0800 
 27 H       -2.7340    -2.4990     0.7220 H     1 <1>   0.0800 
 28 H       -4.2990    -2.6360     1.5100 H     1 <1>   0.0800 
 29 H       -3.9200     2.6710    -2.2280 H     1 <1>   0.1500 
 30 H       -5.5400    -0.3410    -1.6910 H     1 <1>   0.0800 
 31 H       -5.8400     1.3540    -2.0040 H     1 <1>   0.0800 
 32 H        1.2770     2.5770     1.1200 H     1 <1>   0.0800 
 33 H        0.1080     1.4500     1.7980 H     1 <1>   0.0800 
 34 H       -0.3950     3.0830     1.3520 H     1 <1>   0.0800 
 35 H       -5.7060     0.1430     0.6330 H     1 <1>   0.4500 
 36 H       -8.1830     0.7060    -0.8560 H     1 <1>   0.0800 
 37 H       -6.7430     2.8190    -0.1060 H     1 <1>   0.0800 
 38 H       -5.1560     2.4910     0.5620 H     1 <1>   0.0800 
 39 H       -6.5790     2.1930     1.5230 H     1 <1>   0.0800 
 40 H       -8.5140     1.3840     1.4670 H     1 <1>   0.0800 
 41 H       -7.7690    -0.0920     2.0350 H     1 <1>   0.0800 
 42 H       -6.9210    -1.8340     0.2130 H     1 <1>   0.0800 
 43 H       -7.1520    -1.4340    -1.4710 H     1 <1>   0.0800 
 44 H      -10.3860     0.1740     0.5410 H     1 <1>   0.0800 
 45 H      -10.1890    -0.2360     2.2190 H     1 <1>   0.0800 
 46 H       -8.8310    -3.0310    -0.6940 H     1 <1>   0.0800 
 47 H       -9.5500    -1.5510    -1.2560 H     1 <1>   0.0800 
 48 H      -10.6240    -2.2370     0.8220 H     1 <1>   0.0800 
 49 H       -9.0890    -2.3360     1.6320 H     1 <1>   0.0800 
@<TRIPOS>BOND
  1   1   2  1   
  2   1   3  1   
  3   2   4  ar  
  4   2   5  ar  
  5   3  22  1   
  6   3  23  1   
  7   3  24  1   
  8   4   6  1   
  9   4   7  ar  
 10   5   8  1   
 11   5   9  ar  
 12   6  10  1   
 13   7  11  ar  
 14   7  12  1   
 15   8  13  1   
 16   9  11  ar  
 17   9  25  1   
 18  10  26  1   
 19  10  27  1   
 20  10  28  1   
 21  11  29  1   
 22  12  14  1   
 23  12  30  1   
 24  12  31  1   
 25  13  32  1   
 26  13  33  1   
 27  13  34  1   
 28  14  15  1   
 29  14  16  1   
 30  14  35  1   
 31  15  17  1   
 32  15  18  1   
 33  15  36  1   
 34  16  37  1   
 35  16  38  1   
 36  16  39  1   
 37  17  19  1   
 38  17  40  1   
 39  17  41  1   
 40  18  20  1   
 41  18  42  1   
 42  18  43  1   
 43  19  21  1   
 44  19  44  1   
 45  19  45  1   
 46  20  21  1   
 47  20  46  1   
 48  20  47  1   
 49  21  48  1   
 50  21  49  1   
@<TRIPOS>SUBSTRUCTURE
  1 ****   4 GROUP 4 **** **** 0

# MOE 2024.06 (io_trps.svl 2023.06)
