@<TRIPOS>MOLECULE
NONAME
39 40 1 0 0 
SMALL
USER_CHARGES


@<TRIPOS>ATOM
  1 O       -0.0470     0.6570    -1.3080 O.2   1 <1>  -0.5700 
  2 C       -0.0220     1.7780    -0.8350 C.2   1 <1>   0.5440 
  3 N       -1.2170     2.3840    -0.5140 N.am  1 <1>  -0.6600 
  4 C        1.2520     2.4350    -0.6060 C.ar  1 <1>   0.0860 
  5 C       -1.3220     3.5830     0.3720 C.3   1 <1>   0.1400 
  6 C       -2.5210     1.7410    -0.8570 C.3   1 <1>   0.1400 
  7 C        2.2590     1.8010     0.1180 C.ar  1 <1>  -0.1500 
  8 C        1.5130     3.7140    -1.0960 C.ar  1 <1>  -0.1500 
  9 C       -2.6420     3.5710     1.1680 C.3   1 <1>   0.2000 
 10 C       -3.6730     2.7700    -0.8610 C.3   1 <1>   0.2000 
 11 C        3.4720     2.4210     0.3660 C.ar  1 <1>  -0.1440 
 12 C        2.7180     4.3500    -0.8550 C.ar  1 <1>  -0.1440 
 13 O       -3.7610     3.5150     0.3270 O.3   1 <1>  -0.5600 
 14 C       -2.8020     4.8180     2.0340 C.3   1 <1>  -0.2400 
 15 C       -5.0320     2.1080    -1.0680 C.3   1 <1>  -0.2400 
 16 C        3.6940     3.6980    -0.1210 C.ar  1 <1>  -0.1500 
 17 C        4.5570     1.7160     1.1590 C.3   1 <1>  -0.0970 
 18 C        2.9850     5.7440    -1.3910 C.3   1 <1>  -0.0970 
 19 H       -1.2780     4.4750    -0.2280 H     1 <1>   0.0800 
 20 H       -0.4960     3.5970     1.0610 H     1 <1>   0.0800 
 21 H       -2.7310     0.9650    -0.1420 H     1 <1>   0.0800 
 22 H       -2.4500     1.2840    -1.8290 H     1 <1>   0.0800 
 23 H        2.0740     0.8070     0.4830 H     1 <1>   0.1500 
 24 H        0.7530     4.2060    -1.6760 H     1 <1>   0.1500 
 25 H       -2.6660     2.6970     1.7970 H     1 <1>   0.0800 
 26 H       -3.4980     3.4720    -1.6590 H     1 <1>   0.0800 
 27 H       -2.8140     5.7000     1.4190 H     1 <1>   0.0800 
 28 H       -1.9890     4.8920     2.7320 H     1 <1>   0.0800 
 29 H       -3.7220     4.7600     2.5880 H     1 <1>   0.0800 
 30 H       -5.2400     1.4250    -0.2640 H     1 <1>   0.0800 
 31 H       -5.0410     1.5650    -1.9950 H     1 <1>   0.0800 
 32 H       -5.8010     2.8590    -1.1050 H     1 <1>   0.0800 
 33 H        4.6350     4.1850     0.0690 H     1 <1>   0.1500 
 34 H        4.2730     0.7040     1.3850 H     1 <1>   0.0800 
 35 H        4.7330     2.2390     2.0820 H     1 <1>   0.0800 
 36 H        5.4700     1.6940     0.5920 H     1 <1>   0.0800 
 37 H        2.0980     6.1650    -1.8310 H     1 <1>   0.0800 
 38 H        3.7540     5.7040    -2.1420 H     1 <1>   0.0800 
 39 H        3.3100     6.3890    -0.5950 H     1 <1>   0.0800 
@<TRIPOS>BOND
  1   1   2  2   
  2   2   3  am  
  3   2   4  1   
  4   3   5  1   
  5   3   6  1   
  6   4   7  ar  
  7   4   8  ar  
  8   5   9  1   
  9   5  19  1   
 10   5  20  1   
 11   6  10  1   
 12   6  21  1   
 13   6  22  1   
 14   7  11  ar  
 15   7  23  1   
 16   8  12  ar  
 17   8  24  1   
 18   9  13  1   
 19   9  14  1   
 20   9  25  1   
 21  10  13  1   
 22  10  15  1   
 23  10  26  1   
 24  11  16  ar  
 25  11  17  1   
 26  12  16  ar  
 27  12  18  1   
 28  14  27  1   
 29  14  28  1   
 30  14  29  1   
 31  15  30  1   
 32  15  31  1   
 33  15  32  1   
 34  16  33  1   
 35  17  34  1   
 36  17  35  1   
 37  17  36  1   
 38  18  37  1   
 39  18  38  1   
 40  18  39  1   
@<TRIPOS>SUBSTRUCTURE
  1 ****   2 GROUP 4 **** **** 0

# MOE 2024.06 (io_trps.svl 2023.06)
