@<TRIPOS>MOLECULE
NONAME
52 54 1 0 0 
SMALL
USER_CHARGES


@<TRIPOS>ATOM
  1 O       -1.3840     0.0530     1.3200 O.2   1 <1>  -0.5700 
  2 C       -2.2300    -0.7130     0.9010 C.2   1 <1>   0.7060 
  3 O       -3.4420    -0.2260     0.6260 O.3   1 <1>  -0.2320 
  4 C       -1.9980    -2.0950     0.6930 C.2   1 <1>  -0.1360 
  5 C       -4.4530    -0.9840     0.1350 C.ar  1 <1>   0.0830 
  6 C       -2.9590    -2.9270     0.2180 C.2   1 <1>  -0.0570 
  7 C       -4.2450    -2.3560    -0.0870 C.ar  1 <1>   0.0280 
  8 C       -5.6800    -0.3810    -0.1400 C.ar  1 <1>  -0.1440 
  9 C       -2.7120    -4.3320     0.0250 C.ar  1 <1>   0.0280 
 10 C       -5.3070    -3.0990    -0.6040 C.ar  1 <1>  -0.1500 
 11 C       -6.7220    -1.1530    -0.6400 C.ar  1 <1>   0.0830 
 12 C       -5.8980     1.1130     0.1050 C.3   1 <1>  -0.0960 
 13 C       -3.1800    -5.2750     0.9370 C.ar  1 <1>  -0.1500 
 14 C       -2.0000    -4.7880    -1.0810 C.ar  1 <1>  -0.1500 
 15 C       -6.5240    -2.5130    -0.8760 C.ar  1 <1>  -0.1500 
 16 O       -7.9070    -0.5400    -0.8800 O.3   1 <1>  -0.3630 
 17 C       -2.9520    -6.6260     0.7540 C.ar  1 <1>  -0.1500 
 18 C       -1.7690    -6.1370    -1.2710 C.ar  1 <1>  -0.1500 
 19 C       -9.0600    -1.2470    -1.3040 C.3   1 <1>   0.1810 
 20 C       -2.2410    -7.0680    -0.3590 C.ar  1 <1>   0.0830 
 21 C      -10.2560    -0.3120    -1.4490 C.2   1 <1>   0.4480 
 22 O       -1.9740    -8.3680    -0.6170 O.3   1 <1>  -0.3630 
 23 O      -10.6440    -0.0270    -2.5460 O.2   1 <1>  -0.5700 
 24 C      -10.9740     0.1920    -0.1680 C.3   1 <1>   0.0610 
 25 C       -2.4020    -9.4000     0.2450 C.3   1 <1>   0.0400 
 26 C      -11.6680    -0.9790     0.5530 C.3   1 <1>  -0.2400 
 27 C       -9.9990     0.8670     0.8150 C.3   1 <1>  -0.2400 
 28 C      -12.0590     1.2290    -0.5230 C.3   1 <1>  -0.2400 
 29 H       -1.0150    -2.4480     0.9370 H     1 <1>   0.1500 
 30 H       -5.1790    -4.1490    -0.8000 H     1 <1>   0.1500 
 31 H       -4.9720     1.6480     0.2060 H     1 <1>   0.0800 
 32 H       -6.4730     1.2510     1.0030 H     1 <1>   0.0800 
 33 H       -6.4360     1.5500    -0.7170 H     1 <1>   0.0800 
 34 H       -3.7290    -4.9390     1.8000 H     1 <1>   0.1500 
 35 H       -1.6300    -4.0770    -1.7990 H     1 <1>   0.1500 
 36 H       -7.3070    -3.1310    -1.2740 H     1 <1>   0.1500 
 37 H       -3.3300    -7.3190     1.4810 H     1 <1>   0.1500 
 38 H       -1.2190    -6.4820    -2.1280 H     1 <1>   0.1500 
 39 H       -9.2700    -2.0200    -0.5900 H     1 <1>   0.0800 
 40 H       -8.8420    -1.6860    -2.2610 H     1 <1>   0.0800 
 41 H       -2.0720   -10.3360    -0.1670 H     1 <1>   0.0800 
 42 H       -3.4760    -9.3840     0.3020 H     1 <1>   0.0800 
 43 H       -1.9600    -9.2510     1.2140 H     1 <1>   0.0800 
 44 H      -10.9520    -1.6980     0.9070 H     1 <1>   0.0800 
 45 H      -12.3510    -1.4740    -0.1150 H     1 <1>   0.0800 
 46 H      -12.2260    -0.6220     1.4010 H     1 <1>   0.0800 
 47 H       -9.2870     0.1610     1.2040 H     1 <1>   0.0800 
 48 H      -10.5310     1.2910     1.6490 H     1 <1>   0.0800 
 49 H       -9.4600     1.6560     0.3200 H     1 <1>   0.0800 
 50 H      -12.7910     0.7960    -1.1820 H     1 <1>   0.0800 
 51 H      -11.6170     2.0720    -1.0260 H     1 <1>   0.0800 
 52 H      -12.5630     1.5840     0.3580 H     1 <1>   0.0800 
@<TRIPOS>BOND
  1   1   2  2   
  2   2   3  1   
  3   2   4  1   
  4   3   5  1   
  5   4   6  2   
  6   4  29  1   
  7   5   7  ar  
  8   5   8  ar  
  9   6   7  1   
 10   6   9  1   
 11   7  10  ar  
 12   8  11  ar  
 13   8  12  1   
 14   9  13  ar  
 15   9  14  ar  
 16  10  15  ar  
 17  10  30  1   
 18  11  15  ar  
 19  11  16  1   
 20  12  31  1   
 21  12  32  1   
 22  12  33  1   
 23  13  17  ar  
 24  13  34  1   
 25  14  18  ar  
 26  14  35  1   
 27  15  36  1   
 28  16  19  1   
 29  17  20  ar  
 30  17  37  1   
 31  18  20  ar  
 32  18  38  1   
 33  19  21  1   
 34  19  39  1   
 35  19  40  1   
 36  20  22  1   
 37  21  23  2   
 38  21  24  1   
 39  22  25  1   
 40  24  26  1   
 41  24  27  1   
 42  24  28  1   
 43  25  41  1   
 44  25  42  1   
 45  25  43  1   
 46  26  44  1   
 47  26  45  1   
 48  26  46  1   
 49  27  47  1   
 50  27  48  1   
 51  27  49  1   
 52  28  50  1   
 53  28  51  1   
 54  28  52  1   
@<TRIPOS>SUBSTRUCTURE
  1 ****  10 GROUP 4 **** **** 0

# MOE 2024.06 (io_trps.svl 2023.06)
