@<TRIPOS>MOLECULE
NONAME
38 39 1 0 0 
SMALL
USER_CHARGES


@<TRIPOS>ATOM
  1 S        0.1910    -0.0250     0.2060 S.3   1 <1>  -0.2860 
  2 C       -1.5330     0.4290    -0.0120 C.2   1 <1>   0.2420 
  3 C        0.9680     1.5860     0.7220 C.3   1 <1>   0.1310 
  4 N       -1.9780     1.6270     0.1300 N.2   1 <1>  -0.3380 
  5 N       -2.4730    -0.4540    -0.3390 N.pl3 1 <1>   0.0480 
  6 C        2.4760     1.4550     0.8500 C.2   1 <1>   0.5690 
  7 N       -3.2910     1.5570    -0.1150 N.2   1 <1>  -0.3380 
  8 C       -3.5610     0.3230    -0.3890 C.2   1 <1>   0.0360 
  9 C       -2.3510    -1.9040    -0.5810 C.3   1 <1>   0.0160 
 10 O        3.0410     2.1500     1.6590 O.2   1 <1>  -0.5700 
 11 N        3.1240     0.5610     0.0440 N.am  1 <1>  -0.5470 
 12 C        4.4840     0.2160     0.0220 C.ar  1 <1>   0.1170 
 13 C        4.8590    -1.0830     0.3700 C.ar  1 <1>  -0.1430 
 14 C        5.4660     1.1300    -0.3690 C.ar  1 <1>  -0.1430 
 15 C        6.1920    -1.4530     0.3290 C.ar  1 <1>  -0.1500 
 16 C        3.8230    -2.1110     0.8120 C.3   1 <1>  -0.0970 
 17 C        6.7950     0.7400    -0.3980 C.ar  1 <1>  -0.1500 
 18 C        5.1230     2.5580    -0.7730 C.3   1 <1>  -0.0970 
 19 C        7.1660    -0.5480    -0.0550 C.ar  1 <1>  -0.1430 
 20 C        8.6260    -0.9600    -0.0910 C.3   1 <1>  -0.0970 
 21 H        0.5320     1.8630     1.6640 H     1 <1>   0.0800 
 22 H        0.7190     2.3180    -0.0230 H     1 <1>   0.0800 
 23 H       -4.5400    -0.0500    -0.6290 H     1 <1>   0.1500 
 24 H       -1.6900    -2.0710    -1.4110 H     1 <1>   0.0800 
 25 H       -3.3180    -2.3180    -0.8020 H     1 <1>   0.0800 
 26 H       -1.9510    -2.3770     0.2980 H     1 <1>   0.0800 
 27 H        2.5170    -0.0630    -0.4840 H     1 <1>   0.3700 
 28 H        6.4820    -2.4520     0.6000 H     1 <1>   0.1500 
 29 H        3.2570    -1.7250     1.6410 H     1 <1>   0.0800 
 30 H        4.2950    -3.0250     1.1240 H     1 <1>   0.0800 
 31 H        3.1540    -2.3330     0.0010 H     1 <1>   0.0800 
 32 H        7.5520     1.4450    -0.6910 H     1 <1>   0.1500 
 33 H        4.2500     2.5740    -1.3990 H     1 <1>   0.0800 
 34 H        5.9330     3.0100    -1.3170 H     1 <1>   0.0800 
 35 H        4.9330     3.1470     0.1070 H     1 <1>   0.0800 
 36 H        8.7160    -2.0100    -0.3030 H     1 <1>   0.0800 
 37 H        9.0830    -0.7570     0.8600 H     1 <1>   0.0800 
 38 H        9.1520    -0.4140    -0.8540 H     1 <1>   0.0800 
@<TRIPOS>BOND
  1   1   2  1   
  2   1   3  1   
  3   2   4  2   
  4   2   5  1   
  5   3   6  1   
  6   3  21  1   
  7   3  22  1   
  8   4   7  1   
  9   5   8  1   
 10   5   9  1   
 11   6  10  2   
 12   6  11  am  
 13   7   8  2   
 14   8  23  1   
 15   9  24  1   
 16   9  25  1   
 17   9  26  1   
 18  11  12  1   
 19  11  27  1   
 20  12  13  ar  
 21  12  14  ar  
 22  13  15  ar  
 23  13  16  1   
 24  14  17  ar  
 25  14  18  1   
 26  15  19  ar  
 27  15  28  1   
 28  16  29  1   
 29  16  30  1   
 30  16  31  1   
 31  17  19  ar  
 32  17  32  1   
 33  18  33  1   
 34  18  34  1   
 35  18  35  1   
 36  19  20  1   
 37  20  36  1   
 38  20  37  1   
 39  20  38  1   
@<TRIPOS>SUBSTRUCTURE
  1 ****  11 GROUP 4 **** **** 0

# MOE 2024.06 (io_trps.svl 2023.06)
