@<TRIPOS>MOLECULE
NONAME
43 44 1 0 0 
SMALL
USER_CHARGES


@<TRIPOS>ATOM
  1 O       -0.1590     0.4110    -0.7560 O.2   1 <1>  -0.5700 
  2 C       -1.2060     0.9430    -0.4140 C.2   1 <1>   0.6160 
  3 N       -2.1780     0.2340     0.2690 N.am  1 <1>  -0.4770 
  4 C       -1.4280     2.3090    -0.6970 C.2   1 <1>  -0.1360 
  5 C       -3.4600     0.7940     0.5090 C.ar  1 <1>   0.1170 
  6 C       -1.7560    -1.0430     0.9240 C.3   1 <1>   0.0600 
  7 C       -2.5900     2.9260    -0.3620 C.2   1 <1>   0.0480 
  8 C       -4.5720     0.0620     0.9860 C.ar  1 <1>   0.0830 
  9 C       -3.6490     2.1710     0.2540 C.ar  1 <1>   0.0280 
 10 O       -2.8250     4.2370    -0.5900 O.3   1 <1>  -0.3570 
 11 O       -4.5470    -1.2830     1.1390 O.3   1 <1>  -0.3630 
 12 C       -5.7600     0.6830     1.3100 C.ar  1 <1>  -0.1500 
 13 C       -4.8710     2.7700     0.5880 C.ar  1 <1>  -0.1500 
 14 C       -1.8690     5.0920    -1.1790 C.3   1 <1>   0.0400 
 15 C       -4.9470    -2.0290     0.0050 C.3   1 <1>   0.1200 
 16 C       -5.9110     2.0450     1.1180 C.ar  1 <1>  -0.1500 
 17 C       -4.9410    -3.5370     0.3220 C.3   1 <1>   0.2000 
 18 O       -3.6450    -3.9250     0.6590 O.3   1 <1>  -0.6800 
 19 C       -5.4410    -4.4230    -0.8620 C.3   1 <1>   0.2800 
 20 O       -4.5510    -4.3050    -1.9110 O.3   1 <1>  -0.6800 
 21 C       -6.8110    -4.0060    -1.4050 C.3   1 <1>  -0.2400 
 22 C       -5.4700    -5.9090    -0.4880 C.3   1 <1>  -0.2400 
 23 H       -0.6140     2.8060    -1.1830 H     1 <1>   0.1500 
 24 H       -0.6920    -1.0640     1.0750 H     1 <1>   0.0800 
 25 H       -2.0320    -1.8740     0.3020 H     1 <1>   0.0800 
 26 H       -2.2250    -1.1420     1.8860 H     1 <1>   0.0800 
 27 H       -6.5740     0.1040     1.7090 H     1 <1>   0.1500 
 28 H       -5.0040     3.8240     0.4230 H     1 <1>   0.1500 
 29 H       -2.2940     6.0770    -1.2380 H     1 <1>   0.0800 
 30 H       -1.6400     4.7320    -2.1670 H     1 <1>   0.0800 
 31 H       -0.9880     5.1100    -0.5620 H     1 <1>   0.0800 
 32 H       -4.2760    -1.8100    -0.8070 H     1 <1>   0.0800 
 33 H       -5.9360    -1.7040    -0.2580 H     1 <1>   0.0800 
 34 H       -6.8390     2.5260     1.3760 H     1 <1>   0.1500 
 35 H       -5.5650    -3.7090     1.1810 H     1 <1>   0.0800 
 36 H       -3.1560    -4.0430    -0.1820 H     1 <1>   0.4000 
 37 H       -4.8200    -4.9030    -2.6330 H     1 <1>   0.4000 
 38 H       -6.7750    -3.0250    -1.8440 H     1 <1>   0.0800 
 39 H       -7.5330    -3.9980    -0.6090 H     1 <1>   0.0800 
 40 H       -7.1520    -4.6990    -2.1540 H     1 <1>   0.0800 
 41 H       -4.4940    -6.2480    -0.1890 H     1 <1>   0.0800 
 42 H       -5.8110    -6.5110    -1.3110 H     1 <1>   0.0800 
 43 H       -6.1390    -6.0630     0.3400 H     1 <1>   0.0800 
@<TRIPOS>BOND
  1   1   2  2   
  2   2   3  am  
  3   2   4  1   
  4   3   5  1   
  5   3   6  1   
  6   4   7  2   
  7   4  23  1   
  8   5   8  ar  
  9   5   9  ar  
 10   6  24  1   
 11   6  25  1   
 12   6  26  1   
 13   7   9  1   
 14   7  10  1   
 15   8  11  1   
 16   8  12  ar  
 17   9  13  ar  
 18  10  14  1   
 19  11  15  1   
 20  12  16  ar  
 21  12  27  1   
 22  13  16  ar  
 23  13  28  1   
 24  14  29  1   
 25  14  30  1   
 26  14  31  1   
 27  15  17  1   
 28  15  32  1   
 29  15  33  1   
 30  16  34  1   
 31  17  18  1   
 32  17  19  1   
 33  17  35  1   
 34  18  36  1   
 35  19  20  1   
 36  19  21  1   
 37  19  22  1   
 38  20  37  1   
 39  21  38  1   
 40  21  39  1   
 41  21  40  1   
 42  22  41  1   
 43  22  42  1   
 44  22  43  1   
@<TRIPOS>SUBSTRUCTURE
  1 ****   5 GROUP 4 **** **** 0

# MOE 2024.06 (io_trps.svl 2023.06)
