@<TRIPOS>MOLECULE
NONAME
39 40 1 0 0 
SMALL
USER_CHARGES


@<TRIPOS>ATOM
  1 O        6.5900     5.8880    -0.0030 O.co2 1 <1>  -0.9000 
  2 C        5.6950     5.1630    -0.4810 C.2   1 <1>   1.0320 
  3 O        4.8140     5.6830    -1.1880 O.co2 1 <1>  -0.9000 
  4 C        5.7410     3.7370    -0.2010 C.2   1 <1>  -0.0920 
  5 O        4.9240     2.8380    -0.7500 O.3   1 <1>  -0.2800 
  6 C        6.6000     3.0800     0.6210 C.2   1 <1>  -0.1500 
  7 C        5.2460     1.6400    -0.3190 C.2   1 <1>  -0.0400 
  8 C        6.2960     1.7210     0.5280 C.2   1 <1>  -0.1810 
  9 C        4.4350     0.4630    -0.8290 C.3   1 <1>   0.0200 
 10 C        7.0480     0.6280     1.2390 C.3   1 <1>   0.5240 
 11 C        3.0060     0.5100    -0.2760 C.3   1 <1>  -0.1600 
 12 N        8.1530     0.1900     0.3470 N.4   1 <1>  -0.9590 
 13 C        2.1710    -0.6840    -0.7540 C.3   1 <1>  -0.2400 
 14 C        8.7480    -1.0960     0.7990 C.3   1 <1>   0.3430 
 15 C        9.1750     1.2670     0.1630 C.3   1 <1>   0.3430 
 16 C        9.7780    -1.5790    -0.2240 C.3   1 <1>  -0.1600 
 17 C       10.2210     0.8180    -0.8600 C.3   1 <1>  -0.1600 
 18 C       10.8620    -0.5230    -0.4780 C.3   1 <1>  -0.1600 
 19 H        7.3640     3.5540     1.2140 H     1 <1>   0.1500 
 20 H        4.9030    -0.4590    -0.5390 H     1 <1>   0.0800 
 21 H        4.4070     0.5050    -1.9050 H     1 <1>   0.0800 
 22 H        6.3760    -0.1920     1.4290 H     1 <1>   0.0800 
 23 H        7.4310     0.9910     2.1780 H     1 <1>   0.0800 
 24 H        2.5360     1.4250    -0.5980 H     1 <1>   0.0800 
 25 H        3.0370     0.5200     0.8000 H     1 <1>   0.0800 
 26 H        7.7220     0.0570    -0.5760 H     1 <1>   0.4500 
 27 H        2.1080    -0.6910    -1.8290 H     1 <1>   0.0800 
 28 H        1.1740    -0.6130    -0.3570 H     1 <1>   0.0800 
 29 H        2.6050    -1.6110    -0.4240 H     1 <1>   0.0800 
 30 H        7.9780    -1.8430     0.9100 H     1 <1>   0.0800 
 31 H        9.2300    -0.9580     1.7530 H     1 <1>   0.0800 
 32 H        9.6570     1.4810     1.1030 H     1 <1>   0.0800 
 33 H        8.7080     2.1720    -0.1930 H     1 <1>   0.0800 
 34 H        9.2800    -1.8220    -1.1460 H     1 <1>   0.0800 
 35 H       10.2400    -2.4810     0.1390 H     1 <1>   0.0800 
 36 H       10.9860     1.5730    -0.9310 H     1 <1>   0.0800 
 37 H        9.7580     0.7430    -1.8280 H     1 <1>   0.0800 
 38 H       11.5170    -0.8530    -1.2680 H     1 <1>   0.0800 
 39 H       11.4590    -0.3970     0.4100 H     1 <1>   0.0800 
@<TRIPOS>BOND
  1   1   2  ar  
  2   2   3  ar  
  3   2   4  1   
  4   4   5  1   
  5   4   6  2   
  6   5   7  1   
  7   6   8  1   
  8   6  19  1   
  9   7   8  2   
 10   7   9  1   
 11   8  10  1   
 12   9  11  1   
 13   9  20  1   
 14   9  21  1   
 15  10  12  1   
 16  10  22  1   
 17  10  23  1   
 18  11  13  1   
 19  11  24  1   
 20  11  25  1   
 21  12  14  1   
 22  12  15  1   
 23  12  26  1   
 24  13  27  1   
 25  13  28  1   
 26  13  29  1   
 27  14  16  1   
 28  14  30  1   
 29  14  31  1   
 30  15  17  1   
 31  15  32  1   
 32  15  33  1   
 33  16  18  1   
 34  16  34  1   
 35  16  35  1   
 36  17  18  1   
 37  17  36  1   
 38  17  37  1   
 39  18  38  1   
 40  18  39  1   
@<TRIPOS>SUBSTRUCTURE
  1 ****   8 GROUP 4 **** **** 0

# MOE 2024.06 (io_trps.svl 2023.06)
