@<TRIPOS>MOLECULE
NONAME
45 46 1 0 0 
SMALL
USER_CHARGES


@<TRIPOS>ATOM
  1 O       -1.7250     5.8420    -0.1620 O.3   1 <1>  -0.3630 
  2 C       -0.5050     6.4250    -0.0440 C.ar  1 <1>   0.0830 
  3 C       -2.9000     6.5210     0.1970 C.3   1 <1>   0.1200 
  4 C        0.5870     5.6660    -0.4290 C.ar  1 <1>  -0.1500 
  5 C       -0.3070     7.7170     0.4360 C.ar  1 <1>  -0.1500 
  6 C       -4.0650     5.5680    -0.0670 C.3   1 <1>  -0.1600 
  7 C        1.8710     6.1760    -0.3440 C.ar  1 <1>   0.0830 
  8 C        0.9760     8.2320     0.5230 C.ar  1 <1>  -0.1500 
  9 C       -5.3940     6.2230     0.3030 C.3   1 <1>   0.3430 
 10 O        2.8790     5.3610    -0.7440 O.3   1 <1>  -0.3630 
 11 C        2.0640     7.4690     0.1360 C.ar  1 <1>  -0.1500 
 12 N       -6.5320     5.3350    -0.0660 N.4   1 <1>  -0.9590 
 13 C        4.2240     5.7820    -0.6970 C.3   1 <1>   0.0400 
 14 C       -7.7920     6.1300    -0.1420 C.3   1 <1>   0.3430 
 15 C       -6.6320     4.1610     0.8530 C.3   1 <1>   0.3430 
 16 C       -8.7330     5.5120    -1.1770 C.3   1 <1>  -0.1600 
 17 C       -7.6340     3.1170     0.3560 C.3   1 <1>  -0.1600 
 18 C       -9.6410     4.3880    -0.6510 C.3   1 <1>  -0.1600 
 19 C       -9.0960     3.5540     0.5170 C.3   1 <1>  -0.1600 
 20 H       -2.9730     7.4090    -0.4080 H     1 <1>   0.0800 
 21 H       -2.8320     6.7790     1.2400 H     1 <1>   0.0800 
 22 H        0.4400     4.6690    -0.7990 H     1 <1>   0.1500 
 23 H       -1.1260     8.3370     0.7440 H     1 <1>   0.1500 
 24 H       -3.9060     4.6810     0.5180 H     1 <1>   0.0800 
 25 H       -4.0630     5.3150    -1.1130 H     1 <1>   0.0800 
 26 H        1.1290     9.2310     0.8940 H     1 <1>   0.1500 
 27 H       -5.4770     7.1540    -0.2340 H     1 <1>   0.0800 
 28 H       -5.4190     6.4410     1.3590 H     1 <1>   0.0800 
 29 H        3.0460     7.8930     0.2150 H     1 <1>   0.1500 
 30 H       -6.3540     4.9690    -1.0100 H     1 <1>   0.4500 
 31 H        4.8380     4.9770    -1.0590 H     1 <1>   0.0800 
 32 H        4.4820     6.0100     0.3220 H     1 <1>   0.0800 
 33 H        4.3410     6.6440    -1.3290 H     1 <1>   0.0800 
 34 H       -7.5590     7.1330    -0.4640 H     1 <1>   0.0800 
 35 H       -8.2720     6.1900     0.8210 H     1 <1>   0.0800 
 36 H       -6.9140     4.4890     1.8400 H     1 <1>   0.0800 
 37 H       -5.6680     3.6850     0.9280 H     1 <1>   0.0800 
 38 H       -8.1640     5.1590    -2.0190 H     1 <1>   0.0800 
 39 H       -9.3740     6.2930    -1.5500 H     1 <1>   0.0800 
 40 H       -7.4930     2.2400     0.9640 H     1 <1>   0.0800 
 41 H       -7.4220     2.8280    -0.6590 H     1 <1>   0.0800 
 42 H       -9.8720     3.7290    -1.4720 H     1 <1>   0.0800 
 43 H      -10.5780     4.8170    -0.3350 H     1 <1>   0.0800 
 44 H       -9.2170     4.0930     1.4410 H     1 <1>   0.0800 
 45 H       -9.7100     2.6710     0.5960 H     1 <1>   0.0800 
@<TRIPOS>BOND
  1   1   2  1   
  2   1   3  1   
  3   2   4  ar  
  4   2   5  ar  
  5   3   6  1   
  6   3  20  1   
  7   3  21  1   
  8   4   7  ar  
  9   4  22  1   
 10   5   8  ar  
 11   5  23  1   
 12   6   9  1   
 13   6  24  1   
 14   6  25  1   
 15   7  10  1   
 16   7  11  ar  
 17   8  11  ar  
 18   8  26  1   
 19   9  12  1   
 20   9  27  1   
 21   9  28  1   
 22  10  13  1   
 23  11  29  1   
 24  12  14  1   
 25  12  15  1   
 26  12  30  1   
 27  13  31  1   
 28  13  32  1   
 29  13  33  1   
 30  14  16  1   
 31  14  34  1   
 32  14  35  1   
 33  15  17  1   
 34  15  36  1   
 35  15  37  1   
 36  16  18  1   
 37  16  38  1   
 38  16  39  1   
 39  17  19  1   
 40  17  40  1   
 41  17  41  1   
 42  18  19  1   
 43  18  42  1   
 44  18  43  1   
 45  19  44  1   
 46  19  45  1   
@<TRIPOS>SUBSTRUCTURE
  1 ****   3 GROUP 4 **** **** 0

# MOE 2024.06 (io_trps.svl 2023.06)
