@<TRIPOS>MOLECULE
NONAME
24 25 1 0 0 
SMALL
USER_CHARGES


@<TRIPOS>ATOM
  1 O       -3.7200     3.3950    -2.2940 O.co2 1 <1>  -0.9000 
  2 C       -3.3920     2.9420    -1.2050 C.2   1 <1>   0.9060 
  3 O       -2.3500     2.2930    -1.0410 O.co2 1 <1>  -0.9000 
  4 C       -4.3340     3.0160    -0.0230 C.3   1 <1>  -0.1860 
  5 C       -4.4730     1.6910     0.7420 C.3   1 <1>   0.4230 
  6 C       -5.8040     3.4380    -0.2470 C.3   1 <1>  -0.0800 
  7 N       -3.9600     0.5370    -0.0170 N.4   1 <1>  -0.8530 
  8 C       -5.9990     1.5840     0.9890 C.3   1 <1>  -0.0800 
  9 C       -6.3960     3.0510     1.1010 C.3   1 <1>  -0.1600 
 10 C       -6.5300     2.4540    -1.1860 C.3   1 <1>  -0.1600 
 11 C       -6.7490     1.2110    -0.3060 C.3   1 <1>  -0.1600 
 12 H       -3.8940     3.7340     0.6430 H     1 <1>   0.0800 
 13 H       -3.9430     1.7790     1.6770 H     1 <1>   0.0800 
 14 H       -5.9160     4.4730    -0.5280 H     1 <1>   0.0800 
 15 H       -4.5380     0.3960    -0.8470 H     1 <1>   0.4500 
 16 H       -3.8260    -0.3120     0.5250 H     1 <1>   0.4500 
 17 H       -3.0430     0.8710    -0.4050 H     1 <1>   0.4500 
 18 H       -6.2660     0.9910     1.8470 H     1 <1>   0.0800 
 19 H       -7.4630     3.2020     1.1420 H     1 <1>   0.0800 
 20 H       -5.9270     3.5590     1.9280 H     1 <1>   0.0800 
 21 H       -5.9570     2.2380    -2.0710 H     1 <1>   0.0800 
 22 H       -7.4780     2.8650    -1.4900 H     1 <1>   0.0800 
 23 H       -7.8000     1.1040    -0.0960 H     1 <1>   0.0800 
 24 H       -6.4150     0.3050    -0.7780 H     1 <1>   0.0800 
@<TRIPOS>BOND
  1   1   2  ar  
  2   2   3  ar  
  3   2   4  1   
  4   4   5  1   
  5   4   6  1   
  6   4  12  1   
  7   5   7  1   
  8   5   8  1   
  9   5  13  1   
 10   6   9  1   
 11   6  10  1   
 12   6  14  1   
 13   7  15  1   
 14   7  16  1   
 15   7  17  1   
 16   8   9  1   
 17   8  11  1   
 18   8  18  1   
 19   9  19  1   
 20   9  20  1   
 21  10  11  1   
 22  10  21  1   
 23  10  22  1   
 24  11  23  1   
 25  11  24  1   
@<TRIPOS>SUBSTRUCTURE
  1 ****   4 GROUP 4 **** **** 0

# MOE 2024.06 (io_trps.svl 2023.06)
