@<TRIPOS>MOLECULE
NONAME
36 38 1 0 0 
SMALL
USER_CHARGES


@<TRIPOS>ATOM
  1 BR      -1.8580     0.3160    -3.7870 Br    1 <1>  -0.0580 
  2 C       -2.5550     0.1650    -2.0030 C.2   1 <1>   0.0980 
  3 S       -4.0630    -0.7040    -1.8420 S.3   1 <1>  -0.0800 
  4 C       -2.0810     0.6190    -0.8310 C.2   1 <1>  -0.1500 
  5 C       -4.0360    -0.4280    -0.0980 C.2   1 <1>  -0.1400 
  6 C       -2.9390     0.2740     0.2640 C.2   1 <1>  -0.1500 
  7 C       -5.1950    -0.9920     0.6970 C.3   1 <1>   0.5230 
  8 N       -6.4540    -0.3890     0.1890 N.4   1 <1>  -0.9590 
  9 C       -6.4900     1.1060     0.4000 C.3   1 <1>   0.3430 
 10 C       -7.6770    -1.0460     0.7740 C.3   1 <1>   0.3430 
 11 C       -7.7920     1.7410    -0.1260 C.3   1 <1>   0.2090 
 12 C       -8.9860    -0.4230     0.2490 C.3   1 <1>   0.2090 
 13 N       -8.9990     1.0600     0.4310 N.pl3 1 <1>  -0.8380 
 14 C      -10.1870     1.6540     0.0680 C.ar  1 <1>   0.4100 
 15 N      -10.5110     1.5740    -1.2150 N.ar  1 <1>  -0.6200 
 16 C      -10.9680     2.2920     1.0260 C.ar  1 <1>  -0.1500 
 17 C      -11.6540     2.1500    -1.5520 C.ar  1 <1>   0.1600 
 18 C      -12.1530     2.8860     0.6610 C.ar  1 <1>  -0.1500 
 19 C      -12.4980     2.8070    -0.6730 C.ar  1 <1>  -0.1500 
 20 H       -1.1690     1.1760    -0.6950 H     1 <1>   0.1500 
 21 H       -2.6760     0.5740     1.2650 H     1 <1>   0.1500 
 22 H       -5.0680    -0.7670     1.7440 H     1 <1>   0.0800 
 23 H       -5.2200    -2.0620     0.5730 H     1 <1>   0.0800 
 24 H       -6.4640    -0.5430    -0.8280 H     1 <1>   0.4500 
 25 H       -5.6530     1.5680    -0.0990 H     1 <1>   0.0800 
 26 H       -6.4120     1.3260     1.4510 H     1 <1>   0.0800 
 27 H       -7.6660    -0.9410     1.8470 H     1 <1>   0.0800 
 28 H       -7.6770    -2.0990     0.5430 H     1 <1>   0.0800 
 29 H       -7.8120     1.6890    -1.2020 H     1 <1>   0.0800 
 30 H       -7.8170     2.7820     0.1490 H     1 <1>   0.0800 
 31 H       -9.8220    -0.8480     0.7790 H     1 <1>   0.0800 
 32 H       -9.1070    -0.6600    -0.7940 H     1 <1>   0.0800 
 33 H      -10.6310     2.3110     2.0450 H     1 <1>   0.1500 
 34 H      -11.9370     2.0970    -2.5900 H     1 <1>   0.1500 
 35 H      -12.7820     3.3880     1.3770 H     1 <1>   0.1500 
 36 H      -13.4110     3.2500    -1.0270 H     1 <1>   0.1500 
@<TRIPOS>BOND
  1   1   2  1   
  2   2   3  1   
  3   2   4  2   
  4   3   5  1   
  5   4   6  1   
  6   4  20  1   
  7   5   6  2   
  8   5   7  1   
  9   6  21  1   
 10   7   8  1   
 11   7  22  1   
 12   7  23  1   
 13   8   9  1   
 14   8  10  1   
 15   8  24  1   
 16   9  11  1   
 17   9  25  1   
 18   9  26  1   
 19  10  12  1   
 20  10  27  1   
 21  10  28  1   
 22  11  13  1   
 23  11  29  1   
 24  11  30  1   
 25  12  13  1   
 26  12  31  1   
 27  12  32  1   
 28  13  14  1   
 29  14  15  ar  
 30  14  16  ar  
 31  15  17  ar  
 32  16  18  ar  
 33  16  33  1   
 34  17  19  ar  
 35  17  34  1   
 36  18  19  ar  
 37  18  35  1   
 38  19  36  1   
@<TRIPOS>SUBSTRUCTURE
  1 ****   9 GROUP 4 **** **** 0

# MOE 2024.06 (io_trps.svl 2023.06)
