@<TRIPOS>MOLECULE
NONAME
42 45 1 0 0 
SMALL
USER_CHARGES


@<TRIPOS>ATOM
  1 N        2.0000     2.8030     0.3310 N.ar  1 <1>  -0.1790 
  2 C        0.8060     3.4910     0.4650 C.ar  1 <1>   0.3610 
  3 C        3.1280     3.4180    -0.0400 C.ar  1 <1>   0.4610 
  4 C        0.7740     4.8780     0.2060 C.ar  1 <1>   0.0000 
  5 C       -0.3590     2.8220     0.8540 C.ar  1 <1>  -0.1500 
  6 N        4.3320     2.8490    -0.2000 N.pl3 1 <1>  -0.8380 
  7 C        3.1250     4.7720    -0.2990 C.ar  1 <1>  -0.1430 
  8 C        1.9880     5.5380    -0.1920 C.ar  1 <1>   0.1000 
  9 C       -0.4550     5.5400     0.3530 C.ar  1 <1>  -0.1500 
 10 C       -1.5460     3.5020     0.9890 C.ar  1 <1>  -0.1500 
 11 C        4.7380     1.4260    -0.0170 C.3   1 <1>   0.2890 
 12 C        5.3320     3.8790    -0.6210 C.3   1 <1>   0.2090 
 13 C        4.5280     5.1920    -0.6940 C.3   1 <1>  -0.0170 
 14 N        2.0200     6.8730    -0.4560 N.pl3 1 <1>  -0.9000 
 15 C       -1.5910     4.8680     0.7370 C.ar  1 <1>  -0.1500 
 16 C        5.7900     1.2990     1.0910 C.3   1 <1>  -0.1600 
 17 C        5.2470     0.8330    -1.3360 C.3   1 <1>  -0.1600 
 18 C        6.2000    -0.1680     1.2880 C.3   1 <1>  -0.1600 
 19 C        5.6550    -0.6370    -1.1510 C.3   1 <1>  -0.1600 
 20 C        6.6920    -0.7880    -0.0280 C.3   1 <1>  -0.1600 
 21 H        2.0380     1.8070     0.5130 H     1 <1>   0.4570 
 22 H       -0.3370     1.7660     1.0520 H     1 <1>   0.1500 
 23 H       -0.5170     6.5970     0.1640 H     1 <1>   0.1500 
 24 H       -2.4480     2.9910     1.2890 H     1 <1>   0.1500 
 25 H        3.8800     0.8530     0.2850 H     1 <1>   0.0800 
 26 H        5.7450     3.6370    -1.5850 H     1 <1>   0.0800 
 27 H        6.1230     3.9620     0.1050 H     1 <1>   0.0800 
 28 H        4.9240     5.9170    -0.0050 H     1 <1>   0.0800 
 29 H        4.5470     5.5940    -1.6910 H     1 <1>   0.0800 
 30 H        2.8680     7.3740    -0.7420 H     1 <1>   0.4000 
 31 H        1.2010     7.4860    -0.3900 H     1 <1>   0.4000 
 32 H       -2.5260     5.3950     0.8440 H     1 <1>   0.1500 
 33 H        5.3950     1.6860     2.0140 H     1 <1>   0.0800 
 34 H        6.6680     1.8630     0.8320 H     1 <1>   0.0800 
 35 H        6.1060     1.3810    -1.6780 H     1 <1>   0.0800 
 36 H        4.4790     0.8990    -2.0850 H     1 <1>   0.0800 
 37 H        5.3600    -0.7340     1.6560 H     1 <1>   0.0800 
 38 H        6.9820    -0.2290     2.0260 H     1 <1>   0.0800 
 39 H        6.0660    -1.0160    -2.0710 H     1 <1>   0.0800 
 40 H        4.7860    -1.2270    -0.9150 H     1 <1>   0.0800 
 41 H        6.9090    -1.8320     0.1240 H     1 <1>   0.0800 
 42 H        7.6090    -0.3070    -0.3260 H     1 <1>   0.0800 
@<TRIPOS>BOND
  1   1   2  ar  
  2   1   3  ar  
  3   1  21  1   
  4   2   4  ar  
  5   2   5  ar  
  6   3   6  1   
  7   3   7  ar  
  8   4   8  ar  
  9   4   9  ar  
 10   5  10  ar  
 11   5  22  1   
 12   6  11  1   
 13   6  12  1   
 14   7   8  ar  
 15   7  13  1   
 16   8  14  1   
 17   9  15  ar  
 18   9  23  1   
 19  10  15  ar  
 20  10  24  1   
 21  11  16  1   
 22  11  17  1   
 23  11  25  1   
 24  12  13  1   
 25  12  26  1   
 26  12  27  1   
 27  13  28  1   
 28  13  29  1   
 29  14  30  1   
 30  14  31  1   
 31  15  32  1   
 32  16  18  1   
 33  16  33  1   
 34  16  34  1   
 35  17  19  1   
 36  17  35  1   
 37  17  36  1   
 38  18  20  1   
 39  18  37  1   
 40  18  38  1   
 41  19  20  1   
 42  19  39  1   
 43  19  40  1   
 44  20  41  1   
 45  20  42  1   
@<TRIPOS>SUBSTRUCTURE
  1 ****   3 GROUP 4 **** **** 0

# MOE 2024.06 (io_trps.svl 2023.06)
