@<TRIPOS>MOLECULE
NONAME
41 42 1 0 0 
SMALL
USER_CHARGES


@<TRIPOS>ATOM
  1 O        0.3450    -1.9520     2.1050 O.2   1 <1>  -0.5700 
  2 C        0.0360    -1.9960     0.9290 C.2   1 <1>   0.6900 
  3 N       -1.2160    -2.4020     0.5660 N.am  1 <1>  -0.6600 
  4 N        0.9230    -1.7180    -0.0670 N.am  1 <1>  -0.5470 
  5 C       -2.2530    -1.5180    -0.0510 C.3   1 <1>   0.2200 
  6 C       -1.7860    -3.5850     1.2570 C.3   1 <1>   0.1400 
  7 C        2.2370    -1.2270    -0.0530 C.ar  1 <1>   0.1170 
  8 C       -3.0240    -2.3460    -1.0950 C.3   1 <1>  -0.1600 
  9 C       -1.6780    -0.2140    -0.6440 C.3   1 <1>  -0.1600 
 10 C       -2.5490    -4.4410     0.2430 C.3   1 <1>  -0.1600 
 11 C        2.7750    -0.5330     1.0270 C.ar  1 <1>  -0.1500 
 12 C        3.0350    -1.4240    -1.1740 C.ar  1 <1>  -0.1500 
 13 C       -3.6240    -3.6230    -0.4850 C.3   1 <1>  -0.1600 
 14 C       -2.7550     0.7820    -1.1010 C.3   1 <1>  -0.2400 
 15 C        4.0720    -0.0560     0.9850 C.ar  1 <1>  -0.1500 
 16 C        4.3330    -0.9480    -1.2220 C.ar  1 <1>  -0.1500 
 17 C        4.8610    -0.2580    -0.1350 C.ar  1 <1>   0.0820 
 18 O        6.1240     0.2440    -0.0940 O.3   1 <1>  -0.3620 
 19 C        7.0110     0.0620    -1.1740 C.3   1 <1>   0.0400 
 20 H        0.5520    -1.9800    -0.9730 H     1 <1>   0.3700 
 21 H       -2.9400    -1.2390     0.7320 H     1 <1>   0.0800 
 22 H       -2.4470    -3.2530     2.0400 H     1 <1>   0.0800 
 23 H       -0.9960    -4.1650     1.7060 H     1 <1>   0.0800 
 24 H       -2.3590    -2.6060    -1.8990 H     1 <1>   0.0800 
 25 H       -3.8260    -1.7630    -1.5080 H     1 <1>   0.0800 
 26 H       -1.0420    -0.4410    -1.4810 H     1 <1>   0.0800 
 27 H       -1.0880     0.2800     0.1090 H     1 <1>   0.0800 
 28 H       -3.0070    -5.2710     0.7510 H     1 <1>   0.0800 
 29 H       -1.8490    -4.8400    -0.4710 H     1 <1>   0.0800 
 30 H        2.1800    -0.3610     1.9050 H     1 <1>   0.1500 
 31 H        2.6380    -1.9580    -2.0180 H     1 <1>   0.1500 
 32 H       -4.0760    -4.2200    -1.2590 H     1 <1>   0.0800 
 33 H       -4.3950    -3.3510     0.2160 H     1 <1>   0.0800 
 34 H       -3.3020     0.4050    -1.9460 H     1 <1>   0.0800 
 35 H       -2.2900     1.7070    -1.3930 H     1 <1>   0.0800 
 36 H       -3.4430     0.9870    -0.3000 H     1 <1>   0.0800 
 37 H        4.4800     0.4770     1.8250 H     1 <1>   0.1500 
 38 H        4.9150    -1.1240    -2.1060 H     1 <1>   0.1500 
 39 H        7.9470     0.5270    -0.9190 H     1 <1>   0.0800 
 40 H        6.5970     0.5300    -2.0490 H     1 <1>   0.0800 
 41 H        7.1580    -0.9920    -1.3320 H     1 <1>   0.0800 
@<TRIPOS>BOND
  1   1   2  2   
  2   2   3  am  
  3   2   4  am  
  4   3   5  1   
  5   3   6  1   
  6   4   7  1   
  7   4  20  1   
  8   5   8  1   
  9   5   9  1   
 10   5  21  1   
 11   6  10  1   
 12   6  22  1   
 13   6  23  1   
 14   7  11  ar  
 15   7  12  ar  
 16   8  13  1   
 17   8  24  1   
 18   8  25  1   
 19   9  14  1   
 20   9  26  1   
 21   9  27  1   
 22  10  13  1   
 23  10  28  1   
 24  10  29  1   
 25  11  15  ar  
 26  11  30  1   
 27  12  16  ar  
 28  12  31  1   
 29  13  32  1   
 30  13  33  1   
 31  14  34  1   
 32  14  35  1   
 33  14  36  1   
 34  15  17  ar  
 35  15  37  1   
 36  16  17  ar  
 37  16  38  1   
 38  17  18  1   
 39  18  19  1   
 40  19  39  1   
 41  19  40  1   
 42  19  41  1   
@<TRIPOS>SUBSTRUCTURE
  1 ****   4 GROUP 4 **** **** 0

# MOE 2024.06 (io_trps.svl 2023.06)
