@<TRIPOS>MOLECULE
NONAME
38 39 1 0 0 
SMALL
USER_CHARGES


@<TRIPOS>ATOM
  1 CL      -0.3460     0.0190     1.2330 Cl    1 <1>  -0.1770 
  2 C       -0.0030     1.5600     0.4910 C.ar  1 <1>   0.1770 
  3 C        1.3080     1.9860     0.4000 C.ar  1 <1>  -0.1500 
  4 C       -1.0500     2.3240     0.0090 C.ar  1 <1>  -0.1500 
  5 C        1.5810     3.2160    -0.1930 C.ar  1 <1>   0.0830 
  6 C       -0.7770     3.5470    -0.5810 C.ar  1 <1>  -0.1500 
  7 O        2.8300     3.7260    -0.3320 O.3   1 <1>  -0.3630 
  8 C        0.5330     3.9860    -0.6780 C.ar  1 <1>  -0.1500 
  9 C        3.9630     3.0300     0.1230 C.3   1 <1>   0.1200 
 10 C        5.1810     3.8960    -0.2000 C.3   1 <1>  -0.1600 
 11 C        6.4700     3.2220     0.2680 C.3   1 <1>   0.3430 
 12 N        7.6570     4.0160    -0.1550 N.4   1 <1>  -0.9590 
 13 C        8.9020     3.1980    -0.0480 C.3   1 <1>   0.3430 
 14 C        7.7870     5.3010     0.6010 C.3   1 <1>   0.3430 
 15 C       10.0830     3.9730    -0.6350 C.3   1 <1>  -0.1600 
 16 C        8.9460     6.1210     0.0310 C.3   1 <1>  -0.1600 
 17 C       10.2630     5.3350     0.0470 C.3   1 <1>  -0.1600 
 18 H        2.0770     1.3510     0.7920 H     1 <1>   0.1500 
 19 H       -2.0600     1.9650     0.0940 H     1 <1>   0.1500 
 20 H       -1.5800     4.1550    -0.9620 H     1 <1>   0.1500 
 21 H        0.7500     4.9360    -1.1350 H     1 <1>   0.1500 
 22 H        4.0070     2.0850    -0.3910 H     1 <1>   0.0800 
 23 H        3.8600     2.8780     1.1850 H     1 <1>   0.0800 
 24 H        5.0550     4.8430     0.2920 H     1 <1>   0.0800 
 25 H        5.2170     4.0450    -1.2650 H     1 <1>   0.0800 
 26 H        6.5230     2.2380    -0.1700 H     1 <1>   0.0800 
 27 H        6.4610     3.1120     1.3410 H     1 <1>   0.0800 
 28 H        7.5440     4.2610    -1.1480 H     1 <1>   0.4500 
 29 H        8.7830     2.2700    -0.5850 H     1 <1>   0.0800 
 30 H        9.1010     2.9690     0.9860 H     1 <1>   0.0800 
 31 H        7.9720     5.0950     1.6430 H     1 <1>   0.0800 
 32 H        6.8780     5.8750     0.5240 H     1 <1>   0.0800 
 33 H        9.9340     4.1080    -1.6920 H     1 <1>   0.0800 
 34 H       10.9810     3.3930    -0.5100 H     1 <1>   0.0800 
 35 H        9.0610     7.0190     0.6140 H     1 <1>   0.0800 
 36 H        8.7100     6.4220    -0.9760 H     1 <1>   0.0800 
 37 H       11.0320     5.8990    -0.4550 H     1 <1>   0.0800 
 38 H       10.5800     5.1880     1.0670 H     1 <1>   0.0800 
@<TRIPOS>BOND
  1   1   2  1   
  2   2   3  ar  
  3   2   4  ar  
  4   3   5  ar  
  5   3  18  1   
  6   4   6  ar  
  7   4  19  1   
  8   5   7  1   
  9   5   8  ar  
 10   6   8  ar  
 11   6  20  1   
 12   7   9  1   
 13   8  21  1   
 14   9  10  1   
 15   9  22  1   
 16   9  23  1   
 17  10  11  1   
 18  10  24  1   
 19  10  25  1   
 20  11  12  1   
 21  11  26  1   
 22  11  27  1   
 23  12  13  1   
 24  12  14  1   
 25  12  28  1   
 26  13  15  1   
 27  13  29  1   
 28  13  30  1   
 29  14  16  1   
 30  14  31  1   
 31  14  32  1   
 32  15  17  1   
 33  15  33  1   
 34  15  34  1   
 35  16  17  1   
 36  16  35  1   
 37  16  36  1   
 38  17  37  1   
 39  17  38  1   
@<TRIPOS>SUBSTRUCTURE
  1 ****   9 GROUP 4 **** **** 0

# MOE 2024.06 (io_trps.svl 2023.06)
