@<TRIPOS>MOLECULE
NONAME
54 56 1 0 0 
SMALL
USER_CHARGES


@<TRIPOS>ATOM
  1 O       -0.7500     0.3080     1.1540 O.2   1 <1>  -0.5700 
  2 C        0.0210     1.2020     0.8950 C.2   1 <1>   0.5690 
  3 N        1.3590     0.9780     0.8710 N.am  1 <1>  -0.7300 
  4 C       -0.4950     2.6200     0.5770 C.3   1 <1>   0.1710 
  5 C        1.9830    -0.3250     1.1520 C.3   1 <1>   0.2840 
  6 N       -1.8920     2.7200     0.0530 N.3   1 <1>  -0.8100 
  7 C        3.4380    -0.2370     0.7330 C.ar  1 <1>  -0.1440 
  8 C       -2.3470     4.1170    -0.1080 C.3   1 <1>   0.1100 
  9 C       -2.1040     1.9440    -1.1920 C.3   1 <1>   0.1100 
 10 C        3.8050    -0.5110    -0.5760 C.ar  1 <1>  -0.1500 
 11 C        4.4120     0.1260     1.6510 C.ar  1 <1>  -0.1500 
 12 C       -3.8040     4.2010    -0.6320 C.3   1 <1>   0.3430 
 13 C       -3.5900     1.9430    -1.6260 C.3   1 <1>   0.3430 
 14 C        5.1320    -0.4250    -0.9630 C.ar  1 <1>  -0.1500 
 15 C        5.7390     0.2130     1.2640 C.ar  1 <1>  -0.1500 
 16 N       -4.4220     2.8410    -0.7540 N.4   1 <1>  -0.9590 
 17 C        6.0990    -0.0630    -0.0430 C.ar  1 <1>  -0.1500 
 18 C       -5.8580     2.8710    -1.0950 C.3   1 <1>   0.4810 
 19 C       -6.4570     1.5400    -0.7120 C.2   1 <1>  -0.2880 
 20 C       -7.3250     1.3570     0.2980 C.2   1 <1>  -0.1780 
 21 C       -7.9450     0.1190     0.7190 C.ar  1 <1>   0.0280 
 22 C       -7.4420    -1.1290     0.3580 C.ar  1 <1>  -0.1500 
 23 C       -9.0850     0.1490     1.5180 C.ar  1 <1>  -0.1500 
 24 C       -8.0560    -2.2980     0.7710 C.ar  1 <1>  -0.1500 
 25 C       -9.7040    -1.0160     1.9340 C.ar  1 <1>  -0.1500 
 26 C       -9.1910    -2.2440     1.5600 C.ar  1 <1>  -0.1500 
 27 H        2.0350     1.7130     0.6580 H     1 <1>   0.3700 
 28 H        0.1770     3.0710    -0.1300 H     1 <1>   0.0800 
 29 H       -0.4340     3.1830     1.4920 H     1 <1>   0.0800 
 30 H        1.9040    -0.5440     2.2030 H     1 <1>   0.0800 
 31 H        1.4750    -1.1000     0.6020 H     1 <1>   0.0800 
 32 H       -2.2940     4.6180     0.8450 H     1 <1>   0.0800 
 33 H       -1.6960     4.6420    -0.7870 H     1 <1>   0.0800 
 34 H       -1.4990     2.3500    -1.9850 H     1 <1>   0.0800 
 35 H       -1.8000     0.9210    -1.0470 H     1 <1>   0.0800 
 36 H        3.0600    -0.7930    -1.3000 H     1 <1>   0.1500 
 37 H        4.1440     0.3430     2.6700 H     1 <1>   0.1500 
 38 H       -3.8040     4.6910    -1.5920 H     1 <1>   0.0800 
 39 H       -4.3810     4.8090     0.0450 H     1 <1>   0.0800 
 40 H       -3.9600     0.9330    -1.5630 H     1 <1>   0.0800 
 41 H       -3.6580     2.2540    -2.6550 H     1 <1>   0.0800 
 42 H        5.4110    -0.6390    -1.9800 H     1 <1>   0.1500 
 43 H        6.4910     0.4940     1.9810 H     1 <1>   0.1500 
 44 H       -4.3210     2.4230     0.1860 H     1 <1>   0.4500 
 45 H        7.1310     0.0040    -0.3430 H     1 <1>   0.1500 
 46 H       -6.3480     3.6500    -0.5330 H     1 <1>   0.0800 
 47 H       -5.9990     3.0640    -2.1460 H     1 <1>   0.0800 
 48 H       -6.1330     0.7330    -1.3440 H     1 <1>   0.1500 
 49 H       -7.6360     2.1990     0.8940 H     1 <1>   0.1500 
 50 H       -6.5590    -1.2000    -0.2470 H     1 <1>   0.1500 
 51 H       -9.5000     1.0940     1.8180 H     1 <1>   0.1500 
 52 H       -7.6520    -3.2520     0.4810 H     1 <1>   0.1500 
 53 H      -10.5870    -0.9690     2.5490 H     1 <1>   0.1500 
 54 H       -9.6710    -3.1520     1.8820 H     1 <1>   0.1500 
@<TRIPOS>BOND
  1   1   2  2   
  2   2   3  am  
  3   2   4  1   
  4   3   5  1   
  5   3  27  1   
  6   4   6  1   
  7   4  28  1   
  8   4  29  1   
  9   5   7  1   
 10   5  30  1   
 11   5  31  1   
 12   6   8  1   
 13   6   9  1   
 14   7  10  ar  
 15   7  11  ar  
 16   8  12  1   
 17   8  32  1   
 18   8  33  1   
 19   9  13  1   
 20   9  34  1   
 21   9  35  1   
 22  10  14  ar  
 23  10  36  1   
 24  11  15  ar  
 25  11  37  1   
 26  12  16  1   
 27  12  38  1   
 28  12  39  1   
 29  13  16  1   
 30  13  40  1   
 31  13  41  1   
 32  14  17  ar  
 33  14  42  1   
 34  15  17  ar  
 35  15  43  1   
 36  16  18  1   
 37  16  44  1   
 38  17  45  1   
 39  18  19  1   
 40  18  46  1   
 41  18  47  1   
 42  19  20  2   
 43  19  48  1   
 44  20  21  1   
 45  20  49  1   
 46  21  22  ar  
 47  21  23  ar  
 48  22  24  ar  
 49  22  50  1   
 50  23  25  ar  
 51  23  51  1   
 52  24  26  ar  
 53  24  52  1   
 54  25  26  ar  
 55  25  53  1   
 56  26  54  1   
@<TRIPOS>SUBSTRUCTURE
  1 ****   1 GROUP 4 **** **** 0

# MOE 2024.06 (io_trps.svl 2023.06)
