@<TRIPOS>MOLECULE
NONAME
58 60 1 0 0 
SMALL
USER_CHARGES


@<TRIPOS>ATOM
  1 O        0.4770     0.5440    -0.5430 O.2   1 <1>  -0.5700 
  2 C        0.3560     1.7190    -0.2650 C.2   1 <1>   0.7800 
  3 O       -0.6580     2.4250    -0.7580 O.3   1 <1>  -0.4300 
  4 N        1.2670     2.3760     0.5220 N.am  1 <1>  -0.6600 
  5 C       -1.6390     1.8120    -1.5650 C.3   1 <1>   0.1200 
  6 C        2.4550     1.6770     1.0790 C.3   1 <1>   0.1400 
  7 C        1.2860     3.8530     0.6900 C.3   1 <1>   0.1400 
  8 C       -2.6580     2.8760    -1.9630 C.3   1 <1>  -0.2400 
  9 C        3.7370     2.2600     0.4570 C.3   1 <1>   0.3430 
 10 C        2.5800     4.4280     0.0800 C.3   1 <1>   0.3430 
 11 N        3.8460     3.7710     0.6140 N.4   1 <1>  -0.9590 
 12 C        5.0970     4.3300    -0.0060 C.3   1 <1>   0.4230 
 13 C        6.3490     3.6630     0.5880 C.3   1 <1>  -0.1600 
 14 C        5.1830     5.8490     0.2110 C.3   1 <1>  -0.1600 
 15 C        7.6390     4.2740     0.0370 C.3   1 <1>   0.3430 
 16 C        6.4870     6.4310    -0.3380 C.3   1 <1>   0.3430 
 17 N        7.6580     5.7460     0.2760 N.4   1 <1>  -0.9590 
 18 C        8.9220     6.3720    -0.2450 C.3   1 <1>   0.3430 
 19 C       10.1550     5.9720     0.5690 C.3   1 <1>  -0.0170 
 20 C       11.3450     6.7390     0.0280 C.ar  1 <1>  -0.1440 
 21 C       11.6670     7.9840     0.5470 C.ar  1 <1>  -0.1500 
 22 C       12.1120     6.2090    -0.9990 C.ar  1 <1>  -0.1500 
 23 C       12.7400     8.6950     0.0390 C.ar  1 <1>  -0.1500 
 24 C       13.1850     6.9210    -1.5060 C.ar  1 <1>  -0.1500 
 25 C       13.4990     8.1640    -0.9890 C.ar  1 <1>  -0.1500 
 26 H       -2.1060     1.0250    -0.9960 H     1 <1>   0.0800 
 27 H       -1.1580     1.3940    -2.4330 H     1 <1>   0.0800 
 28 H        2.4070     0.6210     0.8700 H     1 <1>   0.0800 
 29 H        2.4710     1.7930     2.1480 H     1 <1>   0.0800 
 30 H        1.2270     4.0940     1.7370 H     1 <1>   0.0800 
 31 H        0.4360     4.3050     0.2070 H     1 <1>   0.0800 
 32 H       -3.1240     3.2900    -1.0870 H     1 <1>   0.0800 
 33 H       -3.4210     2.4330    -2.5770 H     1 <1>   0.0800 
 34 H       -2.1800     3.6590    -2.5240 H     1 <1>   0.0800 
 35 H        3.7440     2.0010    -0.5900 H     1 <1>   0.0800 
 36 H        4.5780     1.7740     0.9210 H     1 <1>   0.0800 
 37 H        2.5970     5.4850     0.2810 H     1 <1>   0.0800 
 38 H        2.5290     4.2970    -0.9890 H     1 <1>   0.0800 
 39 H        3.8640     3.9550     1.6270 H     1 <1>   0.4500 
 40 H        5.0750     4.1350    -1.0680 H     1 <1>   0.0800 
 41 H        6.3730     2.6180     0.3350 H     1 <1>   0.0800 
 42 H        6.3520     3.7510     1.6600 H     1 <1>   0.0800 
 43 H        5.1080     6.0880     1.2570 H     1 <1>   0.0800 
 44 H        4.3840     6.3480    -0.3070 H     1 <1>   0.0800 
 45 H        7.7130     4.0770    -1.0220 H     1 <1>   0.0800 
 46 H        8.4860     3.8100     0.5190 H     1 <1>   0.0800 
 47 H        6.5280     7.4880    -0.1230 H     1 <1>   0.0800 
 48 H        6.5170     6.3100    -1.4100 H     1 <1>   0.0800 
 49 H        7.6480     5.9250     1.2930 H     1 <1>   0.4500 
 50 H        8.8360     7.4460    -0.2040 H     1 <1>   0.0800 
 51 H        9.0770     6.0990    -1.2770 H     1 <1>   0.0800 
 52 H       10.3530     4.9180     0.4850 H     1 <1>   0.0800 
 53 H       10.0190     6.2180     1.6070 H     1 <1>   0.0800 
 54 H       11.0950     8.4150     1.3500 H     1 <1>   0.1500 
 55 H       11.8920     5.2410    -1.4140 H     1 <1>   0.1500 
 56 H       12.9890     9.6610     0.4430 H     1 <1>   0.1500 
 57 H       13.7810     6.5070    -2.3020 H     1 <1>   0.1500 
 58 H       14.3340     8.7170    -1.3830 H     1 <1>   0.1500 
@<TRIPOS>BOND
  1   1   2  2   
  2   2   3  1   
  3   2   4  am  
  4   3   5  1   
  5   4   6  1   
  6   4   7  1   
  7   5   8  1   
  8   5  26  1   
  9   5  27  1   
 10   6   9  1   
 11   6  28  1   
 12   6  29  1   
 13   7  10  1   
 14   7  30  1   
 15   7  31  1   
 16   8  32  1   
 17   8  33  1   
 18   8  34  1   
 19   9  11  1   
 20   9  35  1   
 21   9  36  1   
 22  10  11  1   
 23  10  37  1   
 24  10  38  1   
 25  11  12  1   
 26  11  39  1   
 27  12  13  1   
 28  12  14  1   
 29  12  40  1   
 30  13  15  1   
 31  13  41  1   
 32  13  42  1   
 33  14  16  1   
 34  14  43  1   
 35  14  44  1   
 36  15  17  1   
 37  15  45  1   
 38  15  46  1   
 39  16  17  1   
 40  16  47  1   
 41  16  48  1   
 42  17  18  1   
 43  17  49  1   
 44  18  19  1   
 45  18  50  1   
 46  18  51  1   
 47  19  20  1   
 48  19  52  1   
 49  19  53  1   
 50  20  21  ar  
 51  20  22  ar  
 52  21  23  ar  
 53  21  54  1   
 54  22  24  ar  
 55  22  55  1   
 56  23  25  ar  
 57  23  56  1   
 58  24  25  ar  
 59  24  57  1   
 60  25  58  1   
@<TRIPOS>SUBSTRUCTURE
  1 ****  12 GROUP 4 **** **** 0

# MOE 2024.06 (io_trps.svl 2023.06)
