@<TRIPOS>MOLECULE
NONAME
33 33 1 0 0 
SMALL
USER_CHARGES


@<TRIPOS>ATOM
  1 S        0.0390     0.3400     0.7920 S.o2  1 <1>   1.3330 
  2 O        0.9970     0.2580     1.8650 O.2   1 <1>  -0.6500 
  3 O       -0.4980     1.6070     0.3600 O.2   1 <1>  -0.6500 
  4 N       -1.2660    -0.6240     1.3490 N.am  1 <1>  -0.7570 
  5 C        0.6420    -0.6040    -0.6130 C.3   1 <1>  -0.0550 
  6 C       -2.5610    -0.7560     0.8540 C.ar  1 <1>   0.1990 
  7 C        1.8650     0.0120    -1.3160 C.3   1 <1>  -0.2400 
  8 C       -3.4600    -1.5530     1.5540 C.ar  1 <1>  -0.1500 
  9 C       -3.0010    -0.1350    -0.3120 C.ar  1 <1>  -0.1500 
 10 C       -4.7570    -1.7260     1.1060 C.ar  1 <1>  -0.1500 
 11 C       -4.2980    -0.3090    -0.7610 C.ar  1 <1>  -0.1500 
 12 C       -5.1900    -1.1040    -0.0560 C.ar  1 <1>   0.1170 
 13 N       -6.5070    -1.2740    -0.5080 N.am  1 <1>  -0.4770 
 14 C       -7.5390    -0.4100    -0.2280 C.2   1 <1>   0.5690 
 15 C       -6.7810    -2.4800    -1.3300 C.3   1 <1>   0.0600 
 16 O       -8.6630    -0.5930    -0.6320 O.2   1 <1>  -0.5700 
 17 C       -7.2830     0.8170     0.6190 C.3   1 <1>  -0.1790 
 18 H       -1.0710    -0.9420     2.2930 H     1 <1>   0.4200 
 19 H       -0.1490    -0.7030    -1.3320 H     1 <1>   0.0800 
 20 H        0.9020    -1.5910    -0.2820 H     1 <1>   0.0800 
 21 H        1.6240     0.9950    -1.6830 H     1 <1>   0.0800 
 22 H        2.1690    -0.6030    -2.1430 H     1 <1>   0.0800 
 23 H        2.6860     0.0960    -0.6240 H     1 <1>   0.0800 
 24 H       -3.1430    -2.0420     2.4560 H     1 <1>   0.1500 
 25 H       -2.3410     0.4950    -0.8760 H     1 <1>   0.1500 
 26 H       -5.4440    -2.3450     1.6570 H     1 <1>   0.1500 
 27 H       -4.6270     0.1770    -1.6630 H     1 <1>   0.1500 
 28 H       -5.8650    -2.9970    -1.5560 H     1 <1>   0.0800 
 29 H       -7.2580    -2.1890    -2.2500 H     1 <1>   0.0800 
 30 H       -7.4380    -3.1400    -0.7910 H     1 <1>   0.0800 
 31 H       -6.8930     0.5250     1.5760 H     1 <1>   0.0800 
 32 H       -8.2010     1.3550     0.7660 H     1 <1>   0.0800 
 33 H       -6.5780     1.4590     0.1250 H     1 <1>   0.0800 
@<TRIPOS>BOND
  1   1   2  2   
  2   1   3  2   
  3   1   4  am  
  4   1   5  1   
  5   4   6  1   
  6   4  18  1   
  7   5   7  1   
  8   5  19  1   
  9   5  20  1   
 10   6   8  ar  
 11   6   9  ar  
 12   7  21  1   
 13   7  22  1   
 14   7  23  1   
 15   8  10  ar  
 16   8  24  1   
 17   9  11  ar  
 18   9  25  1   
 19  10  12  ar  
 20  10  26  1   
 21  11  12  ar  
 22  11  27  1   
 23  12  13  1   
 24  13  14  am  
 25  13  15  1   
 26  14  16  2   
 27  14  17  1   
 28  15  28  1   
 29  15  29  1   
 30  15  30  1   
 31  17  31  1   
 32  17  32  1   
 33  17  33  1   
@<TRIPOS>SUBSTRUCTURE
  1 ****   9 GROUP 4 **** **** 0

# MOE 2024.06 (io_trps.svl 2023.06)
