@<TRIPOS>MOLECULE
NONAME
38 39 1 0 0 
SMALL
USER_CHARGES


@<TRIPOS>ATOM
  1 S       -0.0350    -0.1280     0.2270 S.o2  1 <1>   1.4470 
  2 O       -0.3700    -0.5820     1.5610 O.2   1 <1>  -0.6500 
  3 O       -0.5560    -0.8450    -0.9160 O.2   1 <1>  -0.6500 
  4 N       -0.5900     1.4750     0.1070 N.am  1 <1>  -0.8490 
  5 C        1.7630     0.0400     0.0580 C.ar  1 <1>  -0.0090 
  6 C       -2.0310     1.5370    -0.1490 C.3   1 <1>   0.1160 
  7 C       -0.2510     2.2890     1.2780 C.3   1 <1>   0.1160 
  8 C        2.6330    -0.5550     0.9640 C.ar  1 <1>  -0.1500 
  9 C        2.3200     0.7670    -0.9860 C.ar  1 <1>  -0.1500 
 10 C        4.0040    -0.4210     0.8360 C.ar  1 <1>  -0.1500 
 11 C        3.6900     0.9040    -1.1180 C.ar  1 <1>  -0.1500 
 12 C        4.5560     0.3140    -0.2050 C.ar  1 <1>   0.1170 
 13 N        5.9500     0.4160    -0.2840 N.am  1 <1>  -0.5470 
 14 C        6.7950     1.1780    -1.0440 C.2   1 <1>   0.5690 
 15 O        6.4270     1.9800    -1.8710 O.2   1 <1>  -0.5700 
 16 C        8.2990     0.9860    -0.8050 C.3   1 <1>   0.2610 
 17 O        8.5520    -0.0140     0.1500 O.3   1 <1>  -0.5600 
 18 C        9.0030     2.2150    -0.2390 C.3   1 <1>  -0.1600 
 19 C        9.8360     0.1420     0.6650 C.3   1 <1>   0.1200 
 20 C       10.1660     1.6280     0.5470 C.3   1 <1>  -0.1600 
 21 H       -2.2640     1.0220    -1.0670 H     1 <1>   0.0800 
 22 H       -2.3480     2.5610    -0.2490 H     1 <1>   0.0800 
 23 H       -2.5750     1.0720     0.6560 H     1 <1>   0.0800 
 24 H        0.8140     2.2810     1.4390 H     1 <1>   0.0800 
 25 H       -0.7390     1.9070     2.1590 H     1 <1>   0.0800 
 26 H       -0.5600     3.3080     1.1200 H     1 <1>   0.0800 
 27 H        2.2300    -1.1310     1.7810 H     1 <1>   0.1500 
 28 H        1.6680     1.2330    -1.7070 H     1 <1>   0.1500 
 29 H        4.6500    -0.8930     1.5540 H     1 <1>   0.1500 
 30 H        4.0790     1.4740    -1.9420 H     1 <1>   0.1500 
 31 H        6.4790    -0.1880     0.3530 H     1 <1>   0.3700 
 32 H        8.7670     0.6810    -1.7240 H     1 <1>   0.0800 
 33 H        8.3340     2.7410     0.4190 H     1 <1>   0.0800 
 34 H        9.3190     2.8810    -1.0230 H     1 <1>   0.0800 
 35 H       10.5100    -0.4560     0.0740 H     1 <1>   0.0800 
 36 H        9.8430    -0.1980     1.6870 H     1 <1>   0.0800 
 37 H       10.2500     2.0830     1.5180 H     1 <1>   0.0800 
 38 H       11.0970     1.7550     0.0210 H     1 <1>   0.0800 
@<TRIPOS>BOND
  1   1   2  2   
  2   1   3  2   
  3   1   4  am  
  4   1   5  1   
  5   4   6  1   
  6   4   7  1   
  7   5   8  ar  
  8   5   9  ar  
  9   6  21  1   
 10   6  22  1   
 11   6  23  1   
 12   7  24  1   
 13   7  25  1   
 14   7  26  1   
 15   8  10  ar  
 16   8  27  1   
 17   9  11  ar  
 18   9  28  1   
 19  10  12  ar  
 20  10  29  1   
 21  11  12  ar  
 22  11  30  1   
 23  12  13  1   
 24  13  14  am  
 25  13  31  1   
 26  14  15  2   
 27  14  16  1   
 28  16  17  1   
 29  16  18  1   
 30  16  32  1   
 31  17  19  1   
 32  18  20  1   
 33  18  33  1   
 34  18  34  1   
 35  19  20  1   
 36  19  35  1   
 37  19  36  1   
 38  20  37  1   
 39  20  38  1   
@<TRIPOS>SUBSTRUCTURE
  1 ****  12 GROUP 4 **** **** 0

# MOE 2024.06 (io_trps.svl 2023.06)
