@<TRIPOS>MOLECULE
NONAME
37 37 1 0 0 
SMALL
USER_CHARGES


@<TRIPOS>ATOM
  1 O       -1.0190     0.7990    -1.8050 O.2   1 <1>  -0.5700 
  2 C       -1.6190     1.2240    -0.8470 C.2   1 <1>   0.4950 
  3 C       -1.4770     2.5400    -0.2830 C.2   1 <1>   0.0290 
  4 C       -2.6000     0.2370    -0.2370 C.3   1 <1>  -0.0990 
  5 C       -2.6640     3.0550     0.3530 C.2   1 <1>   0.4950 
  6 C       -0.2960     3.2780    -0.3080 C.2   1 <1>  -0.0380 
  7 C       -3.9610     0.8800     0.0440 C.3   1 <1>   0.0000 
  8 O       -2.9150     4.2300     0.5180 O.2   1 <1>  -0.5700 
  9 C       -3.7190     2.1150     0.9190 C.3   1 <1>  -0.0990 
 10 N       -0.2140     4.5110     0.2640 N.pl3 1 <1>  -0.8690 
 11 C        1.0070     2.7610    -0.9350 C.3   1 <1>  -0.0220 
 12 C       -4.6550     1.2790    -1.2710 C.3   1 <1>  -0.2400 
 13 C       -4.8620    -0.1160     0.7890 C.3   1 <1>  -0.2400 
 14 C        0.9380     5.4320     0.4400 C.3   1 <1>   0.1290 
 15 C        1.7620     1.8510     0.0440 C.3   1 <1>  -0.1600 
 16 C        3.0860     1.3600    -0.5510 C.3   1 <1>  -0.2400 
 17 H       -2.7260    -0.5980    -0.9050 H     1 <1>   0.0800 
 18 H       -2.1690    -0.1400     0.6730 H     1 <1>   0.0800 
 19 H       -3.3920     1.8150     1.8980 H     1 <1>   0.0800 
 20 H       -4.6420     2.6540     1.0420 H     1 <1>   0.0800 
 21 H       -1.1080     4.9140     0.6110 H     1 <1>   0.4000 
 22 H        0.8200     2.2390    -1.8520 H     1 <1>   0.0800 
 23 H        1.6370     3.5810    -1.2200 H     1 <1>   0.0800 
 24 H       -4.8100     0.4140    -1.8930 H     1 <1>   0.0800 
 25 H       -4.0730     1.9900    -1.8320 H     1 <1>   0.0800 
 26 H       -5.6150     1.7230    -1.0710 H     1 <1>   0.0800 
 27 H       -4.4120    -0.4240     1.7160 H     1 <1>   0.0800 
 28 H       -5.0320    -0.9930     0.1890 H     1 <1>   0.0800 
 29 H       -5.8160     0.3300     1.0100 H     1 <1>   0.0800 
 30 H        0.7670     6.0640     1.2940 H     1 <1>   0.0800 
 31 H        1.0470     6.0470    -0.4360 H     1 <1>   0.0800 
 32 H        1.8450     4.8770     0.6030 H     1 <1>   0.0800 
 33 H        1.9550     2.3930     0.9540 H     1 <1>   0.0800 
 34 H        1.1480     1.0020     0.2860 H     1 <1>   0.0800 
 35 H        3.7260     2.1920    -0.7840 H     1 <1>   0.0800 
 36 H        2.9050     0.7980    -1.4510 H     1 <1>   0.0800 
 37 H        3.5920     0.7240     0.1530 H     1 <1>   0.0800 
@<TRIPOS>BOND
  1   1   2  2   
  2   2   3  1   
  3   2   4  1   
  4   3   5  1   
  5   3   6  2   
  6   4   7  1   
  7   4  17  1   
  8   4  18  1   
  9   5   8  2   
 10   5   9  1   
 11   6  10  1   
 12   6  11  1   
 13   7   9  1   
 14   7  12  1   
 15   7  13  1   
 16   9  19  1   
 17   9  20  1   
 18  10  14  1   
 19  10  21  1   
 20  11  15  1   
 21  11  22  1   
 22  11  23  1   
 23  12  24  1   
 24  12  25  1   
 25  12  26  1   
 26  13  27  1   
 27  13  28  1   
 28  13  29  1   
 29  14  30  1   
 30  14  31  1   
 31  14  32  1   
 32  15  16  1   
 33  15  33  1   
 34  15  34  1   
 35  16  35  1   
 36  16  36  1   
 37  16  37  1   
@<TRIPOS>SUBSTRUCTURE
  1 ****   3 GROUP 4 **** **** 0

# MOE 2024.06 (io_trps.svl 2023.06)
