@<TRIPOS>MOLECULE
NONAME
32 32 1 0 0 
SMALL
USER_CHARGES


@<TRIPOS>ATOM
  1 S        0.2500     0.7570     1.6010 S.3   1 <1>  -0.3320 
  2 C        1.6840     1.2690     0.6420 C.ar  1 <1>   0.1020 
  3 C       -1.0990     1.9540     1.2110 C.3   1 <1>  -0.0100 
  4 C        1.6260     2.3000    -0.2800 C.ar  1 <1>  -0.1500 
  5 C        2.8690     0.5920     0.8510 C.ar  1 <1>  -0.1500 
  6 C        2.7650     2.6370    -0.9900 C.ar  1 <1>  -0.1500 
  7 C        3.9980     0.9400     0.1320 C.ar  1 <1>  -0.1500 
  8 C        3.9840     1.9710    -0.8150 C.ar  1 <1>   0.0860 
  9 C        5.1280     2.3580    -1.6260 C.2   1 <1>   0.4230 
 10 O        5.0030     3.0790    -2.5880 O.2   1 <1>  -0.5700 
 11 C        6.5440     1.8360    -1.3760 C.3   1 <1>  -0.0990 
 12 C        7.3660     2.6080    -0.3110 C.3   1 <1>  -0.1060 
 13 C        6.7930     2.3040     1.0960 C.2   1 <1>   0.9060 
 14 C        8.8340     2.1280    -0.3930 C.3   1 <1>  -0.2400 
 15 C        7.3680     4.1230    -0.6340 C.3   1 <1>  -0.2400 
 16 O        6.2170     3.1870     1.7400 O.co2 1 <1>  -0.9000 
 17 O        6.8960     1.1490     1.5320 O.co2 1 <1>  -0.9000 
 18 H       -1.9480     1.6960     1.8180 H     1 <1>   0.0800 
 19 H       -1.3340     1.8620     0.1660 H     1 <1>   0.0800 
 20 H       -0.7440     2.9410     1.4510 H     1 <1>   0.0800 
 21 H        0.7200     2.8420    -0.4550 H     1 <1>   0.1500 
 22 H        2.9150    -0.1960     1.5800 H     1 <1>   0.1500 
 23 H        2.7160     3.4420    -1.7020 H     1 <1>   0.1500 
 24 H        4.9030     0.3950     0.3320 H     1 <1>   0.1500 
 25 H        7.0690     1.8910    -2.3130 H     1 <1>   0.0800 
 26 H        6.5060     0.7960    -1.1140 H     1 <1>   0.0800 
 27 H        9.4210     2.6190     0.3630 H     1 <1>   0.0800 
 28 H        9.2600     2.3410    -1.3570 H     1 <1>   0.0800 
 29 H        8.8870     1.0680    -0.2160 H     1 <1>   0.0800 
 30 H        7.9880     4.6470     0.0710 H     1 <1>   0.0800 
 31 H        6.3740     4.5260    -0.5500 H     1 <1>   0.0800 
 32 H        7.7310     4.3060    -1.6290 H     1 <1>   0.0800 
@<TRIPOS>BOND
  1   1   2  1   
  2   1   3  1   
  3   2   4  ar  
  4   2   5  ar  
  5   3  18  1   
  6   3  19  1   
  7   3  20  1   
  8   4   6  ar  
  9   4  21  1   
 10   5   7  ar  
 11   5  22  1   
 12   6   8  ar  
 13   6  23  1   
 14   7   8  ar  
 15   7  24  1   
 16   8   9  1   
 17   9  10  2   
 18   9  11  1   
 19  11  12  1   
 20  11  25  1   
 21  11  26  1   
 22  12  13  1   
 23  12  14  1   
 24  12  15  1   
 25  13  16  ar  
 26  13  17  ar  
 27  14  27  1   
 28  14  28  1   
 29  14  29  1   
 30  15  30  1   
 31  15  31  1   
 32  15  32  1   
@<TRIPOS>SUBSTRUCTURE
  1 ****   8 GROUP 4 **** **** 0

# MOE 2024.06 (io_trps.svl 2023.06)
