@<TRIPOS>MOLECULE
NONAME
22 22 1 0 0 
SMALL
USER_CHARGES


@<TRIPOS>ATOM
  1 I        0.4410    -0.0860     0.3230 I     1 <1>  -0.0280 
  2 C       -1.5310     0.6670     0.1760 C.2   1 <1>   0.0680 
  3 S       -2.7810    -0.5340     0.1460 S.3   1 <1>  -0.0800 
  4 C       -1.9920     1.9310     0.1010 C.2   1 <1>   0.0190 
  5 C       -4.0320     0.7180     0.0240 C.2   1 <1>  -0.0450 
  6 C       -1.1720     3.1080     0.1060 C.1   1 <1>   0.5380 
  7 C       -3.4280     1.9490     0.0140 C.2   1 <1>  -0.1810 
  8 C       -5.4030     0.2680    -0.0410 C.2   1 <1>   0.8050 
  9 N       -0.5370     4.0550     0.1090 N.1   1 <1>  -0.5570 
 10 C       -4.1500     3.2920    -0.0800 C.3   1 <1>  -0.0590 
 11 O       -6.3540     1.0180    -0.1260 O.2   1 <1>  -0.5700 
 12 O       -5.6350    -1.0480    -0.0060 O.3   1 <1>  -0.4300 
 13 C       -6.9410    -1.5760    -0.0650 C.3   1 <1>   0.1200 
 14 C       -6.8370    -3.0970    -0.0020 C.3   1 <1>  -0.2400 
 15 H       -3.8270     3.8260    -0.9560 H     1 <1>   0.0800 
 16 H       -3.9310     3.8910     0.7870 H     1 <1>   0.0800 
 17 H       -5.2150     3.1780    -0.1390 H     1 <1>   0.0800 
 18 H       -7.3980    -1.2580    -0.9870 H     1 <1>   0.0800 
 19 H       -7.5040    -1.1930     0.7700 H     1 <1>   0.0800 
 20 H       -6.2650    -3.4650    -0.8340 H     1 <1>   0.0800 
 21 H       -7.8200    -3.5290    -0.0440 H     1 <1>   0.0800 
 22 H       -6.3700    -3.3990     0.9180 H     1 <1>   0.0800 
@<TRIPOS>BOND
  1   1   2  1   
  2   2   3  1   
  3   2   4  2   
  4   3   5  1   
  5   4   6  1   
  6   4   7  1   
  7   5   7  2   
  8   5   8  1   
  9   6   9  3   
 10   7  10  1   
 11   8  11  2   
 12   8  12  1   
 13  10  15  1   
 14  10  16  1   
 15  10  17  1   
 16  12  13  1   
 17  13  14  1   
 18  13  18  1   
 19  13  19  1   
 20  14  20  1   
 21  14  21  1   
 22  14  22  1   
@<TRIPOS>SUBSTRUCTURE
  1 ****   5 GROUP 4 **** **** 0

# MOE 2024.06 (io_trps.svl 2023.06)
