@<TRIPOS>MOLECULE
NONAME
31 33 1 0 0 
SMALL
USER_CHARGES


@<TRIPOS>ATOM
  1 O       -2.3830    -0.7660     0.6040 O.2   1 <1>  -0.5200 
  2 N       -2.8930     0.1470     1.2700 N.pl3 1 <1>   1.0310 
  3 O       -4.1570    -0.0080     1.6950 O.3   1 <1>  -0.2710 
  4 O       -2.2980     1.1900     1.5760 O.2   1 <1>  -0.5200 
  5 C       -5.2100     0.4620     0.8760 C.3   1 <1>   0.2800 
  6 C       -5.1450     1.9940     0.6960 C.3   1 <1>  -0.1600 
  7 C       -5.2100    -0.2320    -0.5050 C.3   1 <1>  -0.1600 
  8 C       -6.5120     0.0990     1.6140 C.3   1 <1>  -0.1600 
  9 C       -6.3590     2.4900    -0.1290 C.3   1 <1>   0.2400 
 10 C       -6.4260     0.2380    -1.3250 C.3   1 <1>  -0.0800 
 11 C       -7.7360     0.5630     0.8050 C.3   1 <1>  -0.0800 
 12 N       -6.2620     3.9880    -0.3240 N.pl3 1 <1>   0.8000 
 13 C       -6.3530     1.7670    -1.5040 C.3   1 <1>  -0.1600 
 14 C       -7.6610     2.0880     0.6180 C.3   1 <1>  -0.1600 
 15 C       -7.7190    -0.1210    -0.5730 C.3   1 <1>  -0.1600 
 16 O       -7.0420     4.7420     0.2790 O.2   1 <1>  -0.5200 
 17 O       -5.3760     4.4350    -1.0690 O.2   1 <1>  -0.5200 
 18 H       -4.2440     2.2670     0.1750 H     1 <1>   0.0800 
 19 H       -5.1440     2.4720     1.6610 H     1 <1>   0.0800 
 20 H       -5.2520    -1.3010    -0.3800 H     1 <1>   0.0800 
 21 H       -4.3160     0.0070    -1.0540 H     1 <1>   0.0800 
 22 H       -6.5260     0.5650     2.5840 H     1 <1>   0.0800 
 23 H       -6.5650    -0.9670     1.7560 H     1 <1>   0.0800 
 24 H       -6.4220    -0.2430    -2.2900 H     1 <1>   0.0800 
 25 H       -8.6410     0.3030     1.3300 H     1 <1>   0.0800 
 26 H       -7.1930     2.0970    -2.0920 H     1 <1>   0.0800 
 27 H       -5.4560     2.0120    -2.0490 H     1 <1>   0.0800 
 28 H       -8.5200     2.4200     0.0600 H     1 <1>   0.0800 
 29 H       -7.6930     2.5630     1.5850 H     1 <1>   0.0800 
 30 H       -7.7870    -1.1890    -0.4520 H     1 <1>   0.0800 
 31 H       -8.5760     0.1910    -1.1470 H     1 <1>   0.0800 
@<TRIPOS>BOND
  1   1   2  2   
  2   2   3  1   
  3   2   4  2   
  4   3   5  1   
  5   5   6  1   
  6   5   7  1   
  7   5   8  1   
  8   6   9  1   
  9   6  18  1   
 10   6  19  1   
 11   7  10  1   
 12   7  20  1   
 13   7  21  1   
 14   8  11  1   
 15   8  22  1   
 16   8  23  1   
 17   9  12  1   
 18   9  13  1   
 19   9  14  1   
 20  10  13  1   
 21  10  15  1   
 22  10  24  1   
 23  11  14  1   
 24  11  15  1   
 25  11  25  1   
 26  12  16  2   
 27  12  17  2   
 28  13  26  1   
 29  13  27  1   
 30  14  28  1   
 31  14  29  1   
 32  15  30  1   
 33  15  31  1   
@<TRIPOS>SUBSTRUCTURE
  1 ****   6 GROUP 4 **** **** 0

# MOE 2024.06 (io_trps.svl 2023.06)
