@<TRIPOS>MOLECULE
NONAME
34 35 1 0 0 
SMALL
USER_CHARGES


@<TRIPOS>ATOM
  1 F       -1.4470     0.9160    -1.3900 F     1 <1>  -0.1900 
  2 C       -0.8560     1.9210    -0.7990 C.ar  1 <1>   0.1900 
  3 C       -1.4410     2.4980     0.3180 C.ar  1 <1>  -0.1440 
  4 C        0.3500     2.3550    -1.3240 C.ar  1 <1>  -0.1500 
  5 C       -0.7400     3.5420     0.9030 C.ar  1 <1>   0.1900 
  6 C       -2.7710     2.0030     0.8690 C.3   1 <1>   0.2540 
  7 C        1.0180     3.4070    -0.7140 C.ar  1 <1>  -0.1500 
  8 F       -1.2250     4.1270     1.9670 F     1 <1>  -0.1900 
  9 C        0.4700     4.0050     0.4100 C.ar  1 <1>  -0.1500 
 10 N       -3.8980     2.5300     0.0820 N.3   1 <1>  -0.8100 
 11 C       -5.1480     1.8230     0.4210 C.3   1 <1>   0.1100 
 12 C       -4.0670     3.9910     0.2650 C.3   1 <1>   0.1100 
 13 C       -6.3320     2.3220    -0.4260 C.3   1 <1>   0.1400 
 14 C       -5.2340     4.5440    -0.5710 C.3   1 <1>   0.1400 
 15 N       -6.4970     3.7990    -0.2830 N.am  1 <1>  -0.6600 
 16 C       -7.6390     4.4490     0.0990 C.2   1 <1>   0.5690 
 17 O       -7.6860     5.6480     0.2340 O.2   1 <1>  -0.5700 
 18 C       -8.9070     3.6740     0.3720 C.3   1 <1>  -0.1790 
 19 H        0.7570     1.8730    -2.1950 H     1 <1>   0.1500 
 20 H       -2.8830     2.2820     1.9030 H     1 <1>   0.0800 
 21 H       -2.7770     0.9280     0.8190 H     1 <1>   0.0800 
 22 H        1.9560     3.7550    -1.1110 H     1 <1>   0.1500 
 23 H        0.9710     4.8200     0.9010 H     1 <1>   0.1500 
 24 H       -5.3790     1.9630     1.4640 H     1 <1>   0.0800 
 25 H       -5.0190     0.7700     0.2420 H     1 <1>   0.0800 
 26 H       -3.1700     4.5000    -0.0390 H     1 <1>   0.0800 
 27 H       -4.2430     4.2160     1.3030 H     1 <1>   0.0800 
 28 H       -7.2220     1.8010    -0.1250 H     1 <1>   0.0800 
 29 H       -6.1440     2.0880    -1.4590 H     1 <1>   0.0800 
 30 H       -4.9970     4.4440    -1.6150 H     1 <1>   0.0800 
 31 H       -5.3540     5.5910    -0.3580 H     1 <1>   0.0800 
 32 H       -8.7590     3.0160     1.2070 H     1 <1>   0.0800 
 33 H       -9.1840     3.1090    -0.4980 H     1 <1>   0.0800 
 34 H       -9.7040     4.3550     0.6070 H     1 <1>   0.0800 
@<TRIPOS>BOND
  1   1   2  1   
  2   2   3  ar  
  3   2   4  ar  
  4   3   5  ar  
  5   3   6  1   
  6   4   7  ar  
  7   4  19  1   
  8   5   8  1   
  9   5   9  ar  
 10   6  10  1   
 11   6  20  1   
 12   6  21  1   
 13   7   9  ar  
 14   7  22  1   
 15   9  23  1   
 16  10  11  1   
 17  10  12  1   
 18  11  13  1   
 19  11  24  1   
 20  11  25  1   
 21  12  14  1   
 22  12  26  1   
 23  12  27  1   
 24  13  15  1   
 25  13  28  1   
 26  13  29  1   
 27  14  15  1   
 28  14  30  1   
 29  14  31  1   
 30  15  16  am  
 31  16  17  2   
 32  16  18  1   
 33  18  32  1   
 34  18  33  1   
 35  18  34  1   
@<TRIPOS>SUBSTRUCTURE
  1 ****  10 GROUP 4 **** **** 0

# MOE 2024.06 (io_trps.svl 2023.06)
