@<TRIPOS>MOLECULE
NONAME
34 36 1 0 0 
SMALL
USER_CHARGES


@<TRIPOS>ATOM
  1 S       -0.0140     0.4950     0.4620 S.o2  1 <1>   1.3330 
  2 O        0.5110     1.8190     0.7000 O.2   1 <1>  -0.6500 
  3 O       -1.0840     0.3080    -0.4920 O.2   1 <1>  -0.6500 
  4 N        1.3000    -0.5490    -0.0260 N.am  1 <1>  -0.5140 
  5 C       -0.5010    -0.2130     2.0210 C.3   1 <1>  -0.1350 
  6 N        2.6150    -0.5170     0.3550 N.2   1 <1>  -0.4300 
  7 C        1.0090    -1.6340    -0.9590 C.3   1 <1>   0.4560 
  8 C        3.2710    -1.3890    -0.3080 C.2   1 <1>   0.4740 
  9 C        0.1310    -2.6910    -0.2910 C.2   1 <1>  -0.1400 
 10 C        2.4060    -2.1460    -1.2950 C.3   1 <1>  -0.0990 
 11 C        4.6710    -1.6590    -0.1850 C.2   1 <1>  -0.0450 
 12 S        0.7960    -3.5620     1.0910 S.3   1 <1>  -0.0800 
 13 C       -1.1270    -3.1120    -0.5430 C.2   1 <1>  -0.1810 
 14 S        5.4270    -2.8980    -1.1980 S.3   1 <1>  -0.0800 
 15 C        5.6280    -1.1170     0.6140 C.2   1 <1>  -0.1500 
 16 C       -0.6770    -4.4910     1.2800 C.2   1 <1>  -0.1100 
 17 C       -1.5800    -4.1360     0.3500 C.2   1 <1>  -0.1500 
 18 C       -2.0630    -2.6070    -1.6270 C.3   1 <1>  -0.0590 
 19 C        7.0060    -2.6220    -0.4870 C.2   1 <1>  -0.1100 
 20 C        6.9360    -1.6560     0.4460 C.2   1 <1>  -0.1500 
 21 H       -1.2810     0.3750     2.4620 H     1 <1>   0.0800 
 22 H        0.3370    -0.2350     2.6900 H     1 <1>   0.0800 
 23 H       -0.8600    -1.2130     1.8810 H     1 <1>   0.0800 
 24 H        0.5340    -1.2350    -1.8370 H     1 <1>   0.0800 
 25 H        2.6690    -1.8760    -2.2990 H     1 <1>   0.0800 
 26 H        2.4880    -3.2100    -1.1720 H     1 <1>   0.0800 
 27 H        5.4390    -0.3350     1.3300 H     1 <1>   0.1500 
 28 H       -0.7090    -5.2130     2.0760 H     1 <1>   0.1500 
 29 H       -2.5650    -4.5590     0.2520 H     1 <1>   0.1500 
 30 H       -1.6000    -1.8410    -2.2210 H     1 <1>   0.0800 
 31 H       -2.9470    -2.1910    -1.1780 H     1 <1>   0.0800 
 32 H       -2.3500    -3.4170    -2.2730 H     1 <1>   0.0800 
 33 H        7.8270    -3.2190    -0.8460 H     1 <1>   0.1500 
 34 H        7.7640    -1.2950     1.0320 H     1 <1>   0.1500 
@<TRIPOS>BOND
  1   1   2  2   
  2   1   3  2   
  3   1   4  am  
  4   1   5  1   
  5   4   6  1   
  6   4   7  1   
  7   5  21  1   
  8   5  22  1   
  9   5  23  1   
 10   6   8  2   
 11   7   9  1   
 12   7  10  1   
 13   7  24  1   
 14   8  10  1   
 15   8  11  1   
 16   9  12  1   
 17   9  13  2   
 18  10  25  1   
 19  10  26  1   
 20  11  14  1   
 21  11  15  2   
 22  12  16  1   
 23  13  17  1   
 24  13  18  1   
 25  14  19  1   
 26  15  20  1   
 27  15  27  1   
 28  16  17  2   
 29  16  28  1   
 30  17  29  1   
 31  18  30  1   
 32  18  31  1   
 33  18  32  1   
 34  19  20  2   
 35  19  33  1   
 36  20  34  1   
@<TRIPOS>SUBSTRUCTURE
  1 ****   7 GROUP 4 **** **** 0

# MOE 2024.06 (io_trps.svl 2023.06)
