@<TRIPOS>MOLECULE
NONAME
42 42 1 0 0 
SMALL
USER_CHARGES


@<TRIPOS>ATOM
  1 O        0.6100    -0.2690     0.2850 O.2   1 <1>  -0.5700 
  2 C        1.0700    -1.2620    -0.2470 C.2   1 <1>   0.6900 
  3 N        2.3750    -1.3010    -0.6520 N.am  1 <1>  -0.6600 
  4 N        0.2880    -2.3470    -0.4590 N.am  1 <1>  -0.7300 
  5 C        3.1850    -0.0470    -0.7250 C.3   1 <1>   0.1400 
  6 C        3.2080    -2.5380    -0.5610 C.3   1 <1>   0.1400 
  7 C       -1.1410    -2.4320    -0.1000 C.3   1 <1>   0.1400 
  8 C        4.1510     0.0420     0.4650 C.3   1 <1>   0.1400 
  9 C        4.1910    -2.4490     0.6200 C.3   1 <1>   0.1400 
 10 C       -1.4820    -3.8800     0.2520 C.3   1 <1>  -0.1600 
 11 N        4.9930    -1.1910     0.5510 N.am  1 <1>  -0.6600 
 12 C       -2.9580    -4.0250     0.6410 C.3   1 <1>  -0.2400 
 13 C        6.2960    -1.1710     0.1410 C.2   1 <1>   0.6900 
 14 O        6.7310    -0.2420    -0.5140 O.2   1 <1>  -0.5700 
 15 N        7.1060    -2.1990     0.4880 N.am  1 <1>  -0.7300 
 16 C        8.5360    -2.2940     0.1390 C.3   1 <1>   0.1400 
 17 C        8.9140    -3.7650    -0.0280 C.3   1 <1>  -0.1600 
 18 C       10.3930    -3.9220    -0.4000 C.3   1 <1>  -0.2400 
 19 H        0.6150    -3.0090    -1.1570 H     1 <1>   0.3700 
 20 H        2.5420     0.8170    -0.7310 H     1 <1>   0.0800 
 21 H        3.7510    -0.0400    -1.6400 H     1 <1>   0.0800 
 22 H        3.7640    -2.6540    -1.4760 H     1 <1>   0.0800 
 23 H        2.5890    -3.4070    -0.4350 H     1 <1>   0.0800 
 24 H       -1.7360    -2.0970    -0.9330 H     1 <1>   0.0800 
 25 H       -1.3410    -1.7900     0.7430 H     1 <1>   0.0800 
 26 H        3.5830     0.1500     1.3730 H     1 <1>   0.0800 
 27 H        4.7710     0.9150     0.3600 H     1 <1>   0.0800 
 28 H        4.8330    -3.3120     0.6040 H     1 <1>   0.0800 
 29 H        3.6370    -2.4630     1.5430 H     1 <1>   0.0800 
 30 H       -0.8690    -4.1960     1.0780 H     1 <1>   0.0800 
 31 H       -1.2790    -4.5140    -0.5930 H     1 <1>   0.0800 
 32 H       -3.1820    -3.4120     1.4970 H     1 <1>   0.0800 
 33 H       -3.1740    -5.0490     0.8890 H     1 <1>   0.0800 
 34 H       -3.5940    -3.7280    -0.1740 H     1 <1>   0.0800 
 35 H        6.7950    -2.7750     1.2650 H     1 <1>   0.3700 
 36 H        9.1220    -1.8420     0.9220 H     1 <1>   0.0800 
 37 H        8.7220    -1.7580    -0.7780 H     1 <1>   0.0800 
 38 H        8.3090    -4.1980    -0.8070 H     1 <1>   0.0800 
 39 H        8.7250    -4.2930     0.8900 H     1 <1>   0.0800 
 40 H       10.6020    -3.4160    -1.3270 H     1 <1>   0.0800 
 41 H       10.6350    -4.9630    -0.5160 H     1 <1>   0.0800 
 42 H       11.0210    -3.5080     0.3700 H     1 <1>   0.0800 
@<TRIPOS>BOND
  1   1   2  2   
  2   2   3  am  
  3   2   4  am  
  4   3   5  1   
  5   3   6  1   
  6   4   7  1   
  7   4  19  1   
  8   5   8  1   
  9   5  20  1   
 10   5  21  1   
 11   6   9  1   
 12   6  22  1   
 13   6  23  1   
 14   7  10  1   
 15   7  24  1   
 16   7  25  1   
 17   8  11  1   
 18   8  26  1   
 19   8  27  1   
 20   9  11  1   
 21   9  28  1   
 22   9  29  1   
 23  10  12  1   
 24  10  30  1   
 25  10  31  1   
 26  11  13  am  
 27  12  32  1   
 28  12  33  1   
 29  12  34  1   
 30  13  14  2   
 31  13  15  am  
 32  15  16  1   
 33  15  35  1   
 34  16  17  1   
 35  16  36  1   
 36  16  37  1   
 37  17  18  1   
 38  17  38  1   
 39  17  39  1   
 40  18  40  1   
 41  18  41  1   
 42  18  42  1   
@<TRIPOS>SUBSTRUCTURE
  1 ****   6 GROUP 4 **** **** 0

# MOE 2024.06 (io_trps.svl 2023.06)
