@<TRIPOS>MOLECULE
NONAME
49 51 1 0 0 
SMALL
USER_CHARGES


@<TRIPOS>ATOM
  1 O        0.4120    -0.1960     1.1580 O.3   1 <1>  -0.3630 
  2 C        0.3820    -1.5230     0.8480 C.ar  1 <1>   0.0830 
  3 C        0.9080     0.7230     0.2080 C.3   1 <1>   0.0400 
  4 C        1.5040    -2.2510     0.3540 C.ar  1 <1>   0.3100 
  5 C       -0.8220    -2.1370     1.0560 C.ar  1 <1>  -0.1500 
  6 N        2.6970    -1.6050     0.2380 N.ar  1 <1>  -0.6200 
  7 C        1.3380    -3.6260     0.0200 C.ar  1 <1>   0.0000 
  8 C       -0.9840    -3.4840     0.7640 C.ar  1 <1>  -0.1500 
  9 C        3.7250    -2.2530    -0.2190 C.ar  1 <1>   0.4100 
 10 C        0.0620    -4.2230     0.2560 C.ar  1 <1>   0.0830 
 11 C        2.4760    -4.2920    -0.5230 C.ar  1 <1>  -0.1440 
 12 N        4.9350    -1.5860    -0.3080 N.pl3 1 <1>  -0.8380 
 13 C        3.6360    -3.5910    -0.6280 C.ar  1 <1>  -0.1500 
 14 O       -0.1060    -5.5440    -0.0230 O.3   1 <1>  -0.3630 
 15 C        2.4840    -5.7390    -1.0070 C.3   1 <1>  -0.0970 
 16 C        4.9370    -0.0920    -0.3400 C.3   1 <1>   0.2090 
 17 C        6.1850    -2.2530     0.1660 C.3   1 <1>   0.2090 
 18 C       -1.3080    -6.2420     0.2220 C.3   1 <1>   0.0400 
 19 C        6.3410     0.4370    -0.6700 C.3   1 <1>  -0.0800 
 20 C        6.9920    -1.3250     1.0880 C.3   1 <1>  -0.0800 
 21 C        7.3800    -0.0090     0.3810 C.3   1 <1>  -0.1600 
 22 C        6.3430     1.9640    -0.8220 C.3   1 <1>  -0.2400 
 23 C        8.2380    -2.0300     1.6410 C.3   1 <1>  -0.2400 
 24 H        0.4270     1.6700     0.3740 H     1 <1>   0.0800 
 25 H        0.6910     0.3640    -0.7820 H     1 <1>   0.0800 
 26 H        1.9690     0.8260     0.3480 H     1 <1>   0.0800 
 27 H       -1.6490    -1.5720     1.4470 H     1 <1>   0.1500 
 28 H       -1.9520    -3.9080     0.9510 H     1 <1>   0.1500 
 29 H        4.5220    -4.0350    -1.0360 H     1 <1>   0.1500 
 30 H        1.7360    -5.8770    -1.7660 H     1 <1>   0.0800 
 31 H        2.2860    -6.4030    -0.1860 H     1 <1>   0.0800 
 32 H        3.4360    -6.0060    -1.4280 H     1 <1>   0.0800 
 33 H        4.6160     0.2830     0.6170 H     1 <1>   0.0800 
 34 H        4.2350     0.2400    -1.0860 H     1 <1>   0.0800 
 35 H        6.7800    -2.5250    -0.6880 H     1 <1>   0.0800 
 36 H        5.9330    -3.1510     0.7050 H     1 <1>   0.0800 
 37 H       -1.1630    -7.2670    -0.0670 H     1 <1>   0.0800 
 38 H       -2.0940    -5.8050    -0.3680 H     1 <1>   0.0800 
 39 H       -1.5350    -6.1880     1.2720 H     1 <1>   0.0800 
 40 H        6.6160     0.0130    -1.6210 H     1 <1>   0.0800 
 41 H        6.3540    -1.0870     1.9230 H     1 <1>   0.0800 
 42 H        7.4960     0.7500     1.1360 H     1 <1>   0.0800 
 43 H        8.3290    -0.1180    -0.1140 H     1 <1>   0.0800 
 44 H        6.0400     2.4370     0.0960 H     1 <1>   0.0800 
 45 H        5.6630     2.2610    -1.6010 H     1 <1>   0.0800 
 46 H        7.3270     2.3110    -1.0810 H     1 <1>   0.0800 
 47 H        8.8990    -2.3170     0.8420 H     1 <1>   0.0800 
 48 H        7.9550    -2.9120     2.1880 H     1 <1>   0.0800 
 49 H        8.7690    -1.3750     2.3090 H     1 <1>   0.0800 
@<TRIPOS>BOND
  1   1   2  1   
  2   1   3  1   
  3   2   4  ar  
  4   2   5  ar  
  5   3  24  1   
  6   3  25  1   
  7   3  26  1   
  8   4   6  ar  
  9   4   7  ar  
 10   5   8  ar  
 11   5  27  1   
 12   6   9  ar  
 13   7  10  ar  
 14   7  11  ar  
 15   8  10  ar  
 16   8  28  1   
 17   9  12  1   
 18   9  13  ar  
 19  10  14  1   
 20  11  13  ar  
 21  11  15  1   
 22  12  16  1   
 23  12  17  1   
 24  13  29  1   
 25  14  18  1   
 26  15  30  1   
 27  15  31  1   
 28  15  32  1   
 29  16  19  1   
 30  16  33  1   
 31  16  34  1   
 32  17  20  1   
 33  17  35  1   
 34  17  36  1   
 35  18  37  1   
 36  18  38  1   
 37  18  39  1   
 38  19  21  1   
 39  19  22  1   
 40  19  40  1   
 41  20  21  1   
 42  20  23  1   
 43  20  41  1   
 44  21  42  1   
 45  21  43  1   
 46  22  44  1   
 47  22  45  1   
 48  22  46  1   
 49  23  47  1   
 50  23  48  1   
 51  23  49  1   
@<TRIPOS>SUBSTRUCTURE
  1 ****   6 GROUP 4 **** **** 0

# MOE 2024.06 (io_trps.svl 2023.06)
