@<TRIPOS>MOLECULE
NONAME
30 30 1 0 0 
SMALL
USER_CHARGES


@<TRIPOS>ATOM
  1 O        0.3460     0.1870     0.1200 O.2   1 <1>  -0.5700 
  2 C        0.8980     1.2660     0.0440 C.2   1 <1>   0.6340 
  3 O        0.1460     2.3610    -0.1200 O.3   1 <1>  -0.4300 
  4 C        2.3370     1.4310     0.1220 C.ar  1 <1>   0.0860 
  5 C       -1.2640     2.2900    -0.2080 C.3   1 <1>   0.0400 
  6 C        3.1780     0.3280     0.2950 C.ar  1 <1>  -0.1500 
  7 C        2.9500     2.6850     0.0320 C.ar  1 <1>  -0.1500 
  8 C        4.5520     0.4660     0.3690 C.ar  1 <1>  -0.1500 
  9 C        4.3220     2.8330     0.1060 C.ar  1 <1>  -0.1500 
 10 C        5.1370     1.7180     0.2690 C.ar  1 <1>   0.0830 
 11 O        6.4890     1.7800     0.3540 O.3   1 <1>  -0.2330 
 12 C        7.3190     2.6820    -0.1700 C.2   1 <1>   0.6590 
 13 O        6.9590     3.5800    -0.8890 O.2   1 <1>  -0.5700 
 14 C        8.7940     2.4810     0.1990 C.3   1 <1>  -0.0190 
 15 C        9.6110     3.7850     0.1460 C.3   1 <1>  -0.2400 
 16 C        9.4510     1.4210    -0.7010 C.3   1 <1>  -0.2400 
 17 H       -1.6480     3.2860    -0.3360 H     1 <1>   0.0800 
 18 H       -1.6480     1.8580     0.7000 H     1 <1>   0.0800 
 19 H       -1.5290     1.6770    -1.0520 H     1 <1>   0.0800 
 20 H        2.7420    -0.6540     0.3720 H     1 <1>   0.1500 
 21 H        2.3410     3.5630    -0.0990 H     1 <1>   0.1500 
 22 H        5.1750    -0.4000     0.5030 H     1 <1>   0.1500 
 23 H        4.7450     3.8190     0.0400 H     1 <1>   0.1500 
 24 H        8.8210     2.1220     1.2130 H     1 <1>   0.0800 
 25 H        9.6300     4.1760    -0.8570 H     1 <1>   0.0800 
 26 H       10.6220     3.6120     0.4680 H     1 <1>   0.0800 
 27 H        9.1690     4.5260     0.7890 H     1 <1>   0.0800 
 28 H        9.4430     1.7450    -1.7280 H     1 <1>   0.0800 
 29 H        8.9160     0.4890    -0.6330 H     1 <1>   0.0800 
 30 H       10.4700     1.2500    -0.4010 H     1 <1>   0.0800 
@<TRIPOS>BOND
  1   1   2  2   
  2   2   3  1   
  3   2   4  1   
  4   3   5  1   
  5   4   6  ar  
  6   4   7  ar  
  7   5  17  1   
  8   5  18  1   
  9   5  19  1   
 10   6   8  ar  
 11   6  20  1   
 12   7   9  ar  
 13   7  21  1   
 14   8  10  ar  
 15   8  22  1   
 16   9  10  ar  
 17   9  23  1   
 18  10  11  1   
 19  11  12  1   
 20  12  13  2   
 21  12  14  1   
 22  14  15  1   
 23  14  16  1   
 24  14  24  1   
 25  15  25  1   
 26  15  26  1   
 27  15  27  1   
 28  16  28  1   
 29  16  29  1   
 30  16  30  1   
@<TRIPOS>SUBSTRUCTURE
  1 ****  10 GROUP 4 **** **** 0

# MOE 2024.06 (io_trps.svl 2023.06)
