@<TRIPOS>MOLECULE
NONAME
40 42 1 0 0 
SMALL
USER_CHARGES


@<TRIPOS>ATOM
  1 BR      -0.9550     0.9010    -1.4310 Br    1 <1>  -0.1110 
  2 C       -2.6230     0.0360    -1.0060 C.ar  1 <1>   0.1110 
  3 C       -3.7310     0.2580    -1.8030 C.ar  1 <1>   0.1600 
  4 C       -2.6890    -0.7950     0.0890 C.ar  1 <1>  -0.1500 
  5 N       -4.9160    -0.2950    -1.5840 N.ar  1 <1>  -0.6200 
  6 C       -3.9200    -1.3720     0.3200 C.ar  1 <1>  -0.1500 
  7 C       -4.9960    -1.0990    -0.5300 C.ar  1 <1>   0.4270 
  8 N       -6.2590    -1.6260    -0.3780 N.am  1 <1>  -0.5470 
  9 C       -6.8450    -2.4030     0.5790 C.2   1 <1>   0.5690 
 10 O       -6.2400    -2.8580     1.5190 O.2   1 <1>  -0.5700 
 11 C       -8.3310    -2.7540     0.4110 C.3   1 <1>   0.1710 
 12 N       -9.3090    -1.6760     0.7400 N.3   1 <1>  -0.8100 
 13 C      -10.6850    -2.2350     0.7780 C.3   1 <1>   0.1100 
 14 C       -9.2500    -0.5120    -0.1830 C.3   1 <1>   0.1100 
 15 C      -11.7540    -1.1780     1.1170 C.3   1 <1>   0.2090 
 16 C      -10.3020     0.5620     0.1520 C.3   1 <1>   0.2090 
 17 N      -11.6680    -0.0370     0.1590 N.pl3 1 <1>  -0.8380 
 18 C      -12.5580     0.1160    -0.8820 C.ar  1 <1>   0.7200 
 19 N      -13.7770    -0.3970    -0.7170 N.ar  1 <1>  -0.6200 
 20 N      -12.1240     0.7560    -1.9690 N.ar  1 <1>  -0.6200 
 21 C      -14.6190    -0.2360    -1.7080 C.ar  1 <1>   0.1600 
 22 C      -12.9870     0.9010    -2.9440 C.ar  1 <1>   0.1600 
 23 C      -14.2690     0.4170    -2.8630 C.ar  1 <1>  -0.1500 
 24 H       -3.6350     0.9160    -2.6500 H     1 <1>   0.1500 
 25 H       -1.8350    -0.9770     0.7170 H     1 <1>   0.1500 
 26 H       -4.0410    -2.0310     1.1580 H     1 <1>   0.1500 
 27 H       -6.8710    -1.2990    -1.1190 H     1 <1>   0.3700 
 28 H       -8.5210    -3.5920     1.0590 H     1 <1>   0.0800 
 29 H       -8.4930    -3.0870    -0.5980 H     1 <1>   0.0800 
 30 H      -10.7310    -3.0140     1.5190 H     1 <1>   0.0800 
 31 H      -10.9290    -2.6670    -0.1780 H     1 <1>   0.0800 
 32 H       -9.4070    -0.8370    -1.1980 H     1 <1>   0.0800 
 33 H       -8.2840    -0.0470    -0.1170 H     1 <1>   0.0800 
 34 H      -11.5890    -0.8140     2.1150 H     1 <1>   0.0800 
 35 H      -12.7250    -1.6370     1.0950 H     1 <1>   0.0800 
 36 H      -10.2340     1.3710    -0.5530 H     1 <1>   0.0800 
 37 H      -10.0910     0.9670     1.1260 H     1 <1>   0.0800 
 38 H      -15.6120    -0.6350    -1.5950 H     1 <1>   0.1500 
 39 H      -12.6640     1.4200    -3.8310 H     1 <1>   0.1500 
 40 H      -14.9680     0.5430    -3.6680 H     1 <1>   0.1500 
@<TRIPOS>BOND
  1   1   2  1   
  2   2   3  ar  
  3   2   4  ar  
  4   3   5  ar  
  5   3  24  1   
  6   4   6  ar  
  7   4  25  1   
  8   5   7  ar  
  9   6   7  ar  
 10   6  26  1   
 11   7   8  1   
 12   8   9  am  
 13   8  27  1   
 14   9  10  2   
 15   9  11  1   
 16  11  12  1   
 17  11  28  1   
 18  11  29  1   
 19  12  13  1   
 20  12  14  1   
 21  13  15  1   
 22  13  30  1   
 23  13  31  1   
 24  14  16  1   
 25  14  32  1   
 26  14  33  1   
 27  15  17  1   
 28  15  34  1   
 29  15  35  1   
 30  16  17  1   
 31  16  36  1   
 32  16  37  1   
 33  17  18  1   
 34  18  19  ar  
 35  18  20  ar  
 36  19  21  ar  
 37  20  22  ar  
 38  21  23  ar  
 39  21  38  1   
 40  22  23  ar  
 41  22  39  1   
 42  23  40  1   
@<TRIPOS>SUBSTRUCTURE
  1 ****  14 GROUP 4 **** **** 0

# MOE 2024.06 (io_trps.svl 2023.06)
