@<TRIPOS>MOLECULE
NONAME
25 26 1 0 0 
SMALL
USER_CHARGES


@<TRIPOS>ATOM
  1 O        0.2550     0.2500     0.6240 O.2   1 <1>  -0.5700 
  2 C        1.3440     0.4870     0.1450 C.2   1 <1>   0.5690 
  3 N        2.3100    -0.3910    -0.2450 N.am  1 <1>  -0.1680 
  4 C        1.7990     1.8890    -0.1000 C.3   1 <1>  -0.0990 
  5 N        3.4880     0.2820    -0.8180 N.3   1 <1>  -0.6390 
  6 C        2.3320    -1.7920    -0.0750 C.ar  1 <1>   0.1170 
  7 C        3.2680     1.7190    -0.5070 C.3   1 <1>   0.1900 
  8 C        3.5340    -2.4610     0.1510 C.ar  1 <1>  -0.1500 
  9 C        1.1660    -2.5540    -0.1360 C.ar  1 <1>  -0.1500 
 10 C        4.2270     2.1040     0.6190 C.3   1 <1>  -0.2400 
 11 C        3.5730    -3.8340     0.3090 C.ar  1 <1>  -0.1500 
 12 C        1.1990    -3.9270     0.0220 C.ar  1 <1>  -0.1500 
 13 C        2.4030    -4.5710     0.2450 C.ar  1 <1>  -0.1500 
 14 H        1.6820     2.4900     0.7830 H     1 <1>   0.0800 
 15 H        1.2280     2.3150    -0.9030 H     1 <1>   0.0800 
 16 H        3.3640     0.2010    -1.8360 H     1 <1>   0.3600 
 17 H        3.4830     2.3150    -1.3790 H     1 <1>   0.0800 
 18 H        4.4470    -1.8960     0.2080 H     1 <1>   0.1500 
 19 H        0.2220    -2.0700    -0.3100 H     1 <1>   0.1500 
 20 H        4.0360     1.5100     1.4960 H     1 <1>   0.0800 
 21 H        4.1060     3.1420     0.8720 H     1 <1>   0.0800 
 22 H        5.2430     1.9470     0.3050 H     1 <1>   0.0800 
 23 H        4.5120    -4.3300     0.4830 H     1 <1>   0.1500 
 24 H        0.2860    -4.4950    -0.0270 H     1 <1>   0.1500 
 25 H        2.4300    -5.6400     0.3680 H     1 <1>   0.1500 
@<TRIPOS>BOND
  1   1   2  2   
  2   2   3  am  
  3   2   4  1   
  4   3   5  1   
  5   3   6  1   
  6   4   7  1   
  7   4  14  1   
  8   4  15  1   
  9   5   7  1   
 10   5  16  1   
 11   6   8  ar  
 12   6   9  ar  
 13   7  10  1   
 14   7  17  1   
 15   8  11  ar  
 16   8  18  1   
 17   9  12  ar  
 18   9  19  1   
 19  10  20  1   
 20  10  21  1   
 21  10  22  1   
 22  11  13  ar  
 23  11  23  1   
 24  12  13  ar  
 25  12  24  1   
 26  13  25  1   
@<TRIPOS>SUBSTRUCTURE
  1 ****   3 GROUP 4 **** **** 0

# MOE 2024.06 (io_trps.svl 2023.06)
