@<TRIPOS>MOLECULE
NONAME
32 33 1 0 0 
SMALL
USER_CHARGES


@<TRIPOS>ATOM
  1 O       -5.5120     1.8070     1.0500 O.2   1 <1>  -0.5700 
  2 C       -5.3600     0.6290     0.7480 C.2   1 <1>   0.7670 
  3 N       -6.3900    -0.2320     0.9370 N.2   1 <1>  -0.6610 
  4 C       -4.1160     0.1980     0.2120 C.2   1 <1>  -0.1360 
  5 C       -6.1860    -1.4600     0.6000 C.2   1 <1>   0.5500 
  6 C       -3.9440    -1.0980    -0.1190 C.2   1 <1>  -0.0380 
  7 N       -5.0140    -1.9220     0.0900 N.pl3 1 <1>  -0.5500 
  8 N       -7.1970    -2.3230     0.7760 N.pl3 1 <1>  -0.8190 
  9 C       -2.6780    -1.6970    -0.6940 C.3   1 <1>  -0.1020 
 10 C       -7.3650    -3.6980     0.2910 C.3   1 <1>   0.2890 
 11 C       -8.7920    -3.8650    -0.2360 C.3   1 <1>  -0.1600 
 12 C       -7.0810    -4.6690     1.4410 C.3   1 <1>  -0.1600 
 13 C       -9.0590    -5.3160    -0.6660 C.3   1 <1>  -0.1600 
 14 C       -7.3420    -6.1230     1.0200 C.3   1 <1>  -0.1600 
 15 C       -8.7680    -6.2960     0.4800 C.3   1 <1>  -0.1600 
 16 H       -3.3580     0.9460     0.0960 H     1 <1>   0.1500 
 17 H       -4.9630    -2.9200    -0.0980 H     1 <1>   0.4000 
 18 H       -8.0240    -1.9090     1.2100 H     1 <1>   0.4000 
 19 H       -2.8790    -2.1280    -1.6590 H     1 <1>   0.0800 
 20 H       -2.3020    -2.4620    -0.0390 H     1 <1>   0.0800 
 21 H       -1.9220    -0.9410    -0.8070 H     1 <1>   0.0800 
 22 H       -6.6770    -3.8880    -0.5150 H     1 <1>   0.0800 
 23 H       -8.9410    -3.2110    -1.0770 H     1 <1>   0.0800 
 24 H       -9.4930    -3.5960     0.5350 H     1 <1>   0.0800 
 25 H       -7.7160    -4.4260     2.2750 H     1 <1>   0.0800 
 26 H       -6.0580    -4.5640     1.7560 H     1 <1>   0.0800 
 27 H       -8.4370    -5.5600    -1.5100 H     1 <1>   0.0800 
 28 H      -10.0860    -5.4170    -0.9740 H     1 <1>   0.0800 
 29 H       -7.1950    -6.7750     1.8650 H     1 <1>   0.0800 
 30 H       -6.6360    -6.4090     0.2590 H     1 <1>   0.0800 
 31 H       -8.9030    -7.3060     0.1330 H     1 <1>   0.0800 
 32 H       -9.4720    -6.1280     1.2780 H     1 <1>   0.0800 
@<TRIPOS>BOND
  1   1   2  2   
  2   2   3  1   
  3   2   4  1   
  4   3   5  2   
  5   4   6  2   
  6   4  16  1   
  7   5   7  1   
  8   5   8  1   
  9   6   7  1   
 10   6   9  1   
 11   7  17  1   
 12   8  10  1   
 13   8  18  1   
 14   9  19  1   
 15   9  20  1   
 16   9  21  1   
 17  10  11  1   
 18  10  12  1   
 19  10  22  1   
 20  11  13  1   
 21  11  23  1   
 22  11  24  1   
 23  12  14  1   
 24  12  25  1   
 25  12  26  1   
 26  13  15  1   
 27  13  27  1   
 28  13  28  1   
 29  14  15  1   
 30  14  29  1   
 31  14  30  1   
 32  15  31  1   
 33  15  32  1   
@<TRIPOS>SUBSTRUCTURE
  1 ****   8 GROUP 4 **** **** 0

# MOE 2024.06 (io_trps.svl 2023.06)
