@<TRIPOS>MOLECULE
NONAME
49 51 1 0 0 
SMALL
USER_CHARGES


@<TRIPOS>ATOM
  1 O       -1.2370     1.3830     2.3020 O.2   1 <1>  -0.5700 
  2 C       -1.6300     1.6780     1.2010 C.2   1 <1>   0.5690 
  3 N       -2.7500     1.0890     0.7170 N.am  1 <1>  -0.7300 
  4 C       -0.8390     2.6930     0.3870 C.3   1 <1>   0.0440 
  5 C       -3.5180     1.3980    -0.5220 C.3   1 <1>   0.1400 
  6 C       -1.5300     4.0500     0.2810 C.ar  1 <1>  -0.1430 
  7 C       -5.0540     1.3260    -0.3010 C.3   1 <1>   0.1430 
  8 C       -2.0000     4.6840     1.4210 C.ar  1 <1>  -0.1500 
  9 C       -1.6910     4.6640    -0.9530 C.ar  1 <1>  -0.1500 
 10 C       -5.5540    -0.0870     0.1060 C.ar  1 <1>  -0.1430 
 11 C       -5.4640     2.4380     0.6890 C.3   1 <1>  -0.1600 
 12 C       -5.7490     1.7760    -1.5960 C.3   1 <1>  -0.1600 
 13 C       -2.6320     5.9120     1.3340 C.ar  1 <1>  -0.1500 
 14 C       -2.3240     5.8910    -1.0430 C.ar  1 <1>  -0.1500 
 15 C       -4.7340    -1.2150     0.0840 C.ar  1 <1>  -0.1500 
 16 C       -6.8810    -0.2730     0.4870 C.ar  1 <1>  -0.1500 
 17 C       -5.5510     3.7300    -0.1300 C.3   1 <1>  -0.1600 
 18 C       -5.7270     3.3080    -1.5920 C.3   1 <1>  -0.1600 
 19 C       -2.8010     6.5220     0.0940 C.ar  1 <1>   0.0830 
 20 C       -5.2110    -2.4610     0.4520 C.ar  1 <1>  -0.1500 
 21 C       -7.3630    -1.5170     0.8550 C.ar  1 <1>  -0.1500 
 22 O       -3.4160     7.7180    -0.0830 O.3   1 <1>  -0.3630 
 23 C       -6.5270    -2.6150     0.8420 C.ar  1 <1>  -0.1500 
 24 C       -3.9260     8.4470     1.0100 C.3   1 <1>   0.0400 
 25 H       -3.2170     0.4370     1.3540 H     1 <1>   0.3700 
 26 H       -0.6650     2.2820    -0.5880 H     1 <1>   0.0800 
 27 H        0.1180     2.8320     0.8550 H     1 <1>   0.0800 
 28 H       -3.2340     0.7040    -1.2940 H     1 <1>   0.0800 
 29 H       -3.2540     2.3810    -0.8670 H     1 <1>   0.0800 
 30 H       -1.8760     4.2200     2.3860 H     1 <1>   0.1500 
 31 H       -1.3260     4.1950    -1.8490 H     1 <1>   0.1500 
 32 H       -4.7750     2.5410     1.5090 H     1 <1>   0.0800 
 33 H       -6.4330     2.2500     1.1080 H     1 <1>   0.0800 
 34 H       -6.7760     1.4550    -1.5890 H     1 <1>   0.0800 
 35 H       -5.2800     1.3670    -2.4740 H     1 <1>   0.0800 
 36 H       -2.9850     6.3730     2.2360 H     1 <1>   0.1500 
 37 H       -2.4520     6.3700    -1.9970 H     1 <1>   0.1500 
 38 H       -3.7060    -1.1620    -0.2210 H     1 <1>   0.1500 
 39 H       -7.5710     0.5500     0.4960 H     1 <1>   0.1500 
 40 H       -4.6400     4.2920    -0.0250 H     1 <1>   0.0800 
 41 H       -6.3700     4.3430     0.2030 H     1 <1>   0.0800 
 42 H       -6.6370     3.7060    -2.0070 H     1 <1>   0.0800 
 43 H       -4.8960     3.6700    -2.1740 H     1 <1>   0.0800 
 44 H       -4.5550    -3.3140     0.4330 H     1 <1>   0.1500 
 45 H       -8.3920    -1.6290     1.1500 H     1 <1>   0.1500 
 46 H       -6.8970    -3.5830     1.1290 H     1 <1>   0.1500 
 47 H       -4.3620     9.3540     0.6320 H     1 <1>   0.0800 
 48 H       -3.1190     8.6800     1.6810 H     1 <1>   0.0800 
 49 H       -4.6790     7.8560     1.5020 H     1 <1>   0.0800 
@<TRIPOS>BOND
  1   1   2  2   
  2   2   3  am  
  3   2   4  1   
  4   3   5  1   
  5   3  25  1   
  6   4   6  1   
  7   4  26  1   
  8   4  27  1   
  9   5   7  1   
 10   5  28  1   
 11   5  29  1   
 12   6   8  ar  
 13   6   9  ar  
 14   7  10  1   
 15   7  11  1   
 16   7  12  1   
 17   8  13  ar  
 18   8  30  1   
 19   9  14  ar  
 20   9  31  1   
 21  10  15  ar  
 22  10  16  ar  
 23  11  17  1   
 24  11  32  1   
 25  11  33  1   
 26  12  18  1   
 27  12  34  1   
 28  12  35  1   
 29  13  19  ar  
 30  13  36  1   
 31  14  19  ar  
 32  14  37  1   
 33  15  20  ar  
 34  15  38  1   
 35  16  21  ar  
 36  16  39  1   
 37  17  18  1   
 38  17  40  1   
 39  17  41  1   
 40  18  42  1   
 41  18  43  1   
 42  19  22  1   
 43  20  23  ar  
 44  20  44  1   
 45  21  23  ar  
 46  21  45  1   
 47  22  24  1   
 48  23  46  1   
 49  24  47  1   
 50  24  48  1   
 51  24  49  1   
@<TRIPOS>SUBSTRUCTURE
  1 ****   5 GROUP 4 **** **** 0

# MOE 2024.06 (io_trps.svl 2023.06)
