@<TRIPOS>MOLECULE
NONAME
37 38 1 0 0 
SMALL
USER_CHARGES


@<TRIPOS>ATOM
  1 P       -0.0960     0.4000    -0.1070 P.3   1 <1>   0.9000 
  2 O        0.3660    -0.9240     0.3950 O.co2 1 <1>  -0.9500 
  3 O        0.3040     0.8340    -1.4800 O.co2 1 <1>  -0.9500 
  4 C        0.7520     1.6380     0.8970 C.3   1 <1>   0.3430 
  5 C       -1.8540     0.6050     0.1500 C.3   1 <1>  -0.1600 
  6 N        2.1120     1.8200     0.2920 N.4   1 <1>  -0.9590 
  7 C       -2.6690    -0.3680    -0.7050 C.3   1 <1>  -0.0170 
  8 C        2.9950     0.6490     0.6060 C.3   1 <1>   0.3430 
  9 C        2.7720     3.1380     0.4890 C.3   1 <1>   0.3430 
 10 C       -4.1570    -0.1680    -0.4670 C.ar  1 <1>  -0.1430 
 11 C        4.3780     0.8130    -0.0510 C.3   1 <1>   0.1200 
 12 C        4.1630     3.1550    -0.1770 C.3   1 <1>   0.1200 
 13 C       -4.8330    -0.8490     0.5240 C.ar  1 <1>  -0.1500 
 14 C       -4.9040     0.7080    -1.2260 C.ar  1 <1>  -0.1500 
 15 O        4.9310     2.0660     0.2550 O.3   1 <1>  -0.5600 
 16 C       -6.1870    -0.6250     0.7060 C.ar  1 <1>   0.1600 
 17 C       -6.2560     0.8590    -0.9620 C.ar  1 <1>   0.1600 
 18 N       -6.9170     0.2150    -0.0130 N.ar  1 <1>  -0.6200 
 19 H        0.8380     1.3550     1.9310 H     1 <1>   0.0800 
 20 H        0.2380     2.5790     0.8410 H     1 <1>   0.0800 
 21 H       -2.1640     1.6010    -0.1000 H     1 <1>   0.0800 
 22 H       -2.1110     0.4330     1.1780 H     1 <1>   0.0800 
 23 H        1.8590     1.6760    -0.7210 H     1 <1>   0.4500 
 24 H       -2.3880    -1.3790    -0.4610 H     1 <1>   0.0800 
 25 H       -2.4360    -0.2120    -1.7450 H     1 <1>   0.0800 
 26 H        2.5400    -0.2630     0.2520 H     1 <1>   0.0800 
 27 H        3.1220     0.5610     1.6720 H     1 <1>   0.0800 
 28 H        2.8930     3.3300     1.5410 H     1 <1>   0.0800 
 29 H        2.1620     3.9200     0.0680 H     1 <1>   0.0800 
 30 H        4.3000     0.7170    -1.1200 H     1 <1>   0.0800 
 31 H        5.0490     0.0550     0.3130 H     1 <1>   0.0800 
 32 H        4.6900     4.0540     0.0880 H     1 <1>   0.0800 
 33 H        4.0730     3.1110    -1.2490 H     1 <1>   0.0800 
 34 H       -4.3160    -1.5500     1.1540 H     1 <1>   0.1500 
 35 H       -4.4460     1.2710    -2.0180 H     1 <1>   0.1500 
 36 H       -6.6980    -1.1660     1.4840 H     1 <1>   0.1500 
 37 H       -6.8230     1.5470    -1.5650 H     1 <1>   0.1500 
@<TRIPOS>BOND
  1   1   2  ar  
  2   1   3  ar  
  3   1   4  1   
  4   1   5  1   
  5   4   6  1   
  6   4  19  1   
  7   4  20  1   
  8   5   7  1   
  9   5  21  1   
 10   5  22  1   
 11   6   8  1   
 12   6   9  1   
 13   6  23  1   
 14   7  10  1   
 15   7  24  1   
 16   7  25  1   
 17   8  11  1   
 18   8  26  1   
 19   8  27  1   
 20   9  12  1   
 21   9  28  1   
 22   9  29  1   
 23  10  13  ar  
 24  10  14  ar  
 25  11  15  1   
 26  11  30  1   
 27  11  31  1   
 28  12  15  1   
 29  12  32  1   
 30  12  33  1   
 31  13  16  ar  
 32  13  34  1   
 33  14  17  ar  
 34  14  35  1   
 35  16  18  ar  
 36  16  36  1   
 37  17  18  ar  
 38  17  37  1   
@<TRIPOS>SUBSTRUCTURE
  1 ****   1 GROUP 4 **** **** 0

# MOE 2024.06 (io_trps.svl 2023.06)
