@<TRIPOS>MOLECULE
NONAME
30 31 1 0 0 
SMALL
USER_CHARGES


@<TRIPOS>ATOM
  1 CL       1.3030    -0.0100     0.1300 Cl    1 <1>  -0.1770 
  2 C       -0.2730     0.7070    -0.1170 C.ar  1 <1>   0.1770 
  3 C       -0.4750     2.0630     0.1010 C.ar  1 <1>  -0.1440 
  4 C       -1.3020    -0.1180    -0.5340 C.ar  1 <1>  -0.1500 
  5 C       -1.7420     2.5860    -0.1150 C.ar  1 <1>  -0.1500 
  6 C        0.6500     2.9730     0.5650 C.3   1 <1>   0.2140 
  7 C       -2.5620     0.4150    -0.7420 C.ar  1 <1>  -0.1500 
  8 C       -2.7790     1.7670    -0.5330 C.ar  1 <1>  -0.1500 
  9 S        1.3890     3.7400    -0.9070 S.3   1 <1>  -0.4600 
 10 C        2.7100     4.7940    -0.2100 C.3   1 <1>   0.1310 
 11 C        3.7730     3.9600     0.4900 C.2   1 <1>   0.5690 
 12 O        4.2580     4.3880     1.5100 O.2   1 <1>  -0.5700 
 13 N        4.1330     2.7660    -0.0520 N.am  1 <1>  -0.5790 
 14 C        5.1530     1.8510     0.4770 C.3   1 <1>   0.0490 
 15 C        6.0690     1.1850    -0.4940 C.3   1 <1>  -0.2000 
 16 C        5.0010     0.3930     0.1990 C.3   1 <1>  -0.2000 
 17 H       -1.1150    -1.1640    -0.6940 H     1 <1>   0.1500 
 18 H       -1.9260     3.6360     0.0360 H     1 <1>   0.1500 
 19 H        1.4230     2.4380     1.0870 H     1 <1>   0.0800 
 20 H        0.2780     3.7670     1.1890 H     1 <1>   0.0800 
 21 H       -3.3700    -0.2180    -1.0670 H     1 <1>   0.1500 
 22 H       -3.7570     2.1840    -0.6980 H     1 <1>   0.1500 
 23 H        2.2490     5.4740     0.4820 H     1 <1>   0.0800 
 24 H        3.1450     5.3420    -1.0240 H     1 <1>   0.0800 
 25 H        3.6200     2.4290    -0.8710 H     1 <1>   0.3700 
 26 H        5.5510     2.1610     1.4310 H     1 <1>   0.1000 
 27 H        7.0920     1.0190    -0.2070 H     1 <1>   0.1000 
 28 H        5.9620     1.4030    -1.5420 H     1 <1>   0.1000 
 29 H        4.1580     0.0510    -0.3740 H     1 <1>   0.1000 
 30 H        5.2980    -0.3090     0.9580 H     1 <1>   0.1000 
@<TRIPOS>BOND
  1   1   2  1   
  2   2   3  ar  
  3   2   4  ar  
  4   3   5  ar  
  5   3   6  1   
  6   4   7  ar  
  7   4  17  1   
  8   5   8  ar  
  9   5  18  1   
 10   6   9  1   
 11   6  19  1   
 12   6  20  1   
 13   7   8  ar  
 14   7  21  1   
 15   8  22  1   
 16   9  10  1   
 17  10  11  1   
 18  10  23  1   
 19  10  24  1   
 20  11  12  2   
 21  11  13  am  
 22  13  14  1   
 23  13  25  1   
 24  14  15  1   
 25  14  16  1   
 26  14  26  1   
 27  15  16  1   
 28  15  27  1   
 29  15  28  1   
 30  16  29  1   
 31  16  30  1   
@<TRIPOS>SUBSTRUCTURE
  1 ****   6 GROUP 4 **** **** 0

# MOE 2024.06 (io_trps.svl 2023.06)
