@<TRIPOS>MOLECULE
NONAME
31 32 1 0 0 
SMALL
USER_CHARGES


@<TRIPOS>ATOM
  1 O       -0.1550    -0.9070    -1.1630 O.2   1 <1>  -0.5700 
  2 C       -0.0820    -1.2470     0.0010 C.2   1 <1>   0.6900 
  3 N       -1.1910    -1.3520     0.7940 N.am  1 <1>  -0.5470 
  4 N        1.1210    -1.5510     0.5580 N.am  1 <1>  -0.5790 
  5 C       -2.5260    -0.9920     0.5620 C.ar  1 <1>   0.1170 
  6 C        2.4150    -1.5210    -0.1390 C.3   1 <1>   0.0490 
  7 C       -2.9010    -0.0210    -0.3620 C.ar  1 <1>  -0.1500 
  8 C       -3.5260    -1.6140     1.3000 C.ar  1 <1>  -0.1500 
  9 C        3.4730    -2.4740     0.3080 C.3   1 <1>  -0.2000 
 10 C        3.6020    -1.0110     0.6080 C.3   1 <1>  -0.2000 
 11 C       -4.2310     0.3130    -0.5430 C.ar  1 <1>  -0.1500 
 12 C       -4.8570    -1.2810     1.1220 C.ar  1 <1>  -0.1500 
 13 C       -5.2190    -0.3130     0.1990 C.ar  1 <1>  -0.1430 
 14 C       -6.6810     0.0540     0.0000 C.3   1 <1>  -0.0170 
 15 C       -7.3160    -0.8320    -1.0740 C.3   1 <1>  -0.2400 
 16 H       -1.0370    -1.8620     1.6560 H     1 <1>   0.3700 
 17 H        1.1790    -1.7100     1.5590 H     1 <1>   0.3700 
 18 H        2.3310    -1.2980    -1.1920 H     1 <1>   0.1000 
 19 H       -2.1520     0.4820    -0.9450 H     1 <1>   0.1500 
 20 H       -3.2670    -2.3680     2.0190 H     1 <1>   0.1500 
 21 H        4.1260    -2.9000    -0.4340 H     1 <1>   0.1000 
 22 H        3.2540    -3.1580     1.1080 H     1 <1>   0.1000 
 23 H        3.4740    -0.6680     1.6190 H     1 <1>   0.1000 
 24 H        4.3420    -0.4440     0.0700 H     1 <1>   0.1000 
 25 H       -4.4920     1.0630    -1.2670 H     1 <1>   0.1500 
 26 H       -5.6130    -1.7790     1.7030 H     1 <1>   0.1500 
 27 H       -6.7580     1.0870    -0.2920 H     1 <1>   0.0800 
 28 H       -7.2140    -0.0630     0.9270 H     1 <1>   0.0800 
 29 H       -6.7980    -0.7090    -2.0090 H     1 <1>   0.0800 
 30 H       -8.3490    -0.5660    -1.2120 H     1 <1>   0.0800 
 31 H       -7.2580    -1.8660    -0.7830 H     1 <1>   0.0800 
@<TRIPOS>BOND
  1   1   2  2   
  2   2   3  am  
  3   2   4  am  
  4   3   5  1   
  5   3  16  1   
  6   4   6  1   
  7   4  17  1   
  8   5   7  ar  
  9   5   8  ar  
 10   6   9  1   
 11   6  10  1   
 12   6  18  1   
 13   7  11  ar  
 14   7  19  1   
 15   8  12  ar  
 16   8  20  1   
 17   9  10  1   
 18   9  21  1   
 19   9  22  1   
 20  10  23  1   
 21  10  24  1   
 22  11  13  ar  
 23  11  25  1   
 24  12  13  ar  
 25  12  26  1   
 26  13  14  1   
 27  14  15  1   
 28  14  27  1   
 29  14  28  1   
 30  15  29  1   
 31  15  30  1   
 32  15  31  1   
@<TRIPOS>SUBSTRUCTURE
  1 ****   5 GROUP 4 **** **** 0

# MOE 2024.06 (io_trps.svl 2023.06)
