@<TRIPOS>MOLECULE
NONAME
41 42 1 0 0 
SMALL
USER_CHARGES


@<TRIPOS>ATOM
  1 CL      -3.4960    -1.4330    -3.2840 Cl    1 <1>  -0.1770 
  2 C       -2.7000    -2.2100    -1.9400 C.ar  1 <1>   0.1770 
  3 C       -1.8780    -3.2960    -2.1760 C.ar  1 <1>  -0.1500 
  4 C       -2.9030    -1.7260    -0.6630 C.ar  1 <1>  -0.1500 
  5 C       -1.2290    -3.9340    -1.1240 C.ar  1 <1>  -0.0090 
  6 C       -2.2670    -2.3480     0.3950 C.ar  1 <1>  -0.1500 
  7 S       -0.1560    -5.3600    -1.4300 S.o2  1 <1>   1.4470 
  8 C       -1.4440    -3.4430     0.1640 C.ar  1 <1>   0.0830 
  9 O       -0.6290    -6.5020    -0.6750 O.2   1 <1>  -0.6500 
 10 O        0.0320    -5.5140    -2.8580 O.2   1 <1>  -0.6500 
 11 N        1.3570    -4.9180    -0.8050 N.am  1 <1>  -0.8490 
 12 O       -0.8330    -4.0140     1.2200 O.3   1 <1>  -0.3630 
 13 C        2.2050    -6.0930    -0.5650 C.3   1 <1>   0.1960 
 14 C        2.0460    -3.9150    -1.6130 C.3   1 <1>   0.1960 
 15 C       -1.6150    -4.8810     2.0110 C.3   1 <1>   0.0400 
 16 C        3.6520    -5.7080    -0.2100 C.3   1 <1>  -0.1600 
 17 C        3.2020    -3.3030    -0.8070 C.3   1 <1>  -0.1600 
 18 C        3.7630    -4.2520     0.2750 C.3   1 <1>  -0.0190 
 19 C        5.1890    -3.8800     0.6720 C.2   1 <1>   0.5690 
 20 O        6.0840    -4.0310    -0.1250 O.2   1 <1>  -0.5700 
 21 N        5.4100    -3.3830     1.9190 N.am  1 <1>  -0.7300 
 22 C        6.7330    -2.9750     2.4540 C.3   1 <1>   0.0600 
 23 H       -1.7470    -3.6430    -3.1870 H     1 <1>   0.1500 
 24 H       -3.5460    -0.8770    -0.5050 H     1 <1>   0.1500 
 25 H       -2.4010    -1.9870     1.4000 H     1 <1>   0.1500 
 26 H        2.2100    -6.7290    -1.4360 H     1 <1>   0.0800 
 27 H        1.7800    -6.6550     0.2500 H     1 <1>   0.0800 
 28 H        1.3650    -3.1320    -1.9030 H     1 <1>   0.0800 
 29 H        2.4250    -4.3780    -2.5100 H     1 <1>   0.0800 
 30 H       -0.9820    -5.3020     2.7720 H     1 <1>   0.0800 
 31 H       -2.0090    -5.6650     1.3890 H     1 <1>   0.0800 
 32 H       -2.4140    -4.3210     2.4630 H     1 <1>   0.0800 
 33 H        4.2700    -5.8370    -1.0820 H     1 <1>   0.0800 
 34 H        4.0250    -6.3800     0.5430 H     1 <1>   0.0800 
 35 H        2.8660    -2.3970    -0.3360 H     1 <1>   0.0800 
 36 H        3.9810    -3.0320    -1.4990 H     1 <1>   0.0800 
 37 H        3.1370    -4.1610     1.1450 H     1 <1>   0.0800 
 38 H        4.6180    -3.2680     2.5540 H     1 <1>   0.3700 
 39 H        7.5020    -3.1320     1.7150 H     1 <1>   0.0800 
 40 H        6.9690    -3.5580     3.3270 H     1 <1>   0.0800 
 41 H        6.7140    -1.9320     2.7170 H     1 <1>   0.0800 
@<TRIPOS>BOND
  1   1   2  1   
  2   2   3  ar  
  3   2   4  ar  
  4   3   5  ar  
  5   3  23  1   
  6   4   6  ar  
  7   4  24  1   
  8   5   7  1   
  9   5   8  ar  
 10   6   8  ar  
 11   6  25  1   
 12   7   9  2   
 13   7  10  2   
 14   7  11  am  
 15   8  12  1   
 16  11  13  1   
 17  11  14  1   
 18  12  15  1   
 19  13  16  1   
 20  13  26  1   
 21  13  27  1   
 22  14  17  1   
 23  14  28  1   
 24  14  29  1   
 25  15  30  1   
 26  15  31  1   
 27  15  32  1   
 28  16  18  1   
 29  16  33  1   
 30  16  34  1   
 31  17  18  1   
 32  17  35  1   
 33  17  36  1   
 34  18  19  1   
 35  18  37  1   
 36  19  20  2   
 37  19  21  am  
 38  21  22  1   
 39  21  38  1   
 40  22  39  1   
 41  22  40  1   
 42  22  41  1   
@<TRIPOS>SUBSTRUCTURE
  1 ****  11 GROUP 4 **** **** 0

# MOE 2024.06 (io_trps.svl 2023.06)
