@<TRIPOS>MOLECULE
NONAME
41 43 1 0 0 
SMALL
USER_CHARGES


@<TRIPOS>ATOM
  1 F       -0.7030     0.4130    -0.0360 F     1 <1>  -0.1900 
  2 C       -1.8860     0.9630     0.0620 C.ar  1 <1>   0.1900 
  3 C       -2.0660     2.2480    -0.4110 C.ar  1 <1>  -0.1500 
  4 C       -2.9120     0.2380     0.6360 C.ar  1 <1>  -0.1500 
  5 C       -3.3200     2.8230    -0.3040 C.ar  1 <1>  -0.1500 
  6 C       -4.1610     0.8270     0.7350 C.ar  1 <1>  -0.1500 
  7 C       -4.3810     2.1200     0.2660 C.ar  1 <1>   0.1170 
  8 N       -5.6670     2.6600     0.4020 N.am  1 <1>  -0.5470 
  9 C       -6.3090     3.6510    -0.2820 C.2   1 <1>   0.5690 
 10 O       -5.8160     4.2520    -1.2040 O.2   1 <1>  -0.5700 
 11 C       -7.7240     4.0020     0.1200 C.3   1 <1>  -0.0990 
 12 C       -8.7200     2.9500    -0.3830 C.3   1 <1>   0.2610 
 13 O       -9.9430     3.6160    -0.5880 O.3   1 <1>  -0.5600 
 14 C       -8.8960     1.7400     0.5680 C.2   1 <1>   0.5690 
 15 C      -10.9540     2.7770    -1.0620 C.3   1 <1>   0.1200 
 16 O       -7.9470     1.3500     1.2160 O.2   1 <1>  -0.5700 
 17 N      -10.1220     1.1320     0.6620 N.am  1 <1>  -0.6600 
 18 C      -11.3250     1.7040    -0.0160 C.3   1 <1>   0.2200 
 19 C      -10.3860     0.0320     1.6310 C.3   1 <1>   0.1400 
 20 C      -12.1370     0.5770    -0.6750 C.3   1 <1>  -0.1600 
 21 C      -11.1870    -1.0850     0.9560 C.3   1 <1>  -0.1600 
 22 C      -12.4710    -0.5480     0.3140 C.3   1 <1>  -0.1600 
 23 H       -1.2450     2.7830    -0.8520 H     1 <1>   0.1500 
 24 H       -2.7340    -0.7590     0.9940 H     1 <1>   0.1500 
 25 H       -3.4720     3.8250    -0.6640 H     1 <1>   0.1500 
 26 H       -4.9740     0.2790     1.1770 H     1 <1>   0.1500 
 27 H       -6.2850     2.1240     1.0260 H     1 <1>   0.3700 
 28 H       -7.9610     4.9540    -0.3210 H     1 <1>   0.0800 
 29 H       -7.7870     4.1000     1.1870 H     1 <1>   0.0800 
 30 H       -8.3930     2.5890    -1.3420 H     1 <1>   0.0800 
 31 H      -10.6180     2.3210    -1.9780 H     1 <1>   0.0800 
 32 H      -11.8120     3.3870    -1.2830 H     1 <1>   0.0800 
 33 H      -11.9370     2.1720     0.7370 H     1 <1>   0.0800 
 34 H      -10.9410     0.4270     2.4640 H     1 <1>   0.0800 
 35 H       -9.4600    -0.3700     2.0070 H     1 <1>   0.0800 
 36 H      -11.5730     0.1680    -1.4960 H     1 <1>   0.0800 
 37 H      -13.0510     0.9800    -1.0740 H     1 <1>   0.0800 
 38 H      -11.4340    -1.8340     1.6880 H     1 <1>   0.0800 
 39 H      -10.5700    -1.5520     0.2080 H     1 <1>   0.0800 
 40 H      -12.9820    -1.3450    -0.1990 H     1 <1>   0.0800 
 41 H      -13.1270    -0.1710     1.0810 H     1 <1>   0.0800 
@<TRIPOS>BOND
  1   1   2  1   
  2   2   3  ar  
  3   2   4  ar  
  4   3   5  ar  
  5   3  23  1   
  6   4   6  ar  
  7   4  24  1   
  8   5   7  ar  
  9   5  25  1   
 10   6   7  ar  
 11   6  26  1   
 12   7   8  1   
 13   8   9  am  
 14   8  27  1   
 15   9  10  2   
 16   9  11  1   
 17  11  12  1   
 18  11  28  1   
 19  11  29  1   
 20  12  13  1   
 21  12  14  1   
 22  12  30  1   
 23  13  15  1   
 24  14  16  2   
 25  14  17  am  
 26  15  18  1   
 27  15  31  1   
 28  15  32  1   
 29  17  18  1   
 30  17  19  1   
 31  18  20  1   
 32  18  33  1   
 33  19  21  1   
 34  19  34  1   
 35  19  35  1   
 36  20  22  1   
 37  20  36  1   
 38  20  37  1   
 39  21  22  1   
 40  21  38  1   
 41  21  39  1   
 42  22  40  1   
 43  22  41  1   
@<TRIPOS>SUBSTRUCTURE
  1 ****  16 GROUP 4 **** **** 0

# MOE 2024.06 (io_trps.svl 2023.06)
