@<TRIPOS>MOLECULE
NONAME
46 46 1 0 0 
SMALL
USER_CHARGES


@<TRIPOS>ATOM
  1 O        0.5560    -0.3810     0.1760 O.3   1 <1>  -0.3630 
  2 C       -0.7190    -0.8210     0.0280 C.ar  1 <1>   0.0830 
  3 C        1.6530    -1.2350    -0.0300 C.3   1 <1>   0.1200 
  4 C       -1.7250     0.1000     0.2660 C.ar  1 <1>  -0.1500 
  5 C       -1.0540    -2.1220    -0.3410 C.ar  1 <1>  -0.1500 
  6 C        2.9220    -0.4190     0.2240 C.3   1 <1>  -0.1600 
  7 C       -3.0560    -0.2590     0.1410 C.ar  1 <1>  -0.1440 
  8 C       -2.3830    -2.4890    -0.4700 C.ar  1 <1>  -0.1430 
  9 C        4.1920    -1.2610     0.0330 C.3   1 <1>  -0.1600 
 10 C       -3.3780    -1.5550    -0.2270 C.ar  1 <1>  -0.1500 
 11 C       -4.1580     0.7520     0.4020 C.3   1 <1>  -0.0970 
 12 C       -2.7530    -3.9060    -0.8710 C.3   1 <1>  -0.0970 
 13 C        5.4360    -0.4060     0.2840 C.3   1 <1>   0.3430 
 14 N        6.6740    -1.1990     0.0270 N.4   1 <1>  -0.9590 
 15 C        6.9540    -2.1430     1.1440 C.3   1 <1>   0.3430 
 16 C        7.8400    -0.3070    -0.2270 C.3   1 <1>   0.3430 
 17 C        7.8540    -3.2680     0.6450 C.3   1 <1>  -0.2400 
 18 C        7.7520     0.2580    -1.6400 C.3   1 <1>  -0.2400 
 19 H        1.6170    -1.5920    -1.0450 H     1 <1>   0.0800 
 20 H        1.5750    -2.0570     0.6610 H     1 <1>   0.0800 
 21 H       -1.4520     1.1000     0.5480 H     1 <1>   0.1500 
 22 H       -0.2970    -2.8570    -0.5290 H     1 <1>   0.1500 
 23 H        2.8850    -0.0380     1.2310 H     1 <1>   0.0800 
 24 H        2.9310     0.4140    -0.4580 H     1 <1>   0.0800 
 25 H        4.2100    -1.6380    -0.9750 H     1 <1>   0.0800 
 26 H        4.1610    -2.0900     0.7170 H     1 <1>   0.0800 
 27 H       -4.4110    -1.8380    -0.3250 H     1 <1>   0.1500 
 28 H       -3.7740     1.6080     0.9260 H     1 <1>   0.0800 
 29 H       -4.9340     0.3070     0.9990 H     1 <1>   0.0800 
 30 H       -4.5800     1.0780    -0.5320 H     1 <1>   0.0800 
 31 H       -1.9860    -4.3370    -1.4880 H     1 <1>   0.0800 
 32 H       -3.6740    -3.9100    -1.4260 H     1 <1>   0.0800 
 33 H       -2.8750    -4.5120     0.0080 H     1 <1>   0.0800 
 34 H        5.4340    -0.0360     1.2970 H     1 <1>   0.0800 
 35 H        5.4020     0.4440    -0.3790 H     1 <1>   0.0800 
 36 H        6.5230    -1.7560    -0.8240 H     1 <1>   0.4500 
 37 H        6.0330    -2.5750     1.5020 H     1 <1>   0.0800 
 38 H        7.4220    -1.6240     1.9650 H     1 <1>   0.0800 
 39 H        8.7580    -0.8660    -0.1390 H     1 <1>   0.0800 
 40 H        7.8650     0.4930     0.4970 H     1 <1>   0.0800 
 41 H        7.3930    -3.7930    -0.1720 H     1 <1>   0.0800 
 42 H        8.8180    -2.9020     0.3430 H     1 <1>   0.0800 
 43 H        8.0090    -3.9720     1.4430 H     1 <1>   0.0800 
 44 H        8.6250     0.8560    -1.8330 H     1 <1>   0.0800 
 45 H        7.7280    -0.5340    -2.3670 H     1 <1>   0.0800 
 46 H        6.8910     0.8900    -1.7630 H     1 <1>   0.0800 
@<TRIPOS>BOND
  1   1   2  1   
  2   1   3  1   
  3   2   4  ar  
  4   2   5  ar  
  5   3   6  1   
  6   3  19  1   
  7   3  20  1   
  8   4   7  ar  
  9   4  21  1   
 10   5   8  ar  
 11   5  22  1   
 12   6   9  1   
 13   6  23  1   
 14   6  24  1   
 15   7  10  ar  
 16   7  11  1   
 17   8  10  ar  
 18   8  12  1   
 19   9  13  1   
 20   9  25  1   
 21   9  26  1   
 22  10  27  1   
 23  11  28  1   
 24  11  29  1   
 25  11  30  1   
 26  12  31  1   
 27  12  32  1   
 28  12  33  1   
 29  13  14  1   
 30  13  34  1   
 31  13  35  1   
 32  14  15  1   
 33  14  16  1   
 34  14  36  1   
 35  15  17  1   
 36  15  37  1   
 37  15  38  1   
 38  16  18  1   
 39  16  39  1   
 40  16  40  1   
 41  17  41  1   
 42  17  42  1   
 43  17  43  1   
 44  18  44  1   
 45  18  45  1   
 46  18  46  1   
@<TRIPOS>SUBSTRUCTURE
  1 ****   3 GROUP 4 **** **** 0

# MOE 2024.06 (io_trps.svl 2023.06)
