@<TRIPOS>MOLECULE
NONAME
38 38 1 0 0 
SMALL
USER_CHARGES


@<TRIPOS>ATOM
  1 O        1.2040    -4.6670    -1.3730 O.2   1 <1>  -0.5700 
  2 C        1.0590    -4.9210    -0.1940 C.2   1 <1>   0.7800 
  3 O        1.6180    -4.1250     0.7300 O.3   1 <1>  -0.2330 
  4 N        0.3890    -6.0380     0.2430 N.am  1 <1>  -0.6600 
  5 C        2.2240    -2.9310     0.4880 C.ar  1 <1>   0.0830 
  6 C        0.0900    -6.3180     1.6780 C.3   1 <1>   0.0600 
  7 C       -0.2960    -6.9590    -0.7090 C.3   1 <1>   0.0600 
  8 C        3.3540    -2.7810    -0.3190 C.ar  1 <1>  -0.1440 
  9 C        1.6850    -1.8280     1.1320 C.ar  1 <1>  -0.1500 
 10 C        3.9100    -1.5180    -0.4730 C.ar  1 <1>  -0.1500 
 11 C        4.0140    -3.9440    -1.0340 C.3   1 <1>   0.4860 
 12 C        2.2520    -0.5780     0.9730 C.ar  1 <1>  -0.1500 
 13 C        3.3670    -0.4180     0.1690 C.ar  1 <1>  -0.1430 
 14 N        4.4380    -4.9530    -0.0240 N.4   1 <1>  -0.9590 
 15 C        3.9800     0.9600    -0.0120 C.3   1 <1>  -0.0970 
 16 C        5.5720    -4.4490     0.8090 C.3   1 <1>   0.2630 
 17 C        4.7380    -6.2640    -0.6680 C.3   1 <1>   0.2630 
 18 H        0.5890    -5.6220     2.3290 H     1 <1>   0.0800 
 19 H        0.4110    -7.3140     1.9290 H     1 <1>   0.0800 
 20 H       -0.9700    -6.2410     1.8470 H     1 <1>   0.0800 
 21 H       -0.0390    -6.7250    -1.7280 H     1 <1>   0.0800 
 22 H       -1.3630    -6.8670    -0.5980 H     1 <1>   0.0800 
 23 H       -0.0090    -7.9760    -0.5070 H     1 <1>   0.0800 
 24 H        0.8180    -1.9450     1.7580 H     1 <1>   0.1500 
 25 H        4.7730    -1.3750    -1.1000 H     1 <1>   0.1500 
 26 H        4.8690    -3.5960    -1.5890 H     1 <1>   0.0800 
 27 H        3.3230    -4.3790    -1.7360 H     1 <1>   0.0800 
 28 H        1.8190     0.2710     1.4740 H     1 <1>   0.1500 
 29 H        3.6170    -5.0620     0.5920 H     1 <1>   0.4500 
 30 H        5.0350     0.8860    -0.2070 H     1 <1>   0.0800 
 31 H        3.8420     1.5530     0.8750 H     1 <1>   0.0800 
 32 H        3.5090     1.4620    -0.8380 H     1 <1>   0.0800 
 33 H        6.4430    -4.2830     0.1960 H     1 <1>   0.0800 
 34 H        5.8190    -5.1640     1.5760 H     1 <1>   0.0800 
 35 H        5.3010    -3.5190     1.2830 H     1 <1>   0.0800 
 36 H        5.5740    -6.1700    -1.3420 H     1 <1>   0.0800 
 37 H        3.8810    -6.6090    -1.2250 H     1 <1>   0.0800 
 38 H        4.9790    -7.0020     0.0810 H     1 <1>   0.0800 
@<TRIPOS>BOND
  1   1   2  2   
  2   2   3  1   
  3   2   4  am  
  4   3   5  1   
  5   4   6  1   
  6   4   7  1   
  7   5   8  ar  
  8   5   9  ar  
  9   6  18  1   
 10   6  19  1   
 11   6  20  1   
 12   7  21  1   
 13   7  22  1   
 14   7  23  1   
 15   8  10  ar  
 16   8  11  1   
 17   9  12  ar  
 18   9  24  1   
 19  10  13  ar  
 20  10  25  1   
 21  11  14  1   
 22  11  26  1   
 23  11  27  1   
 24  12  13  ar  
 25  12  28  1   
 26  13  15  1   
 27  14  16  1   
 28  14  17  1   
 29  14  29  1   
 30  15  30  1   
 31  15  31  1   
 32  15  32  1   
 33  16  33  1   
 34  16  34  1   
 35  16  35  1   
 36  17  36  1   
 37  17  37  1   
 38  17  38  1   
@<TRIPOS>SUBSTRUCTURE
  1 ****   5 GROUP 4 **** **** 0

# MOE 2024.06 (io_trps.svl 2023.06)
