@<TRIPOS>MOLECULE
NONAME
46 47 1 0 0 
SMALL
USER_CHARGES


@<TRIPOS>ATOM
  1 O        0.0040    -0.9940    -2.3920 O.2   1 <1>  -0.5700 
  2 C       -0.0550    -1.6380    -1.3730 C.2   1 <1>   0.5690 
  3 N        0.9690    -1.7180    -0.4630 N.am  1 <1>  -0.5470 
  4 C       -1.3500    -2.4030    -1.0660 C.3   1 <1>   0.1710 
  5 C        2.2050    -1.0530    -0.3940 C.ar  1 <1>   0.1170 
  6 N       -2.4730    -1.5470    -0.5800 N.3   1 <1>  -0.8100 
  7 C        3.2390    -1.5990     0.3700 C.ar  1 <1>  -0.1430 
  8 C        2.4270     0.1580    -1.0440 C.ar  1 <1>  -0.1500 
  9 C       -3.7410    -2.2910    -0.4090 C.3   1 <1>   0.1100 
 10 C       -2.1490    -0.7420     0.6230 C.3   1 <1>   0.1100 
 11 C        4.4520    -0.9350     0.4670 C.ar  1 <1>  -0.1500 
 12 C        3.0730    -2.9260     1.1030 C.3   1 <1>  -0.0970 
 13 C        3.6400     0.8110    -0.9420 C.ar  1 <1>  -0.1500 
 14 C       -4.9170    -1.3520    -0.0370 C.3   1 <1>   0.3430 
 15 C       -3.3180     0.1880     1.0360 C.3   1 <1>   0.3430 
 16 C        4.6620     0.2680    -0.1850 C.ar  1 <1>  -0.1440 
 17 N       -4.4640     0.0760     0.0700 N.4   1 <1>  -0.9590 
 18 C        5.9960     0.9820    -0.0670 C.3   1 <1>  -0.0970 
 19 C       -5.5780     1.0250     0.3040 C.3   1 <1>   0.3430 
 20 C       -5.1150     2.4460     0.0060 C.3   1 <1>  -0.2400 
 21 H        0.8530    -2.4110     0.2710 H     1 <1>   0.3700 
 22 H       -1.1440    -3.1720    -0.3430 H     1 <1>   0.0800 
 23 H       -1.6540    -2.8850    -1.9790 H     1 <1>   0.0800 
 24 H        1.6510     0.6040    -1.6370 H     1 <1>   0.1500 
 25 H       -3.6270    -3.0410     0.3560 H     1 <1>   0.0800 
 26 H       -3.9830    -2.7990    -1.3280 H     1 <1>   0.0800 
 27 H       -1.2880    -0.1250     0.4230 H     1 <1>   0.0800 
 28 H       -1.9000    -1.3890     1.4470 H     1 <1>   0.0800 
 29 H        5.2490    -1.3540     1.0560 H     1 <1>   0.1500 
 30 H        2.7720    -3.6940     0.4140 H     1 <1>   0.0800 
 31 H        2.3370    -2.8300     1.8800 H     1 <1>   0.0800 
 32 H        4.0000    -3.2320     1.5550 H     1 <1>   0.0800 
 33 H        3.7820     1.7450    -1.4570 H     1 <1>   0.1500 
 34 H       -5.3450    -1.6730     0.8980 H     1 <1>   0.0800 
 35 H       -5.6800    -1.4360    -0.7930 H     1 <1>   0.0800 
 36 H       -2.9560     1.2020     1.0640 H     1 <1>   0.0800 
 37 H       -3.6460    -0.0710     2.0280 H     1 <1>   0.0800 
 38 H       -4.0260     0.2640    -0.8480 H     1 <1>   0.4500 
 39 H        6.7980     0.2680    -0.0100 H     1 <1>   0.0800 
 40 H        6.0070     1.5900     0.8190 H     1 <1>   0.0800 
 41 H        6.1640     1.6120    -0.9220 H     1 <1>   0.0800 
 42 H       -5.9240     0.9510     1.3220 H     1 <1>   0.0800 
 43 H       -6.4010     0.7830    -0.3520 H     1 <1>   0.0800 
 44 H       -4.3650     2.7700     0.7040 H     1 <1>   0.0800 
 45 H       -5.9530     3.1140     0.0950 H     1 <1>   0.0800 
 46 H       -4.7350     2.5220    -0.9970 H     1 <1>   0.0800 
@<TRIPOS>BOND
  1   1   2  2   
  2   2   3  am  
  3   2   4  1   
  4   3   5  1   
  5   3  21  1   
  6   4   6  1   
  7   4  22  1   
  8   4  23  1   
  9   5   7  ar  
 10   5   8  ar  
 11   6   9  1   
 12   6  10  1   
 13   7  11  ar  
 14   7  12  1   
 15   8  13  ar  
 16   8  24  1   
 17   9  14  1   
 18   9  25  1   
 19   9  26  1   
 20  10  15  1   
 21  10  27  1   
 22  10  28  1   
 23  11  16  ar  
 24  11  29  1   
 25  12  30  1   
 26  12  31  1   
 27  12  32  1   
 28  13  16  ar  
 29  13  33  1   
 30  14  17  1   
 31  14  34  1   
 32  14  35  1   
 33  15  17  1   
 34  15  36  1   
 35  15  37  1   
 36  16  18  1   
 37  17  19  1   
 38  17  38  1   
 39  18  39  1   
 40  18  40  1   
 41  18  41  1   
 42  19  20  1   
 43  19  42  1   
 44  19  43  1   
 45  20  44  1   
 46  20  45  1   
 47  20  46  1   
@<TRIPOS>SUBSTRUCTURE
  1 ****   2 GROUP 4 **** **** 0

# MOE 2024.06 (io_trps.svl 2023.06)
