@<TRIPOS>MOLECULE
NONAME
46 48 1 0 0 
SMALL
USER_CHARGES


@<TRIPOS>ATOM
  1 S       -0.6300     0.1410     0.8670 S.o2  1 <1>   1.3330 
  2 O       -1.1290     0.8730     2.0060 O.2   1 <1>  -0.6500 
  3 O       -0.9700     0.5570    -0.4710 O.2   1 <1>  -0.6500 
  4 N       -1.1780    -1.4870     1.0550 N.am  1 <1>  -0.6930 
  5 C        1.1340    -0.0230     1.0390 C.3   1 <1>  -0.1350 
  6 C       -0.6540    -2.5670     0.3380 C.ar  1 <1>   0.1990 
  7 C       -2.4200    -1.6650     1.8810 C.3   1 <1>   0.2570 
  8 C       -0.3070    -3.7350     1.0150 C.ar  1 <1>  -0.1500 
  9 C       -0.4680    -2.5030    -1.0490 C.ar  1 <1>  -0.1500 
 10 C       -3.3580    -2.7890     1.4200 C.2   1 <1>   0.5690 
 11 C        0.2180    -4.7860     0.2950 C.ar  1 <1>   0.0830 
 12 C        0.0610    -3.5720    -1.7600 C.ar  1 <1>  -0.1500 
 13 O       -3.4910    -3.7280     2.1740 O.2   1 <1>  -0.5700 
 14 N       -4.0210    -2.7300     0.2150 N.am  1 <1>  -0.6600 
 15 O        0.6180    -5.9810     0.7430 O.3   1 <1>  -0.3630 
 16 C        0.3980    -4.7090    -1.0550 C.ar  1 <1>   0.0830 
 17 C       -4.8780    -3.8550    -0.2510 C.3   1 <1>   0.1400 
 18 C       -3.9090    -1.6100    -0.7650 C.3   1 <1>   0.1400 
 19 C        1.0610    -6.7180    -0.3940 C.3   1 <1>   0.4000 
 20 O        0.9160    -5.8530    -1.5200 O.3   1 <1>  -0.3630 
 21 C       -6.2800    -3.3360    -0.5840 C.3   1 <1>  -0.1600 
 22 C       -5.3040    -1.0750    -1.1020 C.3   1 <1>  -0.1600 
 23 C       -6.2320    -2.1910    -1.6070 C.3   1 <1>  -0.0800 
 24 C       -7.6380    -1.6450    -1.8730 C.3   1 <1>  -0.2400 
 25 H        1.3730    -0.4580     1.9890 H     1 <1>   0.0800 
 26 H        1.6000     0.9410     0.9750 H     1 <1>   0.0800 
 27 H        1.5280    -0.6480     0.2620 H     1 <1>   0.0800 
 28 H       -2.9910    -0.7540     1.8800 H     1 <1>   0.0800 
 29 H       -2.1290    -1.8580     2.8970 H     1 <1>   0.0800 
 30 H       -0.4460    -3.8260     2.0760 H     1 <1>   0.1500 
 31 H       -0.7470    -1.6160    -1.5860 H     1 <1>   0.1500 
 32 H        0.2050    -3.5300    -2.8240 H     1 <1>   0.1500 
 33 H       -4.9480    -4.6200     0.5040 H     1 <1>   0.0800 
 34 H       -4.4300    -4.2940    -1.1260 H     1 <1>   0.0800 
 35 H       -3.4340    -1.9770    -1.6590 H     1 <1>   0.0800 
 36 H       -3.3100    -0.8060    -0.3810 H     1 <1>   0.0800 
 37 H        0.4390    -7.5860    -0.5250 H     1 <1>   0.0800 
 38 H        2.0960    -6.9830    -0.2730 H     1 <1>   0.0800 
 39 H       -6.7450    -3.0000     0.3270 H     1 <1>   0.0800 
 40 H       -6.8690    -4.1480    -0.9730 H     1 <1>   0.0800 
 41 H       -5.2110    -0.3120    -1.8540 H     1 <1>   0.0800 
 42 H       -5.7200    -0.6200    -0.2210 H     1 <1>   0.0800 
 43 H       -5.8340    -2.5750    -2.5320 H     1 <1>   0.0800 
 44 H       -8.0700    -1.2520    -0.9690 H     1 <1>   0.0800 
 45 H       -8.2770    -2.4250    -2.2480 H     1 <1>   0.0800 
 46 H       -7.6000    -0.8580    -2.6060 H     1 <1>   0.0800 
@<TRIPOS>BOND
  1   1   2  2   
  2   1   3  2   
  3   1   4  am  
  4   1   5  1   
  5   4   6  1   
  6   4   7  1   
  7   5  25  1   
  8   5  26  1   
  9   5  27  1   
 10   6   8  ar  
 11   6   9  ar  
 12   7  10  1   
 13   7  28  1   
 14   7  29  1   
 15   8  11  ar  
 16   8  30  1   
 17   9  12  ar  
 18   9  31  1   
 19  10  13  2   
 20  10  14  am  
 21  11  15  1   
 22  11  16  ar  
 23  12  16  ar  
 24  12  32  1   
 25  14  17  1   
 26  14  18  1   
 27  15  19  1   
 28  16  20  1   
 29  17  21  1   
 30  17  33  1   
 31  17  34  1   
 32  18  22  1   
 33  18  35  1   
 34  18  36  1   
 35  19  20  1   
 36  19  37  1   
 37  19  38  1   
 38  21  23  1   
 39  21  39  1   
 40  21  40  1   
 41  22  23  1   
 42  22  41  1   
 43  22  42  1   
 44  23  24  1   
 45  23  43  1   
 46  24  44  1   
 47  24  45  1   
 48  24  46  1   
@<TRIPOS>SUBSTRUCTURE
  1 ****   6 GROUP 4 **** **** 0

# MOE 2024.06 (io_trps.svl 2023.06)
