@<TRIPOS>MOLECULE
NONAME
53 55 1 0 0 
SMALL
USER_CHARGES


@<TRIPOS>ATOM
  1 S        0.0090     0.2430     0.0530 S.o2  1 <1>   1.4470 
  2 O       -0.0590     0.8950     1.3440 O.2   1 <1>  -0.6500 
  3 O       -0.6680     0.9000    -1.0460 O.2   1 <1>  -0.6500 
  4 N        1.6590     0.2250    -0.3430 N.am  1 <1>  -0.8490 
  5 C       -0.4370    -1.5430     0.0950 C.ar  1 <1>  -0.0090 
  6 C        2.4710    -0.3870     0.7220 C.3   1 <1>   0.1960 
  7 C        2.1400     1.5750    -0.6470 C.3   1 <1>   0.1960 
  8 C       -0.7560    -2.2180     1.2850 C.ar  1 <1>  -0.1440 
  9 C       -0.4430    -2.2980    -1.0890 C.ar  1 <1>  -0.1430 
 10 C        3.9260    -0.5440     0.2620 C.3   1 <1>  -0.0190 
 11 C        3.5900     1.5220    -1.1420 C.3   1 <1>  -0.1600 
 12 C       -1.0650    -3.5700     1.2750 C.ar  1 <1>  -0.1500 
 13 C       -0.7870    -1.5380     2.6500 C.3   1 <1>  -0.0970 
 14 C       -0.7570    -3.6470    -1.0760 C.ar  1 <1>  -0.1500 
 15 C       -0.1140    -1.6930    -2.4520 C.3   1 <1>  -0.0970 
 16 C        4.7610    -1.2160     1.3490 C.2   1 <1>   0.5690 
 17 C        4.5100     0.8260    -0.1290 C.3   1 <1>  -0.1600 
 18 C       -1.0670    -4.2930     0.1020 C.ar  1 <1>  -0.1430 
 19 O        4.5000    -0.9740     2.5060 O.2   1 <1>  -0.5700 
 20 N        5.7830    -2.0640     1.0180 N.am  1 <1>  -0.6600 
 21 C       -1.4100    -5.7720     0.1050 C.3   1 <1>  -0.0970 
 22 C        6.2440    -2.4180    -0.3430 C.3   1 <1>   0.1400 
 23 C        6.6090    -2.7320     2.0470 C.3   1 <1>   0.1400 
 24 C        7.5740    -3.1310    -0.1300 C.3   1 <1>  -0.1600 
 25 C        7.4740    -3.7210     1.2740 C.3   1 <1>  -0.1600 
 26 H        2.0830    -1.3610     0.9660 H     1 <1>   0.0800 
 27 H        2.4290     0.2220     1.6120 H     1 <1>   0.0800 
 28 H        2.0700     2.1950     0.2330 H     1 <1>   0.0800 
 29 H        1.5270     2.0150    -1.4160 H     1 <1>   0.0800 
 30 H        3.9090    -1.1810    -0.6020 H     1 <1>   0.0800 
 31 H        3.9400     2.5230    -1.3210 H     1 <1>   0.0800 
 32 H        3.6140     0.9940    -2.0800 H     1 <1>   0.0800 
 33 H       -1.3100    -4.0750     2.1930 H     1 <1>   0.1500 
 34 H        0.1810    -1.1360     2.8920 H     1 <1>   0.0800 
 35 H       -1.0550    -2.2280     3.4290 H     1 <1>   0.0800 
 36 H       -1.5130    -0.7450     2.6550 H     1 <1>   0.0800 
 37 H       -0.7640    -4.2090    -1.9930 H     1 <1>   0.1500 
 38 H       -0.8870    -1.0060    -2.7480 H     1 <1>   0.0800 
 39 H       -0.0430    -2.4520    -3.2090 H     1 <1>   0.0800 
 40 H        0.8260    -1.1740    -2.4270 H     1 <1>   0.0800 
 41 H        5.4940     0.7060    -0.5450 H     1 <1>   0.0800 
 42 H        4.5940     1.4380     0.7540 H     1 <1>   0.0800 
 43 H       -2.4680    -5.8990    -0.0440 H     1 <1>   0.0800 
 44 H       -1.1340    -6.2210     1.0410 H     1 <1>   0.0800 
 45 H       -0.8850    -6.2810    -0.6830 H     1 <1>   0.0800 
 46 H        6.3650    -1.5420    -0.9570 H     1 <1>   0.0800 
 47 H        5.5310    -3.0880    -0.7940 H     1 <1>   0.0800 
 48 H        5.9880    -3.2260     2.7750 H     1 <1>   0.0800 
 49 H        7.2200    -1.9930     2.5370 H     1 <1>   0.0800 
 50 H        8.3700    -2.4060    -0.1640 H     1 <1>   0.0800 
 51 H        7.7530    -3.8820    -0.8790 H     1 <1>   0.0800 
 52 H        6.9700    -4.6710     1.2380 H     1 <1>   0.0800 
 53 H        8.4370    -3.8530     1.7350 H     1 <1>   0.0800 
@<TRIPOS>BOND
  1   1   2  2   
  2   1   3  2   
  3   1   4  am  
  4   1   5  1   
  5   4   6  1   
  6   4   7  1   
  7   5   8  ar  
  8   5   9  ar  
  9   6  10  1   
 10   6  26  1   
 11   6  27  1   
 12   7  11  1   
 13   7  28  1   
 14   7  29  1   
 15   8  12  ar  
 16   8  13  1   
 17   9  14  ar  
 18   9  15  1   
 19  10  16  1   
 20  10  17  1   
 21  10  30  1   
 22  11  17  1   
 23  11  31  1   
 24  11  32  1   
 25  12  18  ar  
 26  12  33  1   
 27  13  34  1   
 28  13  35  1   
 29  13  36  1   
 30  14  18  ar  
 31  14  37  1   
 32  15  38  1   
 33  15  39  1   
 34  15  40  1   
 35  16  19  2   
 36  16  20  am  
 37  17  41  1   
 38  17  42  1   
 39  18  21  1   
 40  20  22  1   
 41  20  23  1   
 42  21  43  1   
 43  21  44  1   
 44  21  45  1   
 45  22  24  1   
 46  22  46  1   
 47  22  47  1   
 48  23  25  1   
 49  23  48  1   
 50  23  49  1   
 51  24  25  1   
 52  24  50  1   
 53  24  51  1   
 54  25  52  1   
 55  25  53  1   
@<TRIPOS>SUBSTRUCTURE
  1 ****   6 GROUP 4 **** **** 0

# MOE 2024.06 (io_trps.svl 2023.06)
