@<TRIPOS>MOLECULE
NONAME
50 53 1 0 0 
SMALL
USER_CHARGES


@<TRIPOS>ATOM
  1 O       -2.3930     0.1460     2.3570 O.2   1 <1>  -0.5700 
  2 C       -3.0200    -0.7190     1.7810 C.2   1 <1>   0.6340 
  3 O       -4.2670    -0.4340     1.4210 O.3   1 <1>  -0.2320 
  4 C       -2.5030    -2.0340     1.4980 C.ar  1 <1>   0.0860 
  5 C       -4.9620    -1.1810     0.5410 C.ar  1 <1>   0.0830 
  6 C       -3.2550    -2.9160     0.7040 C.ar  1 <1>   0.0000 
  7 C       -1.2930    -2.4570     2.0540 C.ar  1 <1>  -0.1500 
  8 C       -4.4500    -2.3940     0.0500 C.ar  1 <1>   0.0000 
  9 C       -6.1690    -0.6610     0.1180 C.ar  1 <1>  -0.1500 
 10 C       -2.8200    -4.2440     0.6440 C.ar  1 <1>  -0.1500 
 11 C       -0.8530    -3.7540     1.9110 C.ar  1 <1>  -0.1500 
 12 C       -5.1460    -2.9650    -1.0370 C.ar  1 <1>  -0.1430 
 13 C       -6.8910    -1.2970    -0.8650 C.ar  1 <1>   0.0830 
 14 C       -1.6340    -4.6570     1.2170 C.ar  1 <1>  -0.1500 
 15 C       -6.3560    -2.4350    -1.4580 C.ar  1 <1>  -0.1500 
 16 C       -4.6340    -4.1420    -1.8610 C.3   1 <1>  -0.0970 
 17 O       -8.0800    -0.7530    -1.2070 O.3   1 <1>  -0.3630 
 18 C       -9.0180    -1.4640    -2.0030 C.3   1 <1>   0.1810 
 19 C      -10.3700    -0.7560    -2.0390 C.2   1 <1>   0.5690 
 20 O      -10.7710    -0.4060    -3.1270 O.2   1 <1>  -0.5700 
 21 N      -11.1130    -0.5560    -0.8970 N.am  1 <1>  -0.6600 
 22 C      -12.4230     0.1520    -0.9440 C.3   1 <1>   0.1400 
 23 C      -10.6910    -0.9530     0.4770 C.3   1 <1>   0.1400 
 24 C      -13.5110    -0.7280    -0.3190 C.3   1 <1>  -0.1600 
 25 C      -11.7660    -1.8400     1.1130 C.3   1 <1>  -0.1600 
 26 C      -13.1420    -1.1560     1.1100 C.3   1 <1>  -0.0800 
 27 C      -14.2110    -2.0890     1.6880 C.3   1 <1>  -0.2400 
 28 H       -0.7020    -1.7560     2.6210 H     1 <1>   0.1500 
 29 H       -6.5430     0.2510     0.5460 H     1 <1>   0.1500 
 30 H       -3.4080    -4.9930     0.1560 H     1 <1>   0.1500 
 31 H        0.0810    -4.0670     2.3470 H     1 <1>   0.1500 
 32 H       -1.3180    -5.6830     1.1310 H     1 <1>   0.1500 
 33 H       -6.8780    -2.9050    -2.2690 H     1 <1>   0.1500 
 34 H       -3.5630    -4.1110    -1.9450 H     1 <1>   0.0800 
 35 H       -5.0250    -4.1030    -2.8630 H     1 <1>   0.0800 
 36 H       -4.9440    -5.0720    -1.4210 H     1 <1>   0.0800 
 37 H       -9.1440    -2.4480    -1.5930 H     1 <1>   0.0800 
 38 H       -8.6240    -1.5310    -3.0010 H     1 <1>   0.0800 
 39 H      -12.6940     0.3890    -1.9580 H     1 <1>   0.0800 
 40 H      -12.3400     1.0760    -0.3980 H     1 <1>   0.0800 
 41 H      -10.5550    -0.0640     1.0690 H     1 <1>   0.0800 
 42 H       -9.7590    -1.4870     0.4660 H     1 <1>   0.0800 
 43 H      -13.6480    -1.5950    -0.9420 H     1 <1>   0.0800 
 44 H      -14.4370    -0.1820    -0.3080 H     1 <1>   0.0800 
 45 H      -11.4780    -2.0690     2.1240 H     1 <1>   0.0800 
 46 H      -11.8150    -2.7670     0.5690 H     1 <1>   0.0800 
 47 H      -13.0880    -0.2750     1.7270 H     1 <1>   0.0800 
 48 H      -14.2960    -2.9830     1.0960 H     1 <1>   0.0800 
 49 H      -15.1670    -1.5950     1.7030 H     1 <1>   0.0800 
 50 H      -13.9590    -2.3670     2.6960 H     1 <1>   0.0800 
@<TRIPOS>BOND
  1   1   2  2   
  2   2   3  1   
  3   2   4  1   
  4   3   5  1   
  5   4   6  ar  
  6   4   7  ar  
  7   5   8  ar  
  8   5   9  ar  
  9   6   8  1   
 10   6  10  ar  
 11   7  11  ar  
 12   7  28  1   
 13   8  12  ar  
 14   9  13  ar  
 15   9  29  1   
 16  10  14  ar  
 17  10  30  1   
 18  11  14  ar  
 19  11  31  1   
 20  12  15  ar  
 21  12  16  1   
 22  13  15  ar  
 23  13  17  1   
 24  14  32  1   
 25  15  33  1   
 26  16  34  1   
 27  16  35  1   
 28  16  36  1   
 29  17  18  1   
 30  18  19  1   
 31  18  37  1   
 32  18  38  1   
 33  19  20  2   
 34  19  21  am  
 35  21  22  1   
 36  21  23  1   
 37  22  24  1   
 38  22  39  1   
 39  22  40  1   
 40  23  25  1   
 41  23  41  1   
 42  23  42  1   
 43  24  26  1   
 44  24  43  1   
 45  24  44  1   
 46  25  26  1   
 47  25  45  1   
 48  25  46  1   
 49  26  27  1   
 50  26  47  1   
 51  27  48  1   
 52  27  49  1   
 53  27  50  1   
@<TRIPOS>SUBSTRUCTURE
  1 ****  13 GROUP 4 **** **** 0

# MOE 2024.06 (io_trps.svl 2023.06)
