@<TRIPOS>MOLECULE
NONAME
30 30 1 0 0 
SMALL
USER_CHARGES


@<TRIPOS>ATOM
  1 O       -0.4650    -0.2390     1.4420 O.2   1 <1>  -0.5700 
  2 C       -0.9310    -1.0800     0.6970 C.2   1 <1>   0.5440 
  3 N       -0.0840    -1.9910     0.1270 N.am  1 <1>  -0.7300 
  4 C       -2.3540    -1.1050     0.4090 C.ar  1 <1>   0.0860 
  5 C        1.3750    -2.0540     0.3350 C.3   1 <1>   0.1400 
  6 C       -3.1180     0.0590     0.4870 C.ar  1 <1>  -0.1500 
  7 C       -3.0150    -2.2780     0.0460 C.ar  1 <1>  -0.1500 
  8 C        2.0510    -2.2480    -1.0170 C.3   1 <1>  -0.2400 
  9 C       -4.4820     0.0800     0.2090 C.ar  1 <1>   0.0830 
 10 C       -4.3650    -2.2790    -0.2400 C.ar  1 <1>  -0.1500 
 11 O       -5.1950     1.2410     0.3020 O.3   1 <1>  -0.3630 
 12 C       -5.1170    -1.1180    -0.1700 C.ar  1 <1>   0.0830 
 13 C       -4.6420     2.4280     0.8300 C.3   1 <1>   0.0400 
 14 O       -6.4300    -1.2890    -0.4880 O.3   1 <1>  -0.3630 
 15 C       -7.3770    -0.2460    -0.5250 C.3   1 <1>   0.0400 
 16 H       -0.4530    -2.6450    -0.5630 H     1 <1>   0.3700 
 17 H        1.6060    -2.8770     0.9900 H     1 <1>   0.0800 
 18 H        1.7250    -1.1440     0.7950 H     1 <1>   0.0800 
 19 H       -2.5990     0.9530     0.7730 H     1 <1>   0.1500 
 20 H       -2.4720    -3.2050    -0.0060 H     1 <1>   0.1500 
 21 H        1.7320    -3.1680    -1.4710 H     1 <1>   0.0800 
 22 H        3.1170    -2.2850    -0.8830 H     1 <1>   0.0800 
 23 H        1.8200    -1.4230    -1.6670 H     1 <1>   0.0800 
 24 H       -4.8570    -3.1930    -0.5200 H     1 <1>   0.1500 
 25 H       -5.4180     3.1710     0.8680 H     1 <1>   0.0800 
 26 H       -3.8500     2.7630     0.1840 H     1 <1>   0.0800 
 27 H       -4.2750     2.2330     1.8220 H     1 <1>   0.0800 
 28 H       -8.3200    -0.6600    -0.8310 H     1 <1>   0.0800 
 29 H       -7.0530     0.4930    -1.2360 H     1 <1>   0.0800 
 30 H       -7.4660     0.1780     0.4590 H     1 <1>   0.0800 
@<TRIPOS>BOND
  1   1   2  2   
  2   2   3  am  
  3   2   4  1   
  4   3   5  1   
  5   3  16  1   
  6   4   6  ar  
  7   4   7  ar  
  8   5   8  1   
  9   5  17  1   
 10   5  18  1   
 11   6   9  ar  
 12   6  19  1   
 13   7  10  ar  
 14   7  20  1   
 15   8  21  1   
 16   8  22  1   
 17   8  23  1   
 18   9  11  1   
 19   9  12  ar  
 20  10  12  ar  
 21  10  24  1   
 22  11  13  1   
 23  12  14  1   
 24  13  25  1   
 25  13  26  1   
 26  13  27  1   
 27  14  15  1   
 28  15  28  1   
 29  15  29  1   
 30  15  30  1   
@<TRIPOS>SUBSTRUCTURE
  1 ****   4 GROUP 4 **** **** 0

# MOE 2024.06 (io_trps.svl 2023.06)
