@<TRIPOS>MOLECULE
NONAME
43 45 1 0 0 
SMALL
USER_CHARGES


@<TRIPOS>ATOM
  1 S        0.0770     0.7820     1.0160 S.o2  1 <1>   1.4470 
  2 O        0.5030     1.5790     2.1450 O.2   1 <1>  -0.6500 
  3 O       -1.1220    -0.0200     1.0960 O.2   1 <1>  -0.6500 
  4 N       -0.2270     1.8420    -0.2500 N.am  1 <1>  -0.9140 
  5 C        1.4650    -0.2030     0.3960 C.ar  1 <1>  -0.0090 
  6 C       -0.8290     3.1150     0.1290 C.3   1 <1>   0.1960 
  7 C        2.7040     0.3850     0.1740 C.ar  1 <1>  -0.1500 
  8 C        1.3290    -1.5560     0.1210 C.ar  1 <1>  -0.1500 
  9 C       -2.2830     2.9490     0.6200 C.3   1 <1>  -0.0800 
 10 C        3.7930    -0.3370    -0.3100 C.ar  1 <1>   0.0830 
 11 C        2.3940    -2.2920    -0.3650 C.ar  1 <1>  -0.1500 
 12 C       -3.2260     2.0750    -0.4220 C.3   1 <1>   0.0580 
 13 C       -3.0620     4.4480     0.8350 C.3   1 <1>  -0.1600 
 14 O        5.0010     0.2690    -0.5000 O.3   1 <1>  -0.3630 
 15 C        3.6270    -1.7050    -0.5920 C.ar  1 <1>   0.0830 
 16 C       -4.5810     2.2190    -1.2890 C.2   1 <1>  -0.2880 
 17 C       -3.7370     3.2850    -0.1940 C.3   1 <1>  -0.1600 
 18 C       -4.4130     4.4310    -0.1160 C.3   1 <1>   0.0580 
 19 C        5.2700     1.5820    -0.0580 C.3   1 <1>   0.0400 
 20 O        4.5680    -2.5640    -1.0800 O.3   1 <1>  -0.3630 
 21 C       -5.2150     3.4410    -1.1090 C.2   1 <1>  -0.2880 
 22 C        5.8170    -2.1470    -1.5820 C.3   1 <1>   0.0400 
 23 H       -0.9030     1.3470    -0.8280 H     1 <1>   0.4200 
 24 H       -0.8260     3.7560    -0.7370 H     1 <1>   0.0800 
 25 H       -0.2350     3.5980     0.8880 H     1 <1>   0.0800 
 26 H        2.7870     1.4330     0.3910 H     1 <1>   0.1500 
 27 H        0.3820    -2.0430     0.2860 H     1 <1>   0.1500 
 28 H       -2.2460     2.4550     1.5820 H     1 <1>   0.0800 
 29 H        2.2720    -3.3400    -0.5750 H     1 <1>   0.1500 
 30 H       -3.4760     1.2220     0.1950 H     1 <1>   0.0800 
 31 H       -2.4130     5.2670     0.5640 H     1 <1>   0.0800 
 32 H       -3.3350     4.5850     1.8720 H     1 <1>   0.0800 
 33 H       -4.8880     1.3880    -1.9040 H     1 <1>   0.1500 
 34 H       -3.1320     3.6970    -1.1350 H     1 <1>   0.0800 
 35 H       -4.3910     2.8540     0.7050 H     1 <1>   0.0800 
 36 H       -4.2140     5.2610    -0.7790 H     1 <1>   0.0800 
 37 H        6.3070     1.7920    -0.2480 H     1 <1>   0.0800 
 38 H        5.0740     1.6430     0.9980 H     1 <1>   0.0800 
 39 H        4.6540     2.2710    -0.6080 H     1 <1>   0.0800 
 40 H       -6.1350     3.7910    -1.5470 H     1 <1>   0.1500 
 41 H        6.3040    -3.0000    -2.0190 H     1 <1>   0.0800 
 42 H        6.4080    -1.7650    -0.7700 H     1 <1>   0.0800 
 43 H        5.6580    -1.3920    -2.3310 H     1 <1>   0.0800 
@<TRIPOS>BOND
  1   1   2  2   
  2   1   3  2   
  3   1   4  am  
  4   1   5  1   
  5   4   6  1   
  6   4  23  1   
  7   5   7  ar  
  8   5   8  ar  
  9   6   9  1   
 10   6  24  1   
 11   6  25  1   
 12   7  10  ar  
 13   7  26  1   
 14   8  11  ar  
 15   8  27  1   
 16   9  12  1   
 17   9  13  1   
 18   9  28  1   
 19  10  14  1   
 20  10  15  ar  
 21  11  15  ar  
 22  11  29  1   
 23  12  16  1   
 24  12  17  1   
 25  12  30  1   
 26  13  18  1   
 27  13  31  1   
 28  13  32  1   
 29  14  19  1   
 30  15  20  1   
 31  16  21  2   
 32  16  33  1   
 33  17  18  1   
 34  17  34  1   
 35  17  35  1   
 36  18  21  1   
 37  18  36  1   
 38  19  37  1   
 39  19  38  1   
 40  19  39  1   
 41  20  22  1   
 42  21  40  1   
 43  22  41  1   
 44  22  42  1   
 45  22  43  1   
@<TRIPOS>SUBSTRUCTURE
  1 ****   4 GROUP 4 **** **** 0

# MOE 2024.06 (io_trps.svl 2023.06)
