@<TRIPOS>MOLECULE
NONAME
57 58 1 0 0 
SMALL
USER_CHARGES


@<TRIPOS>ATOM
  1 O       -5.5660     0.7330    -0.6900 O.3   1 <1>  -0.3630 
  2 C       -5.8390     2.0620    -0.6800 C.ar  1 <1>   0.0830 
  3 C       -6.5050    -0.2010    -1.1770 C.3   1 <1>   0.1200 
  4 C       -4.8930     2.8920    -0.1080 C.ar  1 <1>  -0.1500 
  5 C       -6.9960     2.6200    -1.2030 C.ar  1 <1>  -0.1500 
  6 C       -5.9300    -1.6140    -1.0220 C.3   1 <1>   0.2000 
  7 C       -5.0740     4.2670    -0.0410 C.ar  1 <1>  -0.1440 
  8 C       -7.1830     3.9880    -1.1430 C.ar  1 <1>  -0.1500 
  9 O       -6.8830    -2.5280    -1.4660 O.3   1 <1>  -0.6800 
 10 C       -5.4930    -1.9200     0.4370 C.3   1 <1>   0.1100 
 11 C       -6.2380     4.8350    -0.5710 C.ar  1 <1>  -0.1430 
 12 C       -3.9540     5.0610     0.6180 C.3   1 <1>  -0.0970 
 13 N       -4.9840    -3.2920     0.7160 N.3   1 <1>  -0.8100 
 14 C       -6.5890     6.3340    -0.5810 C.3   1 <1>   0.0630 
 15 C       -3.9500    -3.7380    -0.2370 C.3   1 <1>   0.1100 
 16 C       -6.0400    -4.3030     0.9210 C.3   1 <1>   0.1100 
 17 C       -5.4840     7.2450    -1.1290 C.3   1 <1>  -0.2400 
 18 C       -7.0870     6.8050     0.7900 C.3   1 <1>  -0.2400 
 19 C       -3.3460    -5.0920     0.1830 C.3   1 <1>   0.3430 
 20 C       -5.4380    -5.6550     1.3500 C.3   1 <1>   0.3430 
 21 N       -4.4120    -6.1410     0.3630 N.4   1 <1>  -0.9590 
 22 C       -3.8550    -7.4610     0.7970 C.3   1 <1>   0.3430 
 23 C       -3.0030    -8.1330    -0.2890 C.3   1 <1>   0.1200 
 24 O       -2.5880    -9.3580     0.2020 O.3   1 <1>  -0.6800 
 25 H       -6.6830     0.0150    -2.2160 H     1 <1>   0.0800 
 26 H       -7.4080    -0.0910    -0.6040 H     1 <1>   0.0800 
 27 H       -4.0030     2.4410     0.2890 H     1 <1>   0.1500 
 28 H       -7.7570     2.0180    -1.6590 H     1 <1>   0.1500 
 29 H       -5.0820    -1.6970    -1.6780 H     1 <1>   0.0800 
 30 H       -8.0910     4.3920    -1.5540 H     1 <1>   0.1500 
 31 H       -7.7150    -2.4170    -0.9690 H     1 <1>   0.4000 
 32 H       -6.3070    -1.6980     1.1050 H     1 <1>   0.0800 
 33 H       -4.7060    -1.2290     0.6870 H     1 <1>   0.0800 
 34 H       -3.3210     4.4180     1.2030 H     1 <1>   0.0800 
 35 H       -4.3440     5.8090     1.2780 H     1 <1>   0.0800 
 36 H       -3.3480     5.5280    -0.1360 H     1 <1>   0.0800 
 37 H       -7.4170     6.4630    -1.2580 H     1 <1>   0.0800 
 38 H       -3.1640    -3.0020    -0.2770 H     1 <1>   0.0800 
 39 H       -4.3710    -3.8310    -1.2240 H     1 <1>   0.0800 
 40 H       -6.6070    -4.4460     0.0190 H     1 <1>   0.0800 
 41 H       -6.7130    -3.9610     1.6890 H     1 <1>   0.0800 
 42 H       -4.7110     7.4120    -0.4050 H     1 <1>   0.0800 
 43 H       -5.8990     8.2020    -1.3900 H     1 <1>   0.0800 
 44 H       -5.0530     6.8090    -2.0120 H     1 <1>   0.0800 
 45 H       -6.3110     6.7530     1.5280 H     1 <1>   0.0800 
 46 H       -7.9030     6.1840     1.1130 H     1 <1>   0.0800 
 47 H       -7.4350     7.8210     0.7290 H     1 <1>   0.0800 
 48 H       -2.8130    -4.9530     1.1090 H     1 <1>   0.0800 
 49 H       -2.6380    -5.4060    -0.5650 H     1 <1>   0.0800 
 50 H       -6.2310    -6.3790     1.4440 H     1 <1>   0.0800 
 51 H       -4.9820    -5.5320     2.3190 H     1 <1>   0.0800 
 52 H       -4.8980    -6.2510    -0.5370 H     1 <1>   0.4500 
 53 H       -4.6670    -8.1270     1.0410 H     1 <1>   0.0800 
 54 H       -3.2530    -7.3270     1.6810 H     1 <1>   0.0800 
 55 H       -2.1250    -7.5550    -0.5160 H     1 <1>   0.0800 
 56 H       -3.5800    -8.3110    -1.1800 H     1 <1>   0.0800 
 57 H       -2.0500    -9.8510    -0.4540 H     1 <1>   0.4000 
@<TRIPOS>BOND
  1   1   2  1   
  2   1   3  1   
  3   2   4  ar  
  4   2   5  ar  
  5   3   6  1   
  6   3  25  1   
  7   3  26  1   
  8   4   7  ar  
  9   4  27  1   
 10   5   8  ar  
 11   5  28  1   
 12   6   9  1   
 13   6  10  1   
 14   6  29  1   
 15   7  11  ar  
 16   7  12  1   
 17   8  11  ar  
 18   8  30  1   
 19   9  31  1   
 20  10  13  1   
 21  10  32  1   
 22  10  33  1   
 23  11  14  1   
 24  12  34  1   
 25  12  35  1   
 26  12  36  1   
 27  13  15  1   
 28  13  16  1   
 29  14  17  1   
 30  14  18  1   
 31  14  37  1   
 32  15  19  1   
 33  15  38  1   
 34  15  39  1   
 35  16  20  1   
 36  16  40  1   
 37  16  41  1   
 38  17  42  1   
 39  17  43  1   
 40  17  44  1   
 41  18  45  1   
 42  18  46  1   
 43  18  47  1   
 44  19  21  1   
 45  19  48  1   
 46  19  49  1   
 47  20  21  1   
 48  20  50  1   
 49  20  51  1   
 50  21  22  1   
 51  21  52  1   
 52  22  23  1   
 53  22  53  1   
 54  22  54  1   
 55  23  24  1   
 56  23  55  1   
 57  23  56  1   
 58  24  57  1   
@<TRIPOS>SUBSTRUCTURE
  1 ****   1 GROUP 4 **** **** 0

# MOE 2024.06 (io_trps.svl 2023.06)
