@<TRIPOS>MOLECULE
NONAME
49 51 1 0 0 
SMALL
USER_CHARGES


@<TRIPOS>ATOM
  1 O        0.7500    -0.8130     1.2610 O.2   1 <1>  -0.5700 
  2 C        1.6710    -1.0360     0.5110 C.2   1 <1>   0.5690 
  3 N        2.4840    -0.0330     0.0620 N.am  1 <1>  -0.6600 
  4 C        1.8860    -2.4940     0.0920 C.3   1 <1>  -0.0190 
  5 C        3.6720    -0.1430    -0.8170 C.3   1 <1>   0.1400 
  6 C        2.2480     1.3790     0.4440 C.3   1 <1>   0.1400 
  7 C        0.6200    -3.0580    -0.5820 C.3   1 <1>  -0.1600 
  8 C        2.2690    -3.3500     1.3150 C.3   1 <1>  -0.1600 
  9 C        4.3160     1.2380    -0.7870 C.3   1 <1>  -0.1600 
 10 C        3.1710     2.1900    -0.4560 C.3   1 <1>  -0.1600 
 11 C        0.7310    -4.5540    -0.8640 C.3   1 <1>   0.3430 
 12 C        2.3350    -4.8380     0.9830 C.3   1 <1>   0.3430 
 13 N        1.0330    -5.2750     0.4070 N.4   1 <1>  -0.9590 
 14 C        1.0000    -6.7610     0.2480 C.3   1 <1>   0.3430 
 15 C       -0.4110    -7.2920    -0.0530 C.3   1 <1>  -0.0800 
 16 C       -1.4370    -6.8680     1.0210 C.3   1 <1>  -0.0220 
 17 C       -0.3730    -8.8270    -0.1830 C.3   1 <1>  -0.1600 
 18 C       -2.7390    -7.6320     0.8700 C.2   1 <1>  -0.2880 
 19 C       -1.7320    -9.3910    -0.6290 C.3   1 <1>  -0.0220 
 20 C       -2.8700    -8.7380     0.1340 C.2   1 <1>  -0.2880 
 21 H        2.6880    -2.5500    -0.6200 H     1 <1>   0.0800 
 22 H        3.3500    -0.3790    -1.8180 H     1 <1>   0.0800 
 23 H        4.3550    -0.8940    -0.4600 H     1 <1>   0.0800 
 24 H        2.5150     1.5120     1.4790 H     1 <1>   0.0800 
 25 H        1.2150     1.6500     0.3030 H     1 <1>   0.0800 
 26 H        0.4480    -2.5350    -1.5060 H     1 <1>   0.0800 
 27 H       -0.2400    -2.8860     0.0430 H     1 <1>   0.0800 
 28 H        1.5550    -3.1980     2.1070 H     1 <1>   0.0800 
 29 H        3.2260    -3.0270     1.6870 H     1 <1>   0.0800 
 30 H        4.7930     1.4800    -1.7200 H     1 <1>   0.0800 
 31 H        5.0500     1.2660    -0.0010 H     1 <1>   0.0800 
 32 H        3.5100     3.0900     0.0270 H     1 <1>   0.0800 
 33 H        2.6400     2.4540    -1.3540 H     1 <1>   0.0800 
 34 H        1.5130    -4.7330    -1.5840 H     1 <1>   0.0800 
 35 H       -0.2010    -4.9020    -1.2810 H     1 <1>   0.0800 
 36 H        2.5470    -5.3940     1.8830 H     1 <1>   0.0800 
 37 H        3.1280    -5.0190     0.2760 H     1 <1>   0.0800 
 38 H        0.3030    -5.0120     1.0840 H     1 <1>   0.4500 
 39 H        1.3450    -7.2240     1.1590 H     1 <1>   0.0800 
 40 H        1.6680    -7.0570    -0.5440 H     1 <1>   0.0800 
 41 H       -0.7360    -6.9100    -1.0050 H     1 <1>   0.0800 
 42 H       -1.6500    -5.8180     0.9300 H     1 <1>   0.0800 
 43 H       -1.0510    -7.0540     2.0090 H     1 <1>   0.0800 
 44 H       -0.1210    -9.2610     0.7700 H     1 <1>   0.0800 
 45 H        0.3760    -9.1320    -0.8940 H     1 <1>   0.0800 
 46 H       -3.5600    -7.2000     1.4210 H     1 <1>   0.1500 
 47 H       -1.7470   -10.4540    -0.4580 H     1 <1>   0.0800 
 48 H       -1.8770    -9.2220    -1.6820 H     1 <1>   0.0800 
 49 H       -3.8080    -9.2590     0.0240 H     1 <1>   0.1500 
@<TRIPOS>BOND
  1   1   2  2   
  2   2   3  am  
  3   2   4  1   
  4   3   5  1   
  5   3   6  1   
  6   4   7  1   
  7   4   8  1   
  8   4  21  1   
  9   5   9  1   
 10   5  22  1   
 11   5  23  1   
 12   6  10  1   
 13   6  24  1   
 14   6  25  1   
 15   7  11  1   
 16   7  26  1   
 17   7  27  1   
 18   8  12  1   
 19   8  28  1   
 20   8  29  1   
 21   9  10  1   
 22   9  30  1   
 23   9  31  1   
 24  10  32  1   
 25  10  33  1   
 26  11  13  1   
 27  11  34  1   
 28  11  35  1   
 29  12  13  1   
 30  12  36  1   
 31  12  37  1   
 32  13  14  1   
 33  13  38  1   
 34  14  15  1   
 35  14  39  1   
 36  14  40  1   
 37  15  16  1   
 38  15  17  1   
 39  15  41  1   
 40  16  18  1   
 41  16  42  1   
 42  16  43  1   
 43  17  19  1   
 44  17  44  1   
 45  17  45  1   
 46  18  20  2   
 47  18  46  1   
 48  19  20  1   
 49  19  47  1   
 50  19  48  1   
 51  20  49  1   
@<TRIPOS>SUBSTRUCTURE
  1 ****   7 GROUP 4 **** **** 0

# MOE 2024.06 (io_trps.svl 2023.06)
