@<TRIPOS>MOLECULE
NONAME
48 51 1 0 0 
SMALL
USER_CHARGES


@<TRIPOS>ATOM
  1 S        0.1890    -0.2770     0.8310 S.3   1 <1>  -0.0800 
  2 C        1.2810     0.9650     0.2270 C.2   1 <1>   0.1040 
  3 C       -1.2110     0.6730     0.3800 C.2   1 <1>  -0.1400 
  4 N        2.6500     0.7520     0.2580 N.am  1 <1>  -0.4940 
  5 C        0.5800     2.0340    -0.2620 C.2   1 <1>  -0.0860 
  6 C       -0.8460     1.8400    -0.1670 C.2   1 <1>  -0.1810 
  7 C       -2.6080     0.1480     0.6210 C.3   1 <1>   0.0200 
  8 C        3.4300    -0.0410     1.0680 C.2   1 <1>   0.7150 
  9 C        1.1830     3.2250    -0.7970 C.2   1 <1>   0.7160 
 10 C       -1.8850     2.8460    -0.6400 C.3   1 <1>   0.0210 
 11 C       -3.6160     1.0080    -0.1720 C.3   1 <1>  -0.0800 
 12 O        2.9870    -0.4380     2.1280 O.2   1 <1>  -0.5700 
 13 C        4.7860    -0.3200     0.6490 C.2   1 <1>   0.0550 
 14 O        0.8170     3.6660    -1.8730 O.2   1 <1>  -0.5700 
 15 N        2.1940     3.8830    -0.1230 N.am  1 <1>  -0.6600 
 16 C       -3.2790     2.5120    -0.0690 C.3   1 <1>  -0.1600 
 17 C       -5.0500     0.7380     0.3000 C.3   1 <1>  -0.2400 
 18 O        5.6860    -0.8080     1.4980 O.3   1 <1>  -0.2800 
 19 C        5.3910    -0.1610    -0.5650 C.2   1 <1>  -0.1500 
 20 C        2.9530     5.0160    -0.7380 C.3   1 <1>   0.1400 
 21 C        2.3590     3.8100     1.3650 C.3   1 <1>   0.1400 
 22 C        6.8290    -0.9610     0.8720 C.2   1 <1>  -0.0100 
 23 C        6.7150    -0.5760    -0.4160 C.2   1 <1>  -0.1500 
 24 C        2.6810     6.3230     0.0220 C.3   1 <1>   0.1200 
 25 C        2.1390     5.1910     2.0050 C.3   1 <1>   0.1200 
 26 O        2.9410     6.1570     1.3870 O.3   1 <1>  -0.5600 
 27 H        3.1930     1.3470    -0.3650 H     1 <1>   0.3700 
 28 H       -2.8150     0.1970     1.6760 H     1 <1>   0.0800 
 29 H       -2.6750    -0.8780     0.3060 H     1 <1>   0.0800 
 30 H       -1.9170     2.8240    -1.7150 H     1 <1>   0.0800 
 31 H       -1.6050     3.8380    -0.3350 H     1 <1>   0.0800 
 32 H       -3.5440     0.7250    -1.2090 H     1 <1>   0.0800 
 33 H       -4.0180     3.0920    -0.5950 H     1 <1>   0.0800 
 34 H       -3.3070     2.8050     0.9660 H     1 <1>   0.0800 
 35 H       -5.1720     1.0220     1.3300 H     1 <1>   0.0800 
 36 H       -5.2840    -0.3070     0.2010 H     1 <1>   0.0800 
 37 H       -5.7490     1.2980    -0.2960 H     1 <1>   0.0800 
 38 H        4.9640     0.2010    -1.4830 H     1 <1>   0.1500 
 39 H        2.6850     5.1440    -1.7730 H     1 <1>   0.0800 
 40 H        4.0060     4.8000    -0.6970 H     1 <1>   0.0800 
 41 H        3.3520     3.4690     1.5970 H     1 <1>   0.0800 
 42 H        1.6610     3.1160     1.7990 H     1 <1>   0.0800 
 43 H        7.6740    -1.3510     1.4150 H     1 <1>   0.1500 
 44 H        7.4680    -0.5800    -1.1850 H     1 <1>   0.1500 
 45 H        1.6560     6.6290    -0.1030 H     1 <1>   0.0800 
 46 H        3.3220     7.1060    -0.3420 H     1 <1>   0.0800 
 47 H        2.4030     5.1630     3.0470 H     1 <1>   0.0800 
 48 H        1.1090     5.4900     1.9180 H     1 <1>   0.0800 
@<TRIPOS>BOND
  1   1   2  1   
  2   1   3  1   
  3   2   4  1   
  4   2   5  2   
  5   3   6  2   
  6   3   7  1   
  7   4   8  am  
  8   4  27  1   
  9   5   6  1   
 10   5   9  1   
 11   6  10  1   
 12   7  11  1   
 13   7  28  1   
 14   7  29  1   
 15   8  12  2   
 16   8  13  1   
 17   9  14  2   
 18   9  15  am  
 19  10  16  1   
 20  10  30  1   
 21  10  31  1   
 22  11  16  1   
 23  11  17  1   
 24  11  32  1   
 25  13  18  1   
 26  13  19  2   
 27  15  20  1   
 28  15  21  1   
 29  16  33  1   
 30  16  34  1   
 31  17  35  1   
 32  17  36  1   
 33  17  37  1   
 34  18  22  1   
 35  19  23  1   
 36  19  38  1   
 37  20  24  1   
 38  20  39  1   
 39  20  40  1   
 40  21  25  1   
 41  21  41  1   
 42  21  42  1   
 43  22  23  2   
 44  22  43  1   
 45  23  44  1   
 46  24  26  1   
 47  24  45  1   
 48  24  46  1   
 49  25  26  1   
 50  25  47  1   
 51  25  48  1   
@<TRIPOS>SUBSTRUCTURE
  1 ****   2 GROUP 4 **** **** 0

# MOE 2024.06 (io_trps.svl 2023.06)
