@<TRIPOS>MOLECULE
NONAME
47 49 1 0 0 
SMALL
USER_CHARGES


@<TRIPOS>ATOM
  1 O        0.3710     0.6930     0.7340 O.2   1 <1>  -0.5700 
  2 C        0.4440     1.8980     0.7820 C.2   1 <1>   0.5690 
  3 N        1.6190     2.5290     1.1010 N.am  1 <1>  -0.6600 
  4 C       -0.8060     2.7190     0.4760 C.3   1 <1>  -0.0990 
  5 C        1.8450     4.0110     1.1380 C.3   1 <1>   0.1400 
  6 C        2.8680     1.7490     1.3850 C.3   1 <1>   0.1400 
  7 C       -2.0690     1.8830     0.1910 C.3   1 <1>  -0.1600 
  8 C        3.0050     4.4250     0.2150 C.3   1 <1>   0.2090 
  9 C        4.0200     2.1760     0.4590 C.3   1 <1>   0.2090 
 10 C       -3.2770     2.7730    -0.1000 C.3   1 <1>   0.1200 
 11 N        4.2460     3.6500     0.5190 N.pl3 1 <1>  -0.8380 
 12 O       -4.3850     1.9430    -0.3550 O.3   1 <1>  -0.3620 
 13 C        5.4370     4.1110    -0.0060 C.ar  1 <1>   0.4100 
 14 C       -5.6050     2.4590    -0.6460 C.ar  1 <1>   0.0820 
 15 N        5.3850     4.7450    -1.1730 N.ar  1 <1>  -0.6200 
 16 C        6.6230     3.8900     0.6890 C.ar  1 <1>  -0.1500 
 17 C       -6.6240     1.5510    -0.8830 C.ar  1 <1>  -0.1500 
 18 C       -5.8750     3.8240    -0.7150 C.ar  1 <1>  -0.1500 
 19 C        6.5440     5.1610    -1.6560 C.ar  1 <1>   0.1600 
 20 C        7.8210     4.3280     0.1750 C.ar  1 <1>  -0.1500 
 21 C       -7.9000     1.9900    -1.1870 C.ar  1 <1>  -0.1500 
 22 C       -7.1530     4.2620    -1.0190 C.ar  1 <1>  -0.1500 
 23 C        7.7690     4.9830    -1.0380 C.ar  1 <1>  -0.1500 
 24 C       -8.1650     3.3470    -1.2550 C.ar  1 <1>  -0.1500 
 25 H       -0.5970     3.3320    -0.3810 H     1 <1>   0.0800 
 26 H       -0.9980     3.3580     1.3180 H     1 <1>   0.0800 
 27 H        2.0890     4.3000     2.1450 H     1 <1>   0.0800 
 28 H        0.9640     4.5490     0.8470 H     1 <1>   0.0800 
 29 H        2.6950     0.6950     1.2620 H     1 <1>   0.0800 
 30 H        3.1600     1.9160     2.4060 H     1 <1>   0.0800 
 31 H       -2.2840     1.2620     1.0440 H     1 <1>   0.0800 
 32 H       -1.8880     1.2440    -0.6570 H     1 <1>   0.0800 
 33 H        3.2040     5.4760     0.3380 H     1 <1>   0.0800 
 34 H        2.7240     4.2580    -0.8110 H     1 <1>   0.0800 
 35 H        3.7830     1.8950    -0.5530 H     1 <1>   0.0800 
 36 H        4.9180     1.6580     0.7460 H     1 <1>   0.0800 
 37 H       -3.1030     3.3800    -0.9720 H     1 <1>   0.0800 
 38 H       -3.5080     3.3920     0.7490 H     1 <1>   0.0800 
 39 H        6.5800     3.3790     1.6310 H     1 <1>   0.1500 
 40 H       -6.4080     0.4990    -0.8280 H     1 <1>   0.1500 
 41 H       -5.1100     4.5550    -0.5370 H     1 <1>   0.1500 
 42 H        6.5150     5.6740    -2.6020 H     1 <1>   0.1500 
 43 H        8.7520     4.1710     0.6920 H     1 <1>   0.1500 
 44 H       -8.6850     1.2780    -1.3700 H     1 <1>   0.1500 
 45 H       -7.3620     5.3170    -1.0720 H     1 <1>   0.1500 
 46 H        8.6670     5.3530    -1.4980 H     1 <1>   0.1500 
 47 H       -9.1570     3.6910    -1.4910 H     1 <1>   0.1500 
@<TRIPOS>BOND
  1   1   2  2   
  2   2   3  am  
  3   2   4  1   
  4   3   5  1   
  5   3   6  1   
  6   4   7  1   
  7   4  25  1   
  8   4  26  1   
  9   5   8  1   
 10   5  27  1   
 11   5  28  1   
 12   6   9  1   
 13   6  29  1   
 14   6  30  1   
 15   7  10  1   
 16   7  31  1   
 17   7  32  1   
 18   8  11  1   
 19   8  33  1   
 20   8  34  1   
 21   9  11  1   
 22   9  35  1   
 23   9  36  1   
 24  10  12  1   
 25  10  37  1   
 26  10  38  1   
 27  11  13  1   
 28  12  14  1   
 29  13  15  ar  
 30  13  16  ar  
 31  14  17  ar  
 32  14  18  ar  
 33  15  19  ar  
 34  16  20  ar  
 35  16  39  1   
 36  17  21  ar  
 37  17  40  1   
 38  18  22  ar  
 39  18  41  1   
 40  19  23  ar  
 41  19  42  1   
 42  20  23  ar  
 43  20  43  1   
 44  21  24  ar  
 45  21  44  1   
 46  22  24  ar  
 47  22  45  1   
 48  23  46  1   
 49  24  47  1   
@<TRIPOS>SUBSTRUCTURE
  1 ****   4 GROUP 4 **** **** 0

# MOE 2024.06 (io_trps.svl 2023.06)
