@<TRIPOS>MOLECULE
NONAME
42 43 1 0 0 
SMALL
USER_CHARGES


@<TRIPOS>ATOM
  1 O        1.0120    -8.5180     0.1930 O.3   1 <1>  -0.3630 
  2 C       -0.1880    -7.9230     0.3490 C.ar  1 <1>   0.0830 
  3 C        1.3080    -8.9650    -1.1130 C.3   1 <1>   0.1200 
  4 C       -0.2580    -6.5620     0.6260 C.ar  1 <1>  -0.1440 
  5 C       -1.3440    -8.6790     0.2240 C.ar  1 <1>  -0.1500 
  6 C        2.7950    -9.3320    -1.2270 C.3   1 <1>   0.3430 
  7 C       -1.5080    -5.9720     0.7500 C.ar  1 <1>  -0.1500 
  8 C        0.9920    -5.7060     0.8000 C.3   1 <1>   0.1220 
  9 C       -2.5810    -8.0760     0.3530 C.ar  1 <1>  -0.1500 
 10 N        3.6820    -8.3330    -0.5500 N.4   1 <1>  -0.9590 
 11 C       -2.6680    -6.7180     0.6120 C.ar  1 <1>  -0.1430 
 12 C        1.6940    -5.4530    -0.5270 C.2   1 <1>  -0.2880 
 13 C        5.0430    -8.2460    -1.1230 C.3   1 <1>   0.3430 
 14 C        3.8550    -8.6020     0.8990 C.3   1 <1>   0.3430 
 15 C       -4.0240    -6.0500     0.7530 C.3   1 <1>  -0.0970 
 16 C        3.0090    -5.2790    -0.6910 C.2   1 <1>  -0.3000 
 17 C        5.8780    -7.6010    -0.0250 C.3   1 <1>  -0.1600 
 18 C        5.1170    -7.8420     1.2820 C.3   1 <1>  -0.1600 
 19 H        1.0710    -8.1710    -1.8010 H     1 <1>   0.0800 
 20 H        0.6900    -9.8170    -1.3370 H     1 <1>   0.0800 
 21 H       -1.2850    -9.7340     0.0330 H     1 <1>   0.1500 
 22 H        3.0450    -9.3910    -2.2730 H     1 <1>   0.0800 
 23 H        2.9530   -10.3080    -0.8000 H     1 <1>   0.0800 
 24 H       -1.5880    -4.9190     0.9580 H     1 <1>   0.1500 
 25 H        1.6620    -6.1740     1.4980 H     1 <1>   0.0800 
 26 H        0.7110    -4.7550     1.2190 H     1 <1>   0.0800 
 27 H       -3.4760    -8.6660     0.2550 H     1 <1>   0.1500 
 28 H        3.2260    -7.4060    -0.6200 H     1 <1>   0.4500 
 29 H        0.9950    -5.3960    -1.3470 H     1 <1>   0.1500 
 30 H        5.0580    -7.6640    -2.0310 H     1 <1>   0.0800 
 31 H        5.4190    -9.2370    -1.3230 H     1 <1>   0.0800 
 32 H        4.0060    -9.6570     1.0610 H     1 <1>   0.0800 
 33 H        3.0000    -8.2740     1.4700 H     1 <1>   0.0800 
 34 H       -4.3040    -6.0120     1.7900 H     1 <1>   0.0800 
 35 H       -4.7740    -6.5980     0.2110 H     1 <1>   0.0800 
 36 H       -3.9910    -5.0480     0.3640 H     1 <1>   0.0800 
 37 H        3.4710    -5.0760    -1.6440 H     1 <1>   0.1500 
 38 H        3.7280    -5.2900     0.1110 H     1 <1>   0.1500 
 39 H        5.9760    -6.5460    -0.2140 H     1 <1>   0.0800 
 40 H        6.8630    -8.0340     0.0010 H     1 <1>   0.0800 
 41 H        5.6980    -8.4150     1.9840 H     1 <1>   0.0800 
 42 H        4.8520    -6.9070     1.7440 H     1 <1>   0.0800 
@<TRIPOS>BOND
  1   1   2  1   
  2   1   3  1   
  3   2   4  ar  
  4   2   5  ar  
  5   3   6  1   
  6   3  19  1   
  7   3  20  1   
  8   4   7  ar  
  9   4   8  1   
 10   5   9  ar  
 11   5  21  1   
 12   6  10  1   
 13   6  22  1   
 14   6  23  1   
 15   7  11  ar  
 16   7  24  1   
 17   8  12  1   
 18   8  25  1   
 19   8  26  1   
 20   9  11  ar  
 21   9  27  1   
 22  10  13  1   
 23  10  14  1   
 24  10  28  1   
 25  11  15  1   
 26  12  16  2   
 27  12  29  1   
 28  13  17  1   
 29  13  30  1   
 30  13  31  1   
 31  14  18  1   
 32  14  32  1   
 33  14  33  1   
 34  15  34  1   
 35  15  35  1   
 36  15  36  1   
 37  16  37  1   
 38  16  38  1   
 39  17  18  1   
 40  17  39  1   
 41  17  40  1   
 42  18  41  1   
 43  18  42  1   
@<TRIPOS>SUBSTRUCTURE
  1 ****   1 GROUP 4 **** **** 0

# MOE 2024.06 (io_trps.svl 2023.06)
