@<TRIPOS>MOLECULE
NONAME
38 37 1 0 0 
SMALL
USER_CHARGES


@<TRIPOS>ATOM
  1 O       -0.3780     0.7990     0.7560 O.3   1 <1>  -0.6800 
  2 C       -0.7150     1.9060     0.0150 C.3   1 <1>   0.4800 
  3 C        0.5730     2.6280    -0.2060 C.1   1 <1>  -0.2000 
  4 C       -1.3090     1.4420    -1.3360 C.3   1 <1>  -0.1600 
  5 C       -1.6470     2.7900     0.8710 C.3   1 <1>  -0.1600 
  6 C        1.6590     3.1000    -0.3020 C.1   1 <1>  -0.2000 
  7 C       -2.1800     0.1670    -1.3350 C.3   1 <1>  -0.2400 
  8 C       -2.9940     2.1840     1.3040 C.3   1 <1>  -0.2400 
  9 C        3.0860     3.5060    -0.2980 C.3   1 <1>   0.5430 
 10 N        3.8730     2.2920     0.0510 N.4   1 <1>  -0.9590 
 11 C        3.6220     1.8800     1.4630 C.3   1 <1>   0.3430 
 12 C        5.3200     2.4420    -0.2500 C.3   1 <1>   0.3430 
 13 C        3.9780     0.4080     1.6360 C.3   1 <1>  -0.2400 
 14 C        5.5410     2.3990    -1.7580 C.3   1 <1>  -0.2400 
 15 H       -1.1880     0.2740     0.8830 H     1 <1>   0.4000 
 16 H       -0.4970     1.2670    -2.0200 H     1 <1>   0.0800 
 17 H       -1.8770     2.2560    -1.7510 H     1 <1>   0.0800 
 18 H       -1.8490     3.6940     0.3240 H     1 <1>   0.0800 
 19 H       -1.1090     3.0800     1.7570 H     1 <1>   0.0800 
 20 H       -1.5980    -0.6910    -1.0500 H     1 <1>   0.0800 
 21 H       -3.0220     0.2510    -0.6750 H     1 <1>   0.0800 
 22 H       -2.5560    -0.0090    -2.3280 H     1 <1>   0.0800 
 23 H       -3.4800     2.8500     1.9950 H     1 <1>   0.0800 
 24 H       -3.6470     2.0610     0.4590 H     1 <1>   0.0800 
 25 H       -2.8570     1.2370     1.7950 H     1 <1>   0.0800 
 26 H        3.2530     4.2900     0.4230 H     1 <1>   0.0800 
 27 H        3.3530     3.8660    -1.2780 H     1 <1>   0.0800 
 28 H        3.4840     1.5440    -0.5370 H     1 <1>   0.4500 
 29 H        2.5770     2.0030     1.7040 H     1 <1>   0.0800 
 30 H        4.1980     2.4890     2.1420 H     1 <1>   0.0800 
 31 H        5.8720     1.6320     0.1990 H     1 <1>   0.0800 
 32 H        5.6950     3.3680     0.1580 H     1 <1>   0.0800 
 33 H        3.4000    -0.2020     0.9640 H     1 <1>   0.0800 
 34 H        3.7360     0.1070     2.6400 H     1 <1>   0.0800 
 35 H        5.0260     0.2290     1.4840 H     1 <1>   0.0800 
 36 H        5.1510     1.4870    -2.1750 H     1 <1>   0.0800 
 37 H        6.5980     2.4250    -1.9580 H     1 <1>   0.0800 
 38 H        5.0970     3.2430    -2.2520 H     1 <1>   0.0800 
@<TRIPOS>BOND
  1   1   2  1   
  2   1  15  1   
  3   2   3  1   
  4   2   4  1   
  5   2   5  1   
  6   3   6  3   
  7   4   7  1   
  8   4  16  1   
  9   4  17  1   
 10   5   8  1   
 11   5  18  1   
 12   5  19  1   
 13   6   9  1   
 14   7  20  1   
 15   7  21  1   
 16   7  22  1   
 17   8  23  1   
 18   8  24  1   
 19   8  25  1   
 20   9  10  1   
 21   9  26  1   
 22   9  27  1   
 23  10  11  1   
 24  10  12  1   
 25  10  28  1   
 26  11  13  1   
 27  11  29  1   
 28  11  30  1   
 29  12  14  1   
 30  12  31  1   
 31  12  32  1   
 32  13  33  1   
 33  13  34  1   
 34  13  35  1   
 35  14  36  1   
 36  14  37  1   
 37  14  38  1   
@<TRIPOS>SUBSTRUCTURE
  1 ****   3 GROUP 4 **** **** 0

# MOE 2024.06 (io_trps.svl 2023.06)
