@<TRIPOS>MOLECULE
NONAME
41 43 1 0 0 
SMALL
USER_CHARGES


@<TRIPOS>ATOM
  1 O       -0.1630     4.6920     1.6330 O.3   1 <1>  -0.3630 
  2 C        0.6990     4.2650     0.7070 C.ar  1 <1>   0.0830 
  3 C       -1.1280     3.6540     1.8040 C.3   1 <1>   0.4000 
  4 C        0.3530     3.0170     0.2820 C.ar  1 <1>   0.0830 
  5 C        1.8000     4.9240     0.1990 C.ar  1 <1>  -0.1500 
  6 O       -0.7430     2.6000     0.9230 O.3   1 <1>  -0.3630 
  7 C        1.0900     2.3540    -0.6780 C.ar  1 <1>  -0.1500 
  8 C        2.5630     4.2750    -0.7670 C.ar  1 <1>  -0.1440 
  9 C        2.2040     2.9980    -1.2030 C.ar  1 <1>  -0.1500 
 10 C        3.7910     4.9460    -1.3370 C.3   1 <1>   0.4870 
 11 N        4.9050     4.6020    -0.4420 N.4   1 <1>  -0.9060 
 12 C        6.2460     4.9460    -0.9420 C.3   1 <1>   0.4860 
 13 C        7.2520     4.3220     0.0010 C.ar  1 <1>  -0.1430 
 14 C        7.2610     2.9440     0.2080 C.ar  1 <1>   0.0830 
 15 C        8.1730     5.1250     0.6550 C.ar  1 <1>  -0.1500 
 16 O        6.3220     2.2040    -0.4440 O.3   1 <1>  -0.3630 
 17 C        8.2040     2.3850     1.0660 C.ar  1 <1>  -0.1500 
 18 C        9.1040     4.5620     1.5110 C.ar  1 <1>  -0.1500 
 19 C        6.3010     0.7950    -0.3530 C.3   1 <1>   0.1200 
 20 C        9.1190     3.1940     1.7140 C.ar  1 <1>  -0.1500 
 21 C        5.1170     0.2870    -1.1700 C.3   1 <1>  -0.2400 
 22 H       -2.1030     4.0160     1.5280 H     1 <1>   0.0800 
 23 H       -1.1070     3.3020     2.8200 H     1 <1>   0.0800 
 24 H        2.0290     5.9110     0.5620 H     1 <1>   0.1500 
 25 H        0.7940     1.3710    -1.0000 H     1 <1>   0.1500 
 26 H        2.7810     2.4880    -1.9560 H     1 <1>   0.1500 
 27 H        3.6490     6.0150    -1.3770 H     1 <1>   0.0800 
 28 H        3.9770     4.5780    -2.3330 H     1 <1>   0.0800 
 29 H        4.9220     3.5770    -0.3130 H     1 <1>   0.4500 
 30 H        4.7600     4.9850     0.4960 H     1 <1>   0.4500 
 31 H        6.3770     6.0150    -0.9770 H     1 <1>   0.0800 
 32 H        6.3920     4.5400    -1.9300 H     1 <1>   0.0800 
 33 H        8.1870     6.1920     0.5100 H     1 <1>   0.1500 
 34 H        8.2470     1.3270     1.2490 H     1 <1>   0.1500 
 35 H        9.8210     5.1860     2.0180 H     1 <1>   0.1500 
 36 H        6.1900     0.5150     0.6820 H     1 <1>   0.0800 
 37 H        7.2290     0.4120    -0.7440 H     1 <1>   0.0800 
 38 H        9.8470     2.7600     2.3780 H     1 <1>   0.1500 
 39 H        4.1930     0.6520    -0.7600 H     1 <1>   0.0800 
 40 H        5.0960    -0.7880    -1.1380 H     1 <1>   0.0800 
 41 H        5.2120     0.5920    -2.1970 H     1 <1>   0.0800 
@<TRIPOS>BOND
  1   1   2  1   
  2   1   3  1   
  3   2   4  ar  
  4   2   5  ar  
  5   3   6  1   
  6   3  22  1   
  7   3  23  1   
  8   4   6  1   
  9   4   7  ar  
 10   5   8  ar  
 11   5  24  1   
 12   7   9  ar  
 13   7  25  1   
 14   8   9  ar  
 15   8  10  1   
 16   9  26  1   
 17  10  11  1   
 18  10  27  1   
 19  10  28  1   
 20  11  12  1   
 21  11  29  1   
 22  11  30  1   
 23  12  13  1   
 24  12  31  1   
 25  12  32  1   
 26  13  14  ar  
 27  13  15  ar  
 28  14  16  1   
 29  14  17  ar  
 30  15  18  ar  
 31  15  33  1   
 32  16  19  1   
 33  17  20  ar  
 34  17  34  1   
 35  18  20  ar  
 36  18  35  1   
 37  19  21  1   
 38  19  36  1   
 39  19  37  1   
 40  20  38  1   
 41  21  39  1   
 42  21  40  1   
 43  21  41  1   
@<TRIPOS>SUBSTRUCTURE
  1 ****  11 GROUP 4 **** **** 0

# MOE 2024.06 (io_trps.svl 2023.06)
