@<TRIPOS>MOLECULE
NONAME
37 39 1 0 0 
SMALL
USER_CHARGES


@<TRIPOS>ATOM
  1 F       -0.7130     0.7050     0.2500 F     1 <1>  -0.1900 
  2 C       -1.9920     0.4800     0.1250 C.ar  1 <1>   0.1900 
  3 C       -2.6170    -0.3530     1.0310 C.ar  1 <1>  -0.1500 
  4 C       -2.6800     1.0810    -0.9100 C.ar  1 <1>  -0.1500 
  5 C       -3.9740    -0.5860     0.8900 C.ar  1 <1>  -0.1500 
  6 C       -4.0370     0.8370    -1.0350 C.ar  1 <1>  -0.1500 
  7 C       -4.7170     0.0000    -0.1420 C.ar  1 <1>   0.0540 
  8 C       -6.1440    -0.2490    -0.2840 C.2   1 <1>   0.4620 
  9 N       -6.8970     0.2510    -1.2060 N.2   1 <1>  -0.4100 
 10 N       -6.8230    -1.0480     0.5600 N.2   1 <1>  -0.5650 
 11 O       -8.0550    -0.2240    -0.9560 O.3   1 <1>  -0.0190 
 12 C       -8.0250    -0.9980     0.0920 C.2   1 <1>   0.3930 
 13 C       -9.2540    -1.6390     0.5400 C.2   1 <1>   0.7150 
 14 O       -9.2730    -2.3710     1.5150 O.2   1 <1>  -0.5700 
 15 N      -10.4370    -1.4340    -0.1290 N.am  1 <1>  -0.7300 
 16 C      -11.7430    -2.0190     0.2180 C.3   1 <1>   0.2200 
 17 C      -12.2280    -2.8760    -0.9560 C.3   1 <1>  -0.1600 
 18 C      -12.7260    -0.8840     0.5220 C.3   1 <1>  -0.1600 
 19 C      -13.6380    -3.4250    -0.6950 C.3   1 <1>  -0.1600 
 20 C      -14.1370    -1.4290     0.7860 C.3   1 <1>  -0.1600 
 21 C      -14.6270    -2.2920    -0.3860 C.3   1 <1>  -0.1600 
 22 H       -2.0520    -0.8060     1.8260 H     1 <1>   0.1500 
 23 H       -2.1620     1.7250    -1.5980 H     1 <1>   0.1500 
 24 H       -4.4660    -1.2350     1.5950 H     1 <1>   0.1500 
 25 H       -4.5780     1.3040    -1.8400 H     1 <1>   0.1500 
 26 H      -10.4450    -0.8260    -0.9490 H     1 <1>   0.3700 
 27 H      -11.6490    -2.6440     1.0920 H     1 <1>   0.0800 
 28 H      -11.5500    -3.6990    -1.1000 H     1 <1>   0.0800 
 29 H      -12.2450    -2.2840    -1.8540 H     1 <1>   0.0800 
 30 H      -12.7650    -0.2050    -0.3110 H     1 <1>   0.0800 
 31 H      -12.3880    -0.3440     1.3900 H     1 <1>   0.0800 
 32 H      -13.6070    -4.1070     0.1380 H     1 <1>   0.0800 
 33 H      -13.9770    -3.9740    -1.5570 H     1 <1>   0.0800 
 34 H      -14.8190    -0.6100     0.9400 H     1 <1>   0.0800 
 35 H      -14.1280    -2.0230     1.6850 H     1 <1>   0.0800 
 36 H      -15.5900    -2.7100    -0.1470 H     1 <1>   0.0800 
 37 H      -14.7450    -1.6740    -1.2590 H     1 <1>   0.0800 
@<TRIPOS>BOND
  1   1   2  1   
  2   2   3  ar  
  3   2   4  ar  
  4   3   5  ar  
  5   3  22  1   
  6   4   6  ar  
  7   4  23  1   
  8   5   7  ar  
  9   5  24  1   
 10   6   7  ar  
 11   6  25  1   
 12   7   8  1   
 13   8   9  2   
 14   8  10  1   
 15   9  11  1   
 16  10  12  2   
 17  11  12  1   
 18  12  13  1   
 19  13  14  2   
 20  13  15  am  
 21  15  16  1   
 22  15  26  1   
 23  16  17  1   
 24  16  18  1   
 25  16  27  1   
 26  17  19  1   
 27  17  28  1   
 28  17  29  1   
 29  18  20  1   
 30  18  30  1   
 31  18  31  1   
 32  19  21  1   
 33  19  32  1   
 34  19  33  1   
 35  20  21  1   
 36  20  34  1   
 37  20  35  1   
 38  21  36  1   
 39  21  37  1   
@<TRIPOS>SUBSTRUCTURE
  1 ****  12 GROUP 4 **** **** 0

# MOE 2024.06 (io_trps.svl 2023.06)
