@<TRIPOS>MOLECULE
NONAME
48 50 1 0 0 
SMALL
USER_CHARGES


@<TRIPOS>ATOM
  1 O        0.4720    -0.3900    -0.1110 O.2   1 <1>  -0.5700 
  2 C        0.7820    -1.5600    -0.2090 C.2   1 <1>   0.6340 
  3 O        2.0710    -1.8620    -0.4120 O.3   1 <1>  -0.4300 
  4 C       -0.1650    -2.6530    -0.1150 C.ar  1 <1>   0.0860 
  5 C        3.0610    -0.8580    -0.5190 C.3   1 <1>   0.0400 
  6 C       -1.5380    -2.4160    -0.0060 C.ar  1 <1>  -0.1500 
  7 C        0.2450    -3.9890    -0.1240 C.ar  1 <1>  -0.1500 
  8 C       -2.4590    -3.4460     0.0900 C.ar  1 <1>   0.1170 
  9 C       -0.6610    -5.0270    -0.0250 C.ar  1 <1>  -0.1500 
 10 N       -3.8410    -3.2420     0.2210 N.am  1 <1>  -0.5470 
 11 C       -2.0220    -4.7790     0.0880 C.ar  1 <1>   0.1000 
 12 C       -4.6760    -2.1960    -0.0790 C.2   1 <1>   0.5440 
 13 N       -2.9450    -5.8290     0.1830 N.pl3 1 <1>  -0.8380 
 14 O       -4.2320    -1.2050    -0.6250 O.2   1 <1>  -0.5700 
 15 C       -6.0930    -2.3020     0.2250 C.ar  1 <1>   0.0860 
 16 C       -2.7560    -6.9050     1.2070 C.3   1 <1>   0.2090 
 17 C       -3.5700    -6.3130    -1.0870 C.3   1 <1>   0.2090 
 18 C       -6.5720    -3.1180     1.2530 C.ar  1 <1>  -0.1500 
 19 C       -7.0380    -1.5860    -0.5100 C.ar  1 <1>  -0.1500 
 20 C       -2.2270    -8.2170     0.5930 C.3   1 <1>   0.1200 
 21 C       -2.9480    -7.6390    -1.5570 C.3   1 <1>   0.1200 
 22 C       -7.9250    -3.2240     1.5190 C.ar  1 <1>  -0.1500 
 23 C       -8.3920    -1.6880    -0.2460 C.ar  1 <1>  -0.1500 
 24 O       -2.9690    -8.5930    -0.5320 O.3   1 <1>  -0.5600 
 25 C       -8.8450    -2.5120     0.7690 C.ar  1 <1>  -0.1430 
 26 C      -10.3300    -2.6250     1.0610 C.3   1 <1>  -0.0970 
 27 H        4.0120    -1.3310    -0.6810 H     1 <1>   0.0800 
 28 H        3.0790    -0.2890     0.3940 H     1 <1>   0.0800 
 29 H        2.8180    -0.2180    -1.3500 H     1 <1>   0.0800 
 30 H       -1.8820    -1.3970     0.0080 H     1 <1>   0.1500 
 31 H        1.2930    -4.2200    -0.2100 H     1 <1>   0.1500 
 32 H       -0.3090    -6.0400    -0.0410 H     1 <1>   0.1500 
 33 H       -4.2950    -4.1300     0.4460 H     1 <1>   0.3700 
 34 H       -3.7020    -7.1030     1.6800 H     1 <1>   0.0800 
 35 H       -2.0770    -6.5650     1.9690 H     1 <1>   0.0800 
 36 H       -3.4490    -5.5700    -1.8570 H     1 <1>   0.0800 
 37 H       -4.6250    -6.4560    -0.9310 H     1 <1>   0.0800 
 38 H       -5.8810    -3.6720     1.8610 H     1 <1>   0.1500 
 39 H       -6.6990    -0.9390    -1.3010 H     1 <1>   0.1500 
 40 H       -2.2980    -9.0130     1.3130 H     1 <1>   0.0800 
 41 H       -1.1970    -8.1130     0.3030 H     1 <1>   0.0800 
 42 H       -1.9290    -7.4870    -1.8680 H     1 <1>   0.0800 
 43 H       -3.5060    -8.0360    -2.3860 H     1 <1>   0.0800 
 44 H       -8.2620    -3.8620     2.3190 H     1 <1>   0.1500 
 45 H       -9.0920    -1.1200    -0.8350 H     1 <1>   0.1500 
 46 H      -10.5620    -3.5910     1.4720 H     1 <1>   0.0800 
 47 H      -10.9010    -2.4960     0.1590 H     1 <1>   0.0800 
 48 H      -10.6210    -1.8680     1.7670 H     1 <1>   0.0800 
@<TRIPOS>BOND
  1   1   2  2   
  2   2   3  1   
  3   2   4  1   
  4   3   5  1   
  5   4   6  ar  
  6   4   7  ar  
  7   5  27  1   
  8   5  28  1   
  9   5  29  1   
 10   6   8  ar  
 11   6  30  1   
 12   7   9  ar  
 13   7  31  1   
 14   8  10  1   
 15   8  11  ar  
 16   9  11  ar  
 17   9  32  1   
 18  10  12  am  
 19  10  33  1   
 20  11  13  1   
 21  12  14  2   
 22  12  15  1   
 23  13  16  1   
 24  13  17  1   
 25  15  18  ar  
 26  15  19  ar  
 27  16  20  1   
 28  16  34  1   
 29  16  35  1   
 30  17  21  1   
 31  17  36  1   
 32  17  37  1   
 33  18  22  ar  
 34  18  38  1   
 35  19  23  ar  
 36  19  39  1   
 37  20  24  1   
 38  20  40  1   
 39  20  41  1   
 40  21  24  1   
 41  21  42  1   
 42  21  43  1   
 43  22  25  ar  
 44  22  44  1   
 45  23  25  ar  
 46  23  45  1   
 47  25  26  1   
 48  26  46  1   
 49  26  47  1   
 50  26  48  1   
@<TRIPOS>SUBSTRUCTURE
  1 ****  10 GROUP 4 **** **** 0

# MOE 2024.06 (io_trps.svl 2023.06)
