@<TRIPOS>MOLECULE
NONAME
45 47 1 0 0 
SMALL
USER_CHARGES


@<TRIPOS>ATOM
  1 CL      -6.3440     0.9560    -4.2960 Cl    1 <1>  -0.1770 
  2 C       -6.1920     1.3690    -2.6080 C.ar  1 <1>   0.1770 
  3 C       -5.9910     2.6880    -2.2490 C.ar  1 <1>  -0.1500 
  4 C       -6.2770     0.3710    -1.6560 C.ar  1 <1>  -0.1500 
  5 C       -5.8750     3.0130    -0.9080 C.ar  1 <1>  -0.1500 
  6 C       -6.1610     0.7010    -0.3160 C.ar  1 <1>  -0.1500 
  7 C       -5.9590     2.0220     0.0620 C.ar  1 <1>  -0.1430 
  8 C       -5.8500     2.4000     1.5290 C.3   1 <1>   0.2840 
  9 N       -7.1750     2.8660     1.9590 N.am  1 <1>  -0.7300 
 10 C       -7.5150     4.1570     2.1840 C.2   1 <1>   0.5690 
 11 O       -6.6920     5.0350     2.2900 O.2   1 <1>  -0.5700 
 12 C       -9.0080     4.4940     2.2600 C.3   1 <1>   0.1710 
 13 N       -9.8730     3.5910     1.4410 N.3   1 <1>  -0.8100 
 14 C       -9.6380     3.8080    -0.0080 C.3   1 <1>   0.1100 
 15 C      -11.2990     3.8030     1.7570 C.3   1 <1>   0.1100 
 16 C      -10.4950     2.8660    -0.8660 C.3   1 <1>   0.1400 
 17 C      -12.2110     2.8690     0.9400 C.3   1 <1>   0.1400 
 18 N      -11.9420     3.0150    -0.5220 N.am  1 <1>  -0.6600 
 19 C      -12.8400     3.5940    -1.3970 C.2   1 <1>   0.7150 
 20 O      -12.4030     4.1860    -2.3700 O.2   1 <1>  -0.5700 
 21 C      -14.2690     3.5010    -1.1770 C.2   1 <1>   0.0550 
 22 O      -15.0760     4.5260    -1.4410 O.3   1 <1>  -0.2800 
 23 C      -15.0300     2.4720    -0.7050 C.2   1 <1>  -0.1500 
 24 C      -16.3100     4.1830    -1.1530 C.2   1 <1>  -0.0100 
 25 C      -16.3520     2.9170    -0.6890 C.2   1 <1>  -0.1500 
 26 H       -5.9270     3.4470    -3.0080 H     1 <1>   0.1500 
 27 H       -6.4330    -0.6470    -1.9630 H     1 <1>   0.1500 
 28 H       -5.7220     4.0390    -0.6150 H     1 <1>   0.1500 
 29 H       -6.2290    -0.0730     0.4290 H     1 <1>   0.1500 
 30 H       -5.1190     3.1800     1.6610 H     1 <1>   0.0800 
 31 H       -5.5560     1.5520     2.1220 H     1 <1>   0.0800 
 32 H       -7.9590     2.2440     1.7390 H     1 <1>   0.3700 
 33 H       -9.1470     5.5140     1.9490 H     1 <1>   0.0800 
 34 H       -9.2960     4.4210     3.2930 H     1 <1>   0.0800 
 35 H       -8.6030     3.6330    -0.2450 H     1 <1>   0.0800 
 36 H       -9.8700     4.8270    -0.2730 H     1 <1>   0.0800 
 37 H      -11.5720     4.8250     1.5520 H     1 <1>   0.0800 
 38 H      -11.4640     3.6170     2.8050 H     1 <1>   0.0800 
 39 H      -10.1910     1.8500    -0.6860 H     1 <1>   0.0800 
 40 H      -10.3260     3.0770    -1.9080 H     1 <1>   0.0800 
 41 H      -13.2340     3.1050     1.1680 H     1 <1>   0.0800 
 42 H      -12.0270     1.8500     1.2330 H     1 <1>   0.0800 
 43 H      -14.6960     1.4950    -0.4060 H     1 <1>   0.1500 
 44 H      -17.1000     4.8980    -1.3100 H     1 <1>   0.1500 
 45 H      -17.2070     2.3470    -0.3720 H     1 <1>   0.1500 
@<TRIPOS>BOND
  1   1   2  1   
  2   2   3  ar  
  3   2   4  ar  
  4   3   5  ar  
  5   3  26  1   
  6   4   6  ar  
  7   4  27  1   
  8   5   7  ar  
  9   5  28  1   
 10   6   7  ar  
 11   6  29  1   
 12   7   8  1   
 13   8   9  1   
 14   8  30  1   
 15   8  31  1   
 16   9  10  am  
 17   9  32  1   
 18  10  11  2   
 19  10  12  1   
 20  12  13  1   
 21  12  33  1   
 22  12  34  1   
 23  13  14  1   
 24  13  15  1   
 25  14  16  1   
 26  14  35  1   
 27  14  36  1   
 28  15  17  1   
 29  15  37  1   
 30  15  38  1   
 31  16  18  1   
 32  16  39  1   
 33  16  40  1   
 34  17  18  1   
 35  17  41  1   
 36  17  42  1   
 37  18  19  am  
 38  19  20  2   
 39  19  21  1   
 40  21  22  1   
 41  21  23  2   
 42  22  24  1   
 43  23  25  1   
 44  23  43  1   
 45  24  25  2   
 46  24  44  1   
 47  25  45  1   
@<TRIPOS>SUBSTRUCTURE
  1 ****  16 GROUP 4 **** **** 0

# MOE 2024.06 (io_trps.svl 2023.06)
