@<TRIPOS>MOLECULE
NONAME
39 40 1 0 0 
SMALL
USER_CHARGES


@<TRIPOS>ATOM
  1 P        0.3280     0.1590     0.0100 P.3   1 <1>   0.9000 
  2 O       -0.0220     0.2030    -1.4420 O.co2 1 <1>  -0.9500 
  3 O       -0.7500     0.3630     1.0260 O.co2 1 <1>  -0.9500 
  4 C        1.3420    -1.2930     0.3370 C.3   1 <1>  -0.0800 
  5 C        1.3680     1.6050     0.3130 C.3   1 <1>   0.3430 
  6 C        2.6700    -1.3110    -0.4620 C.3   1 <1>   0.2000 
  7 C        0.5540    -2.5990     0.1130 C.3   1 <1>  -0.1600 
  8 N        0.4460     2.7750     0.4930 N.4   1 <1>  -0.9590 
  9 O        2.5670    -0.5470    -1.6110 O.3   1 <1>  -0.6800 
 10 C        3.1450    -2.7090    -0.8870 C.3   1 <1>  -0.1600 
 11 C        1.3550    -3.8550     0.5030 C.3   1 <1>  -0.1600 
 12 C       -0.1280     3.1990    -0.8260 C.3   1 <1>   0.3430 
 13 C        0.9510     3.9070     1.3140 C.3   1 <1>   0.3430 
 14 C        2.8620    -3.7400     0.2120 C.3   1 <1>  -0.1600 
 15 C       -1.0990     4.3800    -0.6470 C.3   1 <1>   0.1200 
 16 C       -0.0940     5.0380     1.3800 C.3   1 <1>   0.1200 
 17 O       -0.5010     5.4130     0.0930 O.3   1 <1>  -0.5600 
 18 H        1.6140    -1.3010     1.3760 H     1 <1>   0.0800 
 19 H        2.0620     1.7930    -0.4870 H     1 <1>   0.0800 
 20 H        1.9240     1.4790     1.2230 H     1 <1>   0.0800 
 21 H        3.4400    -0.8570     0.1380 H     1 <1>   0.0800 
 22 H        0.2810    -2.6560    -0.9290 H     1 <1>   0.0800 
 23 H       -0.3640    -2.5680     0.6760 H     1 <1>   0.0800 
 24 H       -0.3520     2.2850     0.9730 H     1 <1>   0.4500 
 25 H        1.6020    -0.4610    -1.8680 H     1 <1>   0.4000 
 26 H        4.2000    -2.6770    -1.0950 H     1 <1>   0.0800 
 27 H        2.6340    -3.0120    -1.7850 H     1 <1>   0.0800 
 28 H        0.9490    -4.6940    -0.0360 H     1 <1>   0.0800 
 29 H        1.2200    -4.0540     1.5530 H     1 <1>   0.0800 
 30 H       -0.6530     2.3740    -1.2830 H     1 <1>   0.0800 
 31 H        0.6640     3.4940    -1.4930 H     1 <1>   0.0800 
 32 H        1.8540     4.2980     0.8760 H     1 <1>   0.0800 
 33 H        1.1760     3.5650     2.3100 H     1 <1>   0.0800 
 34 H        3.3760    -3.4400     1.1090 H     1 <1>   0.0800 
 35 H        3.2480    -4.7020    -0.0790 H     1 <1>   0.0800 
 36 H       -1.9920     4.0580    -0.1380 H     1 <1>   0.0800 
 37 H       -1.3760     4.7760    -1.6070 H     1 <1>   0.0800 
 38 H        0.3280     5.9050     1.8560 H     1 <1>   0.0800 
 39 H       -0.9600     4.7250     1.9390 H     1 <1>   0.0800 
@<TRIPOS>BOND
  1   1   2  ar  
  2   1   3  ar  
  3   1   4  1   
  4   1   5  1   
  5   4   6  1   
  6   4   7  1   
  7   4  18  1   
  8   5   8  1   
  9   5  19  1   
 10   5  20  1   
 11   6   9  1   
 12   6  10  1   
 13   6  21  1   
 14   7  11  1   
 15   7  22  1   
 16   7  23  1   
 17   8  12  1   
 18   8  13  1   
 19   8  24  1   
 20   9  25  1   
 21  10  14  1   
 22  10  26  1   
 23  10  27  1   
 24  11  14  1   
 25  11  28  1   
 26  11  29  1   
 27  12  15  1   
 28  12  30  1   
 29  12  31  1   
 30  13  16  1   
 31  13  32  1   
 32  13  33  1   
 33  14  34  1   
 34  14  35  1   
 35  15  17  1   
 36  15  36  1   
 37  15  37  1   
 38  16  17  1   
 39  16  38  1   
 40  16  39  1   
@<TRIPOS>SUBSTRUCTURE
  1 ****   1 GROUP 4 **** **** 0

# MOE 2024.06 (io_trps.svl 2023.06)
