@<TRIPOS>MOLECULE
NONAME
43 44 1 0 0 
SMALL
USER_CHARGES


@<TRIPOS>ATOM
  1 F        0.0620    -0.8040    -0.2680 F     1 <1>  -0.3400 
  2 C        1.1870    -1.1610    -0.8710 C.3   1 <1>   1.1640 
  3 F        0.9830    -1.0020    -2.1740 F     1 <1>  -0.3400 
  4 F        1.3230    -2.4670    -0.6730 F     1 <1>  -0.3400 
  5 C        2.3940    -0.3540    -0.3580 C.ar  1 <1>  -0.1440 
  6 C        2.7560     0.8470    -0.9580 C.ar  1 <1>  -0.1500 
  7 C        3.1420    -0.8020     0.7260 C.ar  1 <1>  -0.1500 
  8 C        3.8380     1.5750    -0.4970 C.ar  1 <1>  -0.1500 
  9 C        4.2250    -0.0780     1.1910 C.ar  1 <1>  -0.1500 
 10 C        4.5840     1.1130     0.5770 C.ar  1 <1>  -0.1430 
 11 C        5.7800     1.8930     1.0670 C.3   1 <1>   0.4870 
 12 N        6.9400     1.3820     0.2970 N.4   1 <1>  -0.9060 
 13 C        8.2550     1.9780     0.6280 C.3   1 <1>   0.4230 
 14 C        8.3270     3.4310     0.1450 C.3   1 <1>  -0.1600 
 15 C        9.3510     1.1450    -0.0370 C.3   1 <1>  -0.1600 
 16 C        9.7210     4.0210     0.3760 C.3   1 <1>   0.3430 
 17 C       10.7340     1.7550     0.1980 C.3   1 <1>   0.3430 
 18 N       10.7570     3.1710    -0.2790 N.4   1 <1>  -0.9590 
 19 C       12.1050     3.7860    -0.0890 C.3   1 <1>   0.3430 
 20 C       13.0870     3.1990    -1.0960 C.3   1 <1>  -0.2400 
 21 H        2.1870     1.2260    -1.7940 H     1 <1>   0.1500 
 22 H        2.8770    -1.7250     1.2200 H     1 <1>   0.1500 
 23 H        4.0780     2.5030    -0.9880 H     1 <1>   0.1500 
 24 H        4.7710    -0.4590     2.0380 H     1 <1>   0.1500 
 25 H        5.9180     1.7300     2.1240 H     1 <1>   0.0800 
 26 H        5.6300     2.9450     0.8890 H     1 <1>   0.0800 
 27 H        6.7120     1.4890    -0.6990 H     1 <1>   0.4500 
 28 H        6.9520     0.3650     0.4520 H     1 <1>   0.4500 
 29 H        8.4010     1.9510     1.6980 H     1 <1>   0.0800 
 30 H        7.6220     4.0370     0.6860 H     1 <1>   0.0800 
 31 H        8.0940     3.4970    -0.9030 H     1 <1>   0.0800 
 32 H        9.1840     1.0690    -1.0980 H     1 <1>   0.0800 
 33 H        9.3520     0.1500     0.3740 H     1 <1>   0.0800 
 34 H        9.9210     4.0840     1.4350 H     1 <1>   0.0800 
 35 H        9.7600     5.0220    -0.0280 H     1 <1>   0.0800 
 36 H       11.4740     1.1740    -0.3300 H     1 <1>   0.0800 
 37 H       10.9760     1.7220     1.2500 H     1 <1>   0.0800 
 38 H       10.5950     3.1780    -1.2980 H     1 <1>   0.4500 
 39 H       12.4600     3.6200     0.9160 H     1 <1>   0.0800 
 40 H       12.0460     4.8520    -0.2510 H     1 <1>   0.0800 
 41 H       13.2660     2.1540    -0.9180 H     1 <1>   0.0800 
 42 H       14.0310     3.7070    -0.9990 H     1 <1>   0.0800 
 43 H       12.7410     3.3440    -2.1040 H     1 <1>   0.0800 
@<TRIPOS>BOND
  1   1   2  1   
  2   2   3  1   
  3   2   4  1   
  4   2   5  1   
  5   5   6  ar  
  6   5   7  ar  
  7   6   8  ar  
  8   6  21  1   
  9   7   9  ar  
 10   7  22  1   
 11   8  10  ar  
 12   8  23  1   
 13   9  10  ar  
 14   9  24  1   
 15  10  11  1   
 16  11  12  1   
 17  11  25  1   
 18  11  26  1   
 19  12  13  1   
 20  12  27  1   
 21  12  28  1   
 22  13  14  1   
 23  13  15  1   
 24  13  29  1   
 25  14  16  1   
 26  14  30  1   
 27  14  31  1   
 28  15  17  1   
 29  15  32  1   
 30  15  33  1   
 31  16  18  1   
 32  16  34  1   
 33  16  35  1   
 34  17  18  1   
 35  17  36  1   
 36  17  37  1   
 37  18  19  1   
 38  18  38  1   
 39  19  20  1   
 40  19  39  1   
 41  19  40  1   
 42  20  41  1   
 43  20  42  1   
 44  20  43  1   
@<TRIPOS>SUBSTRUCTURE
  1 ****  12 GROUP 4 **** **** 0

# MOE 2024.06 (io_trps.svl 2023.06)
