@<TRIPOS>MOLECULE
NONAME
48 50 1 0 0 
SMALL
USER_CHARGES


@<TRIPOS>ATOM
  1 S        0.1760    -0.9420    -1.3910 S.o2  1 <1>   1.4470 
  2 O       -0.4380    -1.2110    -2.6740 O.2   1 <1>  -0.6500 
  3 O        1.5970    -0.6770    -1.3710 O.2   1 <1>  -0.6500 
  4 N       -0.1280    -2.2890    -0.4110 N.am  1 <1>  -0.8490 
  5 C       -0.7120     0.3980    -0.5490 C.ar  1 <1>  -0.0090 
  6 C       -1.2400    -3.1020    -0.9070 C.3   1 <1>   0.3390 
  7 C        1.0830    -3.0730    -0.0450 C.3   1 <1>   0.2570 
  8 C       -0.6270     0.5630     0.8300 C.ar  1 <1>  -0.1500 
  9 C       -1.4890     1.3030    -1.2640 C.ar  1 <1>  -0.1500 
 10 C       -1.6900    -4.1420     0.1130 C.ar  1 <1>  -0.1440 
 11 C        1.9770    -2.4200     1.0330 C.2   1 <1>   0.5690 
 12 C       -1.2980     1.5880     1.4740 C.ar  1 <1>  -0.1500 
 13 C       -2.1630     2.3320    -0.6280 C.ar  1 <1>  -0.1500 
 14 C       -1.9730    -5.4380    -0.2950 C.ar  1 <1>  -0.1500 
 15 C       -1.8260    -3.8110     1.4550 C.ar  1 <1>  -0.1500 
 16 O        1.4440    -2.1340     2.0830 O.2   1 <1>  -0.5700 
 17 N        3.3280    -2.2060     0.8570 N.am  1 <1>  -0.6600 
 18 C       -2.0680     2.4750     0.7440 C.ar  1 <1>  -0.1500 
 19 C       -2.3810    -6.3890     0.6240 C.ar  1 <1>  -0.1500 
 20 C       -2.2330    -4.7620     2.3750 C.ar  1 <1>  -0.1500 
 21 C        4.0800    -2.2780    -0.4370 C.3   1 <1>   0.1400 
 22 C        4.1810    -1.6980     1.9770 C.3   1 <1>   0.1400 
 23 C       -2.5110    -6.0520     1.9600 C.ar  1 <1>  -0.1500 
 24 C        4.8280    -0.9610    -0.7070 C.3   1 <1>   0.1200 
 25 C        4.9170    -0.4130     1.5640 C.3   1 <1>   0.1200 
 26 O        5.6370    -0.6210     0.3830 O.3   1 <1>  -0.5600 
 27 H       -0.9510    -3.5870    -1.8240 H     1 <1>   0.0800 
 28 H       -2.0820    -2.4640    -1.1200 H     1 <1>   0.0800 
 29 H        1.6380    -3.3030    -0.9310 H     1 <1>   0.0800 
 30 H        0.7860    -4.0150     0.3790 H     1 <1>   0.0800 
 31 H       -0.0290    -0.1200     1.4100 H     1 <1>   0.1500 
 32 H       -1.5700     1.2010    -2.3330 H     1 <1>   0.1500 
 33 H       -1.2180     1.6930     2.5420 H     1 <1>   0.1500 
 34 H       -2.7610     3.0200    -1.2000 H     1 <1>   0.1500 
 35 H       -1.8790    -5.7170    -1.3300 H     1 <1>   0.1500 
 36 H       -1.6050    -2.8110     1.7890 H     1 <1>   0.1500 
 37 H       -2.5910     3.2730     1.2430 H     1 <1>   0.1500 
 38 H       -2.5980    -7.3920     0.3020 H     1 <1>   0.1500 
 39 H       -2.3310    -4.4950     3.4130 H     1 <1>   0.1500 
 40 H        3.4270    -2.4640    -1.2670 H     1 <1>   0.0800 
 41 H        4.7930    -3.0820    -0.3870 H     1 <1>   0.0800 
 42 H        4.9050    -2.4490     2.2380 H     1 <1>   0.0800 
 43 H        3.5890    -1.4950     2.8520 H     1 <1>   0.0800 
 44 H       -2.8280    -6.7900     2.6750 H     1 <1>   0.1500 
 45 H        4.1300    -0.1600    -0.8840 H     1 <1>   0.0800 
 46 H        5.4610    -1.0630    -1.5690 H     1 <1>   0.0800 
 47 H        5.6150    -0.1230     2.3290 H     1 <1>   0.0800 
 48 H        4.2170     0.3890     1.4090 H     1 <1>   0.0800 
@<TRIPOS>BOND
  1   1   2  2   
  2   1   3  2   
  3   1   4  am  
  4   1   5  1   
  5   4   6  1   
  6   4   7  1   
  7   5   8  ar  
  8   5   9  ar  
  9   6  10  1   
 10   6  27  1   
 11   6  28  1   
 12   7  11  1   
 13   7  29  1   
 14   7  30  1   
 15   8  12  ar  
 16   8  31  1   
 17   9  13  ar  
 18   9  32  1   
 19  10  14  ar  
 20  10  15  ar  
 21  11  16  2   
 22  11  17  am  
 23  12  18  ar  
 24  12  33  1   
 25  13  18  ar  
 26  13  34  1   
 27  14  19  ar  
 28  14  35  1   
 29  15  20  ar  
 30  15  36  1   
 31  17  21  1   
 32  17  22  1   
 33  18  37  1   
 34  19  23  ar  
 35  19  38  1   
 36  20  23  ar  
 37  20  39  1   
 38  21  24  1   
 39  21  40  1   
 40  21  41  1   
 41  22  25  1   
 42  22  42  1   
 43  22  43  1   
 44  23  44  1   
 45  24  26  1   
 46  24  45  1   
 47  24  46  1   
 48  25  26  1   
 49  25  47  1   
 50  25  48  1   
@<TRIPOS>SUBSTRUCTURE
  1 ****   4 GROUP 4 **** **** 0

# MOE 2024.06 (io_trps.svl 2023.06)
