@<TRIPOS>MOLECULE
NONAME
46 48 1 0 0 
SMALL
USER_CHARGES


@<TRIPOS>ATOM
  1 CL       3.6910    -3.6220     3.3560 Cl    1 <1>  -0.1770 
  2 C        3.9600    -2.9300     1.7770 C.ar  1 <1>   0.1770 
  3 C        4.0900    -1.5600     1.6500 C.ar  1 <1>  -0.1500 
  4 C        4.0420    -3.7620     0.6770 C.ar  1 <1>  -0.1500 
  5 C        4.3080    -1.0140     0.3960 C.ar  1 <1>  -0.1500 
  6 C        4.2590    -3.2120    -0.5740 C.ar  1 <1>  -0.1500 
  7 C        4.3950    -1.8370    -0.7190 C.ar  1 <1>  -0.1430 
  8 C        4.6600    -1.2330    -2.0960 C.3   1 <1>   0.0440 
  9 C        6.1420    -1.0890    -2.4080 C.2   1 <1>   0.5690 
 10 O        6.4520    -0.5140    -3.4220 O.2   1 <1>  -0.5700 
 11 N        7.0460    -1.6110    -1.5200 N.am  1 <1>  -0.5470 
 12 C        8.4430    -1.6680    -1.5230 C.ar  1 <1>   0.1170 
 13 C        9.2190    -1.4570    -2.6600 C.ar  1 <1>  -0.1500 
 14 C        9.0990    -1.9680    -0.3350 C.ar  1 <1>  -0.1500 
 15 C       10.5970    -1.5330    -2.6020 C.ar  1 <1>  -0.1500 
 16 C       10.4770    -2.0430    -0.2800 C.ar  1 <1>  -0.1500 
 17 C       11.2620    -1.8180    -1.4110 C.ar  1 <1>   0.0860 
 18 C       12.7080    -1.8860    -1.3580 C.2   1 <1>   0.5440 
 19 O       13.2890    -2.6600    -2.0960 O.2   1 <1>  -0.5700 
 20 N       13.4460    -1.0950    -0.4970 N.am  1 <1>  -0.6600 
 21 C       14.9090    -1.3020    -0.3030 C.3   1 <1>   0.1400 
 22 C       12.9070     0.1230     0.1720 C.3   1 <1>   0.1400 
 23 C       15.6770    -0.0760    -0.8060 C.3   1 <1>  -0.1600 
 24 C       13.6640     1.3610    -0.3210 C.3   1 <1>  -0.1600 
 25 C       15.1810     1.2140    -0.1380 C.3   1 <1>  -0.1600 
 26 H        4.0190    -0.9340     2.5220 H     1 <1>   0.1500 
 27 H        3.9340    -4.8250     0.8030 H     1 <1>   0.1500 
 28 H        4.4080     0.0540     0.2960 H     1 <1>   0.1500 
 29 H        4.3220    -3.8610    -1.4320 H     1 <1>   0.1500 
 30 H        4.2060    -0.2610    -2.1610 H     1 <1>   0.0800 
 31 H        4.2140    -1.8460    -2.8580 H     1 <1>   0.0800 
 32 H        6.6030    -2.0080    -0.6890 H     1 <1>   0.3700 
 33 H        8.7480    -1.2360    -3.6000 H     1 <1>   0.1500 
 34 H        8.5250    -2.1450     0.5570 H     1 <1>   0.1500 
 35 H       11.1810    -1.3740    -3.4930 H     1 <1>   0.1500 
 36 H       10.9670    -2.2810     0.6480 H     1 <1>   0.1500 
 37 H       15.2450    -2.1800    -0.8300 H     1 <1>   0.0800 
 38 H       15.1040    -1.4510     0.7440 H     1 <1>   0.0800 
 39 H       13.0300     0.0200     1.2360 H     1 <1>   0.0800 
 40 H       11.8600     0.2480    -0.0350 H     1 <1>   0.0800 
 41 H       15.5510    -0.0070    -1.8730 H     1 <1>   0.0800 
 42 H       16.7260    -0.2070    -0.6080 H     1 <1>   0.0800 
 43 H       13.3170     2.2270     0.2150 H     1 <1>   0.0800 
 44 H       13.4390     1.5100    -1.3630 H     1 <1>   0.0800 
 45 H       15.6840     2.0630    -0.5680 H     1 <1>   0.0800 
 46 H       15.4140     1.1850     0.9120 H     1 <1>   0.0800 
@<TRIPOS>BOND
  1   1   2  1   
  2   2   3  ar  
  3   2   4  ar  
  4   3   5  ar  
  5   3  26  1   
  6   4   6  ar  
  7   4  27  1   
  8   5   7  ar  
  9   5  28  1   
 10   6   7  ar  
 11   6  29  1   
 12   7   8  1   
 13   8   9  1   
 14   8  30  1   
 15   8  31  1   
 16   9  10  2   
 17   9  11  am  
 18  11  12  1   
 19  11  32  1   
 20  12  13  ar  
 21  12  14  ar  
 22  13  15  ar  
 23  13  33  1   
 24  14  16  ar  
 25  14  34  1   
 26  15  17  ar  
 27  15  35  1   
 28  16  17  ar  
 29  16  36  1   
 30  17  18  1   
 31  18  19  2   
 32  18  20  am  
 33  20  21  1   
 34  20  22  1   
 35  21  23  1   
 36  21  37  1   
 37  21  38  1   
 38  22  24  1   
 39  22  39  1   
 40  22  40  1   
 41  23  25  1   
 42  23  41  1   
 43  23  42  1   
 44  24  25  1   
 45  24  43  1   
 46  24  44  1   
 47  25  45  1   
 48  25  46  1   
@<TRIPOS>SUBSTRUCTURE
  1 ****  14 GROUP 4 **** **** 0

# MOE 2024.06 (io_trps.svl 2023.06)
