@<TRIPOS>MOLECULE
NONAME
32 32 1 0 0 
SMALL
USER_CHARGES


@<TRIPOS>ATOM
  1 O        0.0900    -0.3620    -0.6070 O.2   1 <1>  -0.5700 
  2 C        0.1270    -1.4820    -0.1520 C.2   1 <1>   0.5690 
  3 N       -1.0200    -2.1560     0.2000 N.am  1 <1>  -0.6600 
  4 C        1.4860    -2.1470     0.0260 C.3   1 <1>  -0.0990 
  5 C       -2.3670    -1.5600    -0.0290 C.3   1 <1>   0.0600 
  6 C       -1.0600    -3.5090     0.8230 C.3   1 <1>   0.0600 
  7 C        2.6490    -1.3690    -0.6080 C.3   1 <1>  -0.0160 
  8 C        3.9570    -2.1190    -0.4060 C.ar  1 <1>  -0.1440 
  9 C        4.7380    -1.8770     0.7140 C.ar  1 <1>  -0.1500 
 10 C        4.3770    -3.0560    -1.3370 C.ar  1 <1>  -0.1500 
 11 C        5.9270    -2.5610     0.9040 C.ar  1 <1>  -0.1500 
 12 C        5.5640    -3.7410    -1.1500 C.ar  1 <1>  -0.1500 
 13 C        6.3470    -3.5020    -0.0330 C.ar  1 <1>   0.0820 
 14 O        7.4960    -4.2160     0.0750 O.3   1 <1>  -0.3630 
 15 C        8.3760    -4.0280     1.1600 C.3   1 <1>   0.0400 
 16 H        1.4490    -3.1240    -0.4180 H     1 <1>   0.0800 
 17 H        1.6740    -2.2560     1.0770 H     1 <1>   0.0800 
 18 H       -2.2910    -0.6260    -0.5600 H     1 <1>   0.0800 
 19 H       -2.8490    -1.3780     0.9150 H     1 <1>   0.0800 
 20 H       -2.9690    -2.2340    -0.6130 H     1 <1>   0.0800 
 21 H       -0.1090    -3.7770     1.2460 H     1 <1>   0.0800 
 22 H       -1.3310    -4.2390     0.0800 H     1 <1>   0.0800 
 23 H       -1.7920    -3.5250     1.6120 H     1 <1>   0.0800 
 24 H        2.7180    -0.3910    -0.1640 H     1 <1>   0.0800 
 25 H        2.4650    -1.2350    -1.6600 H     1 <1>   0.0800 
 26 H        4.4220    -1.1520     1.4430 H     1 <1>   0.1500 
 27 H        3.7830    -3.2540    -2.2120 H     1 <1>   0.1500 
 28 H        6.5080    -2.3500     1.7800 H     1 <1>   0.1500 
 29 H        5.8930    -4.4670    -1.8710 H     1 <1>   0.1500 
 30 H        9.2140    -4.6890     1.0280 H     1 <1>   0.0800 
 31 H        7.8610    -4.2690     2.0730 H     1 <1>   0.0800 
 32 H        8.7130    -3.0070     1.1640 H     1 <1>   0.0800 
@<TRIPOS>BOND
  1   1   2  2   
  2   2   3  am  
  3   2   4  1   
  4   3   5  1   
  5   3   6  1   
  6   4   7  1   
  7   4  16  1   
  8   4  17  1   
  9   5  18  1   
 10   5  19  1   
 11   5  20  1   
 12   6  21  1   
 13   6  22  1   
 14   6  23  1   
 15   7   8  1   
 16   7  24  1   
 17   7  25  1   
 18   8   9  ar  
 19   8  10  ar  
 20   9  11  ar  
 21   9  26  1   
 22  10  12  ar  
 23  10  27  1   
 24  11  13  ar  
 25  11  28  1   
 26  12  13  ar  
 27  12  29  1   
 28  13  14  1   
 29  14  15  1   
 30  15  30  1   
 31  15  31  1   
 32  15  32  1   
@<TRIPOS>SUBSTRUCTURE
  1 ****   8 GROUP 4 **** **** 0

# MOE 2024.06 (io_trps.svl 2023.06)
