@<TRIPOS>MOLECULE
NONAME
37 37 1 0 0 
SMALL
USER_CHARGES


@<TRIPOS>ATOM
  1 O        0.3150    -0.7330     0.4480 O.2   1 <1>  -0.5700 
  2 C        0.0840    -1.7390    -0.1930 C.2   1 <1>   0.5440 
  3 N        1.0840    -2.2620    -0.9650 N.am  1 <1>  -0.7300 
  4 C       -1.2260    -2.3640    -0.1480 C.ar  1 <1>   0.0860 
  5 C        2.4360    -1.6640    -1.1240 C.3   1 <1>   0.1400 
  6 C       -2.3660    -1.6060     0.1170 C.ar  1 <1>  -0.1500 
  7 C       -1.4000    -3.7320    -0.3640 C.ar  1 <1>  -0.1500 
  8 C        3.2730    -1.8770     0.1380 C.3   1 <1>   0.1200 
  9 C       -3.6330    -2.1750     0.1550 C.ar  1 <1>   0.0830 
 10 C       -2.6530    -4.3160    -0.3320 C.ar  1 <1>  -0.1500 
 11 O        4.5900    -1.5160    -0.1400 O.3   1 <1>  -0.5600 
 12 O       -4.7560    -1.4440     0.4130 O.3   1 <1>  -0.3630 
 13 C       -3.7820    -3.5450    -0.0750 C.ar  1 <1>   0.0830 
 14 C        5.4320    -1.5800     0.9650 C.3   1 <1>   0.0400 
 15 C       -4.6910    -0.0820     0.7630 C.3   1 <1>   0.1200 
 16 O       -5.0350    -4.0740    -0.0360 O.3   1 <1>  -0.3630 
 17 C       -6.1100     0.3990     1.0460 C.3   1 <1>  -0.2400 
 18 C       -5.2820    -5.4470    -0.2360 C.3   1 <1>   0.0400 
 19 H        0.8680    -3.0280    -1.6040 H     1 <1>   0.3700 
 20 H        2.3390    -0.6080    -1.3090 H     1 <1>   0.0800 
 21 H        2.9300    -2.1240    -1.9620 H     1 <1>   0.0800 
 22 H       -2.2260    -0.5560     0.2900 H     1 <1>   0.1500 
 23 H       -0.5430    -4.3540    -0.5510 H     1 <1>   0.1500 
 24 H        3.2590    -2.9130     0.4270 H     1 <1>   0.0800 
 25 H        2.8990    -1.2580     0.9360 H     1 <1>   0.0800 
 26 H       -2.7310    -5.3720    -0.5060 H     1 <1>   0.1500 
 27 H        6.4190    -1.2910     0.6510 H     1 <1>   0.0800 
 28 H        5.4500    -2.5880     1.3410 H     1 <1>   0.0800 
 29 H        5.0780    -0.8990     1.7200 H     1 <1>   0.0800 
 30 H       -4.2630     0.4630    -0.0610 H     1 <1>   0.0800 
 31 H       -4.0740     0.0160     1.6400 H     1 <1>   0.0800 
 32 H       -6.7210     0.2780     0.1690 H     1 <1>   0.0800 
 33 H       -6.0970     1.4380     1.3170 H     1 <1>   0.0800 
 34 H       -6.5340    -0.1650     1.8580 H     1 <1>   0.0800 
 35 H       -6.3420    -5.6080    -0.1490 H     1 <1>   0.0800 
 36 H       -4.7640    -6.0090     0.5200 H     1 <1>   0.0800 
 37 H       -4.9510    -5.7220    -1.2210 H     1 <1>   0.0800 
@<TRIPOS>BOND
  1   1   2  2   
  2   2   3  am  
  3   2   4  1   
  4   3   5  1   
  5   3  19  1   
  6   4   6  ar  
  7   4   7  ar  
  8   5   8  1   
  9   5  20  1   
 10   5  21  1   
 11   6   9  ar  
 12   6  22  1   
 13   7  10  ar  
 14   7  23  1   
 15   8  11  1   
 16   8  24  1   
 17   8  25  1   
 18   9  12  1   
 19   9  13  ar  
 20  10  13  ar  
 21  10  26  1   
 22  11  14  1   
 23  12  15  1   
 24  13  16  1   
 25  14  27  1   
 26  14  28  1   
 27  14  29  1   
 28  15  17  1   
 29  15  30  1   
 30  15  31  1   
 31  16  18  1   
 32  17  32  1   
 33  17  33  1   
 34  17  34  1   
 35  18  35  1   
 36  18  36  1   
 37  18  37  1   
@<TRIPOS>SUBSTRUCTURE
  1 ****   4 GROUP 4 **** **** 0

# MOE 2024.06 (io_trps.svl 2023.06)
