@<TRIPOS>MOLECULE
NONAME
34 35 1 0 0 
SMALL
USER_CHARGES


@<TRIPOS>ATOM
  1 CL       0.3050    -1.1890     2.1230 Cl    1 <1>  -0.1770 
  2 C        0.7300    -2.0080     0.6330 C.ar  1 <1>   0.1770 
  3 C       -0.2280    -2.7990    -0.0050 C.ar  1 <1>   0.1170 
  4 C        2.0090    -1.8380     0.1340 C.ar  1 <1>  -0.1500 
  5 N       -1.5080    -2.9190     0.5710 N.am  1 <1>  -0.5470 
  6 C        0.1470    -3.4260    -1.1920 C.ar  1 <1>  -0.1500 
  7 C        2.3640    -2.4720    -1.0450 C.ar  1 <1>  -0.1500 
  8 C       -2.5860    -3.6970     0.2850 C.2   1 <1>   0.6900 
  9 C        1.4250    -3.2570    -1.6910 C.ar  1 <1>   0.1770 
 10 O       -2.6030    -4.5080    -0.6200 O.2   1 <1>  -0.5700 
 11 N       -3.7140    -3.5220     1.0300 N.am  1 <1>  -0.6600 
 12 CL       1.8720    -4.0520    -3.1790 Cl    1 <1>  -0.1770 
 13 C       -4.5560    -2.3320     0.7230 C.3   1 <1>   0.1400 
 14 C       -4.5140    -4.7380     1.3610 C.3   1 <1>   0.1400 
 15 C       -5.5480    -2.6590    -0.4150 C.3   1 <1>   0.3430 
 16 C       -5.5000    -5.0630     0.2210 C.3   1 <1>   0.3430 
 17 N       -6.3790    -3.8850    -0.1220 N.4   1 <1>  -0.9590 
 18 C       -7.2620    -4.2140    -1.2810 C.3   1 <1>   0.2630 
 19 H        2.7150    -1.2210     0.6610 H     1 <1>   0.1500 
 20 H       -1.6200    -2.4030     1.4440 H     1 <1>   0.3700 
 21 H       -0.5370    -4.0460    -1.7380 H     1 <1>   0.1500 
 22 H        3.3500    -2.3630    -1.4610 H     1 <1>   0.1500 
 23 H       -3.9280    -1.5110     0.4190 H     1 <1>   0.0800 
 24 H       -5.0900    -2.0290     1.6060 H     1 <1>   0.0800 
 25 H       -5.0460    -4.5830     2.2840 H     1 <1>   0.0800 
 26 H       -3.8500    -5.5750     1.5020 H     1 <1>   0.0800 
 27 H       -4.9800    -2.8210    -1.3180 H     1 <1>   0.0800 
 28 H       -6.1910    -1.8100    -0.5790 H     1 <1>   0.0800 
 29 H       -6.1070    -5.9060     0.5070 H     1 <1>   0.0800 
 30 H       -4.9240    -5.3500    -0.6450 H     1 <1>   0.0800 
 31 H       -6.9670    -3.6820     0.6990 H     1 <1>   0.4500 
 32 H       -6.6670    -4.4350    -2.1530 H     1 <1>   0.0800 
 33 H       -7.9100    -3.3830    -1.5090 H     1 <1>   0.0800 
 34 H       -7.8730    -5.0730    -1.0560 H     1 <1>   0.0800 
@<TRIPOS>BOND
  1   1   2  1   
  2   2   3  ar  
  3   2   4  ar  
  4   3   5  1   
  5   3   6  ar  
  6   4   7  ar  
  7   4  19  1   
  8   5   8  am  
  9   5  20  1   
 10   6   9  ar  
 11   6  21  1   
 12   7   9  ar  
 13   7  22  1   
 14   8  10  2   
 15   8  11  am  
 16   9  12  1   
 17  11  13  1   
 18  11  14  1   
 19  13  15  1   
 20  13  23  1   
 21  13  24  1   
 22  14  16  1   
 23  14  25  1   
 24  14  26  1   
 25  15  17  1   
 26  15  27  1   
 27  15  28  1   
 28  16  17  1   
 29  16  29  1   
 30  16  30  1   
 31  17  18  1   
 32  17  31  1   
 33  18  32  1   
 34  18  33  1   
 35  18  34  1   
@<TRIPOS>SUBSTRUCTURE
  1 ****   8 GROUP 4 **** **** 0

# MOE 2024.06 (io_trps.svl 2023.06)
