@<TRIPOS>MOLECULE
NONAME
48 51 1 0 0 
SMALL
USER_CHARGES


@<TRIPOS>ATOM
  1 S        0.2340     0.2780    -0.0400 S.3   1 <1>  -0.0800 
  2 C        0.8970    -1.3570     0.1360 C.2   1 <1>  -0.0450 
  3 C       -1.4050    -0.3240    -0.0550 C.2   1 <1>  -0.1400 
  4 C        2.3230    -1.5390     0.2160 C.2   1 <1>   0.7150 
  5 C       -0.1310    -2.2440     0.1680 C.2   1 <1>  -0.1500 
  6 C       -1.4260    -1.6600     0.0560 C.2   1 <1>  -0.1810 
  7 C       -2.5860     0.6130    -0.1840 C.3   1 <1>   0.0200 
  8 O        2.7940    -2.6550     0.3240 O.2   1 <1>  -0.5700 
  9 N        3.1460    -0.4400     0.1520 N.am  1 <1>  -0.5470 
 10 C       -2.7250    -2.4460     0.0620 C.3   1 <1>   0.0210 
 11 C       -3.8780    -0.1560     0.1550 C.3   1 <1>  -0.1600 
 12 C        4.5340    -0.3030     0.2430 C.ar  1 <1>   0.1170 
 13 C       -3.8900    -1.5750    -0.4540 C.3   1 <1>  -0.1600 
 14 C        5.1340     0.8200    -0.3160 C.ar  1 <1>  -0.1500 
 15 C        5.3540    -1.2270     0.8860 C.ar  1 <1>  -0.1500 
 16 C        6.5010     1.0060    -0.2470 C.ar  1 <1>  -0.1500 
 17 C        6.7210    -1.0380     0.9540 C.ar  1 <1>  -0.1500 
 18 C        7.3310     0.0770     0.3800 C.ar  1 <1>   0.0860 
 19 C        8.7640     0.2810     0.4390 C.2   1 <1>   0.5440 
 20 O        9.1940     1.3250     0.8920 O.2   1 <1>  -0.5700 
 21 N        9.6620    -0.6650    -0.0110 N.am  1 <1>  -0.6600 
 22 C       11.1290    -0.5360     0.2360 C.3   1 <1>   0.1400 
 23 C        9.3230    -1.8030    -0.9170 C.3   1 <1>   0.1400 
 24 C       11.7330    -1.8940     0.6290 C.3   1 <1>   0.1200 
 25 C       10.0240    -3.0900    -0.4510 C.3   1 <1>   0.1200 
 26 O       11.4020    -2.8800    -0.3100 O.3   1 <1>  -0.5600 
 27 H       -0.0050    -3.3080     0.2690 H     1 <1>   0.1500 
 28 H       -2.6280     0.9790    -1.1940 H     1 <1>   0.0800 
 29 H       -2.4710     1.4500     0.4820 H     1 <1>   0.0800 
 30 H        2.6330     0.4200    -0.0310 H     1 <1>   0.3700 
 31 H       -2.9280    -2.7670     1.0690 H     1 <1>   0.0800 
 32 H       -2.6270    -3.3190    -0.5580 H     1 <1>   0.0800 
 33 H       -4.7280     0.4030    -0.1960 H     1 <1>   0.0800 
 34 H       -3.9590    -0.2400     1.2250 H     1 <1>   0.0800 
 35 H       -4.8230    -2.0600    -0.2300 H     1 <1>   0.0800 
 36 H       -3.8110    -1.4920    -1.5240 H     1 <1>   0.0800 
 37 H        4.5260     1.5560    -0.8100 H     1 <1>   0.1500 
 38 H        4.9220    -2.0970     1.3460 H     1 <1>   0.1500 
 39 H        6.9490     1.8840    -0.6800 H     1 <1>   0.1500 
 40 H        7.3330    -1.7600     1.4640 H     1 <1>   0.1500 
 41 H       11.3170     0.1740     1.0230 H     1 <1>   0.0800 
 42 H       11.6080    -0.1760    -0.6580 H     1 <1>   0.0800 
 43 H        9.6570    -1.5670    -1.9120 H     1 <1>   0.0800 
 44 H        8.2620    -1.9660    -0.9580 H     1 <1>   0.0800 
 45 H       11.3710    -2.2010     1.5940 H     1 <1>   0.0800 
 46 H       12.8060    -1.8250     0.6680 H     1 <1>   0.0800 
 47 H        9.8850    -3.8720    -1.1760 H     1 <1>   0.0800 
 48 H        9.6270    -3.4190     0.4930 H     1 <1>   0.0800 
@<TRIPOS>BOND
  1   1   2  1   
  2   1   3  1   
  3   2   4  1   
  4   2   5  2   
  5   3   6  2   
  6   3   7  1   
  7   4   8  2   
  8   4   9  am  
  9   5   6  1   
 10   5  27  1   
 11   6  10  1   
 12   7  11  1   
 13   7  28  1   
 14   7  29  1   
 15   9  12  1   
 16   9  30  1   
 17  10  13  1   
 18  10  31  1   
 19  10  32  1   
 20  11  13  1   
 21  11  33  1   
 22  11  34  1   
 23  12  14  ar  
 24  12  15  ar  
 25  13  35  1   
 26  13  36  1   
 27  14  16  ar  
 28  14  37  1   
 29  15  17  ar  
 30  15  38  1   
 31  16  18  ar  
 32  16  39  1   
 33  17  18  ar  
 34  17  40  1   
 35  18  19  1   
 36  19  20  2   
 37  19  21  am  
 38  21  22  1   
 39  21  23  1   
 40  22  24  1   
 41  22  41  1   
 42  22  42  1   
 43  23  25  1   
 44  23  43  1   
 45  23  44  1   
 46  24  26  1   
 47  24  45  1   
 48  24  46  1   
 49  25  26  1   
 50  25  47  1   
 51  25  48  1   
@<TRIPOS>SUBSTRUCTURE
  1 ****  12 GROUP 4 **** **** 0

# MOE 2024.06 (io_trps.svl 2023.06)
