@<TRIPOS>MOLECULE
NONAME
45 45 1 0 0 
SMALL
USER_CHARGES


@<TRIPOS>ATOM
  1 S       -2.3070     3.0460     3.3780 S.3   1 <1>  -0.3710 
  2 C       -1.3450     3.9210     2.1710 C.2   1 <1>   0.6510 
  3 C       -4.0580     3.5660     2.9590 C.3   1 <1>   0.0700 
  4 N       -2.0190     4.6290     1.3710 N.2   1 <1>  -0.6210 
  5 N       -0.0120     3.7060     2.1060 N.am  1 <1>  -0.4900 
  6 C       -4.6260     2.8420     1.7090 C.3   1 <1>   0.3430 
  7 C       -1.4260     5.0500     0.2360 C.2   1 <1>   0.0210 
  8 C        0.6770     4.2380     1.0510 C.2   1 <1>   0.6160 
  9 N       -4.2350     3.3610     0.3460 N.4   1 <1>  -0.9590 
 10 O       -2.2290     5.4470    -0.6110 O.3   1 <1>  -0.8500 
 11 C       -0.0480     4.9170     0.0670 C.2   1 <1>  -0.1240 
 12 O        1.8990     4.0300     1.0480 O.2   1 <1>  -0.5700 
 13 C       -5.1260     4.3750    -0.2770 C.3   1 <1>   0.3430 
 14 C       -3.9390     2.2310    -0.5690 C.3   1 <1>   0.3430 
 15 C        0.6220     5.4760    -1.1830 C.3   1 <1>  -0.0220 
 16 C       -5.4100     5.5460     0.6560 C.3   1 <1>  -0.2400 
 17 C       -3.1470     2.6660    -1.7960 C.3   1 <1>  -0.2400 
 18 C        0.8250     7.0000    -1.1000 C.3   1 <1>  -0.0800 
 19 C        1.3890     7.5340    -2.4220 C.3   1 <1>  -0.2400 
 20 C        1.7520     7.3940     0.0580 C.3   1 <1>  -0.2400 
 21 H       -4.0730     4.6350     2.8550 H     1 <1>   0.0800 
 22 H       -4.6420     3.2980     3.8200 H     1 <1>   0.0800 
 23 H        0.4940     3.1580     2.7870 H     1 <1>   0.3700 
 24 H       -5.7000     2.8660     1.7740 H     1 <1>   0.0800 
 25 H       -4.3310     1.8090     1.7870 H     1 <1>   0.0800 
 26 H       -3.3320     3.9150     0.4150 H     1 <1>   0.4500 
 27 H       -6.0520     3.9180    -0.5840 H     1 <1>   0.0800 
 28 H       -4.6320     4.7710    -1.1510 H     1 <1>   0.0800 
 29 H       -4.8610     1.7690    -0.8800 H     1 <1>   0.0800 
 30 H       -3.3550     1.4960    -0.0400 H     1 <1>   0.0800 
 31 H       -0.0110     5.2540    -2.0230 H     1 <1>   0.0800 
 32 H        1.5660     4.9890    -1.3470 H     1 <1>   0.0800 
 33 H       -5.9860     5.2480     1.5100 H     1 <1>   0.0800 
 34 H       -5.9670     6.2910     0.1190 H     1 <1>   0.0800 
 35 H       -4.4800     5.9970     0.9630 H     1 <1>   0.0800 
 36 H       -3.6640     3.4140    -2.3660 H     1 <1>   0.0800 
 37 H       -2.9760     1.8180    -2.4310 H     1 <1>   0.0800 
 38 H       -2.1890     3.0540    -1.5000 H     1 <1>   0.0800 
 39 H       -0.1420     7.4500    -0.9350 H     1 <1>   0.0800 
 40 H        2.3530     7.1020    -2.6240 H     1 <1>   0.0800 
 41 H        1.4900     8.6040    -2.3780 H     1 <1>   0.0800 
 42 H        0.7220     7.2920    -3.2310 H     1 <1>   0.0800 
 43 H        2.7040     6.9020    -0.0360 H     1 <1>   0.0800 
 44 H        1.3130     7.1130     0.9990 H     1 <1>   0.0800 
 45 H        1.9080     8.4570     0.0680 H     1 <1>   0.0800 
@<TRIPOS>BOND
  1   1   2  1   
  2   1   3  1   
  3   2   4  2   
  4   2   5  1   
  5   3   6  1   
  6   3  21  1   
  7   3  22  1   
  8   4   7  1   
  9   5   8  am  
 10   5  23  1   
 11   6   9  1   
 12   6  24  1   
 13   6  25  1   
 14   7  10  1   
 15   7  11  2   
 16   8  11  1   
 17   8  12  2   
 18   9  13  1   
 19   9  14  1   
 20   9  26  1   
 21  11  15  1   
 22  13  16  1   
 23  13  27  1   
 24  13  28  1   
 25  14  17  1   
 26  14  29  1   
 27  14  30  1   
 28  15  18  1   
 29  15  31  1   
 30  15  32  1   
 31  16  33  1   
 32  16  34  1   
 33  16  35  1   
 34  17  36  1   
 35  17  37  1   
 36  17  38  1   
 37  18  19  1   
 38  18  20  1   
 39  18  39  1   
 40  19  40  1   
 41  19  41  1   
 42  19  42  1   
 43  20  43  1   
 44  20  44  1   
 45  20  45  1   
@<TRIPOS>SUBSTRUCTURE
  1 ****   7 GROUP 4 **** **** 0

# MOE 2024.06 (io_trps.svl 2023.06)
