@<TRIPOS>MOLECULE
NONAME
39 40 1 0 0 
SMALL
USER_CHARGES


@<TRIPOS>ATOM
  1 O       -8.8990     1.9110    -0.3240 O.3   1 <1>  -0.3630 
  2 C       -7.5570     1.7670    -0.2130 C.ar  1 <1>   0.0830 
  3 C       -9.5520     3.0930     0.0650 C.3   1 <1>   0.1200 
  4 C       -6.7070     2.7520     0.2820 C.ar  1 <1>  -0.1500 
  5 C       -7.0230     0.5570    -0.6250 C.ar  1 <1>  -0.1500 
  6 C      -11.0450     2.8890    -0.1960 C.3   1 <1>  -0.1600 
  7 C       -5.3450     2.5150     0.3590 C.ar  1 <1>  -0.1500 
  8 C       -5.6610     0.3270    -0.5460 C.ar  1 <1>  -0.1500 
  9 C      -11.8440     4.1250     0.2100 C.3   1 <1>   0.3430 
 10 C       -4.8010     1.3020    -0.0520 C.ar  1 <1>   0.0730 
 11 N      -13.2800     3.9580    -0.1490 N.4   1 <1>  -0.9590 
 12 C       -3.3880     1.0630     0.0300 C.1   1 <1>   0.4840 
 13 C      -13.9850     5.2730    -0.1160 C.3   1 <1>   0.3430 
 14 C      -13.9710     2.9500     0.7130 C.3   1 <1>   0.3430 
 15 N       -2.2650     0.8750     0.0960 N.1   1 <1>  -0.5570 
 16 C      -15.4140     5.1080    -0.6370 C.3   1 <1>  -0.1600 
 17 C      -15.4010     2.7350     0.2130 C.3   1 <1>  -0.1600 
 18 C      -16.1890     4.0500     0.1590 C.3   1 <1>  -0.1600 
 19 H       -9.1590     3.9050    -0.5240 H     1 <1>   0.0800 
 20 H       -9.3560     3.2570     1.1110 H     1 <1>   0.0800 
 21 H       -7.0810     3.7020     0.6110 H     1 <1>   0.1500 
 22 H       -7.6800    -0.2030    -1.0090 H     1 <1>   0.1500 
 23 H      -11.3660     2.0330     0.3700 H     1 <1>   0.0800 
 24 H      -11.1820     2.6970    -1.2460 H     1 <1>   0.0800 
 25 H       -4.6950     3.2820     0.7440 H     1 <1>   0.1500 
 26 H       -5.2640    -0.6200    -0.8710 H     1 <1>   0.1500 
 27 H      -11.4430     4.9810    -0.3090 H     1 <1>   0.0800 
 28 H      -11.7460     4.2980     1.2700 H     1 <1>   0.0800 
 29 H      -13.3320     3.6140    -1.1170 H     1 <1>   0.4500 
 30 H      -13.4630     5.9900    -0.7300 H     1 <1>   0.0800 
 31 H      -14.0130     5.6480     0.8940 H     1 <1>   0.0800 
 32 H      -13.9960     3.2970     1.7340 H     1 <1>   0.0800 
 33 H      -13.4450     2.0100     0.6880 H     1 <1>   0.0800 
 34 H      -15.3870     4.8380    -1.6780 H     1 <1>   0.0800 
 35 H      -15.9260     6.0520    -0.5640 H     1 <1>   0.0800 
 36 H      -15.9040     2.0470     0.8710 H     1 <1>   0.0800 
 37 H      -15.3740     2.2830    -0.7630 H     1 <1>   0.0800 
 38 H      -17.1520     3.8820    -0.2950 H     1 <1>   0.0800 
 39 H      -16.3600     4.4080     1.1610 H     1 <1>   0.0800 
@<TRIPOS>BOND
  1   1   2  1   
  2   1   3  1   
  3   2   4  ar  
  4   2   5  ar  
  5   3   6  1   
  6   3  19  1   
  7   3  20  1   
  8   4   7  ar  
  9   4  21  1   
 10   5   8  ar  
 11   5  22  1   
 12   6   9  1   
 13   6  23  1   
 14   6  24  1   
 15   7  10  ar  
 16   7  25  1   
 17   8  10  ar  
 18   8  26  1   
 19   9  11  1   
 20   9  27  1   
 21   9  28  1   
 22  10  12  1   
 23  11  13  1   
 24  11  14  1   
 25  11  29  1   
 26  12  15  3   
 27  13  16  1   
 28  13  30  1   
 29  13  31  1   
 30  14  17  1   
 31  14  32  1   
 32  14  33  1   
 33  16  18  1   
 34  16  34  1   
 35  16  35  1   
 36  17  18  1   
 37  17  36  1   
 38  17  37  1   
 39  18  38  1   
 40  18  39  1   
@<TRIPOS>SUBSTRUCTURE
  1 ****   3 GROUP 4 **** **** 0

# MOE 2024.06 (io_trps.svl 2023.06)
