@<TRIPOS>MOLECULE
NONAME
32 33 1 0 0 
SMALL
USER_CHARGES


@<TRIPOS>ATOM
  1 S        0.2890     1.0630    -1.5730 S.3   1 <1>  -0.0800 
  2 C       -0.4300     1.2530     0.0320 C.2   1 <1>  -0.0450 
  3 C        1.8610     0.6820    -0.9060 C.2   1 <1>  -0.1100 
  4 C       -1.8210     1.6070     0.1620 C.2   1 <1>   0.7150 
  5 C        0.5340     1.0320     0.9630 C.2   1 <1>  -0.1500 
  6 C        1.8190     0.7080     0.4380 C.2   1 <1>  -0.1500 
  7 O       -2.2850     1.9370     1.2410 O.2   1 <1>  -0.5700 
  8 N       -2.7170     1.5320    -0.8790 N.am  1 <1>  -0.6600 
  9 C       -3.7220     2.6240    -1.0660 C.3   1 <1>   0.1400 
 10 C       -3.0580     0.2190    -1.4790 C.3   1 <1>   0.1400 
 11 C       -5.0810     2.3390    -0.3900 C.3   1 <1>   0.3430 
 12 C       -3.7980    -0.6520    -0.4540 C.3   1 <1>  -0.1600 
 13 N       -4.9950     1.2600     0.6460 N.4   1 <1>  -0.9590 
 14 C       -5.1360    -0.0990     0.0500 C.3   1 <1>   0.3430 
 15 C       -5.9540     1.4850     1.7640 C.3   1 <1>   0.2630 
 16 H        2.6610     0.4780    -1.5960 H     1 <1>   0.1500 
 17 H        0.3740     1.0930     2.0260 H     1 <1>   0.1500 
 18 H        2.6530     0.5110     1.0900 H     1 <1>   0.1500 
 19 H       -3.8700     2.8030    -2.1170 H     1 <1>   0.0800 
 20 H       -3.3230     3.5340    -0.6490 H     1 <1>   0.0800 
 21 H       -2.1550    -0.2820    -1.7840 H     1 <1>   0.0800 
 22 H       -3.6620     0.3630    -2.3600 H     1 <1>   0.0800 
 23 H       -5.8030     2.0640    -1.1420 H     1 <1>   0.0800 
 24 H       -5.4240     3.2540     0.0630 H     1 <1>   0.0800 
 25 H       -3.1540    -0.8480     0.3850 H     1 <1>   0.0800 
 26 H       -3.9920    -1.6050    -0.9130 H     1 <1>   0.0800 
 27 H       -4.0240     1.3380     1.0280 H     1 <1>   0.4500 
 28 H       -5.5160    -0.7780     0.7970 H     1 <1>   0.0800 
 29 H       -5.8480    -0.0700    -0.7580 H     1 <1>   0.0800 
 30 H       -6.9690     1.4390     1.4050 H     1 <1>   0.0800 
 31 H       -5.7850     2.4520     2.2100 H     1 <1>   0.0800 
 32 H       -5.8200     0.7330     2.5250 H     1 <1>   0.0800 
@<TRIPOS>BOND
  1   1   2  1   
  2   1   3  1   
  3   2   4  1   
  4   2   5  2   
  5   3   6  2   
  6   3  16  1   
  7   4   7  2   
  8   4   8  am  
  9   5   6  1   
 10   5  17  1   
 11   6  18  1   
 12   8   9  1   
 13   8  10  1   
 14   9  11  1   
 15   9  19  1   
 16   9  20  1   
 17  10  12  1   
 18  10  21  1   
 19  10  22  1   
 20  11  13  1   
 21  11  23  1   
 22  11  24  1   
 23  12  14  1   
 24  12  25  1   
 25  12  26  1   
 26  13  14  1   
 27  13  15  1   
 28  13  27  1   
 29  14  28  1   
 30  14  29  1   
 31  15  30  1   
 32  15  31  1   
 33  15  32  1   
@<TRIPOS>SUBSTRUCTURE
  1 ****   4 GROUP 4 **** **** 0

# MOE 2024.06 (io_trps.svl 2023.06)
