@<TRIPOS>MOLECULE
NONAME
41 42 1 0 0 
SMALL
USER_CHARGES


@<TRIPOS>ATOM
  1 N        0.2680     0.4090    -0.1720 N.ar  1 <1>  -0.1790 
  2 C       -0.9890     0.9510    -0.0840 C.ar  1 <1>   0.3610 
  3 C        1.4010     1.1130    -0.0080 C.ar  1 <1>   0.2180 
  4 C       -1.1040     2.3260     0.1830 C.ar  1 <1>   0.0000 
  5 C       -2.1350     0.1500    -0.2560 C.ar  1 <1>  -0.1430 
  6 C        1.3360     2.4650     0.2720 C.ar  1 <1>  -0.1430 
  7 C        2.6980     0.3150    -0.1530 C.3   1 <1>  -0.0160 
  8 C        0.0850     3.1030     0.3490 C.ar  1 <1>   0.1000 
  9 C       -2.4040     2.8620     0.2730 C.ar  1 <1>  -0.1500 
 10 C       -3.3800     0.7220    -0.1600 C.ar  1 <1>  -0.1500 
 11 C       -2.0360    -1.3460    -0.5480 C.3   1 <1>  -0.0970 
 12 C        2.6100     3.2910     0.5090 C.3   1 <1>  -0.0170 
 13 C        3.0640    -0.3990     1.1570 C.3   1 <1>  -0.1600 
 14 N       -0.0050     4.4310     0.5640 N.pl3 1 <1>  -0.9000 
 15 C       -3.5200     2.0820     0.1050 C.ar  1 <1>  -0.1430 
 16 C        3.0920     3.9400    -0.7920 C.3   1 <1>  -0.2400 
 17 C        4.3610    -1.2020     1.0080 C.3   1 <1>  -0.2400 
 18 C       -4.9170     2.6720     0.2040 C.3   1 <1>  -0.0970 
 19 H        0.3140    -0.5900    -0.3700 H     1 <1>   0.4570 
 20 H        3.5090     0.9540    -0.4520 H     1 <1>   0.0800 
 21 H        2.5890    -0.4120    -0.9390 H     1 <1>   0.0800 
 22 H       -2.5250     3.9090     0.4790 H     1 <1>   0.1500 
 23 H       -4.2730     0.1320    -0.2880 H     1 <1>   0.1500 
 24 H       -1.5130    -1.5200    -1.4720 H     1 <1>   0.0800 
 25 H       -3.0170    -1.7790    -0.6450 H     1 <1>   0.0800 
 26 H       -1.5350    -1.8590     0.2550 H     1 <1>   0.0800 
 27 H        3.3970     2.6860     0.9200 H     1 <1>   0.0800 
 28 H        2.4300     4.0560     1.2440 H     1 <1>   0.0800 
 29 H        3.1930     0.3280     1.9410 H     1 <1>   0.0800 
 30 H        2.2740    -1.0670     1.4540 H     1 <1>   0.0800 
 31 H        0.8100     5.0460     0.6640 H     1 <1>   0.4000 
 32 H       -0.8910     4.9430     0.6250 H     1 <1>   0.4000 
 33 H        3.9740     4.5280    -0.6060 H     1 <1>   0.0800 
 34 H        3.3300     3.1930    -1.5280 H     1 <1>   0.0800 
 35 H        2.3320     4.5860    -1.1950 H     1 <1>   0.0800 
 36 H        4.6010    -1.6880     1.9390 H     1 <1>   0.0800 
 37 H        5.1810    -0.5550     0.7470 H     1 <1>   0.0800 
 38 H        4.2610    -1.9580     0.2490 H     1 <1>   0.0800 
 39 H       -4.8790     3.7260     0.4130 H     1 <1>   0.0800 
 40 H       -5.4660     2.1880     0.9920 H     1 <1>   0.0800 
 41 H       -5.4430     2.5290    -0.7230 H     1 <1>   0.0800 
@<TRIPOS>BOND
  1   1   2  ar  
  2   1   3  ar  
  3   1  19  1   
  4   2   4  ar  
  5   2   5  ar  
  6   3   6  ar  
  7   3   7  1   
  8   4   8  ar  
  9   4   9  ar  
 10   5  10  ar  
 11   5  11  1   
 12   6   8  ar  
 13   6  12  1   
 14   7  13  1   
 15   7  20  1   
 16   7  21  1   
 17   8  14  1   
 18   9  15  ar  
 19   9  22  1   
 20  10  15  ar  
 21  10  23  1   
 22  11  24  1   
 23  11  25  1   
 24  11  26  1   
 25  12  16  1   
 26  12  27  1   
 27  12  28  1   
 28  13  17  1   
 29  13  29  1   
 30  13  30  1   
 31  14  31  1   
 32  14  32  1   
 33  15  18  1   
 34  16  33  1   
 35  16  34  1   
 36  16  35  1   
 37  17  36  1   
 38  17  37  1   
 39  17  38  1   
 40  18  39  1   
 41  18  40  1   
 42  18  41  1   
@<TRIPOS>SUBSTRUCTURE
  1 ****   2 GROUP 4 **** **** 0

# MOE 2024.06 (io_trps.svl 2023.06)
