@<TRIPOS>MOLECULE
NONAME
41 42 1 0 0 
SMALL
USER_CHARGES


@<TRIPOS>ATOM
  1 S        0.3080     0.0450    -0.6390 S.3   1 <1>  -0.3710 
  2 C       -1.2140     0.9260    -0.3790 C.2   1 <1>   0.6510 
  3 C        0.9890    -0.0840     1.0940 C.3   1 <1>   0.1310 
  4 N       -1.4990     1.3280     0.7930 N.2   1 <1>  -0.6210 
  5 N       -1.9620     1.1090    -1.4880 N.am  1 <1>  -0.4900 
  6 C        2.4470    -0.5090     1.0680 C.2   1 <1>   0.5690 
  7 C       -2.6720     2.0190     0.9450 C.2   1 <1>   0.0210 
  8 C       -3.1390     1.7840    -1.3930 C.2   1 <1>   0.6160 
  9 O        2.8650    -1.2080     1.9600 O.2   1 <1>  -0.5700 
 10 N        3.2130    -0.0710     0.0200 N.am  1 <1>  -0.5470 
 11 O       -2.9060     2.3990     2.0960 O.3   1 <1>  -0.8500 
 12 C       -3.5210     2.2650    -0.1390 C.2   1 <1>  -0.1240 
 13 O       -3.7590     1.8990    -2.4640 O.2   1 <1>  -0.5700 
 14 C        4.5710    -0.2370    -0.2910 C.ar  1 <1>   0.1170 
 15 C       -4.8260     3.0420     0.0710 C.3   1 <1>   0.0580 
 16 C        5.5240    -0.6340     0.6420 C.ar  1 <1>  -0.1500 
 17 C        4.9880     0.0220    -1.5910 C.ar  1 <1>  -0.1500 
 18 C       -6.0490     2.1560    -0.2370 C.3   1 <1>  -0.1600 
 19 C       -4.8180     4.3510    -0.7350 C.3   1 <1>  -0.2400 
 20 C        6.8530    -0.7740     0.2830 C.ar  1 <1>  -0.1500 
 21 C        6.3160    -0.1140    -1.9540 C.ar  1 <1>  -0.1500 
 22 C       -7.3880     2.7960     0.1570 C.3   1 <1>  -0.2400 
 23 C        7.2520    -0.5140    -1.0160 C.ar  1 <1>  -0.1500 
 24 H        0.3850    -0.7970     1.6250 H     1 <1>   0.0800 
 25 H        0.8960     0.8810     1.5570 H     1 <1>   0.0800 
 26 H       -1.6890     0.7520    -2.3910 H     1 <1>   0.3700 
 27 H        2.6650     0.4120    -0.6930 H     1 <1>   0.3700 
 28 H       -4.8860     3.3160     1.1100 H     1 <1>   0.0800 
 29 H        5.2340    -0.8360     1.6560 H     1 <1>   0.1500 
 30 H        4.2700     0.3310    -2.3280 H     1 <1>   0.1500 
 31 H       -5.9350     1.2370     0.3130 H     1 <1>   0.0800 
 32 H       -6.0690     1.9090    -1.2830 H     1 <1>   0.0800 
 33 H       -4.8840     4.1520    -1.7890 H     1 <1>   0.0800 
 34 H       -3.9050     4.8820    -0.5370 H     1 <1>   0.0800 
 35 H       -5.6410     4.9770    -0.4450 H     1 <1>   0.0800 
 36 H        7.5760    -1.0850     1.0170 H     1 <1>   0.1500 
 37 H        6.6240     0.0880    -2.9650 H     1 <1>   0.1500 
 38 H       -7.3710     3.0770     1.1960 H     1 <1>   0.0800 
 39 H       -8.1860     2.0920     0.0050 H     1 <1>   0.0800 
 40 H       -7.5840     3.6680    -0.4400 H     1 <1>   0.0800 
 41 H        8.2850    -0.6220    -1.2950 H     1 <1>   0.1500 
@<TRIPOS>BOND
  1   1   2  1   
  2   1   3  1   
  3   2   4  2   
  4   2   5  1   
  5   3   6  1   
  6   3  24  1   
  7   3  25  1   
  8   4   7  1   
  9   5   8  am  
 10   5  26  1   
 11   6   9  2   
 12   6  10  am  
 13   7  11  1   
 14   7  12  2   
 15   8  12  1   
 16   8  13  2   
 17  10  14  1   
 18  10  27  1   
 19  12  15  1   
 20  14  16  ar  
 21  14  17  ar  
 22  15  18  1   
 23  15  19  1   
 24  15  28  1   
 25  16  20  ar  
 26  16  29  1   
 27  17  21  ar  
 28  17  30  1   
 29  18  22  1   
 30  18  31  1   
 31  18  32  1   
 32  19  33  1   
 33  19  34  1   
 34  19  35  1   
 35  20  23  ar  
 36  20  36  1   
 37  21  23  ar  
 38  21  37  1   
 39  22  38  1   
 40  22  39  1   
 41  22  40  1   
 42  23  41  1   
@<TRIPOS>SUBSTRUCTURE
  1 ****   1 GROUP 4 **** **** 0

# MOE 2024.06 (io_trps.svl 2023.06)
