@<TRIPOS>MOLECULE
NONAME
42 43 1 0 0 
SMALL
USER_CHARGES


@<TRIPOS>ATOM
  1 O       -0.4130     3.1170    -2.5800 O.2   1 <1>  -0.5700 
  2 C       -0.1490     2.8630    -1.4310 C.2   1 <1>   0.5690 
  3 N        1.0850     2.4640    -1.0480 N.am  1 <1>  -0.7300 
  4 C       -1.2280     2.9960    -0.3750 C.3   1 <1>  -0.0990 
  5 C        2.2360     2.2780    -1.9430 C.3   1 <1>   0.2840 
  6 C       -2.1200     1.7440    -0.2550 C.3   1 <1>  -0.0800 
  7 C        3.4920     2.7100    -1.2040 C.ar  1 <1>  -0.1440 
  8 C       -3.2780     2.0150     0.7220 C.3   1 <1>  -0.1600 
  9 C       -1.3190     0.5050     0.1910 C.3   1 <1>  -0.1600 
 10 C        4.0370     1.9140    -0.2000 C.ar  1 <1>   0.0820 
 11 C        4.0990     3.9120    -1.5330 C.ar  1 <1>  -0.1500 
 12 C       -4.1810     0.7860     0.8850 C.3   1 <1>  -0.1600 
 13 C       -2.2230    -0.7230     0.3610 C.3   1 <1>  -0.1600 
 14 O        3.3980     0.7510     0.1000 O.3   1 <1>  -0.3630 
 15 C        5.1930     2.3310     0.4560 C.ar  1 <1>  -0.1500 
 16 C        5.2460     4.3220    -0.8770 C.ar  1 <1>  -0.1500 
 17 C       -3.3740    -0.4380     1.3340 C.3   1 <1>  -0.1600 
 18 C        3.9210    -0.1590     1.0430 C.3   1 <1>   0.0400 
 19 C        5.7940     3.5300     0.1160 C.ar  1 <1>  -0.1500 
 20 H        1.2850     2.2140    -0.0790 H     1 <1>   0.3700 
 21 H       -1.8380     3.8390    -0.6440 H     1 <1>   0.0800 
 22 H       -0.7720     3.2150     0.5730 H     1 <1>   0.0800 
 23 H        2.1020     2.8580    -2.8410 H     1 <1>   0.0800 
 24 H        2.3090     1.2400    -2.2180 H     1 <1>   0.0800 
 25 H       -2.5400     1.5420    -1.2270 H     1 <1>   0.0800 
 26 H       -3.8690     2.8390     0.3630 H     1 <1>   0.0800 
 27 H       -2.8800     2.2880     1.6850 H     1 <1>   0.0800 
 28 H       -0.8260     0.7110     1.1260 H     1 <1>   0.0800 
 29 H       -0.5630     0.2720    -0.5390 H     1 <1>   0.0800 
 30 H        3.6780     4.5370    -2.3020 H     1 <1>   0.1500 
 31 H       -4.6620     0.5700    -0.0530 H     1 <1>   0.0800 
 32 H       -4.9490     0.9960     1.6100 H     1 <1>   0.0800 
 33 H       -1.6410    -1.5520     0.7230 H     1 <1>   0.0800 
 34 H       -2.6290    -0.9990    -0.5980 H     1 <1>   0.0800 
 35 H        5.6400     1.7410     1.2320 H     1 <1>   0.1500 
 36 H        5.7120     5.2560    -1.1400 H     1 <1>   0.1500 
 37 H       -4.0200    -1.2970     1.3890 H     1 <1>   0.0800 
 38 H       -2.9740    -0.2610     2.3180 H     1 <1>   0.0800 
 39 H        3.2660    -1.0110     1.0830 H     1 <1>   0.0800 
 40 H        3.9590     0.3180     2.0060 H     1 <1>   0.0800 
 41 H        4.9010    -0.4670     0.7250 H     1 <1>   0.0800 
 42 H        6.6870     3.8490     0.6240 H     1 <1>   0.1500 
@<TRIPOS>BOND
  1   1   2  2   
  2   2   3  am  
  3   2   4  1   
  4   3   5  1   
  5   3  20  1   
  6   4   6  1   
  7   4  21  1   
  8   4  22  1   
  9   5   7  1   
 10   5  23  1   
 11   5  24  1   
 12   6   8  1   
 13   6   9  1   
 14   6  25  1   
 15   7  10  ar  
 16   7  11  ar  
 17   8  12  1   
 18   8  26  1   
 19   8  27  1   
 20   9  13  1   
 21   9  28  1   
 22   9  29  1   
 23  10  14  1   
 24  10  15  ar  
 25  11  16  ar  
 26  11  30  1   
 27  12  17  1   
 28  12  31  1   
 29  12  32  1   
 30  13  17  1   
 31  13  33  1   
 32  13  34  1   
 33  14  18  1   
 34  15  19  ar  
 35  15  35  1   
 36  16  19  ar  
 37  16  36  1   
 38  17  37  1   
 39  17  38  1   
 40  18  39  1   
 41  18  40  1   
 42  18  41  1   
 43  19  42  1   
@<TRIPOS>SUBSTRUCTURE
  1 ****   3 GROUP 4 **** **** 0

# MOE 2024.06 (io_trps.svl 2023.06)
