@<TRIPOS>MOLECULE
NONAME
38 39 1 0 0 
SMALL
USER_CHARGES


@<TRIPOS>ATOM
  1 S        0.0940    -0.1630    -0.0190 S.o2  1 <1>   1.3330 
  2 O        0.1930    -0.6880     1.3240 O.2   1 <1>  -0.6500 
  3 O        0.5200    -0.9690    -1.1410 O.2   1 <1>  -0.6500 
  4 N       -1.5170     0.2850    -0.2830 N.am  1 <1>  -0.8490 
  5 C        0.9580     1.4130    -0.1080 C.3   1 <1>  -0.0550 
  6 C       -2.1970     0.7250     0.9580 C.3   1 <1>   0.1960 
  7 C       -2.2940    -0.8150    -0.8970 C.3   1 <1>   0.1960 
  8 C        2.4810     1.3170     0.0900 C.3   1 <1>  -0.2400 
  9 C       -3.6390     1.2010     0.6990 C.3   1 <1>   0.2090 
 10 C       -3.7520    -0.4170    -1.2040 C.3   1 <1>   0.2090 
 11 N       -4.4190     0.1390     0.0060 N.pl3 1 <1>  -0.8380 
 12 C       -5.8090     0.1030     0.1020 C.ar  1 <1>   0.1000 
 13 C       -6.6520     1.0830    -0.4360 C.ar  1 <1>  -0.1440 
 14 C       -6.3760    -0.9740     0.7700 C.ar  1 <1>  -0.1500 
 15 C       -8.0240     0.9620    -0.2870 C.ar  1 <1>  -0.1500 
 16 C       -6.1130     2.2920    -1.1890 C.3   1 <1>  -0.0970 
 17 C       -7.7450    -1.0900     0.9140 C.ar  1 <1>  -0.1500 
 18 C       -8.5730    -0.1180     0.3840 C.ar  1 <1>  -0.1500 
 19 H        0.5600     2.0720     0.6380 H     1 <1>   0.0800 
 20 H        0.7650     1.8550    -1.0670 H     1 <1>   0.0800 
 21 H       -1.6440     1.5310     1.4080 H     1 <1>   0.0800 
 22 H       -2.2310    -0.0870     1.6650 H     1 <1>   0.0800 
 23 H       -2.2970    -1.6680    -0.2390 H     1 <1>   0.0800 
 24 H       -1.8310    -1.1150    -1.8210 H     1 <1>   0.0800 
 25 H        2.7030     0.8970     1.0560 H     1 <1>   0.0800 
 26 H        2.9290     2.2920     0.0220 H     1 <1>   0.0800 
 27 H        2.9120     0.6830    -0.6660 H     1 <1>   0.0800 
 28 H       -3.6120     2.0860     0.0900 H     1 <1>   0.0800 
 29 H       -4.1180     1.4420     1.6320 H     1 <1>   0.0800 
 30 H       -4.2980    -1.2780    -1.5480 H     1 <1>   0.0800 
 31 H       -3.7570     0.3180    -1.9870 H     1 <1>   0.0800 
 32 H       -5.7240    -1.7220     1.1800 H     1 <1>   0.1500 
 33 H       -8.6820     1.7100    -0.6930 H     1 <1>   0.1500 
 34 H       -5.3200     2.0000    -1.8510 H     1 <1>   0.0800 
 35 H       -5.7390     3.0160    -0.4900 H     1 <1>   0.0800 
 36 H       -6.8850     2.7520    -1.7780 H     1 <1>   0.0800 
 37 H       -8.1640    -1.9320     1.4360 H     1 <1>   0.1500 
 38 H       -9.6400    -0.2010     0.4920 H     1 <1>   0.1500 
@<TRIPOS>BOND
  1   1   2  2   
  2   1   3  2   
  3   1   4  am  
  4   1   5  1   
  5   4   6  1   
  6   4   7  1   
  7   5   8  1   
  8   5  19  1   
  9   5  20  1   
 10   6   9  1   
 11   6  21  1   
 12   6  22  1   
 13   7  10  1   
 14   7  23  1   
 15   7  24  1   
 16   8  25  1   
 17   8  26  1   
 18   8  27  1   
 19   9  11  1   
 20   9  28  1   
 21   9  29  1   
 22  10  11  1   
 23  10  30  1   
 24  10  31  1   
 25  11  12  1   
 26  12  13  ar  
 27  12  14  ar  
 28  13  15  ar  
 29  13  16  1   
 30  14  17  ar  
 31  14  32  1   
 32  15  18  ar  
 33  15  33  1   
 34  16  34  1   
 35  16  35  1   
 36  16  36  1   
 37  17  18  ar  
 38  17  37  1   
 39  18  38  1   
@<TRIPOS>SUBSTRUCTURE
  1 ****  11 GROUP 4 **** **** 0

# MOE 2024.06 (io_trps.svl 2023.06)
