@<TRIPOS>MOLECULE
NONAME
26 27 1 0 0 
SMALL
USER_CHARGES


@<TRIPOS>ATOM
  1 O        0.0650     0.4470    -0.1690 O.2   1 <1>  -0.5700 
  2 C        0.8520     1.3710    -0.0510 C.2   1 <1>   0.8050 
  3 O        2.1550     1.0860     0.0920 O.3   1 <1>  -0.4300 
  4 C        0.4520     2.7390    -0.0410 C.2   1 <1>  -0.2370 
  5 C        2.6250    -0.2490     0.0830 C.3   1 <1>   0.0400 
  6 N       -0.8660     3.1320    -0.0760 N.pl3 1 <1>   0.0480 
  7 C        1.1970     3.8970     0.0080 C.2   1 <1>   0.0830 
  8 C       -0.9340     4.4610    -0.0430 C.2   1 <1>  -0.3320 
  9 C       -2.1770     2.4790    -0.1140 C.3   1 <1>   0.0960 
 10 N        2.5880     3.9680     0.0370 N.pl3 1 <1>  -0.8830 
 11 C        0.3210     4.9980     0.0110 C.2   1 <1>   0.0190 
 12 C       -2.3600     4.9490    -0.0740 C.3   1 <1>   0.0200 
 13 C       -3.1590     3.6450     0.1230 C.3   1 <1>  -0.1600 
 14 C        0.7050     6.3770     0.0620 C.1   1 <1>   0.5380 
 15 N        1.0030     7.4770     0.1250 N.1   1 <1>  -0.5570 
 16 H        3.6930    -0.2350     0.2070 H     1 <1>   0.0800 
 17 H        2.3670    -0.7020    -0.8580 H     1 <1>   0.0800 
 18 H        2.1650    -0.7870     0.8940 H     1 <1>   0.0800 
 19 H       -2.2430     1.7300     0.6550 H     1 <1>   0.0800 
 20 H       -2.3160     2.0340    -1.0830 H     1 <1>   0.0800 
 21 H        2.9770     4.7150     0.6220 H     1 <1>   0.4000 
 22 H        3.0350     3.0650     0.2460 H     1 <1>   0.4000 
 23 H       -2.5750     5.3860    -1.0340 H     1 <1>   0.0800 
 24 H       -2.5560     5.6630     0.7070 H     1 <1>   0.0800 
 25 H       -3.5190     3.5950     1.1350 H     1 <1>   0.0800 
 26 H       -4.0020     3.5880    -0.5440 H     1 <1>   0.0800 
@<TRIPOS>BOND
  1   1   2  2   
  2   2   3  1   
  3   2   4  1   
  4   3   5  1   
  5   4   6  1   
  6   4   7  2   
  7   5  16  1   
  8   5  17  1   
  9   5  18  1   
 10   6   8  1   
 11   6   9  1   
 12   7  10  1   
 13   7  11  1   
 14   8  11  2   
 15   8  12  1   
 16   9  13  1   
 17   9  19  1   
 18   9  20  1   
 19  10  21  1   
 20  10  22  1   
 21  11  14  1   
 22  12  13  1   
 23  12  23  1   
 24  12  24  1   
 25  13  25  1   
 26  13  26  1   
 27  14  15  3   
@<TRIPOS>SUBSTRUCTURE
  1 ****   4 GROUP 4 **** **** 0

# MOE 2024.06 (io_trps.svl 2023.06)
