@<TRIPOS>MOLECULE
NONAME
45 46 1 0 0 
SMALL
USER_CHARGES


@<TRIPOS>ATOM
  1 O        0.4070     0.7850     0.6160 O.2   1 <1>  -0.5700 
  2 C        0.1870     1.7180    -0.1360 C.2   1 <1>   0.5440 
  3 N        1.1640     2.0630    -1.0230 N.am  1 <1>  -0.7300 
  4 C       -1.0860     2.4210    -0.0870 C.ar  1 <1>   0.0860 
  5 C        2.5140     1.4670    -1.1270 C.3   1 <1>   0.2200 
  6 C       -1.2770     3.7430    -0.5320 C.ar  1 <1>   0.0830 
  7 C       -2.1970     1.7530     0.4340 C.ar  1 <1>  -0.1500 
  8 C        3.5460     2.3440    -0.3820 C.3   1 <1>   0.2000 
  9 C        2.8300     1.3240    -2.6160 C.3   1 <1>  -0.2400 
 10 O       -0.2080     4.4290    -1.0250 O.3   1 <1>  -0.3630 
 11 C       -2.5340     4.3370    -0.4600 C.ar  1 <1>  -0.1500 
 12 C       -3.4490     2.3420     0.5150 C.ar  1 <1>   0.0830 
 13 O        4.8400     1.8310    -0.5330 O.3   1 <1>  -0.5600 
 14 C        3.3190     2.4490     1.1230 C.3   1 <1>  -0.1600 
 15 C       -0.2490     5.8070    -1.3330 C.3   1 <1>   0.0400 
 16 C       -3.6230     3.6500     0.0590 C.ar  1 <1>   0.0830 
 17 O       -4.5370     1.6920     1.0260 O.3   1 <1>  -0.3630 
 18 C        5.5670     1.8830     0.6560 C.3   1 <1>   0.1200 
 19 C        4.7200     2.6630     1.6510 C.3   1 <1>  -0.1600 
 20 O       -4.8660     4.1980     0.1460 O.3   1 <1>  -0.3630 
 21 C       -4.4270     0.4110     1.6050 C.3   1 <1>   0.0400 
 22 C       -5.1560     5.5060    -0.2930 C.3   1 <1>   0.0400 
 23 H        1.0160     2.9270    -1.5510 H     1 <1>   0.3700 
 24 H        2.5040     0.4900    -0.6730 H     1 <1>   0.0800 
 25 H       -2.0500     0.7460     0.7750 H     1 <1>   0.1500 
 26 H        3.5590     3.3290    -0.8140 H     1 <1>   0.0800 
 27 H        2.8710     2.2880    -3.0900 H     1 <1>   0.0800 
 28 H        2.0840     0.7160    -3.0950 H     1 <1>   0.0800 
 29 H        3.7850     0.8440    -2.7390 H     1 <1>   0.0800 
 30 H       -2.6720     5.3380    -0.8090 H     1 <1>   0.1500 
 31 H        2.9170     1.5220     1.4960 H     1 <1>   0.0800 
 32 H        2.6460     3.2500     1.3730 H     1 <1>   0.0800 
 33 H        0.7390     6.1150    -1.6230 H     1 <1>   0.0800 
 34 H       -0.5580     6.3520    -0.4580 H     1 <1>   0.0800 
 35 H       -0.9320     5.9630    -2.1490 H     1 <1>   0.0800 
 36 H        6.5170     2.3530     0.4680 H     1 <1>   0.0800 
 37 H        5.7150     0.8700     0.9880 H     1 <1>   0.0800 
 38 H        4.8450     2.3040     2.6570 H     1 <1>   0.0800 
 39 H        4.9850     3.7050     1.6060 H     1 <1>   0.0800 
 40 H       -5.3960     0.1310     1.9790 H     1 <1>   0.0800 
 41 H       -3.7210     0.4520     2.4150 H     1 <1>   0.0800 
 42 H       -4.1110    -0.2880     0.8510 H     1 <1>   0.0800 
 43 H       -6.2000     5.6900    -0.1170 H     1 <1>   0.0800 
 44 H       -4.9450     5.5760    -1.3450 H     1 <1>   0.0800 
 45 H       -4.5630     6.2030     0.2720 H     1 <1>   0.0800 
@<TRIPOS>BOND
  1   1   2  2   
  2   2   3  am  
  3   2   4  1   
  4   3   5  1   
  5   3  23  1   
  6   4   6  ar  
  7   4   7  ar  
  8   5   8  1   
  9   5   9  1   
 10   5  24  1   
 11   6  10  1   
 12   6  11  ar  
 13   7  12  ar  
 14   7  25  1   
 15   8  13  1   
 16   8  14  1   
 17   8  26  1   
 18   9  27  1   
 19   9  28  1   
 20   9  29  1   
 21  10  15  1   
 22  11  16  ar  
 23  11  30  1   
 24  12  16  ar  
 25  12  17  1   
 26  13  18  1   
 27  14  19  1   
 28  14  31  1   
 29  14  32  1   
 30  15  33  1   
 31  15  34  1   
 32  15  35  1   
 33  16  20  1   
 34  17  21  1   
 35  18  19  1   
 36  18  36  1   
 37  18  37  1   
 38  19  38  1   
 39  19  39  1   
 40  20  22  1   
 41  21  40  1   
 42  21  41  1   
 43  21  42  1   
 44  22  43  1   
 45  22  44  1   
 46  22  45  1   
@<TRIPOS>SUBSTRUCTURE
  1 ****   4 GROUP 4 **** **** 0

# MOE 2024.06 (io_trps.svl 2023.06)
