@<TRIPOS>MOLECULE
NONAME
36 37 1 0 0 
SMALL
USER_CHARGES


@<TRIPOS>ATOM
  1 O       -1.3050    -0.1500    -1.2290 O.3   1 <1>  -0.3620 
  2 C       -1.8620     0.6950    -0.3280 C.ar  1 <1>   0.0830 
  3 C       -0.0170     0.0850    -1.7550 C.3   1 <1>   0.0400 
  4 C       -3.0910     0.3210     0.1880 C.ar  1 <1>  -0.1500 
  5 C       -1.2750     1.8850     0.0890 C.ar  1 <1>  -0.1500 
  6 C       -3.7470     1.1250     1.1080 C.ar  1 <1>  -0.1430 
  7 C       -1.9220     2.6840     1.0150 C.ar  1 <1>  -0.1500 
  8 C       -3.1530     2.3080     1.5250 C.ar  1 <1>  -0.1500 
  9 C       -5.1040     0.7120     1.6410 C.3   1 <1>   0.4860 
 10 N       -6.1000     0.8500     0.5430 N.4   1 <1>  -0.9590 
 11 C       -6.2470     2.2770     0.1170 C.3   1 <1>   0.3430 
 12 C       -7.4000     0.2140     0.9060 C.3   1 <1>   0.3430 
 13 C       -7.1940     2.3700    -1.0770 C.3   1 <1>  -0.1600 
 14 C       -8.3580     0.2780    -0.2810 C.3   1 <1>  -0.1600 
 15 C       -8.5330     1.7230    -0.7370 C.3   1 <1>   0.2000 
 16 O       -9.3270     1.7370    -1.8570 O.3   1 <1>  -0.6800 
 17 H        0.2270    -0.7270    -2.4170 H     1 <1>   0.0800 
 18 H        0.6910     0.1200    -0.9460 H     1 <1>   0.0800 
 19 H       -0.0240     1.0110    -2.3020 H     1 <1>   0.0800 
 20 H       -3.5090    -0.6110    -0.1470 H     1 <1>   0.1500 
 21 H       -0.3220     2.2010    -0.2910 H     1 <1>   0.1500 
 22 H       -1.4610     3.6030     1.3410 H     1 <1>   0.1500 
 23 H       -3.6310     2.9470     2.2470 H     1 <1>   0.1500 
 24 H       -5.3780     1.3330     2.4790 H     1 <1>   0.0800 
 25 H       -5.0540    -0.3120     1.9740 H     1 <1>   0.0800 
 26 H       -5.7000     0.3460    -0.2590 H     1 <1>   0.4500 
 27 H       -5.2860     2.6830    -0.1590 H     1 <1>   0.0800 
 28 H       -6.6390     2.8640     0.9330 H     1 <1>   0.0800 
 29 H       -7.8370     0.7290     1.7460 H     1 <1>   0.0800 
 30 H       -7.2440    -0.8170     1.1840 H     1 <1>   0.0800 
 31 H       -6.7410     1.8890    -1.9260 H     1 <1>   0.0800 
 32 H       -7.3500     3.4070    -1.3180 H     1 <1>   0.0800 
 33 H       -9.3130    -0.1170     0.0200 H     1 <1>   0.0800 
 34 H       -7.9770    -0.3310    -1.0810 H     1 <1>   0.0800 
 35 H       -9.0430     2.2960     0.0220 H     1 <1>   0.0800 
 36 H       -8.9180     1.2580    -2.6030 H     1 <1>   0.4000 
@<TRIPOS>BOND
  1   1   2  1   
  2   1   3  1   
  3   2   4  ar  
  4   2   5  ar  
  5   3  17  1   
  6   3  18  1   
  7   3  19  1   
  8   4   6  ar  
  9   4  20  1   
 10   5   7  ar  
 11   5  21  1   
 12   6   8  ar  
 13   6   9  1   
 14   7   8  ar  
 15   7  22  1   
 16   8  23  1   
 17   9  10  1   
 18   9  24  1   
 19   9  25  1   
 20  10  11  1   
 21  10  12  1   
 22  10  26  1   
 23  11  13  1   
 24  11  27  1   
 25  11  28  1   
 26  12  14  1   
 27  12  29  1   
 28  12  30  1   
 29  13  15  1   
 30  13  31  1   
 31  13  32  1   
 32  14  15  1   
 33  14  33  1   
 34  14  34  1   
 35  15  16  1   
 36  15  35  1   
 37  16  36  1   
@<TRIPOS>SUBSTRUCTURE
  1 ****   6 GROUP 4 **** **** 0

# MOE 2024.06 (io_trps.svl 2023.06)
