@<TRIPOS>MOLECULE
NONAME
30 30 1 0 0 
SMALL
USER_CHARGES


@<TRIPOS>ATOM
  1 S        0.1170     0.0920     0.2800 S.o2  1 <1>   1.4470 
  2 O        0.9160    -0.3100     1.4150 O.2   1 <1>  -0.6500 
  3 O       -0.0520     1.4910    -0.0350 O.2   1 <1>  -0.6500 
  4 N        0.8460    -0.5410    -1.0940 N.am  1 <1>  -0.9140 
  5 C       -1.4920    -0.7430     0.3230 C.ar  1 <1>  -0.0090 
  6 C        2.3000    -0.4110    -1.0910 C.3   1 <1>   0.1160 
  7 C       -2.6540    -0.0910    -0.0630 C.ar  1 <1>  -0.1500 
  8 C       -1.5990    -2.0670     0.7260 C.ar  1 <1>  -0.1500 
  9 C       -3.9060    -0.7060    -0.0550 C.ar  1 <1>   0.0860 
 10 C       -2.8230    -2.7090     0.7450 C.ar  1 <1>  -0.1500 
 11 C       -3.9740    -2.0420     0.3610 C.ar  1 <1>  -0.1430 
 12 C       -5.0700     0.0580    -0.4650 C.2   1 <1>   0.5440 
 13 C       -5.3040    -2.7850     0.3990 C.3   1 <1>  -0.0960 
 14 O       -5.8000    -0.3340    -1.3550 O.2   1 <1>  -0.5700 
 15 N       -5.3490     1.2480     0.1490 N.am  1 <1>  -0.7300 
 16 C       -6.4840     2.1470    -0.1820 C.3   1 <1>   0.0600 
 17 H        0.4860     0.0470    -1.8440 H     1 <1>   0.4200 
 18 H        2.7220    -1.0000    -0.2930 H     1 <1>   0.0800 
 19 H        2.5850     0.6200    -0.9520 H     1 <1>   0.0800 
 20 H        2.7000    -0.7640    -2.0260 H     1 <1>   0.0800 
 21 H       -2.5920     0.9330    -0.3910 H     1 <1>   0.1500 
 22 H       -0.7120    -2.6000     1.0270 H     1 <1>   0.1500 
 23 H       -2.8710    -3.7370     1.0620 H     1 <1>   0.1500 
 24 H       -6.0370    -2.2100     0.9360 H     1 <1>   0.0800 
 25 H       -5.2040    -3.7400     0.8810 H     1 <1>   0.0800 
 26 H       -5.6610    -2.9440    -0.6040 H     1 <1>   0.0800 
 27 H       -4.7630     1.5410     0.9330 H     1 <1>   0.3700 
 28 H       -7.0350     1.7650    -1.0250 H     1 <1>   0.0800 
 29 H       -6.1130     3.1270    -0.4270 H     1 <1>   0.0800 
 30 H       -7.1490     2.2180     0.6620 H     1 <1>   0.0800 
@<TRIPOS>BOND
  1   1   2  2   
  2   1   3  2   
  3   1   4  am  
  4   1   5  1   
  5   4   6  1   
  6   4  17  1   
  7   5   7  ar  
  8   5   8  ar  
  9   6  18  1   
 10   6  19  1   
 11   6  20  1   
 12   7   9  ar  
 13   7  21  1   
 14   8  10  ar  
 15   8  22  1   
 16   9  11  ar  
 17   9  12  1   
 18  10  11  ar  
 19  10  23  1   
 20  11  13  1   
 21  12  14  2   
 22  12  15  am  
 23  13  24  1   
 24  13  25  1   
 25  13  26  1   
 26  15  16  1   
 27  15  27  1   
 28  16  28  1   
 29  16  29  1   
 30  16  30  1   
@<TRIPOS>SUBSTRUCTURE
  1 ****   7 GROUP 4 **** **** 0

# MOE 2024.06 (io_trps.svl 2023.06)
