@<TRIPOS>MOLECULE
NONAME
41 42 1 0 0 
SMALL
USER_CHARGES


@<TRIPOS>ATOM
  1 S       -0.0730     0.0990     0.0080 S.o2  1 <1>   1.4470 
  2 O        0.3900     0.2050    -1.3590 O.2   1 <1>  -0.6500 
  3 O        0.5000     0.9600     1.0200 O.2   1 <1>  -0.6500 
  4 N        0.1860    -1.5040     0.4950 N.am  1 <1>  -0.8490 
  5 C       -1.8780     0.2590     0.0600 C.ar  1 <1>  -0.0090 
  6 C       -0.2150    -2.4640    -0.5390 C.3   1 <1>   0.1960 
  7 C        1.5800    -1.7190     0.8960 C.3   1 <1>   0.1960 
  8 C       -2.5980    -0.1580     1.1730 C.ar  1 <1>  -0.1500 
  9 C       -2.5850     0.8060    -1.0050 C.ar  1 <1>  -0.1500 
 10 C       -0.1150    -3.8950    -0.0020 C.3   1 <1>  -0.1600 
 11 C        1.7570    -3.1270     1.4760 C.3   1 <1>  -0.1600 
 12 C       -3.9750    -0.0390     1.2210 C.ar  1 <1>  -0.1500 
 13 C       -3.9630     0.9300    -0.9690 C.ar  1 <1>  -0.1500 
 14 C        1.3040    -4.2060     0.4860 C.3   1 <1>  -0.1600 
 15 C       -4.6670     0.5040     0.1520 C.ar  1 <1>   0.0830 
 16 O       -6.0110     0.5880     0.2760 O.3   1 <1>  -0.3630 
 17 C       -6.8150     1.1660    -0.7460 C.3   1 <1>   0.1810 
 18 C       -8.2880     1.1670    -0.3570 C.2   1 <1>   0.5690 
 19 O       -9.0900     1.6120    -1.1420 O.2   1 <1>  -0.5700 
 20 N       -8.6580     0.6690     0.8550 N.am  1 <1>  -0.7300 
 21 C      -10.0420     0.5960     1.3820 C.3   1 <1>   0.0600 
 22 H        0.4160    -2.3570    -1.4070 H     1 <1>   0.0800 
 23 H       -1.2330    -2.2740    -0.8380 H     1 <1>   0.0800 
 24 H        1.8580    -1.0010     1.6510 H     1 <1>   0.0800 
 25 H        2.2300    -1.5810     0.0470 H     1 <1>   0.0800 
 26 H       -2.0690    -0.5810     2.0120 H     1 <1>   0.1500 
 27 H       -2.0460     1.1400    -1.8770 H     1 <1>   0.1500 
 28 H       -0.3920    -4.5880    -0.7760 H     1 <1>   0.0800 
 29 H       -0.8140    -4.0100     0.8090 H     1 <1>   0.0800 
 30 H        1.1810    -3.1990     2.3820 H     1 <1>   0.0800 
 31 H        2.7910    -3.2790     1.7310 H     1 <1>   0.0800 
 32 H       -4.5180    -0.3670     2.0890 H     1 <1>   0.1500 
 33 H       -4.4620     1.3590    -1.8180 H     1 <1>   0.1500 
 34 H        1.9760    -4.2250    -0.3550 H     1 <1>   0.0800 
 35 H        1.3290    -5.1730     0.9580 H     1 <1>   0.0800 
 36 H       -6.6880     0.5940    -1.6450 H     1 <1>   0.0800 
 37 H       -6.4920     2.1790    -0.9010 H     1 <1>   0.0800 
 38 H       -7.9100     0.3090     1.4570 H     1 <1>   0.3700 
 39 H      -10.7360     1.0000     0.6640 H     1 <1>   0.0800 
 40 H      -10.1140     1.1640     2.2930 H     1 <1>   0.0800 
 41 H      -10.3030    -0.4290     1.5780 H     1 <1>   0.0800 
@<TRIPOS>BOND
  1   1   2  2   
  2   1   3  2   
  3   1   4  am  
  4   1   5  1   
  5   4   6  1   
  6   4   7  1   
  7   5   8  ar  
  8   5   9  ar  
  9   6  10  1   
 10   6  22  1   
 11   6  23  1   
 12   7  11  1   
 13   7  24  1   
 14   7  25  1   
 15   8  12  ar  
 16   8  26  1   
 17   9  13  ar  
 18   9  27  1   
 19  10  14  1   
 20  10  28  1   
 21  10  29  1   
 22  11  14  1   
 23  11  30  1   
 24  11  31  1   
 25  12  15  ar  
 26  12  32  1   
 27  13  15  ar  
 28  13  33  1   
 29  14  34  1   
 30  14  35  1   
 31  15  16  1   
 32  16  17  1   
 33  17  18  1   
 34  17  36  1   
 35  17  37  1   
 36  18  19  2   
 37  18  20  am  
 38  20  21  1   
 39  20  38  1   
 40  21  39  1   
 41  21  40  1   
 42  21  41  1   
@<TRIPOS>SUBSTRUCTURE
  1 ****   8 GROUP 4 **** **** 0

# MOE 2024.06 (io_trps.svl 2023.06)
