@<TRIPOS>MOLECULE
NONAME
25 26 1 0 0 
SMALL
USER_CHARGES


@<TRIPOS>ATOM
  1 S        0.3390     0.1720     0.0110 S.3   1 <1>  -0.0800 
  2 C        1.2520    -1.3230    -0.0310 C.2   1 <1>   0.1660 
  3 C       -1.1860    -0.7090    -0.0620 C.2   1 <1>  -0.1400 
  4 N        2.6030    -1.3500     0.0000 N.2   1 <1>  -0.5760 
  5 C        0.4240    -2.3970    -0.0960 C.2   1 <1>  -0.0860 
  6 C       -0.9650    -2.0360    -0.1130 C.2   1 <1>  -0.1500 
  7 C       -2.4580     0.1130    -0.0570 C.3   1 <1>  -0.0600 
  8 C        3.1070    -2.5360    -0.0390 C.2   1 <1>   0.6510 
  9 C        1.0340    -3.6800    -0.1360 C.2   1 <1>   0.7160 
 10 S        4.8850    -2.6350    -0.0010 S.3   1 <1>  -0.3710 
 11 N        2.4160    -3.7280    -0.1060 N.am  1 <1>  -0.4200 
 12 O        0.3720    -4.7070    -0.1950 O.2   1 <1>  -0.5700 
 13 C        5.4100    -0.8600     0.0860 C.3   1 <1>   0.2700 
 14 C        3.1310    -5.0410    -0.1440 C.3   1 <1>   0.0600 
 15 C        6.8970    -0.7800     0.1240 C.1   1 <1>   0.3570 
 16 N        8.0320    -0.6940     0.1550 N.1   1 <1>  -0.5570 
 17 H       -1.7230    -2.8000    -0.1630 H     1 <1>   0.1500 
 18 H       -2.4710     0.7740    -0.9050 H     1 <1>   0.0800 
 19 H       -2.5120     0.7000     0.8430 H     1 <1>   0.0800 
 20 H       -3.3170    -0.5310    -0.1040 H     1 <1>   0.0800 
 21 H        4.9830    -0.4370     0.9770 H     1 <1>   0.0800 
 22 H        5.0240    -0.3630    -0.7850 H     1 <1>   0.0800 
 23 H        3.7690    -5.0830    -1.0100 H     1 <1>   0.0800 
 24 H        2.4390    -5.8640    -0.1950 H     1 <1>   0.0800 
 25 H        3.7280    -5.1570     0.7430 H     1 <1>   0.0800 
@<TRIPOS>BOND
  1   1   2  1   
  2   1   3  1   
  3   2   4  1   
  4   2   5  2   
  5   3   6  2   
  6   3   7  1   
  7   4   8  2   
  8   5   6  1   
  9   5   9  1   
 10   6  17  1   
 11   7  18  1   
 12   7  19  1   
 13   7  20  1   
 14   8  10  1   
 15   8  11  1   
 16   9  11  am  
 17   9  12  2   
 18  10  13  1   
 19  11  14  1   
 20  13  15  1   
 21  13  21  1   
 22  13  22  1   
 23  14  23  1   
 24  14  24  1   
 25  14  25  1   
 26  15  16  3   
@<TRIPOS>SUBSTRUCTURE
  1 ****   4 GROUP 4 **** **** 0

# MOE 2024.06 (io_trps.svl 2023.06)
