@<TRIPOS>MOLECULE
NONAME
36 38 1 0 0 
SMALL
USER_CHARGES


@<TRIPOS>ATOM
  1 O       -5.5740    -3.4080     0.1660 O.3   1 <1>  -0.5320 
  2 C       -4.2610    -3.1890     0.3240 C.ar  1 <1>   0.0830 
  3 C       -3.5300    -2.6830    -0.7350 C.ar  1 <1>  -0.1500 
  4 C       -3.6460    -3.4620     1.5340 C.ar  1 <1>  -0.1500 
  5 C       -2.1740    -2.4530    -0.5880 C.ar  1 <1>  -0.1500 
  6 C       -2.2880    -3.2320     1.6780 C.ar  1 <1>  -0.1500 
  7 C       -1.5440    -2.7330     0.6170 C.ar  1 <1>  -0.1430 
  8 C       -0.0510    -2.5050     0.7800 C.3   1 <1>  -0.0170 
  9 C        0.6900    -3.8480     0.7130 C.3   1 <1>   0.4230 
 10 N        2.1390    -3.7190     0.9810 N.4   1 <1>  -0.9590 
 11 C        0.6570    -4.5510    -0.7100 C.3   1 <1>  -0.1600 
 12 C        2.8040    -5.0010     1.2900 C.3   1 <1>   0.3430 
 13 C        2.9280    -2.8260     0.1030 C.3   1 <1>   0.3430 
 14 C        2.0940    -4.9410    -1.2580 C.3   1 <1>  -0.0800 
 15 C        2.7650    -5.7710    -0.0890 C.3   1 <1>  -0.1600 
 16 C        2.8950    -3.5730    -1.2900 C.3   1 <1>  -0.1600 
 17 H       -6.0100    -3.7390     0.9710 H     1 <1>   0.4500 
 18 H       -4.0290    -2.4710    -1.6640 H     1 <1>   0.1500 
 19 H       -4.2160    -3.8470     2.3600 H     1 <1>   0.1500 
 20 H       -1.6250    -2.0530    -1.4220 H     1 <1>   0.1500 
 21 H       -1.8230    -3.4410     2.6260 H     1 <1>   0.1500 
 22 H        0.1270    -2.0480     1.7370 H     1 <1>   0.0800 
 23 H        0.2950    -1.8340     0.0150 H     1 <1>   0.0800 
 24 H        0.2540    -4.5090     1.4470 H     1 <1>   0.0800 
 25 H        2.1040    -4.1580     0.1410 H     1 <1>   0.4500 
 26 H        0.1700    -3.9100    -1.4250 H     1 <1>   0.0800 
 27 H        0.0420    -5.4320    -0.6390 H     1 <1>   0.0800 
 28 H        2.2650    -5.5380     2.0550 H     1 <1>   0.0800 
 29 H        3.8190    -4.8350     1.6170 H     1 <1>   0.0800 
 30 H        3.9380    -2.7280     0.4700 H     1 <1>   0.0800 
 31 H        2.4760    -1.8490     0.0370 H     1 <1>   0.0800 
 32 H        2.0730    -5.4560    -2.2060 H     1 <1>   0.0800 
 33 H        2.2330    -6.6980     0.0470 H     1 <1>   0.0800 
 34 H        3.7710    -6.0380    -0.3650 H     1 <1>   0.0800 
 35 H        3.9080    -3.7540    -1.6100 H     1 <1>   0.0800 
 36 H        2.4600    -2.9160    -2.0250 H     1 <1>   0.0800 
@<TRIPOS>BOND
  1   1   2  1   
  2   1  17  1   
  3   2   3  ar  
  4   2   4  ar  
  5   3   5  ar  
  6   3  18  1   
  7   4   6  ar  
  8   4  19  1   
  9   5   7  ar  
 10   5  20  1   
 11   6   7  ar  
 12   6  21  1   
 13   7   8  1   
 14   8   9  1   
 15   8  22  1   
 16   8  23  1   
 17   9  10  1   
 18   9  11  1   
 19   9  24  1   
 20  10  12  1   
 21  10  13  1   
 22  10  25  1   
 23  11  14  1   
 24  11  26  1   
 25  11  27  1   
 26  12  15  1   
 27  12  28  1   
 28  12  29  1   
 29  13  16  1   
 30  13  30  1   
 31  13  31  1   
 32  14  15  1   
 33  14  16  1   
 34  14  32  1   
 35  15  33  1   
 36  15  34  1   
 37  16  35  1   
 38  16  36  1   
@<TRIPOS>SUBSTRUCTURE
  1 ****   9 GROUP 4 **** **** 0

# MOE 2024.06 (io_trps.svl 2023.06)
