@<TRIPOS>MOLECULE
NONAME
35 35 1 0 0 
SMALL
USER_CHARGES


@<TRIPOS>ATOM
  1 CL       1.3680     0.6140     1.1290 Cl    1 <1>  -0.1770 
  2 C        1.5120    -1.0500     0.6270 C.ar  1 <1>   0.1770 
  3 C        0.6520    -1.9910     1.1620 C.ar  1 <1>  -0.1500 
  4 C        2.4780    -1.4010    -0.2950 C.ar  1 <1>  -0.1500 
  5 C        0.7570    -3.3160     0.7660 C.ar  1 <1>  -0.1440 
  6 C        2.5870    -2.7220    -0.6940 C.ar  1 <1>  -0.1500 
  7 C        1.7260    -3.6850    -0.1670 C.ar  1 <1>   0.0830 
  8 C       -0.1710    -4.3590     1.3540 C.3   1 <1>   0.4870 
  9 O        1.7730    -4.9950    -0.5300 O.3   1 <1>  -0.3630 
 10 N       -0.9290    -4.9520     0.2350 N.4   1 <1>  -0.9060 
 11 C        2.8550    -5.5100    -1.2790 C.3   1 <1>   0.1200 
 12 C       -1.7790    -6.1040     0.6440 C.3   1 <1>   0.3430 
 13 C        2.6610    -7.0170    -1.4090 C.3   1 <1>  -0.2400 
 14 C       -2.4730    -6.7480    -0.5590 C.3   1 <1>   0.1200 
 15 O       -3.2400    -7.7930    -0.0700 O.3   1 <1>  -0.5600 
 16 C       -3.9430    -8.4990    -1.0450 C.3   1 <1>   0.0400 
 17 H       -0.0800    -1.6650     1.8810 H     1 <1>   0.1500 
 18 H        3.1350    -0.6460    -0.6920 H     1 <1>   0.1500 
 19 H        3.3440    -2.9740    -1.4150 H     1 <1>   0.1500 
 20 H       -0.8400    -3.9080     2.0690 H     1 <1>   0.0800 
 21 H        0.4150    -5.1160     1.8500 H     1 <1>   0.0800 
 22 H       -0.1990    -5.2510    -0.4340 H     1 <1>   0.4500 
 23 H       -1.4700    -4.2150    -0.2270 H     1 <1>   0.4500 
 24 H        3.7720    -5.2880    -0.7580 H     1 <1>   0.0800 
 25 H        2.8590    -5.0430    -2.2500 H     1 <1>   0.0800 
 26 H       -2.5340    -5.7730     1.3390 H     1 <1>   0.0800 
 27 H       -1.1710    -6.8520     1.1260 H     1 <1>   0.0800 
 28 H        2.6460    -7.4790    -0.4380 H     1 <1>   0.0800 
 29 H        3.4790    -7.4370    -1.9680 H     1 <1>   0.0800 
 30 H        1.7480    -7.2370    -1.9330 H     1 <1>   0.0800 
 31 H       -1.7520    -7.1500    -1.2510 H     1 <1>   0.0800 
 32 H       -3.1270    -6.0480    -1.0500 H     1 <1>   0.0800 
 33 H       -4.5010    -9.2800    -0.5570 H     1 <1>   0.0800 
 34 H       -3.2500    -8.9360    -1.7430 H     1 <1>   0.0800 
 35 H       -4.6240    -7.8350    -1.5500 H     1 <1>   0.0800 
@<TRIPOS>BOND
  1   1   2  1   
  2   2   3  ar  
  3   2   4  ar  
  4   3   5  ar  
  5   3  17  1   
  6   4   6  ar  
  7   4  18  1   
  8   5   7  ar  
  9   5   8  1   
 10   6   7  ar  
 11   6  19  1   
 12   7   9  1   
 13   8  10  1   
 14   8  20  1   
 15   8  21  1   
 16   9  11  1   
 17  10  12  1   
 18  10  22  1   
 19  10  23  1   
 20  11  13  1   
 21  11  24  1   
 22  11  25  1   
 23  12  14  1   
 24  12  26  1   
 25  12  27  1   
 26  13  28  1   
 27  13  29  1   
 28  13  30  1   
 29  14  15  1   
 30  14  31  1   
 31  14  32  1   
 32  15  16  1   
 33  16  33  1   
 34  16  34  1   
 35  16  35  1   
@<TRIPOS>SUBSTRUCTURE
  1 ****   5 GROUP 4 **** **** 0

# MOE 2024.06 (io_trps.svl 2023.06)
