@<TRIPOS>MOLECULE
NONAME
45 48 1 0 0 
SMALL
USER_CHARGES


@<TRIPOS>ATOM
  1 S       -0.1850     0.4200     0.4230 S.3   1 <1>  -0.3320 
  2 C       -0.0920    -1.3800     0.4160 C.ar  1 <1>   0.1020 
  3 C        1.5410     1.0330     0.1930 C.3   1 <1>  -0.0100 
  4 C        1.1110    -2.0590     0.4010 C.ar  1 <1>  -0.1500 
  5 C       -1.2800    -2.0790     0.4400 C.ar  1 <1>  -0.1500 
  6 C        1.1110    -3.4430     0.3910 C.ar  1 <1>  -0.1500 
  7 C       -1.2630    -3.4630     0.4280 C.ar  1 <1>  -0.1500 
  8 C       -0.0700    -4.1830     0.3610 C.ar  1 <1>  -0.1430 
  9 C       -0.0610    -5.7390     0.3910 C.3   1 <1>   0.3400 
 10 C        1.1760    -6.6160     0.0970 C.2   1 <1>  -0.1240 
 11 C       -1.2950    -6.6220     0.1040 C.2   1 <1>  -0.1240 
 12 C        1.1290    -7.8520     0.6730 C.2   1 <1>  -0.0380 
 13 C        2.2640    -6.2140    -0.7340 C.2   1 <1>   0.4950 
 14 C       -1.2390    -7.8580     0.6800 C.2   1 <1>  -0.0380 
 15 C       -2.3880    -6.2230    -0.7210 C.2   1 <1>   0.4950 
 16 N       -0.0530    -8.3350     1.2110 N.pl3 1 <1>  -0.6000 
 17 C        2.3070    -8.8160     0.6590 C.3   1 <1>  -0.0220 
 18 O        2.2500    -5.3090    -1.5310 O.2   1 <1>  -0.5700 
 19 C        3.5440    -7.0300    -0.6550 C.3   1 <1>  -0.0990 
 20 C       -2.4140    -8.8260     0.6710 C.3   1 <1>  -0.0220 
 21 O       -2.3800    -5.3170    -1.5160 O.2   1 <1>  -0.5700 
 22 C       -3.6650    -7.0440    -0.6350 C.3   1 <1>  -0.0990 
 23 C        3.2480    -8.5320    -0.5200 C.3   1 <1>  -0.1600 
 24 C       -3.3630    -8.5440    -0.5020 C.3   1 <1>  -0.1600 
 25 H        1.4980     2.1040     0.1190 H     1 <1>   0.0800 
 26 H        1.9260     0.6020    -0.7140 H     1 <1>   0.0800 
 27 H        2.1170     0.7310     1.0480 H     1 <1>   0.0800 
 28 H        2.0460    -1.5360     0.4040 H     1 <1>   0.1500 
 29 H       -2.2120    -1.5450     0.4700 H     1 <1>   0.1500 
 30 H        2.0670    -3.9270     0.4200 H     1 <1>   0.1500 
 31 H       -2.2110    -3.9600     0.4820 H     1 <1>   0.1500 
 32 H       -0.0570    -5.7940     1.4670 H     1 <1>   0.0800 
 33 H       -0.0490    -9.2430     1.6930 H     1 <1>   0.4000 
 34 H        1.9530    -9.8290     0.5790 H     1 <1>   0.0800 
 35 H        2.8420    -8.7210     1.5870 H     1 <1>   0.0800 
 36 H        4.1130    -6.6880     0.1900 H     1 <1>   0.0800 
 37 H        4.1290    -6.8580    -1.5410 H     1 <1>   0.0800 
 38 H       -2.9440    -8.7340     1.6020 H     1 <1>   0.0800 
 39 H       -2.0570    -9.8380     0.5880 H     1 <1>   0.0800 
 40 H       -4.2540    -6.8730    -1.5190 H     1 <1>   0.0800 
 41 H       -4.2310    -6.7040     0.2130 H     1 <1>   0.0800 
 42 H        2.7760    -8.8690    -1.4280 H     1 <1>   0.0800 
 43 H        4.1660    -9.0810    -0.3990 H     1 <1>   0.0800 
 44 H       -4.2780    -9.0970    -0.3770 H     1 <1>   0.0800 
 45 H       -2.8950    -8.8800    -1.4130 H     1 <1>   0.0800 
@<TRIPOS>BOND
  1   1   2  1   
  2   1   3  1   
  3   2   4  ar  
  4   2   5  ar  
  5   3  25  1   
  6   3  26  1   
  7   3  27  1   
  8   4   6  ar  
  9   4  28  1   
 10   5   7  ar  
 11   5  29  1   
 12   6   8  ar  
 13   6  30  1   
 14   7   8  ar  
 15   7  31  1   
 16   8   9  1   
 17   9  10  1   
 18   9  11  1   
 19   9  32  1   
 20  10  12  2   
 21  10  13  1   
 22  11  14  2   
 23  11  15  1   
 24  12  16  1   
 25  12  17  1   
 26  13  18  2   
 27  13  19  1   
 28  14  16  1   
 29  14  20  1   
 30  15  21  2   
 31  15  22  1   
 32  16  33  1   
 33  17  23  1   
 34  17  34  1   
 35  17  35  1   
 36  19  23  1   
 37  19  36  1   
 38  19  37  1   
 39  20  24  1   
 40  20  38  1   
 41  20  39  1   
 42  22  24  1   
 43  22  40  1   
 44  22  41  1   
 45  23  42  1   
 46  23  43  1   
 47  24  44  1   
 48  24  45  1   
@<TRIPOS>SUBSTRUCTURE
  1 ****   9 GROUP 4 **** **** 0

# MOE 2024.06 (io_trps.svl 2023.06)
