@<TRIPOS>MOLECULE
NONAME
40 42 1 0 0 
SMALL
USER_CHARGES


@<TRIPOS>ATOM
  1 N       -0.3890    -0.6990     0.3930 N.ar  1 <1>  -0.3100 
  2 N       -1.6860    -0.6350     0.1750 N.ar  1 <1>  -0.3100 
  3 C        0.3730    -1.5070    -0.3490 C.ar  1 <1>   0.4100 
  4 C       -2.2480    -1.3780    -0.7850 C.ar  1 <1>   0.4100 
  5 N        1.7380    -1.5500    -0.0950 N.pl3 1 <1>  -0.8380 
  6 C       -0.1480    -2.2920    -1.3570 C.ar  1 <1>  -0.1500 
  7 N       -3.6290    -1.2970    -0.9840 N.pl3 1 <1>  -0.8380 
  8 C       -1.4990    -2.2240    -1.5830 C.ar  1 <1>  -0.1500 
  9 C        2.4650    -0.3130    -0.4750 C.3   1 <1>   0.2090 
 10 C        2.0970    -2.0210     1.2680 C.3   1 <1>   0.2090 
 11 C       -4.3280    -0.0090    -0.7110 C.3   1 <1>   0.2090 
 12 C       -4.4400    -2.5170    -0.7240 C.3   1 <1>   0.2090 
 13 C        3.9740    -0.5780    -0.4520 C.3   1 <1>  -0.1600 
 14 C        3.5980    -2.3230     1.3260 C.3   1 <1>  -0.1600 
 15 C       -4.9090     0.0120     0.7080 C.3   1 <1>  -0.1600 
 16 C       -4.9880    -2.4980     0.7060 C.3   1 <1>  -0.1600 
 17 C        4.4350    -1.1020     0.9160 C.3   1 <1>  -0.1600 
 18 C       -5.7820    -1.2170     0.9910 C.3   1 <1>  -0.1600 
 19 H        0.5020    -2.9230    -1.9310 H     1 <1>   0.1500 
 20 H       -1.9740    -2.7970    -2.3550 H     1 <1>   0.1500 
 21 H        2.2170     0.4760     0.2160 H     1 <1>   0.0800 
 22 H        2.1620    -0.0070    -1.4620 H     1 <1>   0.0800 
 23 H        1.5350    -2.9100     1.5000 H     1 <1>   0.0800 
 24 H        1.8440    -1.2620     1.9890 H     1 <1>   0.0800 
 25 H       -5.1210     0.1110    -1.4290 H     1 <1>   0.0800 
 26 H       -3.6420     0.8130    -0.8370 H     1 <1>   0.0800 
 27 H       -3.8390    -3.3980    -0.8650 H     1 <1>   0.0800 
 28 H       -5.2540    -2.5500    -1.4280 H     1 <1>   0.0800 
 29 H        4.4980     0.3310    -0.6880 H     1 <1>   0.0800 
 30 H        4.2070    -1.3000    -1.2150 H     1 <1>   0.0800 
 31 H        3.8080    -3.1460     0.6660 H     1 <1>   0.0800 
 32 H        3.8610    -2.6240     2.3240 H     1 <1>   0.0800 
 33 H       -5.4880     0.9080     0.8400 H     1 <1>   0.0800 
 34 H       -4.0950     0.0460     1.4120 H     1 <1>   0.0800 
 35 H       -4.1610    -2.5710     1.3920 H     1 <1>   0.0800 
 36 H       -5.6170    -3.3560     0.8560 H     1 <1>   0.0800 
 37 H        4.3160    -0.3260     1.6520 H     1 <1>   0.0800 
 38 H        5.4770    -1.3690     0.8740 H     1 <1>   0.0800 
 39 H       -6.6570    -1.1880     0.3650 H     1 <1>   0.0800 
 40 H       -6.1020    -1.2070     2.0190 H     1 <1>   0.0800 
@<TRIPOS>BOND
  1   1   2  ar  
  2   1   3  ar  
  3   2   4  ar  
  4   3   5  1   
  5   3   6  ar  
  6   4   7  1   
  7   4   8  ar  
  8   5   9  1   
  9   5  10  1   
 10   6   8  ar  
 11   6  19  1   
 12   7  11  1   
 13   7  12  1   
 14   8  20  1   
 15   9  13  1   
 16   9  21  1   
 17   9  22  1   
 18  10  14  1   
 19  10  23  1   
 20  10  24  1   
 21  11  15  1   
 22  11  25  1   
 23  11  26  1   
 24  12  16  1   
 25  12  27  1   
 26  12  28  1   
 27  13  17  1   
 28  13  29  1   
 29  13  30  1   
 30  14  17  1   
 31  14  31  1   
 32  14  32  1   
 33  15  18  1   
 34  15  33  1   
 35  15  34  1   
 36  16  18  1   
 37  16  35  1   
 38  16  36  1   
 39  17  37  1   
 40  17  38  1   
 41  18  39  1   
 42  18  40  1   
@<TRIPOS>SUBSTRUCTURE
  1 ****   1 GROUP 4 **** **** 0

# MOE 2024.06 (io_trps.svl 2023.06)
