@<TRIPOS>MOLECULE
NONAME
31 31 1 0 0 
SMALL
USER_CHARGES


@<TRIPOS>ATOM
  1 BR       2.4850    -0.7020     3.3900 Br    1 <1>  -0.1110 
  2 C        3.3610    -1.0330     1.7100 C.ar  1 <1>   0.1110 
  3 C        3.2210    -0.1090     0.6920 C.ar  1 <1>  -0.1500 
  4 C        4.1070    -2.1860     1.5630 C.ar  1 <1>  -0.1500 
  5 C        3.8560    -0.3520    -0.5140 C.ar  1 <1>  -0.1500 
  6 C        4.7360    -2.4170     0.3520 C.ar  1 <1>  -0.1500 
  7 C        4.6140    -1.5040    -0.6880 C.ar  1 <1>  -0.1430 
  8 C        5.3280    -1.7630    -2.0140 C.3   1 <1>   0.0450 
  9 C        6.8000    -1.3850    -1.9840 C.2   1 <1>   0.5690 
 10 O        7.5150    -1.7810    -2.8720 O.2   1 <1>  -0.5700 
 11 N        7.2690    -0.6170    -0.9670 N.am  1 <1>  -0.7300 
 12 C        8.6830    -0.2450    -0.7450 C.3   1 <1>   0.1400 
 13 C        9.0800    -0.4840     0.7210 C.3   1 <1>  -0.0800 
 14 C       10.5270    -0.0310     0.9530 C.3   1 <1>  -0.2400 
 15 C        8.9330    -1.9600     1.1260 C.3   1 <1>  -0.2400 
 16 H        2.6310     0.7770     0.8430 H     1 <1>   0.1500 
 17 H        4.1930    -2.8840     2.3770 H     1 <1>   0.1500 
 18 H        3.7560     0.3610    -1.3160 H     1 <1>   0.1500 
 19 H        5.3240    -3.3110     0.2220 H     1 <1>   0.1500 
 20 H        4.8570    -1.2090    -2.8040 H     1 <1>   0.0800 
 21 H        5.2530    -2.8060    -2.2620 H     1 <1>   0.0800 
 22 H        6.6160    -0.3520    -0.2240 H     1 <1>   0.3700 
 23 H        8.8110     0.7940    -0.9940 H     1 <1>   0.0800 
 24 H        9.3170    -0.8250    -1.3960 H     1 <1>   0.0800 
 25 H        8.4410     0.1140     1.3490 H     1 <1>   0.0800 
 26 H       11.2050    -0.6050     0.3470 H     1 <1>   0.0800 
 27 H       10.7980    -0.1600     1.9870 H     1 <1>   0.0800 
 28 H       10.6390     1.0090     0.7040 H     1 <1>   0.0800 
 29 H        9.5320    -2.5860     0.4890 H     1 <1>   0.0800 
 30 H        7.9080    -2.2760     1.0470 H     1 <1>   0.0800 
 31 H        9.2470    -2.1020     2.1450 H     1 <1>   0.0800 
@<TRIPOS>BOND
  1   1   2  1   
  2   2   3  ar  
  3   2   4  ar  
  4   3   5  ar  
  5   3  16  1   
  6   4   6  ar  
  7   4  17  1   
  8   5   7  ar  
  9   5  18  1   
 10   6   7  ar  
 11   6  19  1   
 12   7   8  1   
 13   8   9  1   
 14   8  20  1   
 15   8  21  1   
 16   9  10  2   
 17   9  11  am  
 18  11  12  1   
 19  11  22  1   
 20  12  13  1   
 21  12  23  1   
 22  12  24  1   
 23  13  14  1   
 24  13  15  1   
 25  13  25  1   
 26  14  26  1   
 27  14  27  1   
 28  14  28  1   
 29  15  29  1   
 30  15  30  1   
 31  15  31  1   
@<TRIPOS>SUBSTRUCTURE
  1 ****   7 GROUP 4 **** **** 0

# MOE 2024.06 (io_trps.svl 2023.06)
