@<TRIPOS>MOLECULE
NONAME
33 34 1 0 0 
SMALL
USER_CHARGES


@<TRIPOS>ATOM
  1 BR      -0.1120    -0.0040     0.0910 Br    1 <1>  -0.0580 
  2 C       -2.0020     0.3160     0.2390 C.2   1 <1>   0.1980 
  3 O       -2.8130    -0.6940     0.0590 O.3   1 <1>  -0.2800 
  4 C       -2.6430     1.4680     0.5090 C.2   1 <1>  -0.1500 
  5 C       -4.0560    -0.2310     0.2090 C.2   1 <1>   0.0550 
  6 C       -3.9930     1.1080     0.4900 C.2   1 <1>  -0.1500 
  7 C       -5.2010    -1.1050     0.0710 C.2   1 <1>   0.7150 
  8 O       -5.0940    -2.2920    -0.1770 O.2   1 <1>  -0.5700 
  9 N       -6.4600    -0.6040     0.2140 N.am  1 <1>  -0.7300 
 10 C       -7.7200    -1.3580    -0.0380 C.3   1 <1>   0.2010 
 11 C       -8.9380    -0.4390    -0.2060 C.2   1 <1>   0.5690 
 12 O       -8.7620     0.7540    -0.0740 O.2   1 <1>  -0.5700 
 13 N      -10.1780    -0.9600    -0.4920 N.am  1 <1>  -0.6600 
 14 C      -10.4780    -2.4090    -0.6770 C.3   1 <1>   0.1400 
 15 C      -11.3770    -0.0810    -0.6110 C.3   1 <1>   0.1400 
 16 C      -11.5120    -2.8540     0.3630 C.3   1 <1>  -0.1600 
 17 C      -12.4250    -0.5020     0.4250 C.3   1 <1>  -0.1600 
 18 C      -12.7800    -1.9910     0.3030 C.3   1 <1>  -0.1600 
 19 H       -2.2320     2.4430     0.6980 H     1 <1>   0.1500 
 20 H       -4.8100     1.7850     0.6680 H     1 <1>   0.1500 
 21 H       -6.6160     0.4040     0.3140 H     1 <1>   0.3700 
 22 H       -7.8970    -2.0220     0.7880 H     1 <1>   0.0800 
 23 H       -7.6000    -1.9450    -0.9310 H     1 <1>   0.0800 
 24 H       -9.5930    -3.0120    -0.5820 H     1 <1>   0.0800 
 25 H      -10.8740    -2.5580    -1.6670 H     1 <1>   0.0800 
 26 H      -11.7830    -0.1740    -1.6030 H     1 <1>   0.0800 
 27 H      -11.1130     0.9510    -0.4550 H     1 <1>   0.0800 
 28 H      -11.0730    -2.7860     1.3430 H     1 <1>   0.0800 
 29 H      -11.7700    -3.8840     0.1900 H     1 <1>   0.0800 
 30 H      -13.3120     0.0930     0.2930 H     1 <1>   0.0800 
 31 H      -12.0390    -0.2980     1.4090 H     1 <1>   0.0800 
 32 H      -13.4500    -2.2720     1.0970 H     1 <1>   0.0800 
 33 H      -13.2840    -2.1610    -0.6340 H     1 <1>   0.0800 
@<TRIPOS>BOND
  1   1   2  1   
  2   2   3  1   
  3   2   4  2   
  4   3   5  1   
  5   4   6  1   
  6   4  19  1   
  7   5   6  2   
  8   5   7  1   
  9   6  20  1   
 10   7   8  2   
 11   7   9  am  
 12   9  10  1   
 13   9  21  1   
 14  10  11  1   
 15  10  22  1   
 16  10  23  1   
 17  11  12  2   
 18  11  13  am  
 19  13  14  1   
 20  13  15  1   
 21  14  16  1   
 22  14  24  1   
 23  14  25  1   
 24  15  17  1   
 25  15  26  1   
 26  15  27  1   
 27  16  18  1   
 28  16  28  1   
 29  16  29  1   
 30  17  18  1   
 31  17  30  1   
 32  17  31  1   
 33  18  32  1   
 34  18  33  1   
@<TRIPOS>SUBSTRUCTURE
  1 ****   9 GROUP 4 **** **** 0

# MOE 2024.06 (io_trps.svl 2023.06)
