@<TRIPOS>MOLECULE
NONAME
39 40 1 0 0 
SMALL
USER_CHARGES


@<TRIPOS>ATOM
  1 CL       0.5050    -0.0470    -1.8370 Cl    1 <1>  -0.1770 
  2 C        1.8150    -0.9680    -1.1400 C.ar  1 <1>   0.1770 
  3 C        3.0820    -0.4220    -1.1000 C.ar  1 <1>  -0.1500 
  4 C        1.5550    -2.2290    -0.6400 C.ar  1 <1>  -0.1500 
  5 C        4.1320    -1.1480    -0.5480 C.ar  1 <1>   0.1170 
  6 C        2.5900    -2.9630    -0.0860 C.ar  1 <1>  -0.1500 
  7 N        5.4510    -0.6630    -0.4700 N.am  1 <1>  -0.5470 
  8 C        3.8760    -2.4280    -0.0380 C.ar  1 <1>   0.0830 
  9 C        6.0490     0.5050    -0.8530 C.2   1 <1>   0.5690 
 10 O        4.9380    -3.1040     0.4960 O.3   1 <1>  -0.3630 
 11 O        5.4570     1.4130    -1.3850 O.2   1 <1>  -0.5700 
 12 C        7.5480     0.6480    -0.5850 C.3   1 <1>  -0.0190 
 13 C        4.7920    -4.3980     1.0340 C.3   1 <1>   0.1200 
 14 C        7.8380     1.8180     0.3750 C.3   1 <1>  -0.1600 
 15 C        8.3400     0.8140    -1.8960 C.3   1 <1>  -0.1600 
 16 C        6.1570    -4.8550     1.5380 C.3   1 <1>  -0.2400 
 17 C        9.3420     1.9700     0.6410 C.3   1 <1>  -0.1600 
 18 C        9.8450     0.9650    -1.6300 C.3   1 <1>  -0.1600 
 19 C       10.1230     2.1290    -0.6700 C.3   1 <1>  -0.1600 
 20 H        3.2320     0.5610    -1.5020 H     1 <1>   0.1500 
 21 H        0.5560    -2.6250    -0.6860 H     1 <1>   0.1500 
 22 H        2.3700    -3.9420     0.2970 H     1 <1>   0.1500 
 23 H        6.0680    -1.3480    -0.0300 H     1 <1>   0.3700 
 24 H        7.8900    -0.2540    -0.1100 H     1 <1>   0.0800 
 25 H        4.4350    -5.0540     0.2580 H     1 <1>   0.0800 
 26 H        4.0840    -4.3540     1.8440 H     1 <1>   0.0800 
 27 H        7.3210     1.6600     1.3060 H     1 <1>   0.0800 
 28 H        7.4610     2.7310    -0.0560 H     1 <1>   0.0800 
 29 H        7.9830     1.6870    -2.4170 H     1 <1>   0.0800 
 30 H        8.1700    -0.0370    -2.5320 H     1 <1>   0.0800 
 31 H        6.8620    -4.8830     0.7260 H     1 <1>   0.0800 
 32 H        6.0790    -5.8420     1.9560 H     1 <1>   0.0800 
 33 H        6.5130    -4.1870     2.3020 H     1 <1>   0.0800 
 34 H        9.7030     1.1030     1.1690 H     1 <1>   0.0800 
 35 H        9.5110     2.8300     1.2670 H     1 <1>   0.0800 
 36 H       10.3580     1.1370    -2.5610 H     1 <1>   0.0800 
 37 H       10.2280     0.0530    -1.2060 H     1 <1>   0.0800 
 38 H       11.1770     2.1780    -0.4580 H     1 <1>   0.0800 
 39 H        9.8390     3.0540    -1.1420 H     1 <1>   0.0800 
@<TRIPOS>BOND
  1   1   2  1   
  2   2   3  ar  
  3   2   4  ar  
  4   3   5  ar  
  5   3  20  1   
  6   4   6  ar  
  7   4  21  1   
  8   5   7  1   
  9   5   8  ar  
 10   6   8  ar  
 11   6  22  1   
 12   7   9  am  
 13   7  23  1   
 14   8  10  1   
 15   9  11  2   
 16   9  12  1   
 17  10  13  1   
 18  12  14  1   
 19  12  15  1   
 20  12  24  1   
 21  13  16  1   
 22  13  25  1   
 23  13  26  1   
 24  14  17  1   
 25  14  27  1   
 26  14  28  1   
 27  15  18  1   
 28  15  29  1   
 29  15  30  1   
 30  16  31  1   
 31  16  32  1   
 32  16  33  1   
 33  17  19  1   
 34  17  34  1   
 35  17  35  1   
 36  18  19  1   
 37  18  36  1   
 38  18  37  1   
 39  19  38  1   
 40  19  39  1   
@<TRIPOS>SUBSTRUCTURE
  1 ****   7 GROUP 4 **** **** 0

# MOE 2024.06 (io_trps.svl 2023.06)
