@<TRIPOS>MOLECULE
NONAME
39 40 1 0 0 
SMALL
USER_CHARGES


@<TRIPOS>ATOM
  1 S       -0.6260     0.4460     0.1270 S.3   1 <1>  -0.3320 
  2 C       -0.9100    -1.3230     0.3300 C.ar  1 <1>   0.1020 
  3 C        1.1590     0.6500    -0.3040 C.3   1 <1>  -0.0100 
  4 C        0.1050    -2.2530     0.1900 C.ar  1 <1>  -0.1500 
  5 C       -2.1990    -1.7170     0.6390 C.ar  1 <1>  -0.1500 
  6 C       -0.1660    -3.6070     0.3540 C.ar  1 <1>   0.1000 
  7 C       -2.4760    -3.0630     0.8080 C.ar  1 <1>  -0.1500 
  8 N        0.8220    -4.5950     0.2230 N.pl3 1 <1>  -0.6000 
  9 C       -1.4640    -3.9960     0.6660 C.ar  1 <1>  -0.1500 
 10 C        2.0850    -4.5160    -0.2830 C.2   1 <1>  -0.0500 
 11 C        2.9980    -5.5460    -0.3630 C.2   1 <1>   0.0290 
 12 C        4.2960    -5.2910    -0.9150 C.2   1 <1>   0.4950 
 13 C        2.7000    -6.8770     0.0890 C.2   1 <1>   0.4950 
 14 O        4.6350    -4.2080    -1.3310 O.2   1 <1>  -0.5700 
 15 C        5.3420    -6.3880    -1.0220 C.3   1 <1>  -0.0990 
 16 O        1.6320    -7.2110     0.5530 O.2   1 <1>  -0.5700 
 17 C        3.7330    -7.9890    -0.0060 C.3   1 <1>  -0.0990 
 18 C        5.1790    -7.4780     0.0460 C.3   1 <1>   0.0000 
 19 C        6.1450    -8.6360    -0.2500 C.3   1 <1>  -0.2400 
 20 C        5.5070    -6.9200     1.4440 C.3   1 <1>  -0.2400 
 21 H        1.3410     1.7010    -0.4430 H     1 <1>   0.0800 
 22 H        1.3460     0.1070    -1.2130 H     1 <1>   0.0800 
 23 H        1.7440     0.2660     0.5120 H     1 <1>   0.0800 
 24 H        1.1000    -1.9400    -0.0390 H     1 <1>   0.1500 
 25 H       -2.9730    -0.9780     0.7440 H     1 <1>   0.1500 
 26 H       -3.4750    -3.3810     1.0480 H     1 <1>   0.1500 
 27 H        0.5390    -5.5350     0.5520 H     1 <1>   0.4000 
 28 H       -1.6840    -5.0400     0.7970 H     1 <1>   0.1500 
 29 H        2.3810    -3.5500    -0.6560 H     1 <1>   0.1500 
 30 H        5.2640    -6.8180    -2.0050 H     1 <1>   0.0800 
 31 H        6.3190    -5.9460    -0.9420 H     1 <1>   0.0800 
 32 H        3.5680    -8.6860     0.7970 H     1 <1>   0.0800 
 33 H        3.5600    -8.5160    -0.9270 H     1 <1>   0.0800 
 34 H        7.1650    -8.2940    -0.2290 H     1 <1>   0.0800 
 35 H        5.9530    -9.0600    -1.2210 H     1 <1>   0.0800 
 36 H        6.0370    -9.4160     0.4840 H     1 <1>   0.0800 
 37 H        4.8640    -6.1020     1.7150 H     1 <1>   0.0800 
 38 H        6.5230    -6.5670     1.4790 H     1 <1>   0.0800 
 39 H        5.3980    -7.6880     2.1900 H     1 <1>   0.0800 
@<TRIPOS>BOND
  1   1   2  1   
  2   1   3  1   
  3   2   4  ar  
  4   2   5  ar  
  5   3  21  1   
  6   3  22  1   
  7   3  23  1   
  8   4   6  ar  
  9   4  24  1   
 10   5   7  ar  
 11   5  25  1   
 12   6   8  1   
 13   6   9  ar  
 14   7   9  ar  
 15   7  26  1   
 16   8  10  1   
 17   8  27  1   
 18   9  28  1   
 19  10  11  2   
 20  10  29  1   
 21  11  12  1   
 22  11  13  1   
 23  12  14  2   
 24  12  15  1   
 25  13  16  2   
 26  13  17  1   
 27  15  18  1   
 28  15  30  1   
 29  15  31  1   
 30  17  18  1   
 31  17  32  1   
 32  17  33  1   
 33  18  19  1   
 34  18  20  1   
 35  19  34  1   
 36  19  35  1   
 37  19  36  1   
 38  20  37  1   
 39  20  38  1   
 40  20  39  1   
@<TRIPOS>SUBSTRUCTURE
  1 ****  10 GROUP 4 **** **** 0

# MOE 2024.06 (io_trps.svl 2023.06)
