@<TRIPOS>MOLECULE
NONAME
36 37 1 0 0 
SMALL
USER_CHARGES


@<TRIPOS>ATOM
  1 O        0.3780     0.3560    -0.4410 O.2   1 <1>  -0.5700 
  2 C        0.9290     1.4220    -0.2410 C.2   1 <1>   0.6900 
  3 N        2.2590     1.4770     0.0920 N.am  1 <1>  -0.6600 
  4 N        0.2200     2.5750    -0.3310 N.am  1 <1>  -0.7300 
  5 C        3.0870     2.7060     0.0180 C.3   1 <1>   0.1400 
  6 C        2.9980     0.2540     0.5010 C.3   1 <1>   0.1400 
  7 C       -1.2210     2.6780    -0.6330 C.3   1 <1>   0.1400 
  8 C        4.3920     2.4020    -0.7210 C.3   1 <1>  -0.1600 
  9 C        4.3080     0.1670    -0.2820 C.3   1 <1>  -0.1600 
 10 C       -1.9250     3.3720     0.5330 C.3   1 <1>  -0.1600 
 11 C        5.2570     1.3700     0.1040 C.3   1 <1>   0.5600 
 12 C       -3.4280     3.5130     0.2730 C.3   1 <1>  -0.2400 
 13 O        6.1600     2.4030     0.4140 O.3   1 <1>  -0.5600 
 14 O        5.9910     0.4920     0.9220 O.3   1 <1>  -0.5600 
 15 C        7.4590     1.9840     0.2350 C.3   1 <1>   0.1200 
 16 C        7.3340     0.5490     0.6210 C.3   1 <1>   0.1200 
 17 H        0.6710     3.4210     0.0010 H     1 <1>   0.3700 
 18 H        3.3050     3.0500     1.0160 H     1 <1>   0.0800 
 19 H        2.5640     3.4840    -0.5090 H     1 <1>   0.0800 
 20 H        2.4080    -0.6270     0.3140 H     1 <1>   0.0800 
 21 H        3.2050     0.3010     1.5570 H     1 <1>   0.0800 
 22 H       -1.6400     1.6960    -0.7820 H     1 <1>   0.0800 
 23 H       -1.3520     3.2440    -1.5390 H     1 <1>   0.0800 
 24 H        4.8520     3.3640    -0.8950 H     1 <1>   0.0800 
 25 H        4.1640     2.0830    -1.7220 H     1 <1>   0.0800 
 26 H        4.0800     0.1050    -1.3300 H     1 <1>   0.0800 
 27 H        4.7080    -0.8170    -0.0870 H     1 <1>   0.0800 
 28 H       -1.5000     4.3490     0.6810 H     1 <1>   0.0800 
 29 H       -1.7760     2.7920     1.4280 H     1 <1>   0.0800 
 30 H       -3.6050     4.1010    -0.6110 H     1 <1>   0.0800 
 31 H       -3.9020     3.9980     1.1080 H     1 <1>   0.0800 
 32 H       -3.8780     2.5440     0.1410 H     1 <1>   0.0800 
 33 H        8.1070     2.5390     0.8910 H     1 <1>   0.0800 
 34 H        7.7420     2.1090    -0.7950 H     1 <1>   0.0800 
 35 H        7.5510    -0.1150    -0.1970 H     1 <1>   0.0800 
 36 H        7.9080     0.2980     1.4950 H     1 <1>   0.0800 
@<TRIPOS>BOND
  1   1   2  2   
  2   2   3  am  
  3   2   4  am  
  4   3   5  1   
  5   3   6  1   
  6   4   7  1   
  7   4  17  1   
  8   5   8  1   
  9   5  18  1   
 10   5  19  1   
 11   6   9  1   
 12   6  20  1   
 13   6  21  1   
 14   7  10  1   
 15   7  22  1   
 16   7  23  1   
 17   8  11  1   
 18   8  24  1   
 19   8  25  1   
 20   9  11  1   
 21   9  26  1   
 22   9  27  1   
 23  10  12  1   
 24  10  28  1   
 25  10  29  1   
 26  11  13  1   
 27  11  14  1   
 28  12  30  1   
 29  12  31  1   
 30  12  32  1   
 31  13  15  1   
 32  14  16  1   
 33  15  16  1   
 34  15  33  1   
 35  15  34  1   
 36  16  35  1   
 37  16  36  1   
@<TRIPOS>SUBSTRUCTURE
  1 ****   3 GROUP 4 **** **** 0

# MOE 2024.06 (io_trps.svl 2023.06)
