@<TRIPOS>MOLECULE
NONAME
54 57 1 0 0 
SMALL
USER_CHARGES


@<TRIPOS>ATOM
  1 O       -0.6490     0.8670    -0.0310 O.2   1 <1>  -0.5700 
  2 C       -0.5670     1.6230     0.9180 C.2   1 <1>   0.6900 
  3 N       -1.5970     1.6830     1.8060 N.am  1 <1>  -0.6600 
  4 N        0.4780     2.4540     1.1100 N.am  1 <1>  -0.7300 
  5 C       -2.4760     2.8810     1.7260 C.3   1 <1>   0.1400 
  6 C       -2.3510     0.4240     2.0700 C.3   1 <1>   0.1400 
  7 C        1.7300     2.5450     0.3390 C.3   1 <1>   0.3000 
  8 C       -3.5540     2.6690     0.6420 C.3   1 <1>   0.3430 
  9 C       -3.4280     0.2110     0.9880 C.3   1 <1>   0.3430 
 10 C        2.4920     1.2060     0.3670 C.3   1 <1>  -0.1600 
 11 C        2.6030     3.6270     1.0030 C.3   1 <1>  -0.1600 
 12 C        1.4520     2.9590    -1.1190 C.3   1 <1>  -0.1600 
 13 N       -4.3480     1.4000     0.8550 N.4   1 <1>  -0.9590 
 14 C        3.8230     1.3410    -0.3980 C.3   1 <1>  -0.0800 
 15 C        3.9380     3.7790     0.2480 C.3   1 <1>  -0.0800 
 16 C        2.7800     3.0990    -1.8890 C.3   1 <1>  -0.0800 
 17 C       -5.3190     1.1630    -0.2480 C.3   1 <1>   0.3430 
 18 C        4.6840     2.4310     0.2680 C.3   1 <1>  -0.1600 
 19 C        3.5290     1.7520    -1.8550 C.3   1 <1>  -0.1600 
 20 C        3.6490     4.1760    -1.2120 C.3   1 <1>  -0.1600 
 21 C       -6.4690     2.1700    -0.1770 C.3   1 <1>  -0.1600 
 22 C       -7.5290     1.8630    -1.2410 C.3   1 <1>  -0.2400 
 23 H        0.5440     2.8720     2.0340 H     1 <1>   0.3700 
 24 H       -1.8870     3.7480     1.4750 H     1 <1>   0.0800 
 25 H       -2.9350     3.0590     2.6820 H     1 <1>   0.0800 
 26 H       -2.8010     0.4670     3.0460 H     1 <1>   0.0800 
 27 H       -1.6670    -0.4090     2.0580 H     1 <1>   0.0800 
 28 H       -3.0600     2.6250    -0.3160 H     1 <1>   0.0800 
 29 H       -4.2140     3.5200     0.6340 H     1 <1>   0.0800 
 30 H       -3.9980    -0.6720     1.2260 H     1 <1>   0.0800 
 31 H       -2.9260     0.0360     0.0490 H     1 <1>   0.0800 
 32 H        1.9020     0.4360    -0.0950 H     1 <1>   0.0800 
 33 H        2.6880     0.9160     1.3840 H     1 <1>   0.0800 
 34 H        2.8060     3.3580     2.0250 H     1 <1>   0.0800 
 35 H        2.0850     4.5690     0.9970 H     1 <1>   0.0800 
 36 H        0.8470     2.2160    -1.6060 H     1 <1>   0.0800 
 37 H        0.9220     3.8930    -1.1400 H     1 <1>   0.0800 
 38 H       -4.8740     1.4920     1.7340 H     1 <1>   0.4500 
 39 H        4.3480     0.4010    -0.3840 H     1 <1>   0.0800 
 40 H        4.5420     4.5360     0.7190 H     1 <1>   0.0800 
 41 H        2.5820     3.3790    -2.9100 H     1 <1>   0.0800 
 42 H       -5.7270     0.1690    -0.1620 H     1 <1>   0.0800 
 43 H       -4.8210     1.2380    -1.2020 H     1 <1>   0.0800 
 44 H        4.9060     2.1500     1.2830 H     1 <1>   0.0800 
 45 H        5.6200     2.5250    -0.2550 H     1 <1>   0.0800 
 46 H        2.9340     0.9930    -2.3330 H     1 <1>   0.0800 
 47 H        4.4520     1.8340    -2.4030 H     1 <1>   0.0800 
 48 H        4.5750     4.2870    -1.7490 H     1 <1>   0.0800 
 49 H        3.1410     5.1240    -1.2390 H     1 <1>   0.0800 
 50 H       -6.1070     3.1690    -0.3440 H     1 <1>   0.0800 
 51 H       -6.9350     2.1250     0.7920 H     1 <1>   0.0800 
 52 H       -7.1080     1.9190    -2.2300 H     1 <1>   0.0800 
 53 H       -8.3320     2.5770    -1.1780 H     1 <1>   0.0800 
 54 H       -7.9440     0.8800    -1.0970 H     1 <1>   0.0800 
@<TRIPOS>BOND
  1   1   2  2   
  2   2   3  am  
  3   2   4  am  
  4   3   5  1   
  5   3   6  1   
  6   4   7  1   
  7   4  23  1   
  8   5   8  1   
  9   5  24  1   
 10   5  25  1   
 11   6   9  1   
 12   6  26  1   
 13   6  27  1   
 14   7  10  1   
 15   7  11  1   
 16   7  12  1   
 17   8  13  1   
 18   8  28  1   
 19   8  29  1   
 20   9  13  1   
 21   9  30  1   
 22   9  31  1   
 23  10  14  1   
 24  10  32  1   
 25  10  33  1   
 26  11  15  1   
 27  11  34  1   
 28  11  35  1   
 29  12  16  1   
 30  12  36  1   
 31  12  37  1   
 32  13  17  1   
 33  13  38  1   
 34  14  18  1   
 35  14  19  1   
 36  14  39  1   
 37  15  18  1   
 38  15  20  1   
 39  15  40  1   
 40  16  19  1   
 41  16  20  1   
 42  16  41  1   
 43  17  21  1   
 44  17  42  1   
 45  17  43  1   
 46  18  44  1   
 47  18  45  1   
 48  19  46  1   
 49  19  47  1   
 50  20  48  1   
 51  20  49  1   
 52  21  22  1   
 53  21  50  1   
 54  21  51  1   
 55  22  52  1   
 56  22  53  1   
 57  22  54  1   
@<TRIPOS>SUBSTRUCTURE
  1 ****   2 GROUP 4 **** **** 0

# MOE 2024.06 (io_trps.svl 2023.06)
