@<TRIPOS>MOLECULE
NONAME
52 54 1 0 0 
SMALL
USER_CHARGES


@<TRIPOS>ATOM
  1 N       -0.1660    -7.2790    -0.7580 N.ar  1 <1>  -0.6200 
  2 C       -0.8300    -6.4520     0.0480 C.ar  1 <1>   0.1660 
  3 C       -0.6940    -8.4890    -0.8940 C.ar  1 <1>   0.1600 
  4 C       -1.9890    -6.7940     0.7310 C.ar  1 <1>  -0.1500 
  5 C       -0.2430    -5.0500     0.2080 C.3   1 <1>   0.4870 
  6 C       -1.8440    -8.9200    -0.2570 C.ar  1 <1>  -0.1500 
  7 C       -2.5160    -8.0580     0.5820 C.ar  1 <1>  -0.1500 
  8 N        1.2470    -5.1330     0.0430 N.4   1 <1>  -0.9590 
  9 C        1.8980    -5.6800     1.2640 C.3   1 <1>   0.3430 
 10 C        1.8430    -3.8780    -0.4810 C.3   1 <1>   0.3430 
 11 C        3.3830    -5.9140     0.9860 C.3   1 <1>  -0.1600 
 12 C        3.3300    -4.0990    -0.7660 C.3   1 <1>  -0.1600 
 13 C        4.0500    -4.6310     0.4820 C.3   1 <1>   0.4230 
 14 N        5.5080    -4.8610     0.2480 N.4   1 <1>  -0.9590 
 15 C        6.2750    -3.5910     0.0750 C.3   1 <1>   0.3430 
 16 C        5.8580    -5.8520    -0.8380 C.3   1 <1>   0.3430 
 17 C        7.7660    -3.8490     0.3570 C.3   1 <1>  -0.0800 
 18 C        7.3600    -5.8460    -1.1980 C.3   1 <1>  -0.0800 
 19 C        8.2210    -5.2660    -0.0610 C.3   1 <1>  -0.1600 
 20 C        8.0970    -3.6050     1.8370 C.3   1 <1>  -0.2400 
 21 C        7.6190    -5.1120    -2.5260 C.3   1 <1>  -0.2400 
 22 H       -0.1880    -9.1800    -1.5500 H     1 <1>   0.1500 
 23 H       -2.4890    -6.0900     1.3730 H     1 <1>   0.1500 
 24 H       -0.5040    -4.6370     1.1670 H     1 <1>   0.0800 
 25 H       -0.6620    -4.4260    -0.5640 H     1 <1>   0.0800 
 26 H       -2.2100    -9.9190    -0.4180 H     1 <1>   0.1500 
 27 H       -3.4150    -8.3630     1.0940 H     1 <1>   0.1500 
 28 H        1.3010    -5.8820    -0.6790 H     1 <1>   0.4500 
 29 H        1.4330    -6.6150     1.5380 H     1 <1>   0.0800 
 30 H        1.7800    -4.9900     2.0840 H     1 <1>   0.0800 
 31 H        1.7220    -3.0850     0.2410 H     1 <1>   0.0800 
 32 H        1.3420    -3.5840    -1.3910 H     1 <1>   0.0800 
 33 H        3.4700    -6.7070     0.2650 H     1 <1>   0.0800 
 34 H        3.8510    -6.2340     1.9000 H     1 <1>   0.0800 
 35 H        3.7560    -3.1600    -1.0680 H     1 <1>   0.0800 
 36 H        3.4140    -4.7870    -1.5870 H     1 <1>   0.0800 
 37 H        3.9530    -3.8880     1.2590 H     1 <1>   0.0800 
 38 H        5.9030    -5.2610     1.1100 H     1 <1>   0.4500 
 39 H        5.9140    -2.8290     0.7470 H     1 <1>   0.0800 
 40 H        6.1560    -3.2340    -0.9350 H     1 <1>   0.0800 
 41 H        5.2960    -5.6420    -1.7320 H     1 <1>   0.0800 
 42 H        5.5900    -6.8430    -0.5090 H     1 <1>   0.0800 
 43 H        8.3240    -3.1290    -0.2200 H     1 <1>   0.0800 
 44 H        7.6590    -6.8700    -1.3530 H     1 <1>   0.0800 
 45 H        8.1540    -5.9350     0.7810 H     1 <1>   0.0800 
 46 H        9.2590    -5.2420    -0.3530 H     1 <1>   0.0800 
 47 H        7.5590    -4.2780     2.4810 H     1 <1>   0.0800 
 48 H        7.8560    -2.5940     2.1180 H     1 <1>   0.0800 
 49 H        9.1520    -3.7480     2.0070 H     1 <1>   0.0800 
 50 H        7.3370    -4.0760    -2.4850 H     1 <1>   0.0800 
 51 H        7.0720    -5.5810    -3.3260 H     1 <1>   0.0800 
 52 H        8.6650    -5.1620    -2.7760 H     1 <1>   0.0800 
@<TRIPOS>BOND
  1   1   2  ar  
  2   1   3  ar  
  3   2   4  ar  
  4   2   5  1   
  5   3   6  ar  
  6   3  22  1   
  7   4   7  ar  
  8   4  23  1   
  9   5   8  1   
 10   5  24  1   
 11   5  25  1   
 12   6   7  ar  
 13   6  26  1   
 14   7  27  1   
 15   8   9  1   
 16   8  10  1   
 17   8  28  1   
 18   9  11  1   
 19   9  29  1   
 20   9  30  1   
 21  10  12  1   
 22  10  31  1   
 23  10  32  1   
 24  11  13  1   
 25  11  33  1   
 26  11  34  1   
 27  12  13  1   
 28  12  35  1   
 29  12  36  1   
 30  13  14  1   
 31  13  37  1   
 32  14  15  1   
 33  14  16  1   
 34  14  38  1   
 35  15  17  1   
 36  15  39  1   
 37  15  40  1   
 38  16  18  1   
 39  16  41  1   
 40  16  42  1   
 41  17  19  1   
 42  17  20  1   
 43  17  43  1   
 44  18  19  1   
 45  18  21  1   
 46  18  44  1   
 47  19  45  1   
 48  19  46  1   
 49  20  47  1   
 50  20  48  1   
 51  20  49  1   
 52  21  50  1   
 53  21  51  1   
 54  21  52  1   
@<TRIPOS>SUBSTRUCTURE
  1 ****  11 GROUP 4 **** **** 0

# MOE 2024.06 (io_trps.svl 2023.06)
