@<TRIPOS>MOLECULE
NONAME
31 32 1 0 0 
SMALL
USER_CHARGES


@<TRIPOS>ATOM
  1 S       -0.3800     0.4260     0.0140 S.o2  1 <1>   1.4470 
  2 O       -0.5570    -0.8520     0.6640 O.2   1 <1>  -0.6500 
  3 O       -0.8550     0.6220    -1.3340 O.2   1 <1>  -0.6500 
  4 N       -1.1760     1.5670     0.9520 N.am  1 <1>  -0.9140 
  5 C        1.3570     0.9400     0.1450 C.ar  1 <1>  -0.0090 
  6 C       -2.5350     1.1840     1.3260 C.3   1 <1>   0.1960 
  7 C        2.0100     1.5450    -0.9280 C.ar  1 <1>  -0.1500 
  8 C        2.0660     0.7510     1.3330 C.ar  1 <1>  -0.1500 
  9 C       -3.5040     1.4260     0.1540 C.3   1 <1>   0.2000 
 10 C        3.3290     1.9380    -0.7980 C.ar  1 <1>   0.1900 
 11 C        3.3910     1.1440     1.4660 C.ar  1 <1>  -0.1500 
 12 O       -3.2530     2.6780    -0.4030 O.3   1 <1>  -0.5600 
 13 C       -4.9770     1.4780     0.5350 C.3   1 <1>  -0.1600 
 14 F        3.9200     2.5030    -1.8180 F     1 <1>  -0.1900 
 15 C        4.0150     1.7390     0.3870 C.ar  1 <1>   0.1900 
 16 C       -4.3520     3.0800    -1.1530 C.3   1 <1>   0.1200 
 17 C       -5.5680     2.4120    -0.5110 C.3   1 <1>  -0.1600 
 18 F        5.2640     2.1120     0.5040 F     1 <1>  -0.1900 
 19 H       -1.3430     2.3450     0.3040 H     1 <1>   0.4200 
 20 H       -2.8420     1.8010     2.1520 H     1 <1>   0.0800 
 21 H       -2.5800     0.1590     1.6530 H     1 <1>   0.0800 
 22 H        1.4960     1.7110    -1.8600 H     1 <1>   0.1500 
 23 H        1.5660     0.2870     2.1680 H     1 <1>   0.1500 
 24 H       -3.3530     0.6890    -0.6180 H     1 <1>   0.0800 
 25 H        3.9290     0.9930     2.3860 H     1 <1>   0.1500 
 26 H       -5.0920     1.9050     1.5160 H     1 <1>   0.0800 
 27 H       -5.4260     0.5000     0.5170 H     1 <1>   0.0800 
 28 H       -4.2080     2.7390    -2.1650 H     1 <1>   0.0800 
 29 H       -4.4130     4.1540    -1.1290 H     1 <1>   0.0800 
 30 H       -6.2150     3.1450    -0.0630 H     1 <1>   0.0800 
 31 H       -6.1190     1.8670    -1.2570 H     1 <1>   0.0800 
@<TRIPOS>BOND
  1   1   2  2   
  2   1   3  2   
  3   1   4  am  
  4   1   5  1   
  5   4   6  1   
  6   4  19  1   
  7   5   7  ar  
  8   5   8  ar  
  9   6   9  1   
 10   6  20  1   
 11   6  21  1   
 12   7  10  ar  
 13   7  22  1   
 14   8  11  ar  
 15   8  23  1   
 16   9  12  1   
 17   9  13  1   
 18   9  24  1   
 19  10  14  1   
 20  10  15  ar  
 21  11  15  ar  
 22  11  25  1   
 23  12  16  1   
 24  13  17  1   
 25  13  26  1   
 26  13  27  1   
 27  15  18  1   
 28  16  17  1   
 29  16  28  1   
 30  16  29  1   
 31  17  30  1   
 32  17  31  1   
@<TRIPOS>SUBSTRUCTURE
  1 ****   1 GROUP 4 **** **** 0

# MOE 2024.06 (io_trps.svl 2023.06)
