@<TRIPOS>MOLECULE
NONAME
39 40 1 0 0 
SMALL
USER_CHARGES


@<TRIPOS>ATOM
  1 O       -0.8560    -1.2090     1.7480 O.2   1 <1>  -0.5700 
  2 C        0.2800    -1.4020     1.3630 C.2   1 <1>   0.5440 
  3 N        1.1830    -0.4570     1.7150 N.am  1 <1>  -0.8000 
  4 C        0.6510    -2.5570     0.5620 C.ar  1 <1>   0.0860 
  5 C       -0.2440    -3.1540    -0.3480 C.ar  1 <1>   0.1170 
  6 C        1.9340    -3.1020     0.6810 C.ar  1 <1>  -0.1500 
  7 N       -1.5470    -2.6470    -0.4700 N.am  1 <1>  -0.5470 
  8 C        0.1800    -4.2490    -1.0990 C.ar  1 <1>  -0.1500 
  9 C        2.3370    -4.1850    -0.0740 C.ar  1 <1>  -0.1500 
 10 C       -2.5390    -2.8010    -1.3970 C.2   1 <1>   0.5690 
 11 C        1.4550    -4.7600    -0.9700 C.ar  1 <1>  -0.1500 
 12 O       -2.4270    -3.4560    -2.4030 O.2   1 <1>  -0.5700 
 13 C       -3.8500    -2.0810    -1.1440 C.3   1 <1>  -0.0990 
 14 C       -4.9070    -2.9670    -0.4560 C.3   1 <1>  -0.0800 
 15 C       -6.2490    -2.2180    -0.3810 C.3   1 <1>  -0.1600 
 16 C       -4.4610    -3.4130     0.9510 C.3   1 <1>  -0.1600 
 17 C       -7.3290    -3.0580     0.3140 C.3   1 <1>  -0.1600 
 18 C       -5.5430    -4.2460     1.6500 C.3   1 <1>  -0.1600 
 19 C       -6.8760    -3.4910     1.7130 C.3   1 <1>  -0.1600 
 20 H        0.8650     0.3500     2.2540 H     1 <1>   0.3700 
 21 H        2.1320    -0.4120     1.3440 H     1 <1>   0.3700 
 22 H        2.6280    -2.6760     1.3820 H     1 <1>   0.1500 
 23 H       -1.7940    -2.0200     0.3090 H     1 <1>   0.3700 
 24 H       -0.4920    -4.7180    -1.7930 H     1 <1>   0.1500 
 25 H        3.3300    -4.5860     0.0330 H     1 <1>   0.1500 
 26 H        1.7600    -5.6050    -1.5630 H     1 <1>   0.1500 
 27 H       -4.2280    -1.7580    -2.0970 H     1 <1>   0.0800 
 28 H       -3.6680    -1.2020    -0.5540 H     1 <1>   0.0800 
 29 H       -5.0470    -3.8490    -1.0610 H     1 <1>   0.0800 
 30 H       -6.5830    -1.9710    -1.3740 H     1 <1>   0.0800 
 31 H       -6.1190    -1.2980     0.1630 H     1 <1>   0.0800 
 32 H       -4.2400    -2.5470     1.5520 H     1 <1>   0.0800 
 33 H       -3.5660    -4.0070     0.8850 H     1 <1>   0.0800 
 34 H       -7.5380    -3.9320    -0.2790 H     1 <1>   0.0800 
 35 H       -8.2380    -2.4870     0.3900 H     1 <1>   0.0800 
 36 H       -5.2200    -4.4920     2.6470 H     1 <1>   0.0800 
 37 H       -5.6820    -5.1690     1.1120 H     1 <1>   0.0800 
 38 H       -7.6270    -4.1210     2.1580 H     1 <1>   0.0800 
 39 H       -6.7630    -2.6210     2.3370 H     1 <1>   0.0800 
@<TRIPOS>BOND
  1   1   2  2   
  2   2   3  am  
  3   2   4  1   
  4   3  20  1   
  5   3  21  1   
  6   4   5  ar  
  7   4   6  ar  
  8   5   7  1   
  9   5   8  ar  
 10   6   9  ar  
 11   6  22  1   
 12   7  10  am  
 13   7  23  1   
 14   8  11  ar  
 15   8  24  1   
 16   9  11  ar  
 17   9  25  1   
 18  10  12  2   
 19  10  13  1   
 20  11  26  1   
 21  13  14  1   
 22  13  27  1   
 23  13  28  1   
 24  14  15  1   
 25  14  16  1   
 26  14  29  1   
 27  15  17  1   
 28  15  30  1   
 29  15  31  1   
 30  16  18  1   
 31  16  32  1   
 32  16  33  1   
 33  17  19  1   
 34  17  34  1   
 35  17  35  1   
 36  18  19  1   
 37  18  36  1   
 38  18  37  1   
 39  19  38  1   
 40  19  39  1   
@<TRIPOS>SUBSTRUCTURE
  1 ****   7 GROUP 4 **** **** 0

# MOE 2024.06 (io_trps.svl 2023.06)
