@<TRIPOS>MOLECULE
NONAME
43 45 1 0 0 
SMALL
USER_CHARGES


@<TRIPOS>ATOM
  1 O       -0.2630     0.5230    -0.1760 O.2   1 <1>  -0.5700 
  2 C       -0.1110     1.7300    -0.2280 C.2   1 <1>   0.5440 
  3 N       -1.2250     2.5450    -0.3070 N.am  1 <1>  -0.6600 
  4 C        1.2340     2.2680    -0.2000 C.ar  1 <1>   0.0860 
  5 C       -2.5850     1.9880    -0.5570 C.3   1 <1>   0.1400 
  6 C       -1.2120     3.9980     0.0230 C.3   1 <1>   0.1400 
  7 C        2.1220     1.9370     0.8220 C.ar  1 <1>  -0.1500 
  8 C        1.7000     3.1300    -1.1940 C.ar  1 <1>  -0.1500 
  9 C       -3.4770     2.2300     0.6640 C.3   1 <1>  -0.1600 
 10 C       -2.1000     4.2600     1.2450 C.3   1 <1>  -0.1600 
 11 C        3.4030     2.4530     0.8620 C.ar  1 <1>  -0.1500 
 12 C        2.9810     3.6460    -1.1580 C.ar  1 <1>  -0.1500 
 13 C       -3.5220     3.7170     1.0440 C.3   1 <1>  -0.1600 
 14 C        3.8580     3.3180    -0.1290 C.ar  1 <1>   0.1170 
 15 N        5.1370     3.8830    -0.1330 N.am  1 <1>  -0.5470 
 16 C        6.3060     3.5190     0.4920 C.2   1 <1>   0.7160 
 17 O        6.3790     2.4720     1.1020 O.2   1 <1>  -0.5700 
 18 C        7.4430     4.4030     0.3820 C.2   1 <1>  -0.0860 
 19 C        8.7780     4.1450     0.5050 C.2   1 <1>  -0.0400 
 20 C        7.3900     5.7900     0.1130 C.2   1 <1>  -0.1500 
 21 O        9.4880     5.2320     0.3280 O.3   1 <1>  -0.2800 
 22 C        9.5300     2.8600     0.7930 C.3   1 <1>  -0.0600 
 23 C        8.6640     6.2270     0.0930 C.2   1 <1>  -0.0100 
 24 H       -2.5330     0.9320    -0.7640 H     1 <1>   0.0800 
 25 H       -3.0060     2.4720    -1.4200 H     1 <1>   0.0800 
 26 H       -1.5820     4.5520    -0.8230 H     1 <1>   0.0800 
 27 H       -0.2150     4.3380     0.2380 H     1 <1>   0.0800 
 28 H        1.7910     1.2600     1.5910 H     1 <1>   0.1500 
 29 H        1.0390     3.3870    -2.0030 H     1 <1>   0.1500 
 30 H       -3.0940     1.6530     1.4880 H     1 <1>   0.0800 
 31 H       -4.4710     1.8790     0.4520 H     1 <1>   0.0800 
 32 H       -2.1420     5.3180     1.4350 H     1 <1>   0.0800 
 33 H       -1.6530     3.7900     2.1040 H     1 <1>   0.0800 
 34 H        4.0490     2.1750     1.6750 H     1 <1>   0.1500 
 35 H        3.3040     4.3050    -1.9420 H     1 <1>   0.1500 
 36 H       -4.0920     3.8440     1.9480 H     1 <1>   0.0800 
 37 H       -4.0100     4.2710     0.2600 H     1 <1>   0.0800 
 38 H        5.2610     4.6660    -0.7670 H     1 <1>   0.3700 
 39 H        6.4970     6.3710    -0.0330 H     1 <1>   0.1500 
 40 H        8.8600     2.0250     0.8770 H     1 <1>   0.0800 
 41 H       10.0730     2.9610     1.7150 H     1 <1>   0.0800 
 42 H       10.2270     2.6640    -0.0010 H     1 <1>   0.0800 
 43 H        9.0710     7.2090    -0.0720 H     1 <1>   0.1500 
@<TRIPOS>BOND
  1   1   2  2   
  2   2   3  am  
  3   2   4  1   
  4   3   5  1   
  5   3   6  1   
  6   4   7  ar  
  7   4   8  ar  
  8   5   9  1   
  9   5  24  1   
 10   5  25  1   
 11   6  10  1   
 12   6  26  1   
 13   6  27  1   
 14   7  11  ar  
 15   7  28  1   
 16   8  12  ar  
 17   8  29  1   
 18   9  13  1   
 19   9  30  1   
 20   9  31  1   
 21  10  13  1   
 22  10  32  1   
 23  10  33  1   
 24  11  14  ar  
 25  11  34  1   
 26  12  14  ar  
 27  12  35  1   
 28  13  36  1   
 29  13  37  1   
 30  14  15  1   
 31  15  16  am  
 32  15  38  1   
 33  16  17  2   
 34  16  18  1   
 35  18  19  2   
 36  18  20  1   
 37  19  21  1   
 38  19  22  1   
 39  20  23  2   
 40  20  39  1   
 41  21  23  1   
 42  22  40  1   
 43  22  41  1   
 44  22  42  1   
 45  23  43  1   
@<TRIPOS>SUBSTRUCTURE
  1 ****  14 GROUP 4 **** **** 0

# MOE 2024.06 (io_trps.svl 2023.06)
