@<TRIPOS>MOLECULE
NONAME
43 45 1 0 0 
SMALL
USER_CHARGES


@<TRIPOS>ATOM
  1 O       -0.5820    -0.8600     1.3060 O.3   1 <1>  -0.3630 
  2 C       -1.4960    -1.1190     0.3170 C.ar  1 <1>   0.0820 
  3 C       -0.8220     0.1300     2.2830 C.3   1 <1>   0.0400 
  4 C       -1.1830    -2.0990    -0.6430 C.ar  1 <1>   0.1000 
  5 C       -2.7120    -0.4460     0.2400 C.ar  1 <1>  -0.1500 
  6 N        0.0130    -2.8330    -0.6530 N.pl3 1 <1>  -0.8380 
  7 C       -2.1020    -2.3680    -1.6470 C.ar  1 <1>  -0.1500 
  8 C       -3.6130    -0.7330    -0.7720 C.ar  1 <1>  -0.1500 
  9 C        0.1780    -3.7630     0.5030 C.3   1 <1>   0.2090 
 10 C        1.2340    -2.0200    -0.9330 C.3   1 <1>   0.2090 
 11 C       -3.3070    -1.6950    -1.7160 C.ar  1 <1>  -0.1500 
 12 C        1.4050    -4.6750     0.3050 C.3   1 <1>   0.3430 
 13 C        2.4630    -2.9280    -1.1370 C.3   1 <1>   0.3430 
 14 N        2.6560    -3.8940     0.0040 N.4   1 <1>  -0.9590 
 15 C        3.8690    -4.7420    -0.1760 C.3   1 <1>   0.4860 
 16 C        5.1160    -3.8880     0.0470 C.ar  1 <1>   0.1670 
 17 N        5.0320    -2.9650     1.0020 N.ar  1 <1>  -0.6200 
 18 C        6.2430    -4.0970    -0.7350 C.ar  1 <1>  -0.1500 
 19 C        6.1220    -2.2320     1.1870 C.ar  1 <1>   0.1600 
 20 C        7.3630    -3.3210    -0.5320 C.ar  1 <1>  -0.1500 
 21 C        7.2900    -2.3670     0.4590 C.ar  1 <1>  -0.1500 
 22 H        0.0280     0.1660     2.9410 H     1 <1>   0.0800 
 23 H       -1.7030    -0.1340     2.8410 H     1 <1>   0.0800 
 24 H       -0.9450     1.0810     1.7960 H     1 <1>   0.0800 
 25 H       -2.9870     0.3070     0.9540 H     1 <1>   0.1500 
 26 H       -1.8640    -3.1160    -2.3810 H     1 <1>   0.1500 
 27 H       -4.5510    -0.2080    -0.8240 H     1 <1>   0.1500 
 28 H       -0.7080    -4.3670     0.5970 H     1 <1>   0.0800 
 29 H        0.2910    -3.2010     1.4130 H     1 <1>   0.0800 
 30 H        1.4210    -1.3420    -0.1190 H     1 <1>   0.0800 
 31 H        1.0710    -1.4320    -1.8200 H     1 <1>   0.0800 
 32 H       -4.0060    -1.9200    -2.5030 H     1 <1>   0.1500 
 33 H        1.1920    -5.3440    -0.5120 H     1 <1>   0.0800 
 34 H        1.5470    -5.2670     1.1940 H     1 <1>   0.0800 
 35 H        3.3390    -2.3100    -1.2440 H     1 <1>   0.0800 
 36 H        2.3240    -3.4740    -2.0550 H     1 <1>   0.0800 
 37 H        2.8990    -3.3090     0.8240 H     1 <1>   0.4500 
 38 H        3.8830    -5.1810    -1.1590 H     1 <1>   0.0800 
 39 H        3.8700    -5.5310     0.5570 H     1 <1>   0.0800 
 40 H        6.2600    -4.8570    -1.4970 H     1 <1>   0.1500 
 41 H        6.0850    -1.4820     1.9610 H     1 <1>   0.1500 
 42 H        8.2590    -3.4530    -1.1180 H     1 <1>   0.1500 
 43 H        8.1330    -1.7320     0.6690 H     1 <1>   0.1500 
@<TRIPOS>BOND
  1   1   2  1   
  2   1   3  1   
  3   2   4  ar  
  4   2   5  ar  
  5   3  22  1   
  6   3  23  1   
  7   3  24  1   
  8   4   6  1   
  9   4   7  ar  
 10   5   8  ar  
 11   5  25  1   
 12   6   9  1   
 13   6  10  1   
 14   7  11  ar  
 15   7  26  1   
 16   8  11  ar  
 17   8  27  1   
 18   9  12  1   
 19   9  28  1   
 20   9  29  1   
 21  10  13  1   
 22  10  30  1   
 23  10  31  1   
 24  11  32  1   
 25  12  14  1   
 26  12  33  1   
 27  12  34  1   
 28  13  14  1   
 29  13  35  1   
 30  13  36  1   
 31  14  15  1   
 32  14  37  1   
 33  15  16  1   
 34  15  38  1   
 35  15  39  1   
 36  16  17  ar  
 37  16  18  ar  
 38  17  19  ar  
 39  18  20  ar  
 40  18  40  1   
 41  19  21  ar  
 42  19  41  1   
 43  20  21  ar  
 44  20  42  1   
 45  21  43  1   
@<TRIPOS>SUBSTRUCTURE
  1 ****  10 GROUP 4 **** **** 0

# MOE 2024.06 (io_trps.svl 2023.06)
