@<TRIPOS>MOLECULE
NONAME
54 57 1 0 0 
SMALL
USER_CHARGES


@<TRIPOS>ATOM
  1 O        0.5320     0.1250     0.0130 O.2   1 <1>  -0.5700 
  2 C        1.5710    -0.4010    -0.2670 C.2   1 <1>   0.6590 
  3 O        1.8310    -1.6750    -0.0660 O.3   1 <1>  -0.4300 
  4 C        2.7420     0.3090    -0.8810 C.3   1 <1>  -0.0990 
  5 C        3.1390    -2.0470    -0.4350 C.3   1 <1>   0.2800 
  6 C        3.6130    -0.8730    -1.3180 C.3   1 <1>  -0.0190 
  7 C        3.0640    -3.3770    -1.2080 C.3   1 <1>  -0.1600 
  8 C        3.9410    -2.2310     0.8750 C.3   1 <1>  -0.1600 
  9 C        5.1210    -0.6570    -1.3360 C.2   1 <1>   0.5690 
 10 C        2.5410    -4.5370    -0.3450 C.3   1 <1>  -0.1600 
 11 C        3.4020    -3.3840     1.7370 C.3   1 <1>  -0.1600 
 12 O        5.7530    -1.2660    -2.1600 O.2   1 <1>  -0.5700 
 13 N        5.7030     0.1860    -0.4230 N.am  1 <1>  -0.5470 
 14 C        3.3640    -4.6930     0.9400 C.3   1 <1>  -0.1600 
 15 C        7.0400     0.5660    -0.2660 C.ar  1 <1>   0.1170 
 16 C        7.4780     0.9880     0.9840 C.ar  1 <1>  -0.1500 
 17 C        7.9590     0.5680    -1.3110 C.ar  1 <1>  -0.1500 
 18 C        8.7870     1.3840     1.1840 C.ar  1 <1>  -0.1500 
 19 C        9.2660     0.9660    -1.1090 C.ar  1 <1>  -0.1500 
 20 C        9.7200     1.3750     0.1470 C.ar  1 <1>   0.0860 
 21 C       11.0910     1.7890     0.3730 C.2   1 <1>   0.5440 
 22 O       11.3080     2.7850     1.0390 O.2   1 <1>  -0.5700 
 23 N       12.1660     1.0850    -0.1320 N.am  1 <1>  -0.6600 
 24 C       13.5490     1.6510    -0.1420 C.3   1 <1>   0.1400 
 25 C       12.1260    -0.3710    -0.4660 C.3   1 <1>   0.1400 
 26 C       14.5040     0.7600     0.6670 C.3   1 <1>   0.1200 
 27 C       13.1750    -1.1450     0.3510 C.3   1 <1>   0.1200 
 28 O       14.4420    -0.5650     0.2180 O.3   1 <1>  -0.5600 
 29 H        3.1950     0.9220    -0.1260 H     1 <1>   0.0800 
 30 H        2.4310     0.9130    -1.7130 H     1 <1>   0.0800 
 31 H        3.3320    -1.1020    -2.3320 H     1 <1>   0.0800 
 32 H        4.0490    -3.6270    -1.5620 H     1 <1>   0.0800 
 33 H        2.4310    -3.2640    -2.0710 H     1 <1>   0.0800 
 34 H        3.9300    -1.3220     1.4490 H     1 <1>   0.0800 
 35 H        4.9660    -2.4560     0.6350 H     1 <1>   0.0800 
 36 H        2.5770    -5.4530    -0.9100 H     1 <1>   0.0800 
 37 H        1.5110    -4.3530    -0.0860 H     1 <1>   0.0800 
 38 H        2.4080    -3.1460     2.0780 H     1 <1>   0.0800 
 39 H        4.0250    -3.5100     2.6050 H     1 <1>   0.0800 
 40 H        5.0800     0.5600     0.2880 H     1 <1>   0.3700 
 41 H        4.3680    -4.9890     0.6870 H     1 <1>   0.0800 
 42 H        2.9350    -5.4710     1.5480 H     1 <1>   0.0800 
 43 H        6.7930     1.0070     1.8120 H     1 <1>   0.1500 
 44 H        7.6510     0.2630    -2.2960 H     1 <1>   0.1500 
 45 H        9.1070     1.7120     2.1580 H     1 <1>   0.1500 
 46 H        9.9540     0.9680    -1.9360 H     1 <1>   0.1500 
 47 H       13.5590     2.6460     0.2650 H     1 <1>   0.0800 
 48 H       13.8980     1.7090    -1.1580 H     1 <1>   0.0800 
 49 H       12.3300    -0.5000    -1.5150 H     1 <1>   0.0800 
 50 H       11.1550    -0.7830    -0.2590 H     1 <1>   0.0800 
 51 H       14.2470     0.7860     1.7120 H     1 <1>   0.0800 
 52 H       15.5180     1.1000     0.5510 H     1 <1>   0.0800 
 53 H       13.2420    -2.1610     0.0040 H     1 <1>   0.0800 
 54 H       12.9100    -1.1540     1.3940 H     1 <1>   0.0800 
@<TRIPOS>BOND
  1   1   2  2   
  2   2   3  1   
  3   2   4  1   
  4   3   5  1   
  5   4   6  1   
  6   4  29  1   
  7   4  30  1   
  8   5   6  1   
  9   5   7  1   
 10   5   8  1   
 11   6   9  1   
 12   6  31  1   
 13   7  10  1   
 14   7  32  1   
 15   7  33  1   
 16   8  11  1   
 17   8  34  1   
 18   8  35  1   
 19   9  12  2   
 20   9  13  am  
 21  10  14  1   
 22  10  36  1   
 23  10  37  1   
 24  11  14  1   
 25  11  38  1   
 26  11  39  1   
 27  13  15  1   
 28  13  40  1   
 29  14  41  1   
 30  14  42  1   
 31  15  16  ar  
 32  15  17  ar  
 33  16  18  ar  
 34  16  43  1   
 35  17  19  ar  
 36  17  44  1   
 37  18  20  ar  
 38  18  45  1   
 39  19  20  ar  
 40  19  46  1   
 41  20  21  1   
 42  21  22  2   
 43  21  23  am  
 44  23  24  1   
 45  23  25  1   
 46  24  26  1   
 47  24  47  1   
 48  24  48  1   
 49  25  27  1   
 50  25  49  1   
 51  25  50  1   
 52  26  28  1   
 53  26  51  1   
 54  26  52  1   
 55  27  28  1   
 56  27  53  1   
 57  27  54  1   
@<TRIPOS>SUBSTRUCTURE
  1 ****  15 GROUP 4 **** **** 0

# MOE 2024.06 (io_trps.svl 2023.06)
