@<TRIPOS>MOLECULE
NONAME
56 59 1 0 0 
SMALL
USER_CHARGES


@<TRIPOS>ATOM
  1 S       -1.0050     0.4400    -1.3820 S.o2  1 <1>   1.4470 
  2 O       -1.4460     1.2240    -2.5140 O.2   1 <1>  -0.6500 
  3 O       -0.1900    -0.7270    -1.6510 O.2   1 <1>  -0.6500 
  4 N       -0.0770     1.4470    -0.3850 N.am  1 <1>  -0.8490 
  5 C       -2.4310    -0.0100    -0.3360 C.ar  1 <1>  -0.0090 
  6 C        1.1350     1.9030    -1.0820 C.3   1 <1>   0.1960 
  7 C       -0.8070     2.6540     0.0530 C.3   1 <1>   0.1960 
  8 C       -2.3550    -0.9050     0.7370 C.ar  1 <1>  -0.1440 
  9 C       -3.6600     0.5920    -0.5890 C.ar  1 <1>  -0.1500 
 10 C        2.0640     2.6860    -0.1390 C.3   1 <1>   0.1400 
 11 C        0.0250     3.4390     1.0870 C.3   1 <1>   0.1400 
 12 C       -3.4820    -1.1840     1.4960 C.ar  1 <1>  -0.1500 
 13 C       -1.0500    -1.5940     1.1140 C.3   1 <1>  -0.0960 
 14 C       -4.7840     0.3240     0.1720 C.ar  1 <1>  -0.1440 
 15 N        1.3550     3.8290     0.5220 N.am  1 <1>  -0.6600 
 16 C       -4.6910    -0.5750     1.2160 C.ar  1 <1>  -0.1500 
 17 C       -6.0960     1.0180    -0.1460 C.3   1 <1>  -0.0970 
 18 C        1.8410     5.1130     0.4270 C.2   1 <1>   0.5690 
 19 O        2.8940     5.3230    -0.1370 O.2   1 <1>  -0.5700 
 20 C        1.1660     6.3010     1.1500 C.3   1 <1>  -0.0190 
 21 C       -0.2810     6.8980     0.5160 C.3   1 <1>  -0.1860 
 22 C        2.1940     7.5810     1.2620 C.3   1 <1>  -0.0800 
 23 C       -0.9700     6.0210    -0.5190 C.2   1 <1>   0.9060 
 24 C       -0.0220     8.4450     0.0390 C.3   1 <1>  -0.0800 
 25 C        1.0800     8.0190     0.6710 C.3   1 <1>  -0.1600 
 26 C        2.4400     9.1340     0.8130 C.3   1 <1>  -0.1600 
 27 O       -2.0080     5.4390    -0.1740 O.co2 1 <1>  -0.9000 
 28 O       -0.4840     5.8760    -1.6410 O.co2 1 <1>  -0.9000 
 29 C        1.0100     9.7060     0.1610 C.3   1 <1>  -0.1600 
 30 H        0.8680     2.5340    -1.9170 H     1 <1>   0.0800 
 31 H        1.6730     1.0540    -1.4670 H     1 <1>   0.0800 
 32 H       -1.7420     2.3870     0.5110 H     1 <1>   0.0800 
 33 H       -1.0260     3.2840    -0.7950 H     1 <1>   0.0800 
 34 H       -3.7360     1.2970    -1.4010 H     1 <1>   0.1500 
 35 H        2.9070     3.0390    -0.7060 H     1 <1>   0.0800 
 36 H        2.4340     2.0210     0.6200 H     1 <1>   0.0800 
 37 H        0.1810     2.8150     1.9470 H     1 <1>   0.0800 
 38 H       -0.5290     4.2980     1.4110 H     1 <1>   0.0800 
 39 H       -3.4280    -1.8790     2.3150 H     1 <1>   0.1500 
 40 H       -0.7860    -2.3190     0.3640 H     1 <1>   0.0800 
 41 H       -1.1370    -2.1030     2.0570 H     1 <1>   0.0800 
 42 H       -0.2540    -0.8760     1.1990 H     1 <1>   0.0800 
 43 H       -5.5540    -0.8030     1.8170 H     1 <1>   0.1500 
 44 H       -5.9170     2.0460    -0.4050 H     1 <1>   0.0800 
 45 H       -6.7550     0.9930     0.7030 H     1 <1>   0.0800 
 46 H       -6.5750     0.5290    -0.9750 H     1 <1>   0.0800 
 47 H        0.9630     5.9470     2.1460 H     1 <1>   0.0800 
 48 H       -0.9900     6.9340     1.3300 H     1 <1>   0.0800 
 49 H        2.3300     7.6480     2.3320 H     1 <1>   0.0800 
 50 H       -0.1250     8.3640    -1.0370 H     1 <1>   0.0800 
 51 H        1.5150     7.6840    -0.3740 H     1 <1>   0.0800 
 52 H        0.6500     8.3400     1.7140 H     1 <1>   0.0800 
 53 H        3.2250     9.1760     0.0730 H     1 <1>   0.0800 
 54 H        2.7460     9.7390     1.6510 H     1 <1>   0.0800 
 55 H        0.5870    10.4700     0.7960 H     1 <1>   0.0800 
 56 H        1.1880    10.1470    -0.8070 H     1 <1>   0.0800 
@<TRIPOS>BOND
  1   1   2  2   
  2   1   3  2   
  3   1   4  am  
  4   1   5  1   
  5   4   6  1   
  6   4   7  1   
  7   5   8  ar  
  8   5   9  ar  
  9   6  10  1   
 10   6  30  1   
 11   6  31  1   
 12   7  11  1   
 13   7  32  1   
 14   7  33  1   
 15   8  12  ar  
 16   8  13  1   
 17   9  14  ar  
 18   9  34  1   
 19  10  15  1   
 20  10  35  1   
 21  10  36  1   
 22  11  15  1   
 23  11  37  1   
 24  11  38  1   
 25  12  16  ar  
 26  12  39  1   
 27  13  40  1   
 28  13  41  1   
 29  13  42  1   
 30  14  16  ar  
 31  14  17  1   
 32  15  18  am  
 33  16  43  1   
 34  17  44  1   
 35  17  45  1   
 36  17  46  1   
 37  18  19  2   
 38  18  20  1   
 39  20  21  1   
 40  20  22  1   
 41  20  47  1   
 42  21  23  1   
 43  21  24  1   
 44  21  48  1   
 45  22  25  1   
 46  22  26  1   
 47  22  49  1   
 48  23  27  ar  
 49  23  28  ar  
 50  24  25  1   
 51  24  29  1   
 52  24  50  1   
 53  25  51  1   
 54  25  52  1   
 55  26  29  1   
 56  26  53  1   
 57  26  54  1   
 58  29  55  1   
 59  29  56  1   
@<TRIPOS>SUBSTRUCTURE
  1 ****   7 GROUP 4 **** **** 0

# MOE 2024.06 (io_trps.svl 2023.06)
