@<TRIPOS>MOLECULE
NONAME
49 51 1 0 0 
SMALL
USER_CHARGES


@<TRIPOS>ATOM
  1 O       -0.2560    -0.5080    -0.2970 O.2   1 <1>  -0.5700 
  2 C       -0.2210    -1.7240    -0.2940 C.2   1 <1>   0.5440 
  3 N       -1.3980    -2.4220    -0.4700 N.am  1 <1>  -0.6600 
  4 C        1.0470    -2.3990    -0.0930 C.ar  1 <1>   0.0860 
  5 C       -1.6150    -3.8230     0.0230 C.3   1 <1>   0.1400 
  6 C       -2.6610    -1.7440    -0.9170 C.3   1 <1>   0.1400 
  7 C        1.8970    -2.0320     0.9490 C.ar  1 <1>  -0.1500 
  8 C        1.4680    -3.4330    -0.9320 C.ar  1 <1>  -0.1500 
  9 C       -2.7170    -3.8710     1.0960 C.3   1 <1>   0.2090 
 10 C       -3.7560    -1.8180     0.1610 C.3   1 <1>   0.2090 
 11 C        3.0990    -2.6800     1.1590 C.ar  1 <1>  -0.1500 
 12 C        2.6690    -4.0860    -0.7290 C.ar  1 <1>  -0.1500 
 13 N       -3.9710    -3.2360     0.5900 N.pl3 1 <1>  -0.8380 
 14 C        3.4960    -3.7160     0.3280 C.ar  1 <1>   0.0820 
 15 C       -5.0430    -3.9750     0.1360 C.ar  1 <1>   0.7200 
 16 O        4.6840    -4.3010     0.6090 O.3   1 <1>  -0.3630 
 17 N       -6.1530    -3.3040    -0.1710 N.ar  1 <1>  -0.6200 
 18 N       -4.8770    -5.2940     0.0360 N.ar  1 <1>  -0.6200 
 19 C        5.1980    -5.4040    -0.1070 C.3   1 <1>   0.1200 
 20 C       -7.1680    -4.0170    -0.5940 C.ar  1 <1>   0.1600 
 21 C       -5.9080    -5.9810    -0.3910 C.ar  1 <1>   0.1600 
 22 C        4.5210    -6.6910     0.3760 C.3   1 <1>  -0.1600 
 23 C       -7.0970    -5.3820    -0.7240 C.ar  1 <1>  -0.1500 
 24 C        5.0510    -7.9150    -0.3820 C.3   1 <1>  -0.1600 
 25 C        4.3680    -9.1980     0.1000 C.3   1 <1>  -0.2400 
 26 H       -0.7120    -4.2250     0.4430 H     1 <1>   0.0800 
 27 H       -1.9080    -4.4470    -0.8030 H     1 <1>   0.0800 
 28 H       -3.0200    -2.2280    -1.8070 H     1 <1>   0.0800 
 29 H       -2.4740    -0.7130    -1.1590 H     1 <1>   0.0800 
 30 H        1.6020    -1.2240     1.5970 H     1 <1>   0.1500 
 31 H        0.8370    -3.7190    -1.7550 H     1 <1>   0.1500 
 32 H       -2.3830    -3.3360     1.9680 H     1 <1>   0.0800 
 33 H       -2.8890    -4.8900     1.3950 H     1 <1>   0.0800 
 34 H       -4.6600    -1.3820    -0.2240 H     1 <1>   0.0800 
 35 H       -3.4530    -1.2330     1.0120 H     1 <1>   0.0800 
 36 H        3.7430    -2.3870     1.9690 H     1 <1>   0.1500 
 37 H        2.9470    -4.8760    -1.4010 H     1 <1>   0.1500 
 38 H        6.2540    -5.4480     0.0970 H     1 <1>   0.0800 
 39 H        5.0640    -5.2380    -1.1610 H     1 <1>   0.0800 
 40 H       -8.0780    -3.4990    -0.8430 H     1 <1>   0.1500 
 41 H       -5.8020    -7.0490    -0.4770 H     1 <1>   0.1500 
 42 H        3.4570    -6.6210     0.2320 H     1 <1>   0.0800 
 43 H        4.7150    -6.8110     1.4280 H     1 <1>   0.0800 
 44 H       -7.9360    -5.9550    -1.0710 H     1 <1>   0.1500 
 45 H        6.1140    -8.0020    -0.2310 H     1 <1>   0.0800 
 46 H        4.8720    -7.7940    -1.4370 H     1 <1>   0.0800 
 47 H        4.5540    -9.3520     1.1480 H     1 <1>   0.0800 
 48 H        4.7520   -10.0440    -0.4420 H     1 <1>   0.0800 
 49 H        3.3060    -9.1430    -0.0600 H     1 <1>   0.0800 
@<TRIPOS>BOND
  1   1   2  2   
  2   2   3  am  
  3   2   4  1   
  4   3   5  1   
  5   3   6  1   
  6   4   7  ar  
  7   4   8  ar  
  8   5   9  1   
  9   5  26  1   
 10   5  27  1   
 11   6  10  1   
 12   6  28  1   
 13   6  29  1   
 14   7  11  ar  
 15   7  30  1   
 16   8  12  ar  
 17   8  31  1   
 18   9  13  1   
 19   9  32  1   
 20   9  33  1   
 21  10  13  1   
 22  10  34  1   
 23  10  35  1   
 24  11  14  ar  
 25  11  36  1   
 26  12  14  ar  
 27  12  37  1   
 28  13  15  1   
 29  14  16  1   
 30  15  17  ar  
 31  15  18  ar  
 32  16  19  1   
 33  17  20  ar  
 34  18  21  ar  
 35  19  22  1   
 36  19  38  1   
 37  19  39  1   
 38  20  23  ar  
 39  20  40  1   
 40  21  23  ar  
 41  21  41  1   
 42  22  24  1   
 43  22  42  1   
 44  22  43  1   
 45  23  44  1   
 46  24  25  1   
 47  24  45  1   
 48  24  46  1   
 49  25  47  1   
 50  25  48  1   
 51  25  49  1   
@<TRIPOS>SUBSTRUCTURE
  1 ****   5 GROUP 4 **** **** 0

# MOE 2024.06 (io_trps.svl 2023.06)
