@<TRIPOS>MOLECULE
NONAME
34 35 1 0 0 
SMALL
USER_CHARGES


@<TRIPOS>ATOM
  1 CL      -0.1240     0.0430     0.6340 Cl    1 <1>  -0.1770 
  2 C       -0.2240    -1.6640     0.2770 C.ar  1 <1>   0.1770 
  3 C       -1.3840    -2.2140    -0.2710 C.ar  1 <1>   0.0860 
  4 C        0.8810    -2.4360     0.5830 C.ar  1 <1>  -0.1500 
  5 C       -2.5380    -1.4170    -0.6130 C.2   1 <1>   0.6340 
  6 C       -1.3900    -3.5960    -0.4780 C.ar  1 <1>  -0.1500 
  7 C        0.8510    -3.8010     0.3570 C.ar  1 <1>  -0.1500 
  8 O       -2.4850    -0.3860    -1.2480 O.2   1 <1>  -0.5700 
  9 O       -3.7290    -1.8780    -0.2240 O.3   1 <1>  -0.4300 
 10 C       -0.2900    -4.3790    -0.1720 C.ar  1 <1>  -0.1500 
 11 C       -4.9230    -1.1820    -0.5300 C.3   1 <1>   0.1200 
 12 C       -6.0970    -1.9020     0.1370 C.3   1 <1>   0.1100 
 13 N       -7.3860    -1.2870    -0.2270 N.3   1 <1>  -0.8100 
 14 C       -8.5070    -2.1770     0.1360 C.3   1 <1>   0.1100 
 15 C       -7.5840     0.0300     0.4180 C.3   1 <1>   0.1100 
 16 C       -9.8640    -1.5280    -0.1900 C.3   1 <1>   0.1200 
 17 C       -8.9710     0.6110     0.0870 C.3   1 <1>   0.1200 
 18 O       -9.9790    -0.2890     0.4480 O.3   1 <1>  -0.5600 
 19 H        1.7570    -1.9710     0.9990 H     1 <1>   0.1500 
 20 H       -2.2700    -4.0600    -0.8910 H     1 <1>   0.1500 
 21 H        1.7080    -4.4090     0.5930 H     1 <1>   0.1500 
 22 H       -0.3200    -5.4420    -0.3460 H     1 <1>   0.1500 
 23 H       -5.0440    -1.1740    -1.6000 H     1 <1>   0.0800 
 24 H       -4.8260    -0.1760    -0.1630 H     1 <1>   0.0800 
 25 H       -5.9740    -1.8910     1.2060 H     1 <1>   0.0800 
 26 H       -6.0920    -2.9240    -0.2020 H     1 <1>   0.0800 
 27 H       -8.4740    -2.4050     1.1880 H     1 <1>   0.0800 
 28 H       -8.4220    -3.1000    -0.4120 H     1 <1>   0.0800 
 29 H       -6.8350     0.7210     0.0740 H     1 <1>   0.0800 
 30 H       -7.4920    -0.0630     1.4870 H     1 <1>   0.0800 
 31 H      -10.6690    -2.1510     0.1550 H     1 <1>   0.0800 
 32 H       -9.9660    -1.3810    -1.2510 H     1 <1>   0.0800 
 33 H       -9.0510     0.8150    -0.9660 H     1 <1>   0.0800 
 34 H       -9.1330     1.5230     0.6320 H     1 <1>   0.0800 
@<TRIPOS>BOND
  1   1   2  1   
  2   2   3  ar  
  3   2   4  ar  
  4   3   5  1   
  5   3   6  ar  
  6   4   7  ar  
  7   4  19  1   
  8   5   8  2   
  9   5   9  1   
 10   6  10  ar  
 11   6  20  1   
 12   7  10  ar  
 13   7  21  1   
 14   9  11  1   
 15  10  22  1   
 16  11  12  1   
 17  11  23  1   
 18  11  24  1   
 19  12  13  1   
 20  12  25  1   
 21  12  26  1   
 22  13  14  1   
 23  13  15  1   
 24  14  16  1   
 25  14  27  1   
 26  14  28  1   
 27  15  17  1   
 28  15  29  1   
 29  15  30  1   
 30  16  18  1   
 31  16  31  1   
 32  16  32  1   
 33  17  18  1   
 34  17  33  1   
 35  17  34  1   
@<TRIPOS>SUBSTRUCTURE
  1 ****   9 GROUP 4 **** **** 0

# MOE 2024.06 (io_trps.svl 2023.06)
