@<TRIPOS>MOLECULE
NONAME
45 47 1 0 0 
SMALL
USER_CHARGES


@<TRIPOS>ATOM
  1 S        0.1500    -1.0630     1.4540 S.o2  1 <1>   1.4470 
  2 O        0.9190    -1.5090     2.5940 O.2   1 <1>  -0.6500 
  3 O       -0.8510    -0.0330     1.6280 O.2   1 <1>  -0.6500 
  4 N        1.2580    -0.4840     0.3090 N.am  1 <1>  -0.8490 
  5 C       -0.5870    -2.5010     0.6260 C.ar  1 <1>  -0.0090 
  6 C        0.6040     0.1730    -0.8350 C.3   1 <1>   0.1960 
  7 C        2.2170     0.4510     0.9180 C.3   1 <1>   0.1960 
  8 C       -1.9600    -2.6970     0.6080 C.ar  1 <1>  -0.1500 
  9 C        0.2080    -3.4490    -0.0020 C.ar  1 <1>  -0.1500 
 10 C        1.6460     0.6950    -1.8400 C.3   1 <1>   0.1200 
 11 C        3.2160     0.9840    -0.1260 C.3   1 <1>   0.1200 
 12 C       -2.5620    -3.7890    -0.0180 C.ar  1 <1>   0.0860 
 13 C       -0.3530    -4.5430    -0.6320 C.ar  1 <1>  -0.1500 
 14 O        2.5420     1.5640    -1.2070 O.3   1 <1>  -0.5600 
 15 C       -1.7250    -4.7180    -0.6490 C.ar  1 <1>  -0.1440 
 16 C       -4.0090    -3.9110     0.0070 C.2   1 <1>   0.5440 
 17 C       -2.2980    -5.9390    -1.3610 C.3   1 <1>  -0.0960 
 18 O       -4.5570    -4.9300     0.3780 O.2   1 <1>  -0.5700 
 19 N       -4.7910    -2.8680    -0.3840 N.am  1 <1>  -0.7300 
 20 C       -6.2620    -2.8890    -0.3830 C.3   1 <1>   0.3200 
 21 C       -6.7640    -1.4690    -0.5500 C.2   1 <1>  -0.1400 
 22 S       -6.4220    -0.6610    -2.0740 S.3   1 <1>  -0.0800 
 23 C       -7.4580    -0.6550     0.2680 C.2   1 <1>  -0.1500 
 24 C       -7.2530     0.7900    -1.5420 C.2   1 <1>  -0.1100 
 25 C       -7.7360     0.6310    -0.2970 C.2   1 <1>  -0.1500 
 26 H        0.0040     1.0030    -0.5000 H     1 <1>   0.0800 
 27 H       -0.0440    -0.5280    -1.3350 H     1 <1>   0.0800 
 28 H        2.7660    -0.0490     1.6980 H     1 <1>   0.0800 
 29 H        1.6920     1.2820     1.3620 H     1 <1>   0.0800 
 30 H       -2.5910    -1.9780     1.1050 H     1 <1>   0.1500 
 31 H        1.2790    -3.3280     0.0060 H     1 <1>   0.1500 
 32 H        1.1630     1.2410    -2.6310 H     1 <1>   0.0800 
 33 H        2.2010    -0.1210    -2.2690 H     1 <1>   0.0800 
 34 H        3.8370     0.1860    -0.4940 H     1 <1>   0.0800 
 35 H        3.8450     1.7390     0.3120 H     1 <1>   0.0800 
 36 H        0.2930    -5.2610    -1.1100 H     1 <1>   0.1500 
 37 H       -3.0830    -5.6450    -2.0350 H     1 <1>   0.0800 
 38 H       -2.7070    -6.6240    -0.6380 H     1 <1>   0.0800 
 39 H       -1.5430    -6.4520    -1.9270 H     1 <1>   0.0800 
 40 H       -4.3830    -2.0100    -0.7570 H     1 <1>   0.3700 
 41 H       -6.6150    -3.3020     0.5470 H     1 <1>   0.0800 
 42 H       -6.6150    -3.5050    -1.1920 H     1 <1>   0.0800 
 43 H       -7.7920    -0.9020     1.2610 H     1 <1>   0.1500 
 44 H       -7.2940     1.6180    -2.2280 H     1 <1>   0.1500 
 45 H       -8.2860     1.3710     0.2590 H     1 <1>   0.1500 
@<TRIPOS>BOND
  1   1   2  2   
  2   1   3  2   
  3   1   4  am  
  4   1   5  1   
  5   4   6  1   
  6   4   7  1   
  7   5   8  ar  
  8   5   9  ar  
  9   6  10  1   
 10   6  26  1   
 11   6  27  1   
 12   7  11  1   
 13   7  28  1   
 14   7  29  1   
 15   8  12  ar  
 16   8  30  1   
 17   9  13  ar  
 18   9  31  1   
 19  10  14  1   
 20  10  32  1   
 21  10  33  1   
 22  11  14  1   
 23  11  34  1   
 24  11  35  1   
 25  12  15  ar  
 26  12  16  1   
 27  13  15  ar  
 28  13  36  1   
 29  15  17  1   
 30  16  18  2   
 31  16  19  am  
 32  17  37  1   
 33  17  38  1   
 34  17  39  1   
 35  19  20  1   
 36  19  40  1   
 37  20  21  1   
 38  20  41  1   
 39  20  42  1   
 40  21  22  1   
 41  21  23  2   
 42  22  24  1   
 43  23  25  1   
 44  23  43  1   
 45  24  25  2   
 46  24  44  1   
 47  25  45  1   
@<TRIPOS>SUBSTRUCTURE
  1 ****   8 GROUP 4 **** **** 0

# MOE 2024.06 (io_trps.svl 2023.06)
