@<TRIPOS>MOLECULE
NONAME
43 44 1 0 0 
SMALL
USER_CHARGES


@<TRIPOS>ATOM
  1 S       -0.0950    -0.2370     1.8130 S.2   1 <1>  -0.3800 
  2 C       -0.2360    -1.5020     0.8290 C.2   1 <1>   0.5810 
  3 S       -1.8940    -2.0310     0.4710 S.3   1 <1>  -0.3710 
  4 N        0.7920    -2.1710     0.2650 N.am  1 <1>  -0.6600 
  5 C       -3.0200    -0.8920     1.4310 C.3   1 <1>   0.1310 
  6 C        2.2110    -1.7270     0.4560 C.3   1 <1>   0.1400 
  7 C        0.5930    -3.3850    -0.5920 C.3   1 <1>   0.1400 
  8 C       -4.4840    -1.2300     1.1980 C.2   1 <1>   0.5690 
  9 C        3.0400    -2.0120    -0.8000 C.3   1 <1>  -0.1600 
 10 C        1.8480    -4.2650    -0.6190 C.3   1 <1>  -0.1600 
 11 O       -5.2920    -0.8380     2.0040 O.2   1 <1>  -0.5700 
 12 N       -4.8180    -1.9600     0.0930 N.am  1 <1>  -0.5470 
 13 C        3.0770    -3.5100    -1.1480 C.3   1 <1>  -0.1600 
 14 C       -6.0660    -2.4750    -0.2880 C.ar  1 <1>   0.1170 
 15 C       -7.1320    -1.6390    -0.6360 C.ar  1 <1>  -0.1440 
 16 C       -6.2340    -3.8610    -0.3490 C.ar  1 <1>  -0.1440 
 17 C       -8.3400    -2.1920    -1.0250 C.ar  1 <1>  -0.1500 
 18 C       -7.0080    -0.1200    -0.6090 C.3   1 <1>  -0.0970 
 19 C       -7.4490    -4.3940    -0.7450 C.ar  1 <1>  -0.1500 
 20 C       -5.1010    -4.8100     0.0250 C.3   1 <1>  -0.0970 
 21 C       -8.5010    -3.5630    -1.0800 C.ar  1 <1>  -0.1500 
 22 H       -2.8210     0.1130     1.1080 H     1 <1>   0.0800 
 23 H       -2.7800    -1.0000     2.4720 H     1 <1>   0.0800 
 24 H        2.6330    -2.2510     1.2980 H     1 <1>   0.0800 
 25 H        2.2530    -0.6720     0.6630 H     1 <1>   0.0800 
 26 H        0.3530    -3.0690    -1.5930 H     1 <1>   0.0800 
 27 H       -0.2250    -3.9740    -0.2160 H     1 <1>   0.0800 
 28 H        4.0430    -1.6500    -0.6620 H     1 <1>   0.0800 
 29 H        2.6090    -1.4610    -1.6180 H     1 <1>   0.0800 
 30 H        1.6680    -5.1330    -1.2280 H     1 <1>   0.0800 
 31 H        2.0380    -4.6100     0.3830 H     1 <1>   0.0800 
 32 H       -4.0220    -2.3350    -0.4230 H     1 <1>   0.3700 
 33 H        3.9630    -3.9580    -0.7310 H     1 <1>   0.0800 
 34 H        3.1350    -3.6140    -2.2190 H     1 <1>   0.0800 
 35 H       -9.1680    -1.5570    -1.2870 H     1 <1>   0.1500 
 36 H       -7.0900     0.2310     0.4040 H     1 <1>   0.0800 
 37 H       -7.7840     0.3390    -1.1930 H     1 <1>   0.0800 
 38 H       -6.0600     0.1880    -1.0100 H     1 <1>   0.0800 
 39 H       -7.5890    -5.4590    -0.7920 H     1 <1>   0.1500 
 40 H       -4.2820    -4.6960    -0.6610 H     1 <1>   0.0800 
 41 H       -5.4280    -5.8330    -0.0030 H     1 <1>   0.0800 
 42 H       -4.7570    -4.5940     1.0210 H     1 <1>   0.0800 
 43 H       -9.4440    -3.9830    -1.3840 H     1 <1>   0.1500 
@<TRIPOS>BOND
  1   1   2  2   
  2   2   3  1   
  3   2   4  am  
  4   3   5  1   
  5   4   6  1   
  6   4   7  1   
  7   5   8  1   
  8   5  22  1   
  9   5  23  1   
 10   6   9  1   
 11   6  24  1   
 12   6  25  1   
 13   7  10  1   
 14   7  26  1   
 15   7  27  1   
 16   8  11  2   
 17   8  12  am  
 18   9  13  1   
 19   9  28  1   
 20   9  29  1   
 21  10  13  1   
 22  10  30  1   
 23  10  31  1   
 24  12  14  1   
 25  12  32  1   
 26  13  33  1   
 27  13  34  1   
 28  14  15  ar  
 29  14  16  ar  
 30  15  17  ar  
 31  15  18  1   
 32  16  19  ar  
 33  16  20  1   
 34  17  21  ar  
 35  17  35  1   
 36  18  36  1   
 37  18  37  1   
 38  18  38  1   
 39  19  21  ar  
 40  19  39  1   
 41  20  40  1   
 42  20  41  1   
 43  20  42  1   
 44  21  43  1   
@<TRIPOS>SUBSTRUCTURE
  1 ****   3 GROUP 4 **** **** 0

# MOE 2024.06 (io_trps.svl 2023.06)
