@<TRIPOS>MOLECULE
NONAME
45 45 1 0 0 
SMALL
USER_CHARGES


@<TRIPOS>ATOM
  1 O        0.5140    -0.6740    -0.1720 O.3   1 <1>  -0.5600 
  2 C        0.0890     0.2620    -1.1270 C.3   1 <1>   0.2800 
  3 C       -0.1730    -0.9090     1.0370 C.3   1 <1>   0.2000 
  4 C       -0.6340     1.4720    -0.5170 C.3   1 <1>  -0.2400 
  5 C        1.3720     0.7470    -1.7980 C.3   1 <1>  -0.2400 
  6 C       -0.7710    -0.4500    -2.1740 C.3   1 <1>  -0.2400 
  7 C        0.7350    -1.7510     1.9500 C.3   1 <1>   0.0400 
  8 C       -1.4890    -1.6540     0.7840 C.3   1 <1>  -0.2400 
  9 C        2.0730    -1.1230     2.1640 C.1   1 <1>  -0.2000 
 10 C        3.1500    -0.6270     2.2030 C.1   1 <1>  -0.2000 
 11 C        4.5020    -0.0390     2.0370 C.3   1 <1>   0.5430 
 12 N        5.1120    -0.6840     0.8470 N.4   1 <1>  -0.9590 
 13 C        6.5630    -0.3730     0.7300 C.3   1 <1>   0.3430 
 14 C        4.3530    -0.3660    -0.4030 C.3   1 <1>   0.3430 
 15 C        7.1710    -1.1780    -0.4210 C.3   1 <1>  -0.1600 
 16 C        4.9290    -1.1650    -1.5730 C.3   1 <1>  -0.1600 
 17 C        6.4350    -0.9260    -1.7430 C.3   1 <1>  -0.1600 
 18 H       -0.3550     0.0280     1.5310 H     1 <1>   0.0800 
 19 H       -0.0240     1.9390     0.2340 H     1 <1>   0.0800 
 20 H       -1.5810     1.1930    -0.0950 H     1 <1>   0.0800 
 21 H       -0.8310     2.1990    -1.2840 H     1 <1>   0.0800 
 22 H        1.8990    -0.0840    -2.2300 H     1 <1>   0.0800 
 23 H        1.9970     1.2450    -1.0810 H     1 <1>   0.0800 
 24 H        1.1410     1.4440    -2.5830 H     1 <1>   0.0800 
 25 H       -0.9380     0.1990    -3.0150 H     1 <1>   0.0800 
 26 H       -0.2730    -1.3360    -2.5240 H     1 <1>   0.0800 
 27 H       -1.7320    -0.7170    -1.7840 H     1 <1>   0.0800 
 28 H        0.8680    -2.7260     1.5160 H     1 <1>   0.0800 
 29 H        0.2570    -1.8790     2.9050 H     1 <1>   0.0800 
 30 H       -1.3240    -2.5010     0.1420 H     1 <1>   0.0800 
 31 H       -2.2200    -1.0020     0.3470 H     1 <1>   0.0800 
 32 H       -1.8980    -2.0040     1.7140 H     1 <1>   0.0800 
 33 H        5.0900    -0.2380     2.9180 H     1 <1>   0.0800 
 34 H        4.4280     1.0270     1.8950 H     1 <1>   0.0800 
 35 H        5.0030    -1.6950     0.9950 H     1 <1>   0.4500 
 36 H        7.0720    -0.6200     1.6480 H     1 <1>   0.0800 
 37 H        6.6950     0.6800     0.5380 H     1 <1>   0.0800 
 38 H        4.4240     0.6880    -0.6170 H     1 <1>   0.0800 
 39 H        3.3090    -0.6160    -0.2840 H     1 <1>   0.0800 
 40 H        7.1400    -2.2260    -0.1780 H     1 <1>   0.0800 
 41 H        8.2060    -0.9040    -0.5330 H     1 <1>   0.0800 
 42 H        4.4180    -0.8800    -2.4760 H     1 <1>   0.0800 
 43 H        4.7360    -2.2120    -1.4150 H     1 <1>   0.0800 
 44 H        6.8230    -1.5780    -2.5080 H     1 <1>   0.0800 
 45 H        6.6030     0.0890    -2.0620 H     1 <1>   0.0800 
@<TRIPOS>BOND
  1   1   2  1   
  2   1   3  1   
  3   2   4  1   
  4   2   5  1   
  5   2   6  1   
  6   3   7  1   
  7   3   8  1   
  8   3  18  1   
  9   4  19  1   
 10   4  20  1   
 11   4  21  1   
 12   5  22  1   
 13   5  23  1   
 14   5  24  1   
 15   6  25  1   
 16   6  26  1   
 17   6  27  1   
 18   7   9  1   
 19   7  28  1   
 20   7  29  1   
 21   8  30  1   
 22   8  31  1   
 23   8  32  1   
 24   9  10  3   
 25  10  11  1   
 26  11  12  1   
 27  11  33  1   
 28  11  34  1   
 29  12  13  1   
 30  12  14  1   
 31  12  35  1   
 32  13  15  1   
 33  13  36  1   
 34  13  37  1   
 35  14  16  1   
 36  14  38  1   
 37  14  39  1   
 38  15  17  1   
 39  15  40  1   
 40  15  41  1   
 41  16  17  1   
 42  16  42  1   
 43  16  43  1   
 44  17  44  1   
 45  17  45  1   
@<TRIPOS>SUBSTRUCTURE
  1 ****  14 GROUP 4 **** **** 0

# MOE 2024.06 (io_trps.svl 2023.06)
