@<TRIPOS>MOLECULE
NONAME
30 30 1 0 0 
SMALL
USER_CHARGES


@<TRIPOS>ATOM
  1 S        0.0730    -0.1430     1.1420 S.o2  1 <1>   1.3330 
  2 O       -1.2780     0.3590     1.1930 O.2   1 <1>  -0.6500 
  3 O        0.8670    -0.2600     2.3390 O.2   1 <1>  -0.6500 
  4 N       -0.0040    -1.7080     0.4040 N.am  1 <1>  -0.6930 
  5 C        0.9710     0.7960    -0.0740 C.3   1 <1>  -0.1350 
  6 C        1.1390    -2.4710     0.1650 C.ar  1 <1>   0.1990 
  7 C       -1.3240    -2.0850    -0.2090 C.3   1 <1>   0.2570 
  8 C        1.9360    -2.9000     1.2240 C.ar  1 <1>  -0.1500 
  9 C        1.4980    -2.8230    -1.1400 C.ar  1 <1>  -0.1500 
 10 C       -1.4930    -3.5780    -0.4990 C.2   1 <1>   0.5690 
 11 C        3.0570    -3.6620     0.9630 C.ar  1 <1>   0.1900 
 12 C        2.6250    -3.5880    -1.4000 C.ar  1 <1>  -0.1500 
 13 O       -1.7300    -3.9240    -1.6330 O.2   1 <1>  -0.5700 
 14 N       -1.3600    -4.4750     0.5190 N.am  1 <1>  -0.7300 
 15 F        3.7960    -4.0630     1.9670 F     1 <1>  -0.1900 
 16 C        3.4010    -4.0030    -0.3340 C.ar  1 <1>   0.1900 
 17 C       -1.4680    -5.9490     0.3880 C.3   1 <1>   0.0600 
 18 F        4.4680    -4.7270    -0.5730 F     1 <1>  -0.1900 
 19 H        0.4490     0.7900    -1.0100 H     1 <1>   0.0800 
 20 H        1.9490     0.3780    -0.2170 H     1 <1>   0.0800 
 21 H        1.0780     1.8110     0.2540 H     1 <1>   0.0800 
 22 H       -1.4560    -1.5370    -1.1240 H     1 <1>   0.0800 
 23 H       -2.1200    -1.8050     0.4580 H     1 <1>   0.0800 
 24 H        1.6860    -2.6480     2.2380 H     1 <1>   0.1500 
 25 H        0.8830    -2.5010    -1.9630 H     1 <1>   0.1500 
 26 H        2.8960    -3.8620    -2.4040 H     1 <1>   0.1500 
 27 H       -1.0860    -4.1250     1.4420 H     1 <1>   0.3700 
 28 H       -1.7440    -6.2170    -0.6190 H     1 <1>   0.0800 
 29 H       -2.2190    -6.3210     1.0630 H     1 <1>   0.0800 
 30 H       -0.5220    -6.4060     0.6220 H     1 <1>   0.0800 
@<TRIPOS>BOND
  1   1   2  2   
  2   1   3  2   
  3   1   4  am  
  4   1   5  1   
  5   4   6  1   
  6   4   7  1   
  7   5  19  1   
  8   5  20  1   
  9   5  21  1   
 10   6   8  ar  
 11   6   9  ar  
 12   7  10  1   
 13   7  22  1   
 14   7  23  1   
 15   8  11  ar  
 16   8  24  1   
 17   9  12  ar  
 18   9  25  1   
 19  10  13  2   
 20  10  14  am  
 21  11  15  1   
 22  11  16  ar  
 23  12  16  ar  
 24  12  26  1   
 25  14  17  1   
 26  14  27  1   
 27  16  18  1   
 28  17  28  1   
 29  17  29  1   
 30  17  30  1   
@<TRIPOS>SUBSTRUCTURE
  1 ****   6 GROUP 4 **** **** 0

# MOE 2024.06 (io_trps.svl 2023.06)
