@<TRIPOS>MOLECULE
NONAME
36 38 1 0 0 
SMALL
USER_CHARGES


@<TRIPOS>ATOM
  1 O       -0.0470    -0.7200    -0.9900 O.3   1 <1>  -0.0190 
  2 N       -1.3130    -0.8990    -0.9260 N.2   1 <1>  -0.4100 
  3 C        0.5770    -1.6300    -0.2920 C.2   1 <1>   0.4250 
  4 C       -1.4330    -1.9300    -0.1770 C.2   1 <1>   0.3350 
  5 N       -0.2700    -2.4340     0.2520 N.2   1 <1>  -0.5650 
  6 C        2.0220    -1.6490    -0.2040 C.ar  1 <1>   0.0530 
  7 C       -2.7530    -2.5860     0.2260 C.3   1 <1>   0.1010 
  8 C        2.6830    -2.6240     0.5440 C.ar  1 <1>  -0.1500 
  9 C        2.8140    -0.7030    -0.8580 C.ar  1 <1>  -0.1500 
 10 C       -3.0740    -3.7690    -0.7060 C.3   1 <1>  -0.1600 
 11 C       -3.9290    -1.5880     0.2540 C.3   1 <1>  -0.1600 
 12 C        4.0620    -2.6540     0.6370 C.ar  1 <1>  -0.1500 
 13 C        4.1930    -0.7300    -0.7680 C.ar  1 <1>  -0.1500 
 14 C       -4.3940    -4.4550    -0.3230 C.3   1 <1>  -0.1600 
 15 C       -5.2460    -2.2740     0.6460 C.3   1 <1>  -0.1600 
 16 C        4.8280    -1.7070    -0.0210 C.ar  1 <1>  -0.1430 
 17 C       -5.5530    -3.4510    -0.2890 C.3   1 <1>  -0.1600 
 18 C        6.3420    -1.7380     0.0800 C.3   1 <1>  -0.0970 
 19 H       -2.6250    -2.9700     1.2230 H     1 <1>   0.0800 
 20 H        2.1040    -3.3690     1.0620 H     1 <1>   0.1500 
 21 H        2.3470     0.0680    -1.4460 H     1 <1>   0.1500 
 22 H       -2.2710    -4.4850    -0.6620 H     1 <1>   0.0800 
 23 H       -3.1390    -3.4110    -1.7190 H     1 <1>   0.0800 
 24 H       -4.0420    -1.1420    -0.7190 H     1 <1>   0.0800 
 25 H       -3.7110    -0.8000     0.9530 H     1 <1>   0.0800 
 26 H        4.5380    -3.4200     1.2240 H     1 <1>   0.1500 
 27 H        4.7740     0.0160    -1.2830 H     1 <1>   0.1500 
 28 H       -4.2900    -4.9120     0.6470 H     1 <1>   0.0800 
 29 H       -4.6130    -5.2350    -1.0320 H     1 <1>   0.0800 
 30 H       -6.0500    -1.5600     0.6030 H     1 <1>   0.0800 
 31 H       -5.1760    -2.6320     1.6590 H     1 <1>   0.0800 
 32 H       -6.4500    -3.9470     0.0390 H     1 <1>   0.0800 
 33 H       -5.7290    -3.0780    -1.2840 H     1 <1>   0.0800 
 34 H        6.6900    -2.7470     0.2040 H     1 <1>   0.0800 
 35 H        6.6610    -1.1540     0.9250 H     1 <1>   0.0800 
 36 H        6.7870    -1.3330    -0.8110 H     1 <1>   0.0800 
@<TRIPOS>BOND
  1   1   2  1   
  2   1   3  1   
  3   2   4  2   
  4   3   5  2   
  5   3   6  1   
  6   4   5  1   
  7   4   7  1   
  8   6   8  ar  
  9   6   9  ar  
 10   7  10  1   
 11   7  11  1   
 12   7  19  1   
 13   8  12  ar  
 14   8  20  1   
 15   9  13  ar  
 16   9  21  1   
 17  10  14  1   
 18  10  22  1   
 19  10  23  1   
 20  11  15  1   
 21  11  24  1   
 22  11  25  1   
 23  12  16  ar  
 24  12  26  1   
 25  13  16  ar  
 26  13  27  1   
 27  14  17  1   
 28  14  28  1   
 29  14  29  1   
 30  15  17  1   
 31  15  30  1   
 32  15  31  1   
 33  16  18  1   
 34  17  32  1   
 35  17  33  1   
 36  18  34  1   
 37  18  35  1   
 38  18  36  1   
@<TRIPOS>SUBSTRUCTURE
  1 ****   5 GROUP 4 **** **** 0

# MOE 2024.06 (io_trps.svl 2023.06)
