@<TRIPOS>MOLECULE
NONAME
26 27 1 0 0 
SMALL
USER_CHARGES


@<TRIPOS>ATOM
  1 F        0.0490    -0.4630     0.0500 F     1 <1>  -0.3400 
  2 C       -0.6370    -1.5700    -0.2100 C.3   1 <1>   1.1640 
  3 F       -0.3460    -1.9030    -1.4600 F     1 <1>  -0.3400 
  4 F       -0.1180    -2.5180     0.5590 F     1 <1>  -0.3400 
  5 C       -2.1370    -1.4140     0.0070 C.ar  1 <1>  -0.1440 
  6 C       -2.9580    -2.4980    -0.2510 C.ar  1 <1>   0.1600 
  7 C       -2.7240    -0.2400     0.4540 C.ar  1 <1>  -0.1500 
  8 N       -4.2710    -2.5100    -0.1110 N.ar  1 <1>  -0.6200 
  9 C       -4.0910    -0.2420     0.6060 C.ar  1 <1>  -0.1500 
 10 C       -4.8360    -1.3830     0.3110 C.ar  1 <1>   0.4100 
 11 N       -6.2140    -1.3740     0.4640 N.pl3 1 <1>  -0.8380 
 12 C       -7.0230    -0.2050     0.0470 C.3   1 <1>   0.2090 
 13 C       -7.0090    -2.6200     0.3300 C.3   1 <1>   0.2090 
 14 C       -8.3230    -0.7870    -0.4980 C.3   1 <1>  -0.1600 
 15 C       -8.4480    -2.1480     0.1780 C.3   1 <1>  -0.1600 
 16 H       -2.5140    -3.4180    -0.5960 H     1 <1>   0.1500 
 17 H       -2.1470     0.6420     0.6810 H     1 <1>   0.1500 
 18 H       -4.5980     0.6330     0.9620 H     1 <1>   0.1500 
 19 H       -6.5140     0.3760    -0.7040 H     1 <1>   0.0800 
 20 H       -7.2220     0.4070     0.9100 H     1 <1>   0.0800 
 21 H       -6.8800    -3.2470     1.1950 H     1 <1>   0.0800 
 22 H       -6.7010    -3.1540    -0.5530 H     1 <1>   0.0800 
 23 H       -8.2250    -0.9170    -1.5610 H     1 <1>   0.0800 
 24 H       -9.1640    -0.1480    -0.2960 H     1 <1>   0.0800 
 25 H       -8.8820    -2.0360     1.1560 H     1 <1>   0.0800 
 26 H       -9.0370    -2.8420    -0.3940 H     1 <1>   0.0800 
@<TRIPOS>BOND
  1   1   2  1   
  2   2   3  1   
  3   2   4  1   
  4   2   5  1   
  5   5   6  ar  
  6   5   7  ar  
  7   6   8  ar  
  8   6  16  1   
  9   7   9  ar  
 10   7  17  1   
 11   8  10  ar  
 12   9  10  ar  
 13   9  18  1   
 14  10  11  1   
 15  11  12  1   
 16  11  13  1   
 17  12  14  1   
 18  12  19  1   
 19  12  20  1   
 20  13  15  1   
 21  13  21  1   
 22  13  22  1   
 23  14  15  1   
 24  14  23  1   
 25  14  24  1   
 26  15  25  1   
 27  15  26  1   
@<TRIPOS>SUBSTRUCTURE
  1 ****  10 GROUP 4 **** **** 0

# MOE 2024.06 (io_trps.svl 2023.06)
