@<TRIPOS>MOLECULE
Structure2593
23 24 1 0 0 
SMALL
USER_CHARGES


@<TRIPOS>ATOM
  1 F       -1.4980    -0.9360    -0.3500 F     1 <1>  -0.1900 
  2 C       -0.7830    -2.0280    -0.2550 C.ar  1 <1>   0.1900 
  3 C       -1.3810    -3.2590     0.0550 C.ar  1 <1>   0.0830 
  4 C        0.5770    -1.8980    -0.4590 C.ar  1 <1>  -0.1500 
  5 O       -2.7110    -3.4810     0.2620 O.3   1 <1>  -0.3400 
  6 C       -0.5600    -4.3750     0.1710 C.ar  1 <1>  -0.1500 
  7 C        1.3500    -3.0350    -0.3400 C.ar  1 <1>   0.1900 
  8 C       -3.7090    -2.5870    -0.1950 C.3   1 <1>   0.2580 
  9 C        0.8090    -4.2700    -0.0270 C.ar  1 <1>  -0.1500 
 10 F        2.6390    -2.9420    -0.5270 F     1 <1>  -0.1900 
 11 C       -4.1050    -1.5430     0.8790 C.3   1 <1>   0.4720 
 12 C       -5.1210    -3.1810     0.0150 C.3   1 <1>   0.4720 
 13 N       -5.5490    -1.8740     0.6240 N.4   1 <1>  -0.8440 
 14 H        1.0240    -0.9500    -0.6990 H     1 <1>   0.1500 
 15 H       -0.9910    -5.3310     0.4150 H     1 <1>   0.1500 
 16 H       -3.5220    -2.2200    -1.1890 H     1 <1>   0.0000 
 17 H        1.4520    -5.1290     0.0590 H     1 <1>   0.1500 
 18 H       -3.8820    -0.5250     0.6150 H     1 <1>   0.0000 
 19 H       -3.8160    -1.8270     1.8750 H     1 <1>   0.0000 
 20 H       -5.1470    -3.9700     0.7440 H     1 <1>   0.0000 
 21 H       -5.6560    -3.3860    -0.8950 H     1 <1>   0.0000 
 22 H       -5.9870    -1.2400    -0.0540 H     1 <1>   0.4500 
 23 H       -6.0970    -1.9860     1.4840 H     1 <1>   0.4500 
@<TRIPOS>BOND
  1   1   2  1   
  2   2   3  ar  
  3   2   4  ar  
  4   3   5  1   
  5   3   6  ar  
  6   4   7  ar  
  7   4  14  1   
  8   5   8  1   
  9   6   9  ar  
 10   6  15  1   
 11   7   9  ar  
 12   7  10  1   
 13   8  11  1   
 14   8  12  1   
 15   8  16  1   
 16   9  17  1   
 17  11  13  1   
 18  11  18  1   
 19  11  19  1   
 20  12  13  1   
 21  12  20  1   
 22  12  21  1   
 23  13  22  1   
 24  13  23  1   
@<TRIPOS>SUBSTRUCTURE
  1 ****   3 GROUP 4 **** **** 0

# MOE 2024.06 (io_trps.svl 2023.06)
