@<TRIPOS>MOLECULE
NONAME
38 39 1 0 0 
SMALL
USER_CHARGES


@<TRIPOS>ATOM
  1 S        0.4080     0.1500     0.5420 S.o2  1 <1>   1.3330 
  2 O        1.3250    -0.2300     1.5880 O.2   1 <1>  -0.6500 
  3 O        0.0730     1.5310     0.3020 O.2   1 <1>  -0.6500 
  4 N       -1.0380    -0.6750     0.9590 N.am  1 <1>  -0.7570 
  5 C        0.8880    -0.6620    -0.9890 C.3   1 <1>  -0.0550 
  6 C       -2.3150    -0.5640     0.4340 C.ar  1 <1>   0.1990 
  7 C        2.2080    -0.1490    -1.5930 C.3   1 <1>  -0.2400 
  8 C       -3.3390    -1.3180     0.9950 C.ar  1 <1>  -0.1500 
  9 C       -2.6310     0.2610    -0.6430 C.ar  1 <1>  -0.1500 
 10 C       -4.6280    -1.2520     0.5020 C.ar  1 <1>  -0.1500 
 11 C       -3.9200     0.3230    -1.1360 C.ar  1 <1>  -0.1500 
 12 C       -4.9540    -0.4250    -0.5750 C.ar  1 <1>   0.0860 
 13 C       -6.3020    -0.3480    -1.1000 C.2   1 <1>   0.5440 
 14 O       -6.4780    -0.4240    -2.3020 O.2   1 <1>  -0.5700 
 15 N       -7.3980    -0.1820    -0.2780 N.am  1 <1>  -0.6600 
 16 C       -8.7960    -0.3630    -0.7760 C.3   1 <1>   0.1400 
 17 C       -7.3360     0.4660     1.0670 C.3   1 <1>   0.1400 
 18 C       -9.5930     0.9430    -0.6350 C.3   1 <1>   0.1200 
 19 C       -8.2290     1.7200     1.1060 C.3   1 <1>   0.1200 
 20 O       -9.5280     1.4200     0.6810 O.3   1 <1>  -0.5600 
 21 H       -0.9000    -1.1800     1.8290 H     1 <1>   0.4200 
 22 H        0.1080    -0.5300    -1.7130 H     1 <1>   0.0800 
 23 H        0.9830    -1.7150    -0.8070 H     1 <1>   0.0800 
 24 H        2.1320     0.9020    -1.8110 H     1 <1>   0.0800 
 25 H        2.4320    -0.6780    -2.5020 H     1 <1>   0.0800 
 26 H        3.0160    -0.2980    -0.8970 H     1 <1>   0.0800 
 27 H       -3.1220    -1.9660     1.8250 H     1 <1>   0.1500 
 28 H       -1.8750     0.8680    -1.1030 H     1 <1>   0.1500 
 29 H       -5.4030    -1.8530     0.9460 H     1 <1>   0.1500 
 30 H       -4.1440     0.9610    -1.9740 H     1 <1>   0.1500 
 31 H       -9.2780    -1.1340    -0.2020 H     1 <1>   0.0800 
 32 H       -8.7990    -0.6720    -1.8070 H     1 <1>   0.0800 
 33 H       -6.3280     0.7520     1.3070 H     1 <1>   0.0800 
 34 H       -7.6750    -0.2310     1.8120 H     1 <1>   0.0800 
 35 H      -10.6280     0.7740    -0.8720 H     1 <1>   0.0800 
 36 H       -9.2030     1.6960    -1.2980 H     1 <1>   0.0800 
 37 H       -7.8280     2.4900     0.4700 H     1 <1>   0.0800 
 38 H       -8.2920     2.1000     2.1100 H     1 <1>   0.0800 
@<TRIPOS>BOND
  1   1   2  2   
  2   1   3  2   
  3   1   4  am  
  4   1   5  1   
  5   4   6  1   
  6   4  21  1   
  7   5   7  1   
  8   5  22  1   
  9   5  23  1   
 10   6   8  ar  
 11   6   9  ar  
 12   7  24  1   
 13   7  25  1   
 14   7  26  1   
 15   8  10  ar  
 16   8  27  1   
 17   9  11  ar  
 18   9  28  1   
 19  10  12  ar  
 20  10  29  1   
 21  11  12  ar  
 22  11  30  1   
 23  12  13  1   
 24  13  14  2   
 25  13  15  am  
 26  15  16  1   
 27  15  17  1   
 28  16  18  1   
 29  16  31  1   
 30  16  32  1   
 31  17  19  1   
 32  17  33  1   
 33  17  34  1   
 34  18  20  1   
 35  18  35  1   
 36  18  36  1   
 37  19  20  1   
 38  19  37  1   
 39  19  38  1   
@<TRIPOS>SUBSTRUCTURE
  1 ****  12 GROUP 4 **** **** 0

# MOE 2024.06 (io_trps.svl 2023.06)
