@<TRIPOS>MOLECULE
NONAME
33 33 1 0 0 
SMALL
USER_CHARGES


@<TRIPOS>ATOM
  1 O       -0.1910     0.4850     1.2870 O.2   1 <1>  -0.5700 
  2 C       -0.1930     1.3830     0.4690 C.2   1 <1>   0.6160 
  3 N        0.9820     1.7660    -0.1070 N.am  1 <1>  -0.7300 
  4 C       -1.4110     2.0460     0.1000 C.2   1 <1>  -0.1360 
  5 C        2.3000     1.1830     0.1700 C.3   1 <1>   0.2200 
  6 C       -2.6540     1.7890     0.5740 C.2   1 <1>  -0.1780 
  7 C        3.2040     2.2850     0.7110 C.3   1 <1>  -0.2400 
  8 C        2.8470     0.6050    -1.1300 C.3   1 <1>  -0.2400 
  9 C       -3.9050     2.4210     0.2400 C.ar  1 <1>   0.0280 
 10 C       -5.0820     1.9960     0.8550 C.ar  1 <1>  -0.1500 
 11 C       -4.0090     3.4600    -0.6870 C.ar  1 <1>  -0.1500 
 12 C       -6.3050     2.5720     0.5660 C.ar  1 <1>  -0.1500 
 13 C       -5.2270     4.0410    -0.9820 C.ar  1 <1>  -0.1500 
 14 C       -6.3860     3.6060    -0.3610 C.ar  1 <1>   0.0830 
 15 O       -7.5380     4.2270    -0.7040 O.3   1 <1>  -0.3630 
 16 C       -8.7740     3.8620    -0.1320 C.3   1 <1>   0.0400 
 17 H        0.9830     2.5180    -0.7920 H     1 <1>   0.3700 
 18 H       -1.2660     2.8150    -0.6280 H     1 <1>   0.1500 
 19 H        2.2110     0.3980     0.9040 H     1 <1>   0.0800 
 20 H       -2.7480     1.0040     1.3070 H     1 <1>   0.1500 
 21 H        3.3150     3.0790    -0.0060 H     1 <1>   0.0800 
 22 H        4.1760     1.8830     0.9310 H     1 <1>   0.0800 
 23 H        2.7910     2.6800     1.6220 H     1 <1>   0.0800 
 24 H        2.9520     1.3690    -1.8780 H     1 <1>   0.0800 
 25 H        2.1870    -0.1630    -1.4930 H     1 <1>   0.0800 
 26 H        3.8110     0.1620    -0.9540 H     1 <1>   0.0800 
 27 H       -5.0380     1.1970     1.5740 H     1 <1>   0.1500 
 28 H       -3.1330     3.8240    -1.1890 H     1 <1>   0.1500 
 29 H       -7.1800     2.2070     1.0680 H     1 <1>   0.1500 
 30 H       -5.2920     4.8410    -1.6980 H     1 <1>   0.1500 
 31 H       -9.5370     4.4890    -0.5560 H     1 <1>   0.0800 
 32 H       -8.7250     4.0140     0.9320 H     1 <1>   0.0800 
 33 H       -8.9760     2.8310    -0.3660 H     1 <1>   0.0800 
@<TRIPOS>BOND
  1   1   2  2   
  2   2   3  am  
  3   2   4  1   
  4   3   5  1   
  5   3  17  1   
  6   4   6  2   
  7   4  18  1   
  8   5   7  1   
  9   5   8  1   
 10   5  19  1   
 11   6   9  1   
 12   6  20  1   
 13   7  21  1   
 14   7  22  1   
 15   7  23  1   
 16   8  24  1   
 17   8  25  1   
 18   8  26  1   
 19   9  10  ar  
 20   9  11  ar  
 21  10  12  ar  
 22  10  27  1   
 23  11  13  ar  
 24  11  28  1   
 25  12  14  ar  
 26  12  29  1   
 27  13  14  ar  
 28  13  30  1   
 29  14  15  1   
 30  15  16  1   
 31  16  31  1   
 32  16  32  1   
 33  16  33  1   
@<TRIPOS>SUBSTRUCTURE
  1 ****   6 GROUP 4 **** **** 0

# MOE 2024.06 (io_trps.svl 2023.06)
