@<TRIPOS>MOLECULE
NONAME
43 43 1 0 0 
SMALL
USER_CHARGES


@<TRIPOS>ATOM
  1 S        0.0790    -0.1400     0.1080 S.o2  1 <1>   1.3330 
  2 O        0.1070    -1.3250    -0.7200 O.2   1 <1>  -0.6500 
  3 O       -0.1180    -0.2660     1.5350 O.2   1 <1>  -0.6500 
  4 N        1.5390     0.6870    -0.1250 N.am  1 <1>  -0.8490 
  5 C       -1.1330     0.9970    -0.5750 C.3   1 <1>  -0.0550 
  6 C        1.8390     1.6420     0.9420 C.3   1 <1>   0.1960 
  7 C        2.6570    -0.2410    -0.3580 C.3   1 <1>   0.1960 
  8 C       -2.5800     0.4830    -0.4950 C.3   1 <1>  -0.1600 
  9 C        2.9610     2.5940     0.4990 C.3   1 <1>  -0.1600 
 10 C        4.0320     0.4460    -0.2810 C.3   1 <1>  -0.1600 
 11 C       -3.5640     1.4940    -1.0900 C.3   1 <1>  -0.2400 
 12 C        3.9300     1.9630    -0.5240 C.3   1 <1>  -0.0190 
 13 C        5.2850     2.6670    -0.5400 C.2   1 <1>   0.5690 
 14 O        5.5670     3.3700    -1.4780 O.2   1 <1>  -0.5700 
 15 N        6.1420     2.4900     0.5010 N.am  1 <1>  -0.7300 
 16 C        7.4510     3.1820     0.6450 C.3   1 <1>   0.1400 
 17 C        8.4900     2.5880    -0.3070 C.3   1 <1>   0.1200 
 18 O        9.7410     3.1030     0.0310 O.3   1 <1>  -0.5600 
 19 C       10.7600     2.7090    -0.8290 C.3   1 <1>   0.0400 
 20 H       -0.8870     1.1820    -1.6030 H     1 <1>   0.0800 
 21 H       -1.0690     1.9300    -0.0510 H     1 <1>   0.0800 
 22 H        2.1380     1.1020     1.8260 H     1 <1>   0.0800 
 23 H        0.9630     2.2190     1.1890 H     1 <1>   0.0800 
 24 H        2.5340    -0.6750    -1.3380 H     1 <1>   0.0800 
 25 H        2.6230    -1.0450     0.3600 H     1 <1>   0.0800 
 26 H       -2.8360     0.2950     0.5350 H     1 <1>   0.0800 
 27 H       -2.6560    -0.4500    -1.0300 H     1 <1>   0.0800 
 28 H        3.4940     2.9120     1.3760 H     1 <1>   0.0800 
 29 H        2.5250     3.4740     0.0590 H     1 <1>   0.0800 
 30 H        4.6900     0.0000    -1.0060 H     1 <1>   0.0800 
 31 H        4.4520     0.2600     0.6910 H     1 <1>   0.0800 
 32 H       -3.5210     2.4260    -0.5530 H     1 <1>   0.0800 
 33 H       -4.5680     1.1110    -1.0240 H     1 <1>   0.0800 
 34 H       -3.3380     1.6780    -2.1260 H     1 <1>   0.0800 
 35 H        3.4990     2.0940    -1.5020 H     1 <1>   0.0800 
 36 H        5.8780     1.8780     1.2730 H     1 <1>   0.3700 
 37 H        7.7940     3.0820     1.6590 H     1 <1>   0.0800 
 38 H        7.3260     4.2280     0.4190 H     1 <1>   0.0800 
 39 H        8.2600     2.8630    -1.3220 H     1 <1>   0.0800 
 40 H        8.5260     1.5180    -0.2050 H     1 <1>   0.0800 
 41 H       11.6790     3.1500    -0.4840 H     1 <1>   0.0800 
 42 H       10.5420     3.0600    -1.8230 H     1 <1>   0.0800 
 43 H       10.8440     1.6360    -0.8150 H     1 <1>   0.0800 
@<TRIPOS>BOND
  1   1   2  2   
  2   1   3  2   
  3   1   4  am  
  4   1   5  1   
  5   4   6  1   
  6   4   7  1   
  7   5   8  1   
  8   5  20  1   
  9   5  21  1   
 10   6   9  1   
 11   6  22  1   
 12   6  23  1   
 13   7  10  1   
 14   7  24  1   
 15   7  25  1   
 16   8  11  1   
 17   8  26  1   
 18   8  27  1   
 19   9  12  1   
 20   9  28  1   
 21   9  29  1   
 22  10  12  1   
 23  10  30  1   
 24  10  31  1   
 25  11  32  1   
 26  11  33  1   
 27  11  34  1   
 28  12  13  1   
 29  12  35  1   
 30  13  14  2   
 31  13  15  am  
 32  15  16  1   
 33  15  36  1   
 34  16  17  1   
 35  16  37  1   
 36  16  38  1   
 37  17  18  1   
 38  17  39  1   
 39  17  40  1   
 40  18  19  1   
 41  19  41  1   
 42  19  42  1   
 43  19  43  1   
@<TRIPOS>SUBSTRUCTURE
  1 ****  12 GROUP 4 **** **** 0

# MOE 2024.06 (io_trps.svl 2023.06)
