@<TRIPOS>MOLECULE
NONAME
32 33 1 0 0 
SMALL
USER_CHARGES


@<TRIPOS>ATOM
  1 S       -8.3240     1.2950    -0.5940 S.3   1 <1>  -0.3320 
  2 C      -10.0940     1.4310    -0.2810 C.ar  1 <1>   0.1020 
  3 C       -7.5770     2.9120    -0.1180 C.3   1 <1>   0.0700 
  4 C      -10.6690     2.5850     0.2290 C.ar  1 <1>  -0.1500 
  5 C      -10.8690     0.3250    -0.5730 C.ar  1 <1>  -0.1500 
  6 C       -6.0740     2.8230    -0.3820 C.3   1 <1>  -0.1600 
  7 C      -12.0370     2.6210     0.4440 C.ar  1 <1>  -0.1500 
  8 C      -12.2360     0.3700    -0.3550 C.ar  1 <1>  -0.1500 
  9 C       -5.3730     4.1340    -0.0130 C.3   1 <1>   0.0960 
 10 C      -12.8240     1.5180     0.1530 C.ar  1 <1>  -0.1430 
 11 N       -3.9250     4.0350    -0.2720 N.pl3 1 <1>   0.0480 
 12 C      -14.3230     1.5640     0.3930 C.3   1 <1>  -0.0970 
 13 C       -3.2520     4.4140    -1.3820 C.2   1 <1>   0.0360 
 14 C       -2.9780     3.5480     0.5500 C.2   1 <1>  -0.3020 
 15 N       -1.9770     4.2070    -1.3220 N.2   1 <1>  -0.5650 
 16 C       -1.8010     3.6600    -0.1050 C.2   1 <1>   0.0770 
 17 H       -7.7920     3.0670     0.9250 H     1 <1>   0.0800 
 18 H       -8.0450     3.6690    -0.7220 H     1 <1>   0.0800 
 19 H      -10.0810     3.4490     0.4610 H     1 <1>   0.1500 
 20 H      -10.4070    -0.5620    -0.9670 H     1 <1>   0.1500 
 21 H       -5.9130     2.6090    -1.4250 H     1 <1>   0.0800 
 22 H       -5.6620     2.0180     0.2030 H     1 <1>   0.0800 
 23 H      -12.4880     3.5140     0.8420 H     1 <1>   0.1500 
 24 H      -12.8370    -0.4930    -0.5820 H     1 <1>   0.1500 
 25 H       -5.5180     4.3550     1.0300 H     1 <1>   0.0800 
 26 H       -5.7710     4.9470    -0.5950 H     1 <1>   0.0800 
 27 H      -14.6930     2.5650     0.2660 H     1 <1>   0.0800 
 28 H      -14.5400     1.2370     1.3940 H     1 <1>   0.0800 
 29 H      -14.8350     0.9230    -0.3010 H     1 <1>   0.0800 
 30 H       -3.7500     4.8470    -2.2320 H     1 <1>   0.1500 
 31 H       -3.1820     3.1560     1.5290 H     1 <1>   0.1500 
 32 H       -0.8220     3.3720     0.2410 H     1 <1>   0.1500 
@<TRIPOS>BOND
  1   1   2  1   
  2   1   3  1   
  3   2   4  ar  
  4   2   5  ar  
  5   3   6  1   
  6   3  17  1   
  7   3  18  1   
  8   4   7  ar  
  9   4  19  1   
 10   5   8  ar  
 11   5  20  1   
 12   6   9  1   
 13   6  21  1   
 14   6  22  1   
 15   7  10  ar  
 16   7  23  1   
 17   8  10  ar  
 18   8  24  1   
 19   9  11  1   
 20   9  25  1   
 21   9  26  1   
 22  10  12  1   
 23  11  13  1   
 24  11  14  1   
 25  12  27  1   
 26  12  28  1   
 27  12  29  1   
 28  13  15  2   
 29  13  30  1   
 30  14  16  2   
 31  14  31  1   
 32  15  16  1   
 33  16  32  1   
@<TRIPOS>SUBSTRUCTURE
  1 ****   3 GROUP 4 **** **** 0

# MOE 2024.06 (io_trps.svl 2023.06)
