@<TRIPOS>MOLECULE
NONAME
48 49 1 0 0 
SMALL
USER_CHARGES


@<TRIPOS>ATOM
  1 P       -0.2080    -0.4620     0.2980 P.3   1 <1>   1.2420 
  2 O       -0.7590    -0.9950    -0.9470 O.2   1 <1>  -0.7000 
  3 O        0.3430     1.0440     0.2070 O.3   1 <1>  -0.5510 
  4 O        1.0670    -1.2830     0.8140 O.3   1 <1>  -0.5510 
  5 C       -1.3230    -0.5120     1.6520 C.3   1 <1>  -0.0990 
  6 C       -0.3390     2.0700    -0.4310 C.3   1 <1>   0.1200 
  7 C        2.1840    -1.3720     0.0060 C.3   1 <1>   0.1200 
  8 C       -2.6070     0.1440     1.2500 C.2   1 <1>   0.5690 
  9 C        0.0030     2.0510    -1.9190 C.3   1 <1>  -0.2400 
 10 C        3.2210    -2.2170     0.7380 C.3   1 <1>  -0.2400 
 11 O       -2.9790     1.1050     1.8860 O.2   1 <1>  -0.5700 
 12 N       -3.3150    -0.3390     0.1950 N.am  1 <1>  -0.4300 
 13 N       -4.7180    -0.0090    -0.0950 N.am  1 <1>  -0.4300 
 14 C       -5.7890    -0.7580     0.2860 C.2   1 <1>   0.6900 
 15 O       -5.6320    -1.8940     0.6990 O.2   1 <1>  -0.5700 
 16 N       -7.0360    -0.2060     0.1930 N.am  1 <1>  -0.5470 
 17 C       -8.2710    -0.8380     0.3760 C.ar  1 <1>   0.1170 
 18 C       -8.6950    -1.9330    -0.4340 C.ar  1 <1>   0.0000 
 19 C       -9.1020    -0.3530     1.3580 C.ar  1 <1>  -0.1500 
 20 C       -9.9670    -2.5020    -0.1900 C.ar  1 <1>   0.0000 
 21 C       -7.9270    -2.4830    -1.4870 C.ar  1 <1>  -0.1500 
 22 C      -10.3550    -0.9180     1.5930 C.ar  1 <1>  -0.1500 
 23 C      -10.7750    -1.9730     0.8330 C.ar  1 <1>  -0.1500 
 24 C      -10.4040    -3.5840    -0.9820 C.ar  1 <1>  -0.1500 
 25 C       -8.3760    -3.5310    -2.2430 C.ar  1 <1>  -0.1500 
 26 C       -9.6300    -4.0900    -1.9880 C.ar  1 <1>  -0.1500 
 27 H       -0.9190    -0.0090     2.5090 H     1 <1>   0.0800 
 28 H       -1.5440    -1.5210     1.9360 H     1 <1>   0.0800 
 29 H       -0.0060     2.9960     0.0070 H     1 <1>   0.0800 
 30 H       -1.3970     1.9680    -0.2650 H     1 <1>   0.0800 
 31 H        2.5600    -0.3790    -0.1770 H     1 <1>   0.0800 
 32 H        1.9000    -1.8330    -0.9260 H     1 <1>   0.0800 
 33 H        1.0670     2.1230    -2.0550 H     1 <1>   0.0800 
 34 H       -0.4590     2.8910    -2.4050 H     1 <1>   0.0800 
 35 H       -0.3590     1.1530    -2.3860 H     1 <1>   0.0800 
 36 H        3.4860    -1.7520     1.6700 H     1 <1>   0.0800 
 37 H        4.1060    -2.3070     0.1350 H     1 <1>   0.0800 
 38 H        2.8310    -3.2020     0.9230 H     1 <1>   0.0800 
 39 H       -2.8890    -1.0600    -0.4120 H     1 <1>   0.3700 
 40 H       -4.8830     0.8920    -0.5470 H     1 <1>   0.3700 
 41 H       -7.0470     0.8020     0.3140 H     1 <1>   0.3700 
 42 H       -8.7920     0.4710     1.9740 H     1 <1>   0.1500 
 43 H       -6.9600    -2.0690    -1.6970 H     1 <1>   0.1500 
 44 H      -10.9780    -0.5180     2.3740 H     1 <1>   0.1500 
 45 H      -11.7390    -2.4170     1.0090 H     1 <1>   0.1500 
 46 H      -11.3700    -4.0090    -0.7800 H     1 <1>   0.1500 
 47 H       -7.7720    -3.9360    -3.0360 H     1 <1>   0.1500 
 48 H       -9.9690    -4.9160    -2.5880 H     1 <1>   0.1500 
@<TRIPOS>BOND
  1   1   2  2   
  2   1   3  1   
  3   1   4  1   
  4   1   5  1   
  5   3   6  1   
  6   4   7  1   
  7   5   8  1   
  8   5  27  1   
  9   5  28  1   
 10   6   9  1   
 11   6  29  1   
 12   6  30  1   
 13   7  10  1   
 14   7  31  1   
 15   7  32  1   
 16   8  11  2   
 17   8  12  am  
 18   9  33  1   
 19   9  34  1   
 20   9  35  1   
 21  10  36  1   
 22  10  37  1   
 23  10  38  1   
 24  12  13  1   
 25  12  39  1   
 26  13  14  am  
 27  13  40  1   
 28  14  15  2   
 29  14  16  am  
 30  16  17  1   
 31  16  41  1   
 32  17  18  ar  
 33  17  19  ar  
 34  18  20  ar  
 35  18  21  ar  
 36  19  22  ar  
 37  19  42  1   
 38  20  23  ar  
 39  20  24  ar  
 40  21  25  ar  
 41  21  43  1   
 42  22  23  ar  
 43  22  44  1   
 44  23  45  1   
 45  24  26  ar  
 46  24  46  1   
 47  25  26  ar  
 48  25  47  1   
 49  26  48  1   
@<TRIPOS>SUBSTRUCTURE
  1 ****  13 GROUP 4 **** **** 0

# MOE 2024.06 (io_trps.svl 2023.06)
