@<TRIPOS>MOLECULE
NONAME
40 40 1 0 0 
SMALL
USER_CHARGES


@<TRIPOS>ATOM
  1 O       -8.6610     3.6680    -0.4840 O.2   1 <1>  -0.5700 
  2 C       -9.0870     3.0850     0.4940 C.2   1 <1>   0.6900 
  3 N       -8.2130     2.5070     1.3650 N.am  1 <1>  -0.6600 
  4 N      -10.4090     2.9420     0.7200 N.am  1 <1>  -0.7300 
  5 C       -8.1430     1.0210     1.3620 C.3   1 <1>   0.1400 
  6 C       -6.8820     3.1580     1.5340 C.3   1 <1>   0.1400 
  7 C      -11.4770     3.5260    -0.1170 C.3   1 <1>   0.1400 
  8 C       -7.1710     0.5450     0.2610 C.3   1 <1>   0.3430 
  9 C       -5.9150     2.6820     0.4310 C.3   1 <1>   0.3430 
 10 C      -12.6310     2.5300    -0.2210 C.3   1 <1>  -0.1600 
 11 N       -5.8040     1.1750     0.3850 N.4   1 <1>  -0.9590 
 12 C      -13.7660     3.0870    -1.0890 C.3   1 <1>  -0.1600 
 13 C       -4.9350     0.7160    -0.7490 C.3   1 <1>   0.3430 
 14 C      -14.9210     2.0870    -1.1930 C.3   1 <1>  -0.2400 
 15 C       -3.4620     1.1180    -0.5790 C.3   1 <1>   0.1200 
 16 O       -2.7440     0.5210    -1.5980 O.3   1 <1>  -0.6800 
 17 H      -10.6890     2.6470     1.6540 H     1 <1>   0.3700 
 18 H       -9.1210     0.6100     1.1720 H     1 <1>   0.0800 
 19 H       -7.8190     0.6710     2.3260 H     1 <1>   0.0800 
 20 H       -6.4860     2.9290     2.5070 H     1 <1>   0.0800 
 21 H       -6.9970     4.2270     1.4680 H     1 <1>   0.0800 
 22 H      -11.0930     3.7470    -1.1000 H     1 <1>   0.0800 
 23 H      -11.8170     4.4450     0.3300 H     1 <1>   0.0800 
 24 H       -7.5980     0.8030    -0.6950 H     1 <1>   0.0800 
 25 H       -7.0860    -0.5280     0.3050 H     1 <1>   0.0800 
 26 H       -4.9470     3.1230     0.6000 H     1 <1>   0.0800 
 27 H       -6.2840     3.0480    -0.5150 H     1 <1>   0.0800 
 28 H      -13.0110     2.3190     0.7640 H     1 <1>   0.0800 
 29 H      -12.2690     1.6150    -0.6560 H     1 <1>   0.0800 
 30 H       -5.3920     0.8530     1.2700 H     1 <1>   0.4500 
 31 H      -13.3950     3.3010    -2.0780 H     1 <1>   0.0800 
 32 H      -14.1320     4.0070    -0.6640 H     1 <1>   0.0800 
 33 H       -5.3030     1.1260    -1.6760 H     1 <1>   0.0800 
 34 H       -4.9780    -0.3580    -0.8170 H     1 <1>   0.0800 
 35 H      -14.5840     1.1660    -1.6360 H     1 <1>   0.0800 
 36 H      -15.7050     2.4940    -1.8080 H     1 <1>   0.0800 
 37 H      -15.3270     1.8760    -0.2190 H     1 <1>   0.0800 
 38 H       -3.0670     0.7600     0.3560 H     1 <1>   0.0800 
 39 H       -3.3330     2.1830    -0.6620 H     1 <1>   0.0800 
 40 H       -1.7890     0.7420    -1.5540 H     1 <1>   0.4000 
@<TRIPOS>BOND
  1   1   2  2   
  2   2   3  am  
  3   2   4  am  
  4   3   5  1   
  5   3   6  1   
  6   4   7  1   
  7   4  17  1   
  8   5   8  1   
  9   5  18  1   
 10   5  19  1   
 11   6   9  1   
 12   6  20  1   
 13   6  21  1   
 14   7  10  1   
 15   7  22  1   
 16   7  23  1   
 17   8  11  1   
 18   8  24  1   
 19   8  25  1   
 20   9  11  1   
 21   9  26  1   
 22   9  27  1   
 23  10  12  1   
 24  10  28  1   
 25  10  29  1   
 26  11  13  1   
 27  11  30  1   
 28  12  14  1   
 29  12  31  1   
 30  12  32  1   
 31  13  15  1   
 32  13  33  1   
 33  13  34  1   
 34  14  35  1   
 35  14  36  1   
 36  14  37  1   
 37  15  16  1   
 38  15  38  1   
 39  15  39  1   
 40  16  40  1   
@<TRIPOS>SUBSTRUCTURE
  1 ****   2 GROUP 4 **** **** 0

# MOE 2024.06 (io_trps.svl 2023.06)
