@<TRIPOS>MOLECULE
NONAME
57 60 1 0 0 
SMALL
USER_CHARGES


@<TRIPOS>ATOM
  1 O        0.0500    -1.3650    -0.5330 O.3   1 <1>  -0.3630 
  2 C       -1.1850    -1.8640    -0.7890 C.ar  1 <1>   0.0830 
  3 C        0.2670    -0.7120     0.7040 C.3   1 <1>   0.2640 
  4 C       -1.8900    -2.6910     0.0910 C.ar  1 <1>   0.0820 
  5 C       -1.7590    -1.5160    -1.9990 C.ar  1 <1>  -0.1500 
  6 C        1.3960     0.2960     0.5470 C.ar  1 <1>  -0.1440 
  7 O       -1.3730    -3.1210     1.2650 O.3   1 <1>  -0.3630 
  8 C       -3.1710    -3.1070    -0.2300 C.ar  1 <1>  -0.1500 
  9 C       -3.0350    -1.9460    -2.3230 C.ar  1 <1>  -0.1500 
 10 C        1.2250     1.6110     0.9550 C.ar  1 <1>  -0.1500 
 11 C        2.6120    -0.0900     0.0010 C.ar  1 <1>  -0.1500 
 12 C       -0.3630    -4.1040     1.1700 C.3   1 <1>   0.0400 
 13 C       -3.7540    -2.7330    -1.4330 C.ar  1 <1>  -0.1430 
 14 C        2.2550     2.5260     0.8210 C.ar  1 <1>  -0.1500 
 15 C        3.6430     0.8240    -0.1330 C.ar  1 <1>  -0.1500 
 16 C       -5.1640    -3.1800    -1.7710 C.3   1 <1>   0.4860 
 17 C        3.4650     2.1330     0.2770 C.ar  1 <1>  -0.1500 
 18 N       -6.1210    -2.3900    -0.9530 N.4   1 <1>  -0.9590 
 19 C       -7.5350    -2.8940    -1.0980 C.3   1 <1>   0.3430 
 20 C       -6.0420    -0.9140    -1.2620 C.3   1 <1>   0.3430 
 21 C       -8.5410    -2.0730    -0.2660 C.3   1 <1>   0.2090 
 22 C       -7.0420    -0.0820    -0.4340 C.3   1 <1>   0.2090 
 23 N       -8.4320    -0.6130    -0.5590 N.pl3 1 <1>  -0.8380 
 24 C       -9.3800     0.1570     0.0790 C.ar  1 <1>   0.4100 
 25 N       -9.3210     0.1750     1.4030 N.ar  1 <1>  -0.6200 
 26 C      -10.3220     0.8590    -0.6650 C.ar  1 <1>  -0.1500 
 27 C      -10.2360     0.9200     2.0040 C.ar  1 <1>   0.1600 
 28 C      -11.2660     1.6280    -0.0270 C.ar  1 <1>  -0.1500 
 29 C      -11.2120     1.6520     1.3520 C.ar  1 <1>  -0.1500 
 30 H        0.5320    -1.4490     1.4390 H     1 <1>   0.0800 
 31 H       -0.6440    -0.2210     0.9970 H     1 <1>   0.0800 
 32 H       -1.1980    -0.9010    -2.6820 H     1 <1>   0.1500 
 33 H       -3.6890    -3.7320     0.4760 H     1 <1>   0.1500 
 34 H       -3.4500    -1.6570    -3.2740 H     1 <1>   0.1500 
 35 H        0.2900     1.9310     1.3800 H     1 <1>   0.1500 
 36 H        2.7560    -1.1060    -0.3240 H     1 <1>   0.1500 
 37 H       -0.0330    -4.3470     2.1640 H     1 <1>   0.0800 
 38 H        0.4590    -3.7180     0.5930 H     1 <1>   0.0800 
 39 H       -0.7720    -4.9780     0.6940 H     1 <1>   0.0800 
 40 H        2.1140     3.5440     1.1390 H     1 <1>   0.1500 
 41 H        4.5810     0.5150    -0.5590 H     1 <1>   0.1500 
 42 H       -5.2650    -4.2310    -1.5510 H     1 <1>   0.0800 
 43 H       -5.3560    -3.0300    -2.8210 H     1 <1>   0.0800 
 44 H        4.2650     2.8440     0.1720 H     1 <1>   0.1500 
 45 H       -5.8420    -2.4950     0.0310 H     1 <1>   0.4500 
 46 H       -7.5920    -3.9250    -0.7930 H     1 <1>   0.0800 
 47 H       -7.8340    -2.8360    -2.1310 H     1 <1>   0.0800 
 48 H       -6.2560    -0.7510    -2.3050 H     1 <1>   0.0800 
 49 H       -5.0460    -0.5500    -1.0690 H     1 <1>   0.0800 
 50 H       -8.3700    -2.2450     0.7840 H     1 <1>   0.0800 
 51 H       -9.5420    -2.4020    -0.4900 H     1 <1>   0.0800 
 52 H       -7.0240     0.9400    -0.7750 H     1 <1>   0.0800 
 53 H       -6.7460    -0.0850     0.6010 H     1 <1>   0.0800 
 54 H      -10.2980     0.7890    -1.7360 H     1 <1>   0.1500 
 55 H      -10.2080     0.9490     3.0810 H     1 <1>   0.1500 
 56 H      -12.0090     2.1840    -0.5720 H     1 <1>   0.1500 
 57 H      -11.9200     2.2340     1.9150 H     1 <1>   0.1500 
@<TRIPOS>BOND
  1   1   2  1   
  2   1   3  1   
  3   2   4  ar  
  4   2   5  ar  
  5   3   6  1   
  6   3  30  1   
  7   3  31  1   
  8   4   7  1   
  9   4   8  ar  
 10   5   9  ar  
 11   5  32  1   
 12   6  10  ar  
 13   6  11  ar  
 14   7  12  1   
 15   8  13  ar  
 16   8  33  1   
 17   9  13  ar  
 18   9  34  1   
 19  10  14  ar  
 20  10  35  1   
 21  11  15  ar  
 22  11  36  1   
 23  12  37  1   
 24  12  38  1   
 25  12  39  1   
 26  13  16  1   
 27  14  17  ar  
 28  14  40  1   
 29  15  17  ar  
 30  15  41  1   
 31  16  18  1   
 32  16  42  1   
 33  16  43  1   
 34  17  44  1   
 35  18  19  1   
 36  18  20  1   
 37  18  45  1   
 38  19  21  1   
 39  19  46  1   
 40  19  47  1   
 41  20  22  1   
 42  20  48  1   
 43  20  49  1   
 44  21  23  1   
 45  21  50  1   
 46  21  51  1   
 47  22  23  1   
 48  22  52  1   
 49  22  53  1   
 50  23  24  1   
 51  24  25  ar  
 52  24  26  ar  
 53  25  27  ar  
 54  26  28  ar  
 55  26  54  1   
 56  27  29  ar  
 57  27  55  1   
 58  28  29  ar  
 59  28  56  1   
 60  29  57  1   
@<TRIPOS>SUBSTRUCTURE
  1 ****  13 GROUP 4 **** **** 0

# MOE 2024.06 (io_trps.svl 2023.06)
