@<TRIPOS>MOLECULE
NONAME
39 40 1 0 0 
SMALL
USER_CHARGES


@<TRIPOS>ATOM
  1 S       -0.1490    -0.0070    -0.1880 S.o2  1 <1>   1.4470 
  2 O       -0.4890    -0.8690    -1.3000 O.2   1 <1>  -0.6500 
  3 O        0.1330    -0.6180     1.0950 O.2   1 <1>  -0.6500 
  4 N       -1.4250     1.0990     0.0350 N.am  1 <1>  -0.8490 
  5 C        1.2570     1.0200    -0.7130 C.ar  1 <1>  -0.0090 
  6 C       -1.4600     1.7210     1.3760 C.3   1 <1>   0.2760 
  7 C       -2.7070     0.4450    -0.2840 C.3   1 <1>   0.1960 
  8 C        2.5400     0.7820    -0.2330 C.ar  1 <1>  -0.1500 
  9 C        1.0870     2.0580    -1.6190 C.ar  1 <1>  -0.1500 
 10 C       -2.6270     2.7210     1.4780 C.3   1 <1>  -0.1600 
 11 C       -0.1710     2.4940     1.6870 C.3   1 <1>  -0.2400 
 12 C       -3.8770     1.4270    -0.2310 C.3   1 <1>  -0.1600 
 13 C        3.6340     1.5500    -0.6150 C.ar  1 <1>  -0.0090 
 14 C        2.1560     2.8360    -2.0210 C.ar  1 <1>  -0.1500 
 15 C       -3.9750     2.0840     1.1430 C.3   1 <1>  -0.1600 
 16 S        5.2810     1.2340     0.0710 S.o2  1 <1>   1.2040 
 17 C        3.4180     2.5820    -1.5180 C.ar  1 <1>  -0.1500 
 18 O        6.2780     1.8970    -0.7390 O.2   1 <1>  -0.6500 
 19 O        5.4120    -0.1720     0.3770 O.2   1 <1>  -0.6500 
 20 C        5.2050     2.1030     1.6250 C.3   1 <1>  -0.1350 
 21 H       -1.5990     0.9540     2.1220 H     1 <1>   0.0800 
 22 H       -2.8790    -0.3690     0.4020 H     1 <1>   0.0800 
 23 H       -2.6750     0.0390    -1.2820 H     1 <1>   0.0800 
 24 H        2.6900    -0.0320     0.4590 H     1 <1>   0.1500 
 25 H        0.1030     2.2560    -2.0140 H     1 <1>   0.1500 
 26 H       -2.4450     3.5420     0.8050 H     1 <1>   0.0800 
 27 H       -2.6720     3.1210     2.4750 H     1 <1>   0.0800 
 28 H        0.0570     3.1840     0.8950 H     1 <1>   0.0800 
 29 H        0.6560     1.8310     1.8490 H     1 <1>   0.0800 
 30 H       -0.2950     3.0560     2.5960 H     1 <1>   0.0800 
 31 H       -4.7910     0.9030    -0.4480 H     1 <1>   0.0800 
 32 H       -3.7390     2.1770    -0.9910 H     1 <1>   0.0800 
 33 H        2.0060     3.6370    -2.7260 H     1 <1>   0.1500 
 34 H       -4.7480     2.8320     1.1420 H     1 <1>   0.0800 
 35 H       -4.2210     1.3420     1.8840 H     1 <1>   0.0800 
 36 H        4.2480     3.1910    -1.8380 H     1 <1>   0.1500 
 37 H        5.0220     3.1470     1.4610 H     1 <1>   0.0800 
 38 H        6.1350     1.9970     2.1480 H     1 <1>   0.0800 
 39 H        4.4210     1.7040     2.2390 H     1 <1>   0.0800 
@<TRIPOS>BOND
  1   1   2  2   
  2   1   3  2   
  3   1   4  am  
  4   1   5  1   
  5   4   6  1   
  6   4   7  1   
  7   5   8  ar  
  8   5   9  ar  
  9   6  10  1   
 10   6  11  1   
 11   6  21  1   
 12   7  12  1   
 13   7  22  1   
 14   7  23  1   
 15   8  13  ar  
 16   8  24  1   
 17   9  14  ar  
 18   9  25  1   
 19  10  15  1   
 20  10  26  1   
 21  10  27  1   
 22  11  28  1   
 23  11  29  1   
 24  11  30  1   
 25  12  15  1   
 26  12  31  1   
 27  12  32  1   
 28  13  16  1   
 29  13  17  ar  
 30  14  17  ar  
 31  14  33  1   
 32  15  34  1   
 33  15  35  1   
 34  16  18  2   
 35  16  19  2   
 36  16  20  1   
 37  17  36  1   
 38  20  37  1   
 39  20  38  1   
 40  20  39  1   
@<TRIPOS>SUBSTRUCTURE
  1 ****   5 GROUP 4 **** **** 0

# MOE 2024.06 (io_trps.svl 2023.06)
