@<TRIPOS>MOLECULE
NONAME
44 44 1 0 0 
SMALL
USER_CHARGES


@<TRIPOS>ATOM
  1 O       -1.1990    -6.9830    -0.4620 O.3   1 <1>  -0.3630 
  2 C       -2.3880    -6.3390    -0.3510 C.ar  1 <1>   0.0830 
  3 C        0.0090    -6.3540    -0.0950 C.3   1 <1>   0.1200 
  4 C       -3.5180    -7.0400    -0.7360 C.ar  1 <1>  -0.1500 
  5 C       -2.5240    -5.0360     0.1200 C.ar  1 <1>  -0.1500 
  6 C        1.1460    -7.3410    -0.3390 C.3   1 <1>   0.1200 
  7 C       -4.7690    -6.4560    -0.6550 C.ar  1 <1>  -0.1500 
  8 C       -3.7780    -4.4560     0.1990 C.ar  1 <1>  -0.1500 
  9 O        2.3540    -6.7350     0.0170 O.3   1 <1>  -0.5600 
 10 C       -4.9130    -5.1580    -0.1860 C.ar  1 <1>  -0.1430 
 11 C        3.4710    -7.5400    -0.1620 C.3   1 <1>   0.1200 
 12 C       -6.3020    -4.5280    -0.1030 C.3   1 <1>   0.0630 
 13 C        4.6950    -6.7320     0.2870 C.3   1 <1>   0.3430 
 14 C       -6.3980    -3.2940    -1.0070 C.3   1 <1>  -0.2400 
 15 C       -6.6540    -4.1710     1.3450 C.3   1 <1>  -0.2400 
 16 N        5.9790    -7.5090     0.1990 N.4   1 <1>  -0.9590 
 17 C        7.0790    -6.7510     0.8740 C.3   1 <1>   0.2630 
 18 C        6.3600    -7.8170    -1.2170 C.3   1 <1>   0.2630 
 19 H       -0.0480    -6.0940     0.9470 H     1 <1>   0.0800 
 20 H        0.1320    -5.4780    -0.7060 H     1 <1>   0.0800 
 21 H       -3.4120    -8.0450    -1.1000 H     1 <1>   0.1500 
 22 H       -1.6740    -4.4600     0.4280 H     1 <1>   0.1500 
 23 H        1.1830    -7.6070    -1.3810 H     1 <1>   0.0800 
 24 H        1.0050    -8.2190     0.2690 H     1 <1>   0.0800 
 25 H       -5.6310    -7.0220    -0.9600 H     1 <1>   0.1500 
 26 H       -3.8670    -3.4490     0.5650 H     1 <1>   0.1500 
 27 H        3.5350    -7.7990    -1.2040 H     1 <1>   0.0800 
 28 H        3.3520    -8.4220     0.4440 H     1 <1>   0.0800 
 29 H       -7.0270    -5.2440    -0.4500 H     1 <1>   0.0800 
 30 H        4.5330    -6.4280     1.3080 H     1 <1>   0.0800 
 31 H        4.7660    -5.8450    -0.3200 H     1 <1>   0.0800 
 32 H       -5.7270    -2.5230    -0.6750 H     1 <1>   0.0800 
 33 H       -7.4000    -2.9050    -1.0000 H     1 <1>   0.0800 
 34 H       -6.1400    -3.5610    -2.0160 H     1 <1>   0.0800 
 35 H       -5.9890    -3.4190     1.7280 H     1 <1>   0.0800 
 36 H       -6.5750    -5.0460     1.9650 H     1 <1>   0.0800 
 37 H       -7.6620    -3.8020     1.4020 H     1 <1>   0.0800 
 38 H        5.8520    -8.3980     0.7080 H     1 <1>   0.4500 
 39 H        7.2440    -5.8080     0.3790 H     1 <1>   0.0800 
 40 H        7.9950    -7.3190     0.8490 H     1 <1>   0.0800 
 41 H        6.8240    -6.5590     1.9040 H     1 <1>   0.0800 
 42 H        6.4840    -6.9050    -1.7790 H     1 <1>   0.0800 
 43 H        5.5980    -8.4130    -1.6930 H     1 <1>   0.0800 
 44 H        7.2870    -8.3660    -1.2440 H     1 <1>   0.0800 
@<TRIPOS>BOND
  1   1   2  1   
  2   1   3  1   
  3   2   4  ar  
  4   2   5  ar  
  5   3   6  1   
  6   3  19  1   
  7   3  20  1   
  8   4   7  ar  
  9   4  21  1   
 10   5   8  ar  
 11   5  22  1   
 12   6   9  1   
 13   6  23  1   
 14   6  24  1   
 15   7  10  ar  
 16   7  25  1   
 17   8  10  ar  
 18   8  26  1   
 19   9  11  1   
 20  10  12  1   
 21  11  13  1   
 22  11  27  1   
 23  11  28  1   
 24  12  14  1   
 25  12  15  1   
 26  12  29  1   
 27  13  16  1   
 28  13  30  1   
 29  13  31  1   
 30  14  32  1   
 31  14  33  1   
 32  14  34  1   
 33  15  35  1   
 34  15  36  1   
 35  15  37  1   
 36  16  17  1   
 37  16  18  1   
 38  16  38  1   
 39  17  39  1   
 40  17  40  1   
 41  17  41  1   
 42  18  42  1   
 43  18  43  1   
 44  18  44  1   
@<TRIPOS>SUBSTRUCTURE
  1 ****   3 GROUP 4 **** **** 0

# MOE 2024.06 (io_trps.svl 2023.06)
