@<TRIPOS>MOLECULE
NONAME
55 56 1 0 0 
SMALL
USER_CHARGES


@<TRIPOS>ATOM
  1 N       -0.1270     0.2210    -0.2110 N.4   1 <1>  -0.9590 
  2 C       -0.5410     0.9700     1.0240 C.3   1 <1>   0.3430 
  3 C       -1.2120    -0.7340    -0.6160 C.3   1 <1>   0.3430 
  4 C        1.1810    -0.5150    -0.0660 C.3   1 <1>   0.3430 
  5 C       -1.7970     1.7920     0.7310 C.3   1 <1>  -0.1600 
  6 C       -2.4860     0.0440    -0.9500 C.3   1 <1>  -0.1600 
  7 C        2.4250     0.4030     0.1250 C.3   1 <1>   0.3430 
  8 C       -2.9470     0.9110     0.2280 C.3   1 <1>  -0.1600 
  9 N        3.7310    -0.3440     0.2060 N.4   1 <1>  -0.9060 
 10 C        4.9030     0.5400     0.4150 C.3   1 <1>   0.4230 
 11 C        5.2020     1.3350    -0.8600 C.3   1 <1>  -0.1600 
 12 C        6.0970    -0.3370     0.7890 C.3   1 <1>  -0.1600 
 13 C        6.4710     2.1840    -0.6940 C.3   1 <1>  -0.1600 
 14 C        7.3670     0.5060     0.9670 C.3   1 <1>  -0.1600 
 15 C        7.7030     1.3330    -0.2980 C.3   1 <1>  -0.0800 
 16 C        9.0290     2.1590    -0.1800 C.3   1 <1>   0.0000 
 17 C       10.2220     1.2290     0.1160 C.3   1 <1>  -0.2400 
 18 C        9.3450     2.8730    -1.5080 C.3   1 <1>  -0.2400 
 19 C        8.9790     3.2260     0.9290 C.3   1 <1>  -0.2400 
 20 H       -0.0840     0.9100    -0.9770 H     1 <1>   0.4500 
 21 H        0.2420     1.6350     1.3460 H     1 <1>   0.0800 
 22 H       -0.7510     0.2760     1.8230 H     1 <1>   0.0800 
 23 H       -1.4160    -1.4250     0.1870 H     1 <1>   0.0800 
 24 H       -0.9100    -1.3000    -1.4830 H     1 <1>   0.0800 
 25 H        1.3360    -1.1090    -0.9520 H     1 <1>   0.0800 
 26 H        1.1090    -1.1860     0.7750 H     1 <1>   0.0800 
 27 H       -1.5720     2.5530     0.0040 H     1 <1>   0.0800 
 28 H       -2.1080     2.2940     1.6310 H     1 <1>   0.0800 
 29 H       -3.2680    -0.6530    -1.2000 H     1 <1>   0.0800 
 30 H       -2.3200     0.6590    -1.8170 H     1 <1>   0.0800 
 31 H        2.2960     0.9760     1.0300 H     1 <1>   0.0800 
 32 H        2.4690     1.0920    -0.7030 H     1 <1>   0.0800 
 33 H       -3.7780     1.5290    -0.0750 H     1 <1>   0.0800 
 34 H       -3.2910     0.2770     1.0280 H     1 <1>   0.0800 
 35 H        3.9280    -0.8800    -0.6500 H     1 <1>   0.4500 
 36 H        3.7380    -1.0180     0.9840 H     1 <1>   0.4500 
 37 H        4.7140     1.2260     1.2270 H     1 <1>   0.0800 
 38 H        4.3900     2.0000    -1.0930 H     1 <1>   0.0800 
 39 H        5.3500     0.6660    -1.6900 H     1 <1>   0.0800 
 40 H        6.2810    -1.0680     0.0200 H     1 <1>   0.0800 
 41 H        5.9030    -0.8530     1.7140 H     1 <1>   0.0800 
 42 H        6.2950     2.9390     0.0530 H     1 <1>   0.0800 
 43 H        6.6530     2.6880    -1.6270 H     1 <1>   0.0800 
 44 H        8.1760    -0.1650     1.1970 H     1 <1>   0.0800 
 45 H        7.2400     1.1620     1.8100 H     1 <1>   0.0800 
 46 H        7.8610     0.6270    -1.0970 H     1 <1>   0.0800 
 47 H       11.1490     1.7740     0.0650 H     1 <1>   0.0800 
 48 H       10.2670     0.4290    -0.6020 H     1 <1>   0.0800 
 49 H       10.1590     0.8060     1.1010 H     1 <1>   0.0800 
 50 H        9.3360     2.1750    -2.3270 H     1 <1>   0.0800 
 51 H       10.3190     3.3280    -1.4710 H     1 <1>   0.0800 
 52 H        8.6390     3.6560    -1.7130 H     1 <1>   0.0800 
 53 H        9.9110     3.7620     0.9680 H     1 <1>   0.0800 
 54 H        8.2020     3.9450     0.7460 H     1 <1>   0.0800 
 55 H        8.8210     2.7830     1.8940 H     1 <1>   0.0800 
@<TRIPOS>BOND
  1   1   2  1   
  2   1   3  1   
  3   1   4  1   
  4   1  20  1   
  5   2   5  1   
  6   2  21  1   
  7   2  22  1   
  8   3   6  1   
  9   3  23  1   
 10   3  24  1   
 11   4   7  1   
 12   4  25  1   
 13   4  26  1   
 14   5   8  1   
 15   5  27  1   
 16   5  28  1   
 17   6   8  1   
 18   6  29  1   
 19   6  30  1   
 20   7   9  1   
 21   7  31  1   
 22   7  32  1   
 23   8  33  1   
 24   8  34  1   
 25   9  10  1   
 26   9  35  1   
 27   9  36  1   
 28  10  11  1   
 29  10  12  1   
 30  10  37  1   
 31  11  13  1   
 32  11  38  1   
 33  11  39  1   
 34  12  14  1   
 35  12  40  1   
 36  12  41  1   
 37  13  15  1   
 38  13  42  1   
 39  13  43  1   
 40  14  15  1   
 41  14  44  1   
 42  14  45  1   
 43  15  16  1   
 44  15  46  1   
 45  16  17  1   
 46  16  18  1   
 47  16  19  1   
 48  17  47  1   
 49  17  48  1   
 50  17  49  1   
 51  18  50  1   
 52  18  51  1   
 53  18  52  1   
 54  19  53  1   
 55  19  54  1   
 56  19  55  1   
@<TRIPOS>SUBSTRUCTURE
  1 ****  10 GROUP 4 **** **** 0

# MOE 2024.06 (io_trps.svl 2023.06)
