@<TRIPOS>MOLECULE
NONAME
40 41 1 0 0 
SMALL
USER_CHARGES


@<TRIPOS>ATOM
  1 O       -3.2580     2.0220    -0.7030 O.3   1 <1>  -0.5600 
  2 C       -3.1820     0.6350    -0.5010 C.3   1 <1>   0.2000 
  3 C       -3.9600     2.7820     0.2470 C.3   1 <1>   0.2000 
  4 C       -4.6040     0.0120    -0.4550 C.3   1 <1>   0.3430 
  5 C       -2.3440     0.3420     0.7490 C.3   1 <1>  -0.2400 
  6 C       -5.2620     2.0710     0.6990 C.3   1 <1>   0.3430 
  7 C       -4.2530     4.1240    -0.4230 C.3   1 <1>  -0.2400 
  8 N       -5.6900     1.0460    -0.3130 N.4   1 <1>  -0.9590 
  9 C       -7.0230     0.4190    -0.0390 C.3   1 <1>   0.3430 
 10 C       -8.1860     1.4070    -0.1760 C.3   1 <1>   0.1200 
 11 O       -9.3660     0.7010     0.1150 O.3   1 <1>  -0.3630 
 12 C      -10.5830     1.2960     0.0800 C.ar  1 <1>   0.0820 
 13 C      -10.7880     2.6280    -0.2680 C.ar  1 <1>  -0.1500 
 14 C      -11.6720     0.5080     0.4140 C.ar  1 <1>  -0.1500 
 15 C      -12.0700     3.1500    -0.2750 C.ar  1 <1>  -0.1500 
 16 C      -12.9500     1.0370     0.4050 C.ar  1 <1>  -0.1500 
 17 C      -13.1700     2.3660     0.0600 C.ar  1 <1>   0.0730 
 18 C      -14.4960     2.9140     0.0500 C.1   1 <1>   0.4840 
 19 N      -15.5490     3.3520     0.0420 N.1   1 <1>  -0.5570 
 20 H       -2.6590     0.2300    -1.3520 H     1 <1>   0.0800 
 21 H       -3.3160     2.9470     1.0950 H     1 <1>   0.0800 
 22 H       -4.6450    -0.6820     0.3690 H     1 <1>   0.0800 
 23 H       -4.7600    -0.5560    -1.3570 H     1 <1>   0.0800 
 24 H       -2.8390     0.6490     1.6510 H     1 <1>   0.0800 
 25 H       -1.3940     0.8440     0.6760 H     1 <1>   0.0800 
 26 H       -2.1510    -0.7140     0.8190 H     1 <1>   0.0800 
 27 H       -6.0320     2.8090     0.8470 H     1 <1>   0.0800 
 28 H       -5.0850     1.5910     1.6470 H     1 <1>   0.0800 
 29 H       -4.8670     3.9920    -1.2960 H     1 <1>   0.0800 
 30 H       -3.3290     4.5920    -0.7140 H     1 <1>   0.0800 
 31 H       -4.7580     4.7830     0.2610 H     1 <1>   0.0800 
 32 H       -5.7030     1.5400    -1.2190 H     1 <1>   0.4500 
 33 H       -7.0300     0.0080     0.9570 H     1 <1>   0.0800 
 34 H       -7.1870    -0.3860    -0.7370 H     1 <1>   0.0800 
 35 H       -8.2570     1.7790    -1.1830 H     1 <1>   0.0800 
 36 H       -8.1010     2.2130     0.5310 H     1 <1>   0.0800 
 37 H       -9.9740     3.2730    -0.5360 H     1 <1>   0.1500 
 38 H      -11.5160    -0.5220     0.6820 H     1 <1>   0.1500 
 39 H      -12.2230     4.1820    -0.5450 H     1 <1>   0.1500 
 40 H      -13.7860     0.4090     0.6680 H     1 <1>   0.1500 
@<TRIPOS>BOND
  1   1   2  1   
  2   1   3  1   
  3   2   4  1   
  4   2   5  1   
  5   2  20  1   
  6   3   6  1   
  7   3   7  1   
  8   3  21  1   
  9   4   8  1   
 10   4  22  1   
 11   4  23  1   
 12   5  24  1   
 13   5  25  1   
 14   5  26  1   
 15   6   8  1   
 16   6  27  1   
 17   6  28  1   
 18   7  29  1   
 19   7  30  1   
 20   7  31  1   
 21   8   9  1   
 22   8  32  1   
 23   9  10  1   
 24   9  33  1   
 25   9  34  1   
 26  10  11  1   
 27  10  35  1   
 28  10  36  1   
 29  11  12  1   
 30  12  13  ar  
 31  12  14  ar  
 32  13  15  ar  
 33  13  37  1   
 34  14  16  ar  
 35  14  38  1   
 36  15  17  ar  
 37  15  39  1   
 38  16  17  ar  
 39  16  40  1   
 40  17  18  1   
 41  18  19  3   
@<TRIPOS>SUBSTRUCTURE
  1 ****  10 GROUP 4 **** **** 0

# MOE 2024.06 (io_trps.svl 2023.06)
