@<TRIPOS>MOLECULE
NONAME
45 47 1 0 0 
SMALL
USER_CHARGES


@<TRIPOS>ATOM
  1 O        1.4620    -1.9770     0.8470 O.2   1 <1>  -0.5700 
  2 C        1.0190    -2.7420     0.0120 C.2   1 <1>   0.7060 
  3 O       -0.2190    -3.1960     0.2280 O.3   1 <1>  -0.2320 
  4 C        1.7250    -3.1830    -1.1670 C.2   1 <1>   0.0290 
  5 C       -0.8660    -4.0630    -0.5860 C.ar  1 <1>   0.0830 
  6 C        3.0620    -2.7030    -1.4430 C.2   1 <1>   0.6160 
  7 C        1.0950    -4.0580    -2.0020 C.2   1 <1>  -0.1780 
  8 C       -2.1580    -4.4820    -0.2720 C.ar  1 <1>   0.0830 
  9 C       -0.2220    -4.5260    -1.7360 C.ar  1 <1>   0.0280 
 10 O        3.6730    -3.1520    -2.3950 O.2   1 <1>  -0.5700 
 11 N        3.6930    -1.7620    -0.6870 N.am  1 <1>  -0.7300 
 12 O       -2.7240    -3.9870     0.8640 O.3   1 <1>  -0.3630 
 13 C       -2.8090    -5.3740    -1.1160 C.ar  1 <1>  -0.1500 
 14 C       -0.8960    -5.4210    -2.5660 C.ar  1 <1>  -0.1500 
 15 C        5.0740    -1.2740    -0.8640 C.3   1 <1>   0.2200 
 16 C       -4.0230    -4.3490     1.2650 C.3   1 <1>   0.1200 
 17 C       -2.1750    -5.8400    -2.2590 C.ar  1 <1>  -0.1500 
 18 C        6.0100    -2.0150     0.1220 C.3   1 <1>   0.2000 
 19 C        5.0360     0.2460    -0.6850 C.3   1 <1>  -0.2400 
 20 C       -4.3330    -3.6160     2.5660 C.3   1 <1>  -0.2400 
 21 O        5.6950    -1.7190     1.4490 O.3   1 <1>  -0.5600 
 22 C        7.4970    -1.7000     0.0090 C.3   1 <1>  -0.1600 
 23 C        6.7820    -1.9660     2.2840 C.3   1 <1>   0.1200 
 24 C        8.0120    -2.0820     1.3850 C.3   1 <1>  -0.1600 
 25 H        1.5750    -4.4230    -2.8950 H     1 <1>   0.1500 
 26 H        3.2710    -1.5000     0.2170 H     1 <1>   0.3700 
 27 H       -3.8040    -5.7210    -0.9090 H     1 <1>   0.1500 
 28 H       -0.4110    -5.7860    -3.4540 H     1 <1>   0.1500 
 29 H        5.3980    -1.4950    -1.8680 H     1 <1>   0.0800 
 30 H       -4.0500    -5.4150     1.4140 H     1 <1>   0.0800 
 31 H       -4.7130    -4.0590     0.4920 H     1 <1>   0.0800 
 32 H       -2.6860    -6.5310    -2.9080 H     1 <1>   0.1500 
 33 H        5.8730    -3.0760    -0.0060 H     1 <1>   0.0800 
 34 H        4.7650     0.4990     0.3250 H     1 <1>   0.0800 
 35 H        4.3200     0.6770    -1.3610 H     1 <1>   0.0800 
 36 H        5.9950     0.6780    -0.9000 H     1 <1>   0.0800 
 37 H       -3.6270    -3.8990     3.3260 H     1 <1>   0.0800 
 38 H       -5.3210    -3.8710     2.9030 H     1 <1>   0.0800 
 39 H       -4.2850    -2.5530     2.4110 H     1 <1>   0.0800 
 40 H        7.6520    -0.6510    -0.1590 H     1 <1>   0.0800 
 41 H        7.9660    -2.2620    -0.7800 H     1 <1>   0.0800 
 42 H        6.5980    -2.8790     2.8240 H     1 <1>   0.0800 
 43 H        6.8660    -1.1420     2.9710 H     1 <1>   0.0800 
 44 H        8.8070    -1.4360     1.7150 H     1 <1>   0.0800 
 45 H        8.3610    -3.1000     1.3910 H     1 <1>   0.0800 
@<TRIPOS>BOND
  1   1   2  2   
  2   2   3  1   
  3   2   4  1   
  4   3   5  1   
  5   4   6  1   
  6   4   7  2   
  7   5   8  ar  
  8   5   9  ar  
  9   6  10  2   
 10   6  11  am  
 11   7   9  1   
 12   7  25  1   
 13   8  12  1   
 14   8  13  ar  
 15   9  14  ar  
 16  11  15  1   
 17  11  26  1   
 18  12  16  1   
 19  13  17  ar  
 20  13  27  1   
 21  14  17  ar  
 22  14  28  1   
 23  15  18  1   
 24  15  19  1   
 25  15  29  1   
 26  16  20  1   
 27  16  30  1   
 28  16  31  1   
 29  17  32  1   
 30  18  21  1   
 31  18  22  1   
 32  18  33  1   
 33  19  34  1   
 34  19  35  1   
 35  19  36  1   
 36  20  37  1   
 37  20  38  1   
 38  20  39  1   
 39  21  23  1   
 40  22  24  1   
 41  22  40  1   
 42  22  41  1   
 43  23  24  1   
 44  23  42  1   
 45  23  43  1   
 46  24  44  1   
 47  24  45  1   
@<TRIPOS>SUBSTRUCTURE
  1 ****   2 GROUP 4 **** **** 0

# MOE 2024.06 (io_trps.svl 2023.06)
