@<TRIPOS>MOLECULE
NONAME
47 48 1 0 0 
SMALL
USER_CHARGES


@<TRIPOS>ATOM
  1 CL      -1.1760     0.6370    -0.1770 Cl    1 <1>  -0.1770 
  2 C       -0.6990     2.3170    -0.2310 C.ar  1 <1>   0.1770 
  3 C       -1.5270     3.2490    -0.8400 C.ar  1 <1>  -0.1440 
  4 C        0.5000     2.6850     0.3510 C.ar  1 <1>  -0.1500 
  5 C       -1.1300     4.5790    -0.8610 C.ar  1 <1>  -0.1500 
  6 C       -2.8370     2.8210    -1.4700 C.3   1 <1>   0.4870 
  7 C        0.8830     4.0140     0.3270 C.ar  1 <1>  -0.1500 
  8 C        0.0690     4.9570    -0.2780 C.ar  1 <1>  -0.1500 
  9 N       -3.7750     2.3760    -0.4050 N.4   1 <1>  -0.9590 
 10 C       -5.0020     1.7610    -1.0030 C.3   1 <1>   0.3430 
 11 C       -4.1050     3.4770     0.5480 C.3   1 <1>   0.3430 
 12 C       -5.9350     1.2010     0.0780 C.3   1 <1>  -0.0190 
 13 C       -4.9930     2.9360     1.6700 C.3   1 <1>  -0.1600 
 14 C       -7.1960     0.6840    -0.6060 C.2   1 <1>   0.5690 
 15 C       -6.2710     2.2850     1.1220 C.3   1 <1>  -0.1600 
 16 O       -7.5250     1.2520    -1.6210 O.2   1 <1>  -0.5700 
 17 N       -7.9140    -0.3710    -0.0990 N.am  1 <1>  -0.6600 
 18 C       -7.5990    -1.1070     1.1560 C.3   1 <1>   0.1400 
 19 C       -9.1430    -0.8400    -0.7980 C.3   1 <1>   0.1400 
 20 C       -6.7440    -2.3300     0.8310 C.3   1 <1>  -0.2400 
 21 C      -10.3620    -0.1190    -0.2280 C.3   1 <1>  -0.2400 
 22 H        1.1260     1.9430     0.8160 H     1 <1>   0.1500 
 23 H       -1.7390     5.3350    -1.3310 H     1 <1>   0.1500 
 24 H       -2.6480     2.0090    -2.1550 H     1 <1>   0.0800 
 25 H       -3.2650     3.6400    -2.0240 H     1 <1>   0.0800 
 26 H        1.8160     4.3150     0.7760 H     1 <1>   0.1500 
 27 H        0.3760     5.9900    -0.2960 H     1 <1>   0.1500 
 28 H       -3.2750     1.6480     0.1250 H     1 <1>   0.4500 
 29 H       -4.7300     0.9650    -1.6770 H     1 <1>   0.0800 
 30 H       -5.5390     2.5050    -1.5700 H     1 <1>   0.0800 
 31 H       -4.6240     4.2670     0.0280 H     1 <1>   0.0800 
 32 H       -3.2010     3.8870     0.9720 H     1 <1>   0.0800 
 33 H       -5.4290     0.3820     0.5510 H     1 <1>   0.0800 
 34 H       -5.2620     3.7490     2.3240 H     1 <1>   0.0800 
 35 H       -4.4360     2.2260     2.2560 H     1 <1>   0.0800 
 36 H       -6.8390     1.8570     1.9310 H     1 <1>   0.0800 
 37 H       -6.8870     3.0410     0.6620 H     1 <1>   0.0800 
 38 H       -8.5140    -1.4220     1.6300 H     1 <1>   0.0800 
 39 H       -7.0820    -0.4700     1.8510 H     1 <1>   0.0800 
 40 H       -9.2530    -1.9040    -0.6770 H     1 <1>   0.0800 
 41 H       -9.0670    -0.6380    -1.8540 H     1 <1>   0.0800 
 42 H       -7.2790    -3.0010     0.1830 H     1 <1>   0.0800 
 43 H       -6.5090    -2.8570     1.7380 H     1 <1>   0.0800 
 44 H       -5.8240    -2.0400     0.3570 H     1 <1>   0.0800 
 45 H      -10.4800    -0.3310     0.8180 H     1 <1>   0.0800 
 46 H      -11.2470    -0.4460    -0.7440 H     1 <1>   0.0800 
 47 H      -10.2610     0.9430    -0.3710 H     1 <1>   0.0800 
@<TRIPOS>BOND
  1   1   2  1   
  2   2   3  ar  
  3   2   4  ar  
  4   3   5  ar  
  5   3   6  1   
  6   4   7  ar  
  7   4  22  1   
  8   5   8  ar  
  9   5  23  1   
 10   6   9  1   
 11   6  24  1   
 12   6  25  1   
 13   7   8  ar  
 14   7  26  1   
 15   8  27  1   
 16   9  10  1   
 17   9  11  1   
 18   9  28  1   
 19  10  12  1   
 20  10  29  1   
 21  10  30  1   
 22  11  13  1   
 23  11  31  1   
 24  11  32  1   
 25  12  14  1   
 26  12  15  1   
 27  12  33  1   
 28  13  15  1   
 29  13  34  1   
 30  13  35  1   
 31  14  16  2   
 32  14  17  am  
 33  15  36  1   
 34  15  37  1   
 35  17  18  1   
 36  17  19  1   
 37  18  20  1   
 38  18  38  1   
 39  18  39  1   
 40  19  21  1   
 41  19  40  1   
 42  19  41  1   
 43  20  42  1   
 44  20  43  1   
 45  20  44  1   
 46  21  45  1   
 47  21  46  1   
 48  21  47  1   
@<TRIPOS>SUBSTRUCTURE
  1 ****   9 GROUP 4 **** **** 0

# MOE 2024.06 (io_trps.svl 2023.06)
