@<TRIPOS>MOLECULE
NONAME
48 49 1 0 0 
SMALL
USER_CHARGES


@<TRIPOS>ATOM
  1 O       -0.0040     0.6460    -0.4090 O.2   1 <1>  -0.5700 
  2 C       -0.1940     1.7700     0.0130 C.2   1 <1>   0.5440 
  3 N        0.8520     2.6500     0.1100 N.am  1 <1>  -0.7300 
  4 C       -1.5300     2.1870     0.3990 C.ar  1 <1>   0.0860 
  5 C        2.2730     2.4480    -0.1900 C.3   1 <1>   0.3000 
  6 C       -1.7530     3.1390     1.3940 C.ar  1 <1>  -0.1500 
  7 C       -2.6580     1.6460    -0.2140 C.ar  1 <1>  -0.1500 
  8 C        2.8390     1.3340     0.6900 C.3   1 <1>  -0.2400 
  9 C        2.9740     3.7650     0.1420 C.3   1 <1>  -0.2400 
 10 C        2.4510     2.1360    -1.6760 C.3   1 <1>  -0.2400 
 11 C       -3.0300     3.5360     1.7400 C.ar  1 <1>  -0.1500 
 12 C       -3.9360     2.0420     0.1330 C.ar  1 <1>  -0.1500 
 13 C       -4.1620     3.0060     1.1180 C.ar  1 <1>   0.0860 
 14 C       -5.4950     3.4410     1.4990 C.2   1 <1>   0.3980 
 15 O       -5.6600     4.0620     2.5310 O.2   1 <1>  -0.5700 
 16 C       -6.6410     3.1480     0.6730 C.ar  1 <1>   0.0860 
 17 C       -6.7440     3.5970    -0.6490 C.ar  1 <1>   0.0820 
 18 C       -7.6950     2.3890     1.1780 C.ar  1 <1>  -0.1500 
 19 O       -5.7810     4.3620    -1.2010 O.3   1 <1>  -0.3620 
 20 C       -7.8320     3.2590    -1.4370 C.ar  1 <1>  -0.1500 
 21 C       -8.7900     2.0550     0.4020 C.ar  1 <1>   0.0820 
 22 C       -5.7710     5.7280    -0.8450 C.3   1 <1>   0.0400 
 23 C       -8.8560     2.4890    -0.9190 C.ar  1 <1>  -0.1500 
 24 O       -9.7520     1.3030     0.9960 O.3   1 <1>  -0.3620 
 25 C      -10.9350     0.9540     0.3120 C.3   1 <1>   0.0400 
 26 H        0.6330     3.6150     0.3450 H     1 <1>   0.3700 
 27 H       -0.9150     3.5680     1.9140 H     1 <1>   0.1500 
 28 H       -2.5210     0.8990    -0.9790 H     1 <1>   0.1500 
 29 H        2.6600     1.5450     1.7280 H     1 <1>   0.0800 
 30 H        3.8990     1.2420     0.5360 H     1 <1>   0.0800 
 31 H        2.3890     0.3890     0.4440 H     1 <1>   0.0800 
 32 H        2.8480     4.0080     1.1820 H     1 <1>   0.0800 
 33 H        2.5840     4.5650    -0.4610 H     1 <1>   0.0800 
 34 H        4.0270     3.6800    -0.0560 H     1 <1>   0.0800 
 35 H        1.9920     1.1960    -1.9230 H     1 <1>   0.0800 
 36 H        3.4950     2.0660    -1.9180 H     1 <1>   0.0800 
 37 H        2.0100     2.9080    -2.2800 H     1 <1>   0.0800 
 38 H       -3.1630     4.2720     2.5150 H     1 <1>   0.1500 
 39 H       -4.7690     1.5890    -0.3750 H     1 <1>   0.1500 
 40 H       -7.6560     2.0510     2.1980 H     1 <1>   0.1500 
 41 H       -7.8710     3.6040    -2.4550 H     1 <1>   0.1500 
 42 H       -4.9690     6.2080    -1.3770 H     1 <1>   0.0800 
 43 H       -5.6150     5.8220     0.2150 H     1 <1>   0.0800 
 44 H       -6.7130     6.1670    -1.1240 H     1 <1>   0.0800 
 45 H       -9.6890     2.2420    -1.5500 H     1 <1>   0.1500 
 46 H      -11.5520     0.3840     0.9820 H     1 <1>   0.0800 
 47 H      -10.6800     0.3580    -0.5460 H     1 <1>   0.0800 
 48 H      -11.4470     1.8540     0.0200 H     1 <1>   0.0800 
@<TRIPOS>BOND
  1   1   2  2   
  2   2   3  am  
  3   2   4  1   
  4   3   5  1   
  5   3  26  1   
  6   4   6  ar  
  7   4   7  ar  
  8   5   8  1   
  9   5   9  1   
 10   5  10  1   
 11   6  11  ar  
 12   6  27  1   
 13   7  12  ar  
 14   7  28  1   
 15   8  29  1   
 16   8  30  1   
 17   8  31  1   
 18   9  32  1   
 19   9  33  1   
 20   9  34  1   
 21  10  35  1   
 22  10  36  1   
 23  10  37  1   
 24  11  13  ar  
 25  11  38  1   
 26  12  13  ar  
 27  12  39  1   
 28  13  14  1   
 29  14  15  2   
 30  14  16  1   
 31  16  17  ar  
 32  16  18  ar  
 33  17  19  1   
 34  17  20  ar  
 35  18  21  ar  
 36  18  40  1   
 37  19  22  1   
 38  20  23  ar  
 39  20  41  1   
 40  21  23  ar  
 41  21  24  1   
 42  22  42  1   
 43  22  43  1   
 44  22  44  1   
 45  23  45  1   
 46  24  25  1   
 47  25  46  1   
 48  25  47  1   
 49  25  48  1   
@<TRIPOS>SUBSTRUCTURE
  1 ****  12 GROUP 4 **** **** 0

# MOE 2024.06 (io_trps.svl 2023.06)
