@<TRIPOS>MOLECULE
NONAME
45 46 1 0 0 
SMALL
USER_CHARGES


@<TRIPOS>ATOM
  1 S       -0.0400    -0.0350    -0.2310 S.o2  1 <1>   1.3330 
  2 O        1.0680    -0.7380     0.3680 O.2   1 <1>  -0.6500 
  3 O       -0.1720     0.0330    -1.6650 O.2   1 <1>  -0.6500 
  4 N       -1.4820    -0.7680     0.3780 N.am  1 <1>  -0.6930 
  5 C       -0.1080     1.6020     0.4660 C.3   1 <1>  -0.1350 
  6 C       -2.7040    -0.1430     0.2000 C.ar  1 <1>   0.1990 
  7 C       -1.4610    -2.2400     0.2770 C.3   1 <1>   0.3340 
  8 C       -3.4190     0.3040     1.3040 C.ar  1 <1>  -0.1500 
  9 C       -3.2510     0.0630    -1.0620 C.ar  1 <1>  -0.1500 
 10 C       -2.4940    -2.8410     1.2140 C.2   1 <1>  -0.2880 
 11 C       -4.6400     0.9310     1.1560 C.ar  1 <1>  -0.1500 
 12 C       -4.4720     0.6910    -1.2080 C.ar  1 <1>  -0.1500 
 13 C       -3.5550    -3.5650     0.8430 C.2   1 <1>  -0.3000 
 14 C       -5.2070     1.1340    -0.1060 C.ar  1 <1>   0.0860 
 15 C       -6.4980     1.7690    -0.2770 C.2   1 <1>   0.5440 
 16 O       -6.7700     2.3690    -1.2990 O.2   1 <1>  -0.5700 
 17 N       -7.4530     1.6800     0.6980 N.am  1 <1>  -0.7300 
 18 C       -8.8210     2.2630     0.5970 C.3   1 <1>   0.1400 
 19 C       -9.7090     1.4670    -0.3710 C.3   1 <1>   0.2000 
 20 O      -11.0260     1.8900    -0.2390 O.3   1 <1>  -0.5600 
 21 C       -9.7820    -0.0330    -0.1050 C.3   1 <1>  -0.1600 
 22 C      -11.8830     0.9310    -0.7670 C.3   1 <1>   0.1200 
 23 C      -11.1640    -0.4080    -0.6180 C.3   1 <1>  -0.1600 
 24 H        0.7650     2.1570     0.1830 H     1 <1>   0.0800 
 25 H       -0.1480     1.5460     1.5360 H     1 <1>   0.0800 
 26 H       -0.9750     2.1230     0.1110 H     1 <1>   0.0800 
 27 H       -0.4890    -2.6200     0.5460 H     1 <1>   0.0800 
 28 H       -1.6640    -2.5280    -0.7410 H     1 <1>   0.0800 
 29 H       -3.0040     0.1490     2.2840 H     1 <1>   0.1500 
 30 H       -2.7140    -0.2710    -1.9320 H     1 <1>   0.1500 
 31 H       -2.2770    -2.6150     2.2440 H     1 <1>   0.1500 
 32 H       -5.1620     1.2740     2.0310 H     1 <1>   0.1500 
 33 H       -4.8770     0.8440    -2.1950 H     1 <1>   0.1500 
 34 H       -4.2710    -3.9780     1.5330 H     1 <1>   0.1500 
 35 H       -3.8000    -3.8050    -0.1780 H     1 <1>   0.1500 
 36 H       -7.3050     1.0440     1.4810 H     1 <1>   0.3700 
 37 H       -8.7470     3.2770     0.2440 H     1 <1>   0.0800 
 38 H       -9.2720     2.2690     1.5730 H     1 <1>   0.0800 
 39 H       -9.4070     1.6570    -1.3880 H     1 <1>   0.0800 
 40 H       -9.7160    -0.2190     0.9520 H     1 <1>   0.0800 
 41 H       -8.9940    -0.5600    -0.6120 H     1 <1>   0.0800 
 42 H      -12.0530     1.1700    -1.8030 H     1 <1>   0.0800 
 43 H      -12.8110     0.9610    -0.2220 H     1 <1>   0.0800 
 44 H      -11.6800    -1.0490     0.0750 H     1 <1>   0.0800 
 45 H      -11.1070    -0.8980    -1.5740 H     1 <1>   0.0800 
@<TRIPOS>BOND
  1   1   2  2   
  2   1   3  2   
  3   1   4  am  
  4   1   5  1   
  5   4   6  1   
  6   4   7  1   
  7   5  24  1   
  8   5  25  1   
  9   5  26  1   
 10   6   8  ar  
 11   6   9  ar  
 12   7  10  1   
 13   7  27  1   
 14   7  28  1   
 15   8  11  ar  
 16   8  29  1   
 17   9  12  ar  
 18   9  30  1   
 19  10  13  2   
 20  10  31  1   
 21  11  14  ar  
 22  11  32  1   
 23  12  14  ar  
 24  12  33  1   
 25  13  34  1   
 26  13  35  1   
 27  14  15  1   
 28  15  16  2   
 29  15  17  am  
 30  17  18  1   
 31  17  36  1   
 32  18  19  1   
 33  18  37  1   
 34  18  38  1   
 35  19  20  1   
 36  19  21  1   
 37  19  39  1   
 38  20  22  1   
 39  21  23  1   
 40  21  40  1   
 41  21  41  1   
 42  22  23  1   
 43  22  42  1   
 44  22  43  1   
 45  23  44  1   
 46  23  45  1   
@<TRIPOS>SUBSTRUCTURE
  1 ****  14 GROUP 4 **** **** 0

# MOE 2024.06 (io_trps.svl 2023.06)
