@<TRIPOS>MOLECULE
NONAME
43 45 1 0 0 
SMALL
USER_CHARGES


@<TRIPOS>ATOM
  1 CL      -1.7480     0.0690     3.2600 Cl    1 <1>  -0.1770 
  2 C       -2.7010    -0.7770     2.0730 C.ar  1 <1>   0.1770 
  3 C       -3.9860    -0.3520     1.8010 C.ar  1 <1>  -0.1500 
  4 C       -2.1630    -1.8650     1.4140 C.ar  1 <1>  -0.1500 
  5 C       -4.7400    -1.0270     0.8570 C.ar  1 <1>  -0.1500 
  6 C       -2.9280    -2.5310     0.4730 C.ar  1 <1>  -0.1500 
  7 C       -4.2360    -2.1380     0.1690 C.ar  1 <1>   0.0860 
  8 C       -4.9960    -2.8750    -0.8250 C.2   1 <1>   0.4840 
  9 O       -4.4750    -3.6390    -1.5960 O.2   1 <1>  -0.5700 
 10 C       -6.5180    -2.7280    -0.9420 C.3   1 <1>  -0.0950 
 11 C       -7.3130    -3.9750    -0.6570 C.3   1 <1>   0.0000 
 12 C       -7.3650    -2.8310     0.3060 C.3   1 <1>  -0.1950 
 13 C       -6.9230    -1.9040    -2.1840 C.3   1 <1>  -0.0650 
 14 C       -8.7380    -4.1660    -1.0690 C.2   1 <1>   0.7200 
 15 C       -6.7170    -5.2930    -0.2210 C.2   1 <1>   0.7200 
 16 C       -8.8580    -2.5540     0.5350 C.3   1 <1>   0.3750 
 17 C       -6.4430    -0.4490    -2.1280 C.3   1 <1>  -0.2400 
 18 O       -9.1430    -4.9500    -1.8820 O.2   1 <1>  -0.5700 
 19 O       -9.5240    -3.3070    -0.4440 O.3   1 <1>  -0.4300 
 20 O       -6.5850    -5.5600     0.9470 O.2   1 <1>  -0.5700 
 21 O       -6.3380    -6.1220    -1.1840 O.3   1 <1>  -0.4300 
 22 C       -9.3130    -3.0880     1.8930 C.3   1 <1>  -0.2400 
 23 C       -9.2400    -1.0850     0.3700 C.3   1 <1>  -0.2400 
 24 C       -5.7290    -7.3640    -0.9070 C.3   1 <1>   0.0400 
 25 H       -4.3830     0.5000     2.3240 H     1 <1>   0.1500 
 26 H       -1.1590    -2.1820     1.6370 H     1 <1>   0.1500 
 27 H       -5.7340    -0.6730     0.6580 H     1 <1>   0.1500 
 28 H       -2.5040    -3.3790    -0.0400 H     1 <1>   0.1500 
 29 H       -6.8210    -2.9020     1.2340 H     1 <1>   0.1000 
 30 H       -7.9890    -1.9100    -2.3230 H     1 <1>   0.0800 
 31 H       -6.4950    -2.3720    -3.0560 H     1 <1>   0.0800 
 32 H       -6.7630     0.0700    -3.0160 H     1 <1>   0.0800 
 33 H       -5.3690    -0.4000    -2.0850 H     1 <1>   0.0800 
 34 H       -6.8550     0.0600    -1.2760 H     1 <1>   0.0800 
 35 H       -9.0500    -4.1260     1.9990 H     1 <1>   0.0800 
 36 H      -10.3780    -2.9840     1.9970 H     1 <1>   0.0800 
 37 H       -8.8390    -2.5380     2.6860 H     1 <1>   0.0800 
 38 H       -9.0320    -0.7410    -0.6240 H     1 <1>   0.0800 
 39 H       -8.6880    -0.4810     1.0660 H     1 <1>   0.0800 
 40 H      -10.2890    -0.9530     0.5640 H     1 <1>   0.0800 
 41 H       -5.5180    -7.8530    -1.8410 H     1 <1>   0.0800 
 42 H       -6.4060    -7.9600    -0.3190 H     1 <1>   0.0800 
 43 H       -4.8160    -7.1890    -0.3640 H     1 <1>   0.0800 
@<TRIPOS>BOND
  1   1   2  1   
  2   2   3  ar  
  3   2   4  ar  
  4   3   5  ar  
  5   3  25  1   
  6   4   6  ar  
  7   4  26  1   
  8   5   7  ar  
  9   5  27  1   
 10   6   7  ar  
 11   6  28  1   
 12   7   8  1   
 13   8   9  2   
 14   8  10  1   
 15  10  11  1   
 16  10  12  1   
 17  10  13  1   
 18  11  12  1   
 19  11  14  1   
 20  11  15  1   
 21  12  16  1   
 22  12  29  1   
 23  13  17  1   
 24  13  30  1   
 25  13  31  1   
 26  14  18  2   
 27  14  19  1   
 28  15  20  2   
 29  15  21  1   
 30  16  19  1   
 31  16  22  1   
 32  16  23  1   
 33  17  32  1   
 34  17  33  1   
 35  17  34  1   
 36  21  24  1   
 37  22  35  1   
 38  22  36  1   
 39  22  37  1   
 40  23  38  1   
 41  23  39  1   
 42  23  40  1   
 43  24  41  1   
 44  24  42  1   
 45  24  43  1   
@<TRIPOS>SUBSTRUCTURE
  1 ****  10 GROUP 4 **** **** 0

# MOE 2024.06 (io_trps.svl 2023.06)
