@<TRIPOS>MOLECULE
NONAME
41 43 1 0 0 
SMALL
USER_CHARGES


@<TRIPOS>ATOM
  1 SI       0.5610     0.2090     0.1470 Si    1 <1>   0.4300 
  2 C       -0.4170    -0.8870    -0.9480 C.3   1 <1>  -0.2840 
  3 C        2.1170    -0.4710     0.7560 C.3   1 <1>  -0.3200 
  4 C       -0.4260     0.6120     1.6040 C.3   1 <1>  -0.3210 
  5 C        0.8910     1.7530    -0.7190 C.3   1 <1>  -0.3200 
  6 C       -0.4690    -2.5120    -0.9620 C.3   1 <1>  -0.1900 
  7 C       -2.0070    -0.3670    -0.9740 C.3   1 <1>   0.1530 
  8 C        0.2650    -1.7150    -2.0640 C.3   1 <1>  -0.2470 
  9 C       -2.0700    -2.9940    -0.9300 C.3   1 <1>   0.1530 
 10 C        0.4080    -3.4310    -0.0850 C.3   1 <1>  -0.0650 
 11 C       -3.5260    -0.9410    -0.7890 C.2   1 <1>  -0.2880 
 12 C       -2.0410    -1.6810    -0.9840 C.3   1 <1>  -0.1600 
 13 C        1.7720    -1.7450    -2.3460 C.2   1 <1>   0.9470 
 14 C       -3.5600    -2.3420    -0.7690 C.2   1 <1>  -0.2880 
 15 C       -0.1280    -3.6070     1.3440 C.3   1 <1>  -0.1600 
 16 O        2.3390    -0.6880    -2.6430 O.co2 1 <1>  -0.9000 
 17 O        2.3740    -2.8260    -2.3400 O.co2 1 <1>  -0.9000 
 18 C        0.8290    -4.4510     2.1930 C.3   1 <1>  -0.2400 
 19 H        1.9760    -1.3340     1.3760 H     1 <1>   0.0800 
 20 H        2.6630     0.2420     1.3430 H     1 <1>   0.0800 
 21 H        2.7750    -0.7660    -0.0410 H     1 <1>   0.0800 
 22 H       -0.7020    -0.2660     2.1570 H     1 <1>   0.0800 
 23 H       -1.3390     1.1180     1.3530 H     1 <1>   0.0800 
 24 H        0.1040     1.2520     2.2830 H     1 <1>   0.0800 
 25 H        1.4920     1.5840    -1.5950 H     1 <1>   0.0800 
 26 H        1.4250     2.4590    -0.1120 H     1 <1>   0.0800 
 27 H       -0.0070     2.2350    -1.0530 H     1 <1>   0.0800 
 28 H       -2.0650     0.1950    -1.8960 H     1 <1>   0.0800 
 29 H       -0.1910    -1.6930    -3.0330 H     1 <1>   0.1000 
 30 H       -2.1570    -3.5830    -1.8320 H     1 <1>   0.0800 
 31 H        1.4070    -3.0430    -0.0310 H     1 <1>   0.0800 
 32 H        0.4780    -4.3890    -0.5680 H     1 <1>   0.0800 
 33 H       -4.3360    -0.2370    -0.7060 H     1 <1>   0.1500 
 34 H       -2.0980    -1.6940    -2.1440 H     1 <1>   0.0800 
 35 H       -1.9170    -1.6660     0.2280 H     1 <1>   0.0800 
 36 H       -4.4030    -3.0030    -0.6650 H     1 <1>   0.1500 
 37 H       -1.0910    -4.0850     1.3210 H     1 <1>   0.0800 
 38 H       -0.2440    -2.6400     1.7990 H     1 <1>   0.0800 
 39 H        0.9500    -5.4270     1.7580 H     1 <1>   0.0800 
 40 H        0.4400    -4.5600     3.1890 H     1 <1>   0.0800 
 41 H        1.7930    -3.9760     2.2480 H     1 <1>   0.0800 
@<TRIPOS>BOND
  1   1   2  1   
  2   1   3  1   
  3   1   4  1   
  4   1   5  1   
  5   2   6  1   
  6   2   7  1   
  7   2   8  1   
  8   3  19  1   
  9   3  20  1   
 10   3  21  1   
 11   4  22  1   
 12   4  23  1   
 13   4  24  1   
 14   5  25  1   
 15   5  26  1   
 16   5  27  1   
 17   6   8  1   
 18   6   9  1   
 19   6  10  1   
 20   7  11  1   
 21   7  12  1   
 22   7  28  1   
 23   8  13  1   
 24   8  29  1   
 25   9  12  1   
 26   9  14  1   
 27   9  30  1   
 28  10  15  1   
 29  10  31  1   
 30  10  32  1   
 31  11  14  2   
 32  11  33  1   
 33  12  34  1   
 34  12  35  1   
 35  13  16  ar  
 36  13  17  ar  
 37  14  36  1   
 38  15  18  1   
 39  15  37  1   
 40  15  38  1   
 41  18  39  1   
 42  18  40  1   
 43  18  41  1   
@<TRIPOS>SUBSTRUCTURE
  1 ****   2 GROUP 4 **** **** 0

# MOE 2024.06 (io_trps.svl 2023.06)
