@<TRIPOS>MOLECULE
NONAME
34 34 1 0 0 
SMALL
USER_CHARGES


@<TRIPOS>ATOM
  1 I        0.8660     0.8680    -1.8850 I     1 <1>  -0.0810 
  2 C        2.0450     1.1910    -0.1450 C.ar  1 <1>   0.0810 
  3 C        3.3830     0.8520    -0.1830 C.ar  1 <1>  -0.1500 
  4 C        1.4420     1.7320     0.9740 C.ar  1 <1>  -0.1500 
  5 C        4.1810     1.0650     0.9400 C.ar  1 <1>   0.0860 
  6 C        2.2230     1.9350     2.0990 C.ar  1 <1>  -0.1500 
  7 C        5.5930     0.7310     0.9370 C.2   1 <1>   0.5440 
  8 C        3.5680     1.6020     2.0760 C.ar  1 <1>  -0.1500 
  9 O        6.0770     0.1910     1.9150 O.2   1 <1>  -0.5700 
 10 N        6.3980     1.0090    -0.1500 N.am  1 <1>  -0.6600 
 11 C        7.3540     0.0050    -0.6980 C.3   1 <1>   0.2200 
 12 C        6.6100     2.3920    -0.6650 C.3   1 <1>   0.2200 
 13 C        6.7090    -1.3790    -0.7870 C.3   1 <1>  -0.2400 
 14 C        8.6390    -0.0260     0.1300 C.3   1 <1>  -0.2400 
 15 C        6.3950     3.4540     0.4160 C.3   1 <1>  -0.2400 
 16 C        5.7210     2.6490    -1.8800 C.3   1 <1>  -0.2400 
 17 H        3.8140     0.4250    -1.0700 H     1 <1>   0.1500 
 18 H        0.3970     1.9860     0.9710 H     1 <1>   0.1500 
 19 H        1.7850     2.3490     2.9920 H     1 <1>   0.1500 
 20 H        4.1700     1.7550     2.9560 H     1 <1>   0.1500 
 21 H        7.6110     0.3000    -1.7020 H     1 <1>   0.0800 
 22 H        7.6360     2.4750    -0.9830 H     1 <1>   0.0800 
 23 H        6.5000    -1.7700     0.1920 H     1 <1>   0.0800 
 24 H        7.3770    -2.0590    -1.2820 H     1 <1>   0.0800 
 25 H        5.7970    -1.3270    -1.3540 H     1 <1>   0.0800 
 26 H        8.4400    -0.3750     1.1270 H     1 <1>   0.0800 
 27 H        9.0780     0.9530     0.1830 H     1 <1>   0.0800 
 28 H        9.3500    -0.6930    -0.3230 H     1 <1>   0.0800 
 29 H        5.3610     3.5270     0.6960 H     1 <1>   0.0800 
 30 H        6.7050     4.4140     0.0440 H     1 <1>   0.0800 
 31 H        6.9880     3.2230     1.2830 H     1 <1>   0.0800 
 32 H        4.6890     2.7190    -1.5940 H     1 <1>   0.0800 
 33 H        5.8400     1.8650    -2.6050 H     1 <1>   0.0800 
 34 H        6.0000     3.5800    -2.3400 H     1 <1>   0.0800 
@<TRIPOS>BOND
  1   1   2  1   
  2   2   3  ar  
  3   2   4  ar  
  4   3   5  ar  
  5   3  17  1   
  6   4   6  ar  
  7   4  18  1   
  8   5   7  1   
  9   5   8  ar  
 10   6   8  ar  
 11   6  19  1   
 12   7   9  2   
 13   7  10  am  
 14   8  20  1   
 15  10  11  1   
 16  10  12  1   
 17  11  13  1   
 18  11  14  1   
 19  11  21  1   
 20  12  15  1   
 21  12  16  1   
 22  12  22  1   
 23  13  23  1   
 24  13  24  1   
 25  13  25  1   
 26  14  26  1   
 27  14  27  1   
 28  14  28  1   
 29  15  29  1   
 30  15  30  1   
 31  15  31  1   
 32  16  32  1   
 33  16  33  1   
 34  16  34  1   
@<TRIPOS>SUBSTRUCTURE
  1 ****   5 GROUP 4 **** **** 0

# MOE 2024.06 (io_trps.svl 2023.06)
