@<TRIPOS>MOLECULE
NONAME
46 48 1 0 0 
SMALL
USER_CHARGES


@<TRIPOS>ATOM
  1 S        0.6240     0.2180    -0.2550 S.o2  1 <1>   1.3330 
  2 O       -0.3970     1.0670    -0.8200 O.2   1 <1>  -0.6500 
  3 O        1.9950     0.3400    -0.6860 O.2   1 <1>  -0.6500 
  4 N        0.1420    -1.4200    -0.5360 N.am  1 <1>  -0.6930 
  5 C        0.5750     0.3530     1.5190 C.3   1 <1>  -0.1350 
  6 C        1.0510    -2.4680    -0.4640 C.ar  1 <1>   0.1990 
  7 C       -1.3230    -1.7150    -0.6210 C.3   1 <1>   0.2570 
  8 C        1.7720    -2.8330    -1.5970 C.ar  1 <1>  -0.1500 
  9 C        1.2370    -3.1720     0.7310 C.ar  1 <1>  -0.1500 
 10 C       -1.8950    -2.3570     0.6500 C.2   1 <1>   0.5690 
 11 C        2.6420    -3.8990    -1.5040 C.ar  1 <1>   0.0830 
 12 C        2.1200    -4.2400     0.8070 C.ar  1 <1>  -0.1500 
 13 O       -2.0960    -1.6180     1.5880 O.2   1 <1>  -0.5700 
 14 N       -2.1530    -3.7090     0.7370 N.am  1 <1>  -0.6600 
 15 O        3.4190    -4.4210    -2.4600 O.3   1 <1>  -0.3630 
 16 C        2.8110    -4.5840    -0.3370 C.ar  1 <1>   0.0830 
 17 C       -1.7450    -4.6970    -0.3020 C.3   1 <1>   0.1400 
 18 C       -2.7820    -4.2600     1.9750 C.3   1 <1>   0.1400 
 19 C        4.1460    -5.4900    -1.8570 C.3   1 <1>   0.4000 
 20 O        3.7030    -5.5700    -0.5030 O.3   1 <1>  -0.3630 
 21 C       -2.8840    -4.9060    -1.3060 C.3   1 <1>  -0.1600 
 22 C       -3.7240    -5.4490     1.7330 C.3   1 <1>  -0.1600 
 23 C       -4.0370    -5.7780    -0.7850 C.3   1 <1>  -0.1600 
 24 C       -4.6660    -5.2870     0.5280 C.3   1 <1>  -0.1600 
 25 H       -0.4240     0.2100     1.8790 H     1 <1>   0.0800 
 26 H        0.9080     1.3270     1.8190 H     1 <1>   0.0800 
 27 H        1.2160    -0.3810     1.9650 H     1 <1>   0.0800 
 28 H       -1.4980    -2.3480    -1.4690 H     1 <1>   0.0800 
 29 H       -1.8720    -0.8090    -0.8000 H     1 <1>   0.0800 
 30 H        1.6580    -2.2940    -2.5190 H     1 <1>   0.1500 
 31 H        0.6820    -2.8820     1.6050 H     1 <1>   0.1500 
 32 H        2.2700    -4.7900     1.7190 H     1 <1>   0.1500 
 33 H       -1.4740    -5.6310     0.1600 H     1 <1>   0.0800 
 34 H       -0.8730    -4.3440    -0.8220 H     1 <1>   0.0800 
 35 H       -3.3530    -3.4820     2.4520 H     1 <1>   0.0800 
 36 H       -2.0040    -4.5530     2.6590 H     1 <1>   0.0800 
 37 H        5.1980    -5.2670    -1.8790 H     1 <1>   0.0800 
 38 H        3.9230    -6.4110    -2.3650 H     1 <1>   0.0800 
 39 H       -2.4760    -5.3870    -2.1780 H     1 <1>   0.0800 
 40 H       -3.2680    -3.9520    -1.6200 H     1 <1>   0.0800 
 41 H       -4.3230    -5.5600     2.6190 H     1 <1>   0.0800 
 42 H       -3.1520    -6.3550     1.6400 H     1 <1>   0.0800 
 43 H       -3.6880    -6.7880    -0.6540 H     1 <1>   0.0800 
 44 H       -4.8040    -5.8060    -1.5400 H     1 <1>   0.0800 
 45 H       -4.9830    -4.2620     0.4340 H     1 <1>   0.0800 
 46 H       -5.5470    -5.8800     0.7090 H     1 <1>   0.0800 
@<TRIPOS>BOND
  1   1   2  2   
  2   1   3  2   
  3   1   4  am  
  4   1   5  1   
  5   4   6  1   
  6   4   7  1   
  7   5  25  1   
  8   5  26  1   
  9   5  27  1   
 10   6   8  ar  
 11   6   9  ar  
 12   7  10  1   
 13   7  28  1   
 14   7  29  1   
 15   8  11  ar  
 16   8  30  1   
 17   9  12  ar  
 18   9  31  1   
 19  10  13  2   
 20  10  14  am  
 21  11  15  1   
 22  11  16  ar  
 23  12  16  ar  
 24  12  32  1   
 25  14  17  1   
 26  14  18  1   
 27  15  19  1   
 28  16  20  1   
 29  17  21  1   
 30  17  33  1   
 31  17  34  1   
 32  18  22  1   
 33  18  35  1   
 34  18  36  1   
 35  19  20  1   
 36  19  37  1   
 37  19  38  1   
 38  21  23  1   
 39  21  39  1   
 40  21  40  1   
 41  22  24  1   
 42  22  41  1   
 43  22  42  1   
 44  23  24  1   
 45  23  43  1   
 46  23  44  1   
 47  24  45  1   
 48  24  46  1   
@<TRIPOS>SUBSTRUCTURE
  1 ****   6 GROUP 4 **** **** 0

# MOE 2024.06 (io_trps.svl 2023.06)
