@<TRIPOS>MOLECULE
NONAME
51 54 1 0 0 
SMALL
USER_CHARGES


@<TRIPOS>ATOM
  1 O       -7.7370    -0.1490    -0.6690 O.3   1 <1>  -0.5640 
  2 C       -8.1270     0.4590     0.5270 C.3   1 <1>   0.1130 
  3 C       -7.5930     0.7240    -1.7500 C.3   1 <1>   0.1130 
  4 C       -7.1440     1.5800     0.9120 C.3   1 <1>   0.1030 
  5 C       -6.6020     1.8530    -1.4080 C.3   1 <1>   0.1030 
  6 N       -7.0170     2.5710    -0.1790 N.3   1 <1>  -0.8130 
  7 C       -6.0520     3.6270     0.1900 C.3   1 <1>   0.1030 
  8 C       -6.2510     4.9200    -0.6260 C.3   1 <1>   0.1610 
  9 N       -7.5040     5.6630    -0.2680 N.pl3 1 <1>  -0.5710 
 10 C       -8.7430     5.1720    -0.4070 C.cat 1 <1>   1.0690 
 11 C       -7.6750     6.9820     0.1780 C.2   1 <1>   0.1580 
 12 N       -9.2800     4.0070    -0.7490 N.pl3 1 <1>  -0.7030 
 13 N       -9.6750     6.0650    -0.1000 N.pl3 1 <1>  -0.6330 
 14 C       -9.0070     7.2100     0.2760 C.2   1 <1>   0.2230 
 15 C       -6.5560     7.9970     0.5080 C.3   1 <1>   0.1310 
 16 C      -10.6480     4.1270    -0.6240 C.ar  1 <1>   0.3030 
 17 C      -10.9080     5.4300    -0.2230 C.ar  1 <1>   0.3030 
 18 C       -5.7360     8.3460    -0.7460 C.3   1 <1>  -0.2460 
 19 C       -7.1630     9.3170     1.0220 C.3   1 <1>  -0.2460 
 20 C       -5.6390     7.4680     1.6240 C.3   1 <1>  -0.2460 
 21 C      -11.6840     3.2200    -0.8130 C.ar  1 <1>  -0.1160 
 22 C      -12.2090     5.8630    -0.0100 C.ar  1 <1>  -0.1160 
 23 C      -12.9800     3.6500    -0.6000 C.ar  1 <1>  -0.1570 
 24 C      -13.2420     4.9630    -0.2020 C.ar  1 <1>  -0.1570 
 25 H       -8.1410    -0.3010     1.2890 H     1 <1>   0.0730 
 26 H       -9.1230     0.8460     0.4070 H     1 <1>   0.0730 
 27 H       -8.5600     1.1220    -2.0010 H     1 <1>   0.0730 
 28 H       -7.2290     0.1500    -2.5840 H     1 <1>   0.0730 
 29 H       -6.1840     1.1420     1.1300 H     1 <1>   0.0730 
 30 H       -7.5000     2.0650     1.8050 H     1 <1>   0.0730 
 31 H       -6.5530     2.5340    -2.2390 H     1 <1>   0.0730 
 32 H       -5.6240     1.4210    -1.2730 H     1 <1>   0.0730 
 33 H       -5.0500     3.2610     0.0430 H     1 <1>   0.0730 
 34 H       -6.1530     3.8720     1.2340 H     1 <1>   0.0730 
 35 H       -6.2620     4.6890    -1.6760 H     1 <1>   0.0730 
 36 H       -5.3960     5.5390    -0.4560 H     1 <1>   0.0730 
 37 H       -8.6720     3.1700    -0.7430 H     1 <1>   0.4450 
 38 H       -9.5360     8.0960     0.5870 H     1 <1>   0.1430 
 39 H       -6.3790     8.7270    -1.5200 H     1 <1>   0.0730 
 40 H       -5.2090     7.5000    -1.1390 H     1 <1>   0.0730 
 41 H       -5.0060     9.1030    -0.5170 H     1 <1>   0.0730 
 42 H       -6.3840    10.0230     1.2590 H     1 <1>   0.0730 
 43 H       -7.7380     9.1550     1.9180 H     1 <1>   0.0730 
 44 H       -7.7950     9.7690     0.2780 H     1 <1>   0.0730 
 45 H       -4.9120     8.2140     1.8960 H     1 <1>   0.0730 
 46 H       -5.1010     6.5900     1.3290 H     1 <1>   0.0730 
 47 H       -6.2150     7.2290     2.5000 H     1 <1>   0.0730 
 48 H      -11.4720     2.2100    -1.1190 H     1 <1>   0.1430 
 49 H      -12.4010     6.8760     0.2980 H     1 <1>   0.1430 
 50 H      -13.8040     2.9680    -0.7400 H     1 <1>   0.1430 
 51 H      -14.2630     5.2720    -0.0440 H     1 <1>   0.1430 
@<TRIPOS>BOND
  1   1   2  1   
  2   1   3  1   
  3   2   4  1   
  4   2  25  1   
  5   2  26  1   
  6   3   5  1   
  7   3  27  1   
  8   3  28  1   
  9   4   6  1   
 10   4  29  1   
 11   4  30  1   
 12   5   6  1   
 13   5  31  1   
 14   5  32  1   
 15   6   7  1   
 16   7   8  1   
 17   7  33  1   
 18   7  34  1   
 19   8   9  1   
 20   8  35  1   
 21   8  36  1   
 22   9  10  ar  
 23   9  11  1   
 24  10  12  ar  
 25  10  13  ar  
 26  11  14  2   
 27  11  15  1   
 28  12  16  1   
 29  12  37  1   
 30  13  14  1   
 31  13  17  1   
 32  14  38  1   
 33  15  18  1   
 34  15  19  1   
 35  15  20  1   
 36  16  17  ar  
 37  16  21  ar  
 38  17  22  ar  
 39  18  39  1   
 40  18  40  1   
 41  18  41  1   
 42  19  42  1   
 43  19  43  1   
 44  19  44  1   
 45  20  45  1   
 46  20  46  1   
 47  20  47  1   
 48  21  23  ar  
 49  21  48  1   
 50  22  24  ar  
 51  22  49  1   
 52  23  24  ar  
 53  23  50  1   
 54  24  51  1   
@<TRIPOS>SUBSTRUCTURE
  1 ****  10 GROUP 4 **** **** 0

# MOE 2024.06 (io_trps.svl 2023.06)
