@<TRIPOS>MOLECULE
NONAME
38 40 1 0 0 
SMALL
USER_CHARGES


@<TRIPOS>ATOM
  1 O        0.7120    -0.7650    -0.1300 O.2   1 <1>  -0.5700 
  2 C        0.4180    -1.9040     0.1240 C.2   1 <1>   0.5690 
  3 N        1.2040    -2.7700     0.8090 N.am  1 <1>  -0.4200 
  4 C       -0.8750    -2.5780    -0.3120 C.3   1 <1>  -0.0190 
  5 C        0.6300    -3.9890     0.9300 C.2   1 <1>   0.5690 
  6 C        2.5520    -2.4420     1.3130 C.3   1 <1>   0.3200 
  7 C       -2.1590    -1.8620     0.1710 C.3   1 <1>   0.0630 
  8 C       -0.7260    -4.0070     0.2700 C.3   1 <1>  -0.0990 
  9 O        1.1060    -4.9400     1.4900 O.2   1 <1>  -0.5700 
 10 C        3.6230    -2.7310     0.2730 C.2   1 <1>  -0.0400 
 11 C       -3.3910    -2.7350    -0.0640 C.ar  1 <1>  -0.1440 
 12 C       -2.3790    -0.4980    -0.5020 C.3   1 <1>  -0.2400 
 13 O        4.8770    -2.4670     0.5900 O.3   1 <1>  -0.2800 
 14 C        3.5540    -3.2310    -0.9820 C.2   1 <1>  -0.1500 
 15 C       -3.7460    -3.1460    -1.3430 C.ar  1 <1>  -0.1500 
 16 C       -4.1730    -3.1360     1.0100 C.ar  1 <1>  -0.1500 
 17 C        5.6290    -2.7890    -0.4430 C.2   1 <1>  -0.0100 
 18 C        4.8720    -3.2690    -1.4520 C.2   1 <1>  -0.1500 
 19 C       -4.8560    -3.9480    -1.5420 C.ar  1 <1>  -0.1500 
 20 C       -5.2830    -3.9380     0.8130 C.ar  1 <1>  -0.1500 
 21 C       -5.6250    -4.3460    -0.4630 C.ar  1 <1>  -0.1500 
 22 H       -0.8720    -2.6310    -1.3850 H     1 <1>   0.0800 
 23 H        2.7540    -3.0220     2.1970 H     1 <1>   0.0800 
 24 H        2.5910    -1.4000     1.5770 H     1 <1>   0.0800 
 25 H       -2.0620    -1.6860     1.2300 H     1 <1>   0.0800 
 26 H       -0.7510    -4.7520    -0.5040 H     1 <1>   0.0800 
 27 H       -1.4670    -4.2370     1.0130 H     1 <1>   0.0800 
 28 H       -2.3700    -0.5910    -1.5730 H     1 <1>   0.0800 
 29 H       -1.6180     0.2040    -0.2120 H     1 <1>   0.0800 
 30 H       -3.3300    -0.0940    -0.2040 H     1 <1>   0.0800 
 31 H        2.6900    -3.5470    -1.5390 H     1 <1>   0.1500 
 32 H       -3.1630    -2.8420    -2.1940 H     1 <1>   0.1500 
 33 H       -3.9250    -2.8270     2.0110 H     1 <1>   0.1500 
 34 H        6.6930    -2.6440    -0.3760 H     1 <1>   0.1500 
 35 H        5.1820    -3.6150    -2.4220 H     1 <1>   0.1500 
 36 H       -5.1230    -4.2610    -2.5360 H     1 <1>   0.1500 
 37 H       -5.8820    -4.2440     1.6530 H     1 <1>   0.1500 
 38 H       -6.4880    -4.9700    -0.6170 H     1 <1>   0.1500 
@<TRIPOS>BOND
  1   1   2  2   
  2   2   3  am  
  3   2   4  1   
  4   3   5  am  
  5   3   6  1   
  6   4   7  1   
  7   4   8  1   
  8   4  22  1   
  9   5   8  1   
 10   5   9  2   
 11   6  10  1   
 12   6  23  1   
 13   6  24  1   
 14   7  11  1   
 15   7  12  1   
 16   7  25  1   
 17   8  26  1   
 18   8  27  1   
 19  10  13  1   
 20  10  14  2   
 21  11  15  ar  
 22  11  16  ar  
 23  12  28  1   
 24  12  29  1   
 25  12  30  1   
 26  13  17  1   
 27  14  18  1   
 28  14  31  1   
 29  15  19  ar  
 30  15  32  1   
 31  16  20  ar  
 32  16  33  1   
 33  17  18  2   
 34  17  34  1   
 35  18  35  1   
 36  19  21  ar  
 37  19  36  1   
 38  20  21  ar  
 39  20  37  1   
 40  21  38  1   
@<TRIPOS>SUBSTRUCTURE
  1 ****   4 GROUP 4 **** **** 0

# MOE 2024.06 (io_trps.svl 2023.06)
