@<TRIPOS>MOLECULE
NONAME
41 43 1 0 0 
SMALL
USER_CHARGES


@<TRIPOS>ATOM
  1 CL      -3.0180     0.9160     3.2500 Cl    1 <1>  -0.1770 
  2 C       -3.3370    -0.3200     2.0500 C.ar  1 <1>   0.1770 
  3 C       -2.6000    -1.4960     2.0440 C.ar  1 <1>   0.0830 
  4 C       -4.3300    -0.0910     1.1250 C.ar  1 <1>  -0.1500 
  5 O       -1.6380    -1.6580     2.9890 O.3   1 <1>  -0.3630 
  6 C       -2.8870    -2.4440     1.0700 C.ar  1 <1>  -0.1500 
  7 C       -4.6470    -1.0300     0.1390 C.ar  1 <1>   0.0860 
  8 C       -0.8240    -2.8090     3.0490 C.3   1 <1>   0.0400 
  9 C       -3.8880    -2.2190     0.1250 C.ar  1 <1>   0.0830 
 10 C       -5.7210    -0.7090    -0.7840 C.2   1 <1>   0.3030 
 11 O       -4.1500    -3.1390    -0.8400 O.3   1 <1>  -0.3630 
 12 N       -6.1880     0.4530    -1.0010 N.2   1 <1>  -0.5130 
 13 C       -6.4710    -1.7380    -1.5930 C.3   1 <1>  -0.0990 
 14 C       -3.4070    -4.3300    -1.0050 C.3   1 <1>   0.0400 
 15 O       -7.1780     0.4230    -1.8650 O.3   1 <1>  -0.2170 
 16 C       -7.6150    -0.8940    -2.1370 C.3   1 <1>   0.2610 
 17 C       -8.9360    -1.1570    -1.4150 C.2   1 <1>   0.5690 
 18 O       -9.6230    -2.0790    -1.7900 O.2   1 <1>  -0.5700 
 19 N       -9.2710    -0.3590    -0.3620 N.am  1 <1>  -0.4930 
 20 C      -10.3750    -0.3900     0.4870 C.2   1 <1>   0.3520 
 21 N      -10.4990     0.4410     1.4620 N.2   1 <1>  -0.4100 
 22 C      -11.4640    -1.2620     0.4410 C.2   1 <1>  -0.1500 
 23 O      -11.6290     0.1410     2.0510 O.3   1 <1>  -0.0190 
 24 C      -12.2260    -0.8660     1.4690 C.2   1 <1>  -0.0400 
 25 C      -13.5510    -1.3700     2.0000 C.3   1 <1>  -0.0600 
 26 H       -4.8700     0.8390     1.1760 H     1 <1>   0.1500 
 27 H       -2.3240    -3.3540     1.0520 H     1 <1>   0.1500 
 28 H       -0.1420    -2.6900     3.8730 H     1 <1>   0.0800 
 29 H       -0.2720    -2.8960     2.1300 H     1 <1>   0.0800 
 30 H       -1.4460    -3.6700     3.2130 H     1 <1>   0.0800 
 31 H       -6.8210    -2.5580    -0.9920 H     1 <1>   0.0800 
 32 H       -5.8680    -2.1010    -2.4040 H     1 <1>   0.0800 
 33 H       -3.8000    -4.8540    -1.8570 H     1 <1>   0.0800 
 34 H       -3.5170    -4.9370    -0.1240 H     1 <1>   0.0800 
 35 H       -2.3750    -4.0790    -1.1770 H     1 <1>   0.0800 
 36 H       -7.7340    -1.0040    -3.1990 H     1 <1>   0.0800 
 37 H       -8.6090     0.3940    -0.1550 H     1 <1>   0.3700 
 38 H      -11.6160    -2.0510    -0.2690 H     1 <1>   0.1500 
 39 H      -13.8980    -2.1970     1.4070 H     1 <1>   0.0800 
 40 H      -14.2810    -0.5820     1.9640 H     1 <1>   0.0800 
 41 H      -13.4360    -1.6930     3.0190 H     1 <1>   0.0800 
@<TRIPOS>BOND
  1   1   2  1   
  2   2   3  ar  
  3   2   4  ar  
  4   3   5  1   
  5   3   6  ar  
  6   4   7  ar  
  7   4  26  1   
  8   5   8  1   
  9   6   9  ar  
 10   6  27  1   
 11   7   9  ar  
 12   7  10  1   
 13   8  28  1   
 14   8  29  1   
 15   8  30  1   
 16   9  11  1   
 17  10  12  2   
 18  10  13  1   
 19  11  14  1   
 20  12  15  1   
 21  13  16  1   
 22  13  31  1   
 23  13  32  1   
 24  14  33  1   
 25  14  34  1   
 26  14  35  1   
 27  15  16  1   
 28  16  17  1   
 29  16  36  1   
 30  17  18  2   
 31  17  19  am  
 32  19  20  1   
 33  19  37  1   
 34  20  21  2   
 35  20  22  1   
 36  21  23  1   
 37  22  24  2   
 38  22  38  1   
 39  23  24  1   
 40  24  25  1   
 41  25  39  1   
 42  25  40  1   
 43  25  41  1   
@<TRIPOS>SUBSTRUCTURE
  1 ****  10 GROUP 4 **** **** 0

# MOE 2024.06 (io_trps.svl 2023.06)
