@<TRIPOS>MOLECULE
NONAME
40 40 1 0 0 
SMALL
USER_CHARGES


@<TRIPOS>ATOM
  1 S       -0.3430     0.2370     1.3490 S.o2  1 <1>   1.4470 
  2 O       -1.0970     1.2670     2.0270 O.2   1 <1>  -0.6500 
  3 O       -0.2440    -1.0880     1.9140 O.2   1 <1>  -0.6500 
  4 N       -0.9790    -0.0240    -0.1840 N.am  1 <1>  -0.9140 
  5 C        1.3180     0.8650     0.9730 C.ar  1 <1>  -0.0090 
  6 C       -2.4180     0.0090    -0.3830 C.3   1 <1>   0.2760 
  7 C        2.3290     0.0140     0.5560 C.ar  1 <1>  -0.1500 
  8 C        1.6160     2.2170     1.0640 C.ar  1 <1>  -0.1500 
  9 C       -2.9410     1.4540    -0.4110 C.3   1 <1>  -0.1600 
 10 C       -3.1490    -0.8940     0.6120 C.3   1 <1>  -0.2400 
 11 C        3.6180     0.4440     0.2240 C.ar  1 <1>   0.0860 
 12 C        2.8750     2.6910     0.7540 C.ar  1 <1>  -0.1500 
 13 C       -4.3260     1.5750    -1.0650 C.3   1 <1>  -0.2400 
 14 C        3.8800     1.8230     0.3340 C.ar  1 <1>   0.0830 
 15 C        4.5910    -0.5500    -0.2130 C.2   1 <1>   0.5440 
 16 O        5.1160     2.2910     0.0210 O.3   1 <1>  -0.3630 
 17 O        4.2170    -1.6370    -0.6120 O.2   1 <1>  -0.5700 
 18 N        5.9360    -0.3140    -0.1800 N.am  1 <1>  -0.7300 
 19 C        5.4450     3.6640     0.0020 C.3   1 <1>   0.0400 
 20 C        7.0100    -1.2500    -0.5970 C.3   1 <1>   0.0600 
 21 H       -0.6910    -0.9800    -0.3810 H     1 <1>   0.4200 
 22 H       -2.5910    -0.3980    -1.3670 H     1 <1>   0.0800 
 23 H        2.1080    -1.0390     0.4850 H     1 <1>   0.1500 
 24 H        0.8490     2.9050     1.3820 H     1 <1>   0.1500 
 25 H       -2.2510     2.0620    -0.9690 H     1 <1>   0.0800 
 26 H       -3.0050     1.8500     0.5870 H     1 <1>   0.0800 
 27 H       -3.1390    -0.4720     1.6010 H     1 <1>   0.0800 
 28 H       -2.7020    -1.8720     0.6370 H     1 <1>   0.0800 
 29 H       -4.1760    -1.0080     0.3160 H     1 <1>   0.0800 
 30 H        3.0480     3.7460     0.8480 H     1 <1>   0.1500 
 31 H       -4.3060     1.1900    -2.0690 H     1 <1>   0.0800 
 32 H       -4.6200     2.6090    -1.1040 H     1 <1>   0.0800 
 33 H       -5.0660     1.0380    -0.4980 H     1 <1>   0.0800 
 34 H        6.2210     0.6480     0.0380 H     1 <1>   0.3700 
 35 H        6.4660     3.7600    -0.3210 H     1 <1>   0.0800 
 36 H        5.3380     4.0650     0.9950 H     1 <1>   0.0800 
 37 H        4.7950     4.1710    -0.6900 H     1 <1>   0.0800 
 38 H        6.6020    -2.2270    -0.7900 H     1 <1>   0.0800 
 39 H        7.7460    -1.3290     0.1850 H     1 <1>   0.0800 
 40 H        7.4800    -0.8860    -1.4940 H     1 <1>   0.0800 
@<TRIPOS>BOND
  1   1   2  2   
  2   1   3  2   
  3   1   4  am  
  4   1   5  1   
  5   4   6  1   
  6   4  21  1   
  7   5   7  ar  
  8   5   8  ar  
  9   6   9  1   
 10   6  10  1   
 11   6  22  1   
 12   7  11  ar  
 13   7  23  1   
 14   8  12  ar  
 15   8  24  1   
 16   9  13  1   
 17   9  25  1   
 18   9  26  1   
 19  10  27  1   
 20  10  28  1   
 21  10  29  1   
 22  11  14  ar  
 23  11  15  1   
 24  12  14  ar  
 25  12  30  1   
 26  13  31  1   
 27  13  32  1   
 28  13  33  1   
 29  14  16  1   
 30  15  17  2   
 31  15  18  am  
 32  16  19  1   
 33  18  20  1   
 34  18  34  1   
 35  19  35  1   
 36  19  36  1   
 37  19  37  1   
 38  20  38  1   
 39  20  39  1   
 40  20  40  1   
@<TRIPOS>SUBSTRUCTURE
  1 ****   5 GROUP 4 **** **** 0

# MOE 2024.06 (io_trps.svl 2023.06)
