@<TRIPOS>MOLECULE
NONAME
70 71 1 0 0 
SMALL
USER_CHARGES


@<TRIPOS>ATOM
  1 O       -2.3580    -1.8200    -1.8230 O.2   1 <1>  -0.5700 
  2 C       -1.3070    -1.2770    -1.5490 C.2   1 <1>   0.6160 
  3 N       -1.3550    -0.0620    -0.9480 N.am  1 <1>  -0.7300 
  4 C       -0.0680    -1.9380    -1.8570 C.2   1 <1>  -0.1360 
  5 C       -2.5800     0.6830    -0.6520 C.3   1 <1>   0.2200 
  6 C        1.2400    -1.6180    -1.6830 C.2   1 <1>  -0.1360 
  7 C       -2.2750     2.1750    -0.6760 C.3   1 <1>  -0.1600 
  8 C       -3.0770     0.2800     0.7320 C.3   1 <1>  -0.1600 
  9 C        1.9090    -0.4760    -1.1170 C.2   1 <1>   0.6160 
 10 C       -3.5020     3.0170    -0.3030 C.3   1 <1>   0.5030 
 11 C       -4.3300     1.0600     1.1420 C.3   1 <1>   0.5030 
 12 O        1.3080     0.4810    -0.6690 O.2   1 <1>  -0.5700 
 13 N        3.2720    -0.4500    -1.0820 N.am  1 <1>  -0.7300 
 14 N       -4.1550     2.5050     0.9150 N.4   1 <1>  -0.9060 
 15 C       -4.5160     3.1000    -1.4480 C.3   1 <1>  -0.2400 
 16 C       -3.0580     4.4380     0.0390 C.3   1 <1>  -0.2400 
 17 C       -5.5840     0.5580     0.4190 C.3   1 <1>  -0.2400 
 18 C       -4.5570     0.9060     2.6450 C.3   1 <1>  -0.2400 
 19 C        4.0660     0.6490    -0.5080 C.3   1 <1>   0.2200 
 20 C        4.4890     1.5930    -1.6280 C.3   1 <1>  -0.1600 
 21 C        5.3040     0.0810     0.1780 C.3   1 <1>  -0.1600 
 22 C        5.3550     2.7480    -1.1100 C.3   1 <1>   0.5030 
 23 C        6.1960     1.1890     0.7560 C.3   1 <1>   0.5030 
 24 N        6.4290     2.2580    -0.2300 N.4   1 <1>  -0.9060 
 25 C        4.5240     3.8090    -0.3820 C.3   1 <1>  -0.2400 
 26 C        6.0610     3.4230    -2.2840 C.3   1 <1>  -0.2400 
 27 C        5.6160     1.7820     2.0430 C.3   1 <1>  -0.2400 
 28 C        7.5760     0.6180     1.0760 C.3   1 <1>  -0.2400 
 29 H       -0.4570     0.3810    -0.7060 H     1 <1>   0.3700 
 30 H       -0.2730    -2.8850    -2.3220 H     1 <1>   0.1500 
 31 H       -3.3180     0.4400    -1.3990 H     1 <1>   0.0800 
 32 H        1.9460    -2.3480    -2.0290 H     1 <1>   0.1500 
 33 H       -1.9370     2.4520    -1.6600 H     1 <1>   0.0800 
 34 H       -1.4740     2.3800     0.0110 H     1 <1>   0.0800 
 35 H       -2.2920     0.4470     1.4490 H     1 <1>   0.0800 
 36 H       -3.2970    -0.7740     0.7340 H     1 <1>   0.0800 
 37 H        3.7940    -1.2280    -1.4880 H     1 <1>   0.3700 
 38 H       -5.0690     2.9510     0.9990 H     1 <1>   0.4500 
 39 H       -3.5950     2.8450     1.6990 H     1 <1>   0.4500 
 40 H       -4.0910     3.6580    -2.2640 H     1 <1>   0.0800 
 41 H       -5.4140     3.6060    -1.1410 H     1 <1>   0.0800 
 42 H       -4.7680     2.1360    -1.8420 H     1 <1>   0.0800 
 43 H       -2.3610     4.4460     0.8590 H     1 <1>   0.0800 
 44 H       -3.8990     5.0620     0.2860 H     1 <1>   0.0800 
 45 H       -2.5630     4.8810    -0.8090 H     1 <1>   0.0800 
 46 H       -5.8160    -0.4380     0.7530 H     1 <1>   0.0800 
 47 H       -5.4470     0.4910    -0.6410 H     1 <1>   0.0800 
 48 H       -6.4350     1.1800     0.6320 H     1 <1>   0.0800 
 49 H       -3.7150     1.2680     3.2080 H     1 <1>   0.0800 
 50 H       -4.6850    -0.1350     2.8900 H     1 <1>   0.0800 
 51 H       -5.4450     1.4260     2.9610 H     1 <1>   0.0800 
 52 H        3.4610     1.1760     0.2110 H     1 <1>   0.0800 
 53 H        3.6100     1.9950    -2.1020 H     1 <1>   0.0800 
 54 H        5.0330     1.0380    -2.3720 H     1 <1>   0.0800 
 55 H        5.8660    -0.5000    -0.5310 H     1 <1>   0.0800 
 56 H        4.9990    -0.5790     0.9720 H     1 <1>   0.0800 
 57 H        6.8150     3.0630     0.2670 H     1 <1>   0.4500 
 58 H        7.1720     1.9240    -0.8470 H     1 <1>   0.4500 
 59 H        3.8700     4.2970    -1.0830 H     1 <1>   0.0800 
 60 H        5.1520     4.5650     0.0550 H     1 <1>   0.0800 
 61 H        3.8940     3.3900     0.3760 H     1 <1>   0.0800 
 62 H        6.6820     2.7290    -2.8220 H     1 <1>   0.0800 
 63 H        6.6630     4.2520    -1.9540 H     1 <1>   0.0800 
 64 H        5.3330     3.8080    -2.9780 H     1 <1>   0.0800 
 65 H        5.6320     1.0380     2.8210 H     1 <1>   0.0800 
 66 H        4.5940     2.0830     1.9350 H     1 <1>   0.0800 
 67 H        6.1980     2.6190     2.3840 H     1 <1>   0.0800 
 68 H        8.0470     0.2100     0.1990 H     1 <1>   0.0800 
 69 H        7.4850    -0.1790     1.7950 H     1 <1>   0.0800 
 70 H        8.2190     1.3680     1.5040 H     1 <1>   0.0800 
@<TRIPOS>BOND
  1   1   2  2   
  2   2   3  am  
  3   2   4  1   
  4   3   5  1   
  5   3  29  1   
  6   4   6  2   
  7   4  30  1   
  8   5   7  1   
  9   5   8  1   
 10   5  31  1   
 11   6   9  1   
 12   6  32  1   
 13   7  10  1   
 14   7  33  1   
 15   7  34  1   
 16   8  11  1   
 17   8  35  1   
 18   8  36  1   
 19   9  12  2   
 20   9  13  am  
 21  10  14  1   
 22  10  15  1   
 23  10  16  1   
 24  11  14  1   
 25  11  17  1   
 26  11  18  1   
 27  13  19  1   
 28  13  37  1   
 29  14  38  1   
 30  14  39  1   
 31  15  40  1   
 32  15  41  1   
 33  15  42  1   
 34  16  43  1   
 35  16  44  1   
 36  16  45  1   
 37  17  46  1   
 38  17  47  1   
 39  17  48  1   
 40  18  49  1   
 41  18  50  1   
 42  18  51  1   
 43  19  20  1   
 44  19  21  1   
 45  19  52  1   
 46  20  22  1   
 47  20  53  1   
 48  20  54  1   
 49  21  23  1   
 50  21  55  1   
 51  21  56  1   
 52  22  24  1   
 53  22  25  1   
 54  22  26  1   
 55  23  24  1   
 56  23  27  1   
 57  23  28  1   
 58  24  57  1   
 59  24  58  1   
 60  25  59  1   
 61  25  60  1   
 62  25  61  1   
 63  26  62  1   
 64  26  63  1   
 65  26  64  1   
 66  27  65  1   
 67  27  66  1   
 68  27  67  1   
 69  28  68  1   
 70  28  69  1   
 71  28  70  1   
@<TRIPOS>SUBSTRUCTURE
  1 ****  12 GROUP 4 **** **** 0

# MOE 2024.06 (io_trps.svl 2023.06)
