@<TRIPOS>MOLECULE
NONAME
45 49 1 0 0 
SMALL
USER_CHARGES


@<TRIPOS>ATOM
  1 S        0.4370     0.3830    -0.7230 S.3   1 <1>  -0.4600 
  2 C       -1.2000     0.6030    -1.5160 C.3   1 <1>   0.4320 
  3 C        0.5020    -1.2970    -0.0120 C.3   1 <1>   0.1310 
  4 C       -1.9110     1.7970    -0.8850 C.ar  1 <1>  -0.1440 
  5 C       -2.0910    -0.6200    -1.4810 C.2   1 <1>  -0.1240 
  6 C       -0.5250    -1.4820     1.0960 C.2   1 <1>   0.5690 
  7 C       -1.9300     1.9920     0.4960 C.ar  1 <1>  -0.1500 
  8 C       -2.5770     2.7010    -1.7170 C.ar  1 <1>  -0.1500 
  9 C       -2.8680    -0.9540    -2.5850 C.2   1 <1>   0.6160 
 10 C       -2.3920    -1.5030    -0.4830 C.2   1 <1>   0.2090 
 11 O       -0.1710    -1.5900     2.2410 O.2   1 <1>  -0.5700 
 12 N       -1.8370    -1.5860     0.7750 N.am  1 <1>  -0.5390 
 13 C       -2.6080     3.0850     0.9950 C.ar  1 <1>   0.0830 
 14 C       -3.2530     3.7970    -1.1950 C.ar  1 <1>  -0.1500 
 15 O       -2.9550    -0.3660    -3.6710 O.2   1 <1>  -0.5700 
 16 N       -3.6110    -2.0340    -2.2670 N.am  1 <1>  -0.4100 
 17 N       -3.3480    -2.3740    -0.9000 N.pl3 1 <1>  -0.4890 
 18 O       -2.7530     3.4580     2.2710 O.3   1 <1>  -0.3630 
 19 C       -3.2500     3.9640     0.1740 C.ar  1 <1>   0.0830 
 20 C       -3.4420    -3.7920    -0.4360 C.3   1 <1>   0.2890 
 21 C       -3.5280     4.6540     2.2610 C.3   1 <1>   0.4000 
 22 O       -3.8270     4.9320     0.8950 O.3   1 <1>  -0.3630 
 23 C       -4.3650    -4.6500    -1.3010 C.3   1 <1>  -0.1600 
 24 C       -4.0390    -3.8910     0.9720 C.3   1 <1>  -0.1600 
 25 C       -4.7850    -5.7930    -0.3820 C.3   1 <1>  -0.1600 
 26 C       -4.9250    -5.1450     0.9950 C.3   1 <1>  -0.1600 
 27 H       -0.9660     0.8350    -2.5410 H     1 <1>   0.0800 
 28 H        1.4930    -1.4240     0.3850 H     1 <1>   0.0800 
 29 H        0.3420    -1.9970    -0.8100 H     1 <1>   0.0800 
 30 H       -1.4360     1.3240     1.1780 H     1 <1>   0.1500 
 31 H       -2.5770     2.5510    -2.7840 H     1 <1>   0.1500 
 32 H       -2.4540    -1.8140     1.5540 H     1 <1>   0.3700 
 33 H       -3.7660     4.4980    -1.8270 H     1 <1>   0.1500 
 34 H       -4.5660    -2.0560    -2.6360 H     1 <1>   0.3700 
 35 H       -2.4590    -4.2320    -0.4360 H     1 <1>   0.0800 
 36 H       -2.9500     5.4610     2.6750 H     1 <1>   0.0800 
 37 H       -4.4420     4.4970     2.8060 H     1 <1>   0.0800 
 38 H       -3.8660    -5.0090    -2.1840 H     1 <1>   0.0800 
 39 H       -5.2420    -4.0900    -1.5740 H     1 <1>   0.0800 
 40 H       -4.6430    -3.0260     1.1850 H     1 <1>   0.0800 
 41 H       -3.2550    -3.9720     1.7030 H     1 <1>   0.0800 
 42 H       -4.0060    -6.5360    -0.3530 H     1 <1>   0.0800 
 43 H       -5.7010    -6.2570    -0.7060 H     1 <1>   0.0800 
 44 H       -5.9500    -4.8560     1.1550 H     1 <1>   0.0800 
 45 H       -4.6320    -5.8270     1.7760 H     1 <1>   0.0800 
@<TRIPOS>BOND
  1   1   2  1   
  2   1   3  1   
  3   2   4  1   
  4   2   5  1   
  5   2  27  1   
  6   3   6  1   
  7   3  28  1   
  8   3  29  1   
  9   4   7  ar  
 10   4   8  ar  
 11   5   9  1   
 12   5  10  2   
 13   6  11  2   
 14   6  12  am  
 15   7  13  ar  
 16   7  30  1   
 17   8  14  ar  
 18   8  31  1   
 19   9  15  2   
 20   9  16  am  
 21  10  12  1   
 22  10  17  1   
 23  12  32  1   
 24  13  18  1   
 25  13  19  ar  
 26  14  19  ar  
 27  14  33  1   
 28  16  17  1   
 29  16  34  1   
 30  17  20  1   
 31  18  21  1   
 32  19  22  1   
 33  20  23  1   
 34  20  24  1   
 35  20  35  1   
 36  21  22  1   
 37  21  36  1   
 38  21  37  1   
 39  23  25  1   
 40  23  38  1   
 41  23  39  1   
 42  24  26  1   
 43  24  40  1   
 44  24  41  1   
 45  25  26  1   
 46  25  42  1   
 47  25  43  1   
 48  26  44  1   
 49  26  45  1   
@<TRIPOS>SUBSTRUCTURE
  1 ****  10 GROUP 4 **** **** 0

# MOE 2024.06 (io_trps.svl 2023.06)
