@<TRIPOS>MOLECULE
NONAME
42 43 1 0 0 
SMALL
USER_CHARGES


@<TRIPOS>ATOM
  1 P       -0.4950     0.1620    -0.1850 P.3   1 <1>   1.2420 
  2 O       -0.9280     0.4420    -1.5550 O.2   1 <1>  -0.7000 
  3 O       -0.7860    -1.3560     0.2580 O.3   1 <1>  -0.5510 
  4 O       -1.2710     1.0130     0.9430 O.3   1 <1>  -0.5510 
  5 C        1.2740     0.4460     0.1450 C.3   1 <1>   0.3440 
  6 C       -0.4540    -2.4150    -0.5570 C.3   1 <1>   0.2000 
  7 C       -2.6160     1.3560     0.9340 C.3   1 <1>   0.2000 
  8 O        1.7230     0.1130     1.4340 O.3   1 <1>  -0.6800 
  9 C        1.7540     1.8780    -0.0970 C.ar  1 <1>  -0.1440 
 10 C       -1.6830    -2.7860    -1.3840 C.3   1 <1>  -0.2400 
 11 C       -0.0290    -3.5600     0.3560 C.3   1 <1>  -0.2400 
 12 C       -3.5070     0.1400     0.6690 C.3   1 <1>  -0.2400 
 13 C       -2.8490     2.4930    -0.0590 C.3   1 <1>  -0.2400 
 14 C        1.2360     2.9410     0.6440 C.ar  1 <1>  -0.1500 
 15 C        2.7190     2.1270    -1.0760 C.ar  1 <1>  -0.1500 
 16 C        1.6980     4.2140     0.3770 C.ar  1 <1>   0.0830 
 17 C        3.1710     3.4160    -1.3290 C.ar  1 <1>  -0.1500 
 18 O        1.3380     5.3620     0.9590 O.3   1 <1>  -0.3620 
 19 C        2.6380     4.4460    -0.5820 C.ar  1 <1>   0.0830 
 20 C        2.0960     6.3930     0.3270 C.3   1 <1>   0.4000 
 21 O        2.9150     5.7520    -0.6490 O.3   1 <1>  -0.3630 
 22 H        1.8360    -0.1940    -0.5080 H     1 <1>   0.0800 
 23 H        0.3670    -2.1340    -1.1980 H     1 <1>   0.0800 
 24 H       -2.8310     1.7250     1.9220 H     1 <1>   0.0800 
 25 H        1.3310     0.7340     2.0790 H     1 <1>   0.4000 
 26 H       -2.5100    -3.0250    -0.7390 H     1 <1>   0.0800 
 27 H       -1.4670    -3.6420    -1.9970 H     1 <1>   0.0800 
 28 H       -1.9600    -1.9730    -2.0300 H     1 <1>   0.0800 
 29 H       -0.8350    -3.8330     1.0140 H     1 <1>   0.0800 
 30 H        0.8230    -3.2650     0.9420 H     1 <1>   0.0800 
 31 H        0.2420    -4.4190    -0.2310 H     1 <1>   0.0800 
 32 H       -3.3920    -0.2140    -0.3390 H     1 <1>   0.0800 
 33 H       -4.5370     0.4130     0.8080 H     1 <1>   0.0800 
 34 H       -3.2710    -0.6500     1.3600 H     1 <1>   0.0800 
 35 H       -2.7290     2.1590    -1.0730 H     1 <1>   0.0800 
 36 H       -2.1660     3.3010     0.1340 H     1 <1>   0.0800 
 37 H       -3.8510     2.8650     0.0490 H     1 <1>   0.0800 
 38 H        0.4930     2.8070     1.4090 H     1 <1>   0.1500 
 39 H        3.1290     1.3160    -1.6520 H     1 <1>   0.1500 
 40 H        3.9120     3.6190    -2.0810 H     1 <1>   0.1500 
 41 H        2.7170     6.8830     1.0550 H     1 <1>   0.0800 
 42 H        1.4290     7.0830    -0.1590 H     1 <1>   0.0800 
@<TRIPOS>BOND
  1   1   2  2   
  2   1   3  1   
  3   1   4  1   
  4   1   5  1   
  5   3   6  1   
  6   4   7  1   
  7   5   8  1   
  8   5   9  1   
  9   5  22  1   
 10   6  10  1   
 11   6  11  1   
 12   6  23  1   
 13   7  12  1   
 14   7  13  1   
 15   7  24  1   
 16   8  25  1   
 17   9  14  ar  
 18   9  15  ar  
 19  10  26  1   
 20  10  27  1   
 21  10  28  1   
 22  11  29  1   
 23  11  30  1   
 24  11  31  1   
 25  12  32  1   
 26  12  33  1   
 27  12  34  1   
 28  13  35  1   
 29  13  36  1   
 30  13  37  1   
 31  14  16  ar  
 32  14  38  1   
 33  15  17  ar  
 34  15  39  1   
 35  16  18  1   
 36  16  19  ar  
 37  17  19  ar  
 38  17  40  1   
 39  18  20  1   
 40  19  21  1   
 41  20  21  1   
 42  20  41  1   
 43  20  42  1   
@<TRIPOS>SUBSTRUCTURE
  1 ****   9 GROUP 4 **** **** 0

# MOE 2024.06 (io_trps.svl 2023.06)
