@<TRIPOS>MOLECULE
NONAME
39 40 1 0 0 
SMALL
USER_CHARGES


@<TRIPOS>ATOM
  1 N       -0.0560    -0.0200     0.2500 N.4   1 <1>  -0.9590 
  2 C        1.2150     0.7320     0.4680 C.3   1 <1>   0.4230 
  3 C       -1.2990     0.6690     0.7490 C.3   1 <1>   0.3430 
  4 C       -0.0490    -1.4430     0.7430 C.3   1 <1>   0.3430 
  5 C        1.1120     2.1400    -0.1470 C.3   1 <1>  -0.1600 
  6 C        2.3990    -0.0330    -0.1530 C.3   1 <1>  -0.1600 
  7 C       -2.5810    -0.1050     0.3520 C.3   1 <1>   0.1100 
  8 C       -1.3440    -2.1940     0.3450 C.3   1 <1>   0.1100 
  9 C        2.4330     2.9180    -0.0430 C.3   1 <1>  -0.1600 
 10 C        3.7150     0.7520    -0.0490 C.3   1 <1>  -0.1600 
 11 N       -2.2790    -1.3340    -0.4120 N.3   1 <1>  -0.8100 
 12 C        3.5930     2.1430    -0.6820 C.3   1 <1>  -0.0800 
 13 C       -3.5050    -2.0600    -0.7700 C.3   1 <1>   0.0300 
 14 C        4.9040     2.9200    -0.5230 C.3   1 <1>  -0.2400 
 15 H       -0.2210    -0.1150    -0.7630 H     1 <1>   0.4500 
 16 H        1.3940     0.8350     1.5270 H     1 <1>   0.0800 
 17 H       -1.3680     1.6590     0.3320 H     1 <1>   0.0800 
 18 H       -1.2610     0.7660     1.8210 H     1 <1>   0.0800 
 19 H        0.0580    -1.4610     1.8140 H     1 <1>   0.0800 
 20 H        0.7860    -1.9780     0.3220 H     1 <1>   0.0800 
 21 H        0.3640     2.7210     0.3600 H     1 <1>   0.0800 
 22 H        0.8420     2.0610    -1.1860 H     1 <1>   0.0800 
 23 H        2.1970    -0.2270    -1.1920 H     1 <1>   0.0800 
 24 H        2.5500    -0.9690     0.3500 H     1 <1>   0.0800 
 25 H       -3.2040     0.5400    -0.2460 H     1 <1>   0.0800 
 26 H       -3.1340    -0.3520     1.2430 H     1 <1>   0.0800 
 27 H       -1.8240    -2.5650     1.2360 H     1 <1>   0.0800 
 28 H       -1.0790    -3.0470    -0.2570 H     1 <1>   0.0800 
 29 H        2.6560     3.1110     0.9930 H     1 <1>   0.0800 
 30 H        2.3250     3.8700    -0.5360 H     1 <1>   0.0800 
 31 H        4.4980     0.2010    -0.5450 H     1 <1>   0.0800 
 32 H        3.9940     0.8500     0.9870 H     1 <1>   0.0800 
 33 H        3.3970     2.0300    -1.7360 H     1 <1>   0.0800 
 34 H       -4.1500    -1.4260    -1.3560 H     1 <1>   0.0800 
 35 H       -4.0350    -2.3760     0.1140 H     1 <1>   0.0800 
 36 H       -3.2620    -2.9270    -1.3600 H     1 <1>   0.0800 
 37 H        5.1450     3.0600     0.5160 H     1 <1>   0.0800 
 38 H        4.8250     3.8860    -0.9890 H     1 <1>   0.0800 
 39 H        5.7130     2.3870    -0.9930 H     1 <1>   0.0800 
@<TRIPOS>BOND
  1   1   2  1   
  2   1   3  1   
  3   1   4  1   
  4   1  15  1   
  5   2   5  1   
  6   2   6  1   
  7   2  16  1   
  8   3   7  1   
  9   3  17  1   
 10   3  18  1   
 11   4   8  1   
 12   4  19  1   
 13   4  20  1   
 14   5   9  1   
 15   5  21  1   
 16   5  22  1   
 17   6  10  1   
 18   6  23  1   
 19   6  24  1   
 20   7  11  1   
 21   7  25  1   
 22   7  26  1   
 23   8  11  1   
 24   8  27  1   
 25   8  28  1   
 26   9  12  1   
 27   9  29  1   
 28   9  30  1   
 29  10  12  1   
 30  10  31  1   
 31  10  32  1   
 32  11  13  1   
 33  12  14  1   
 34  12  33  1   
 35  13  34  1   
 36  13  35  1   
 37  13  36  1   
 38  14  37  1   
 39  14  38  1   
 40  14  39  1   
@<TRIPOS>SUBSTRUCTURE
  1 ****   1 GROUP 4 **** **** 0

# MOE 2024.06 (io_trps.svl 2023.06)
