@<TRIPOS>MOLECULE
NONAME
42 44 1 0 0 
SMALL
USER_CHARGES


@<TRIPOS>ATOM
  1 O       -0.3030    -0.8150     1.5430 O.2   1 <1>  -0.5700 
  2 C       -0.7040    -1.6390     0.7560 C.2   1 <1>   0.4950 
  3 C       -2.0780    -1.7870     0.3920 C.2   1 <1>   0.0290 
  4 C        0.3360    -2.5800     0.1700 C.3   1 <1>  -0.0990 
  5 C       -2.3210    -2.5690    -0.7820 C.2   1 <1>   0.4950 
  6 C       -3.0600    -1.1820     1.1450 C.2   1 <1>  -0.0500 
  7 C       -0.2570    -3.9640    -0.1500 C.3   1 <1>   0.0000 
  8 O       -3.1360    -2.2810    -1.6270 O.2   1 <1>  -0.5700 
  9 C       -1.4590    -3.7810    -1.0980 C.3   1 <1>  -0.0990 
 10 N       -4.4080    -1.4120     1.1410 N.pl3 1 <1>  -0.6000 
 11 C       -0.6970    -4.6790     1.1420 C.3   1 <1>  -0.2400 
 12 C        0.8090    -4.8350    -0.8320 C.3   1 <1>  -0.2400 
 13 C       -5.0740    -2.5580     0.6920 C.ar  1 <1>   0.1000 
 14 C       -4.7110    -3.8130     1.1720 C.ar  1 <1>  -0.1500 
 15 C       -6.1090    -2.4560    -0.2310 C.ar  1 <1>  -0.1500 
 16 C       -5.3740    -4.9360     0.7170 C.ar  1 <1>  -0.1430 
 17 C       -6.7730    -3.5860    -0.6800 C.ar  1 <1>  -0.1500 
 18 C       -6.3910    -4.8240    -0.1970 C.ar  1 <1>  -0.1430 
 19 C       -5.1360    -6.3750     1.1000 C.3   1 <1>  -0.0170 
 20 C       -6.9640    -6.1740    -0.5480 C.3   1 <1>  -0.0170 
 21 C       -5.9450    -7.1600     0.0520 C.3   1 <1>  -0.1600 
 22 H        0.7320    -2.1270    -0.7220 H     1 <1>   0.0800 
 23 H        1.1460    -2.6840     0.8700 H     1 <1>   0.0800 
 24 H       -2.7420    -0.4380     1.8600 H     1 <1>   0.1500 
 25 H       -2.0820    -4.6570    -1.0930 H     1 <1>   0.0800 
 26 H       -1.1030    -3.6520    -2.1050 H     1 <1>   0.0800 
 27 H       -5.0250    -0.7330     1.6010 H     1 <1>   0.4000 
 28 H        0.1370    -4.7920     1.8120 H     1 <1>   0.0800 
 29 H       -1.0790    -5.6600     0.9180 H     1 <1>   0.0800 
 30 H       -1.4680    -4.1380     1.6610 H     1 <1>   0.0800 
 31 H        1.1650    -4.3710    -1.7360 H     1 <1>   0.0800 
 32 H        0.4050    -5.7990    -1.0870 H     1 <1>   0.0800 
 33 H        1.6510    -4.9850    -0.1790 H     1 <1>   0.0800 
 34 H       -3.9230    -3.8990     1.8940 H     1 <1>   0.1500 
 35 H       -6.3810    -1.4880    -0.6080 H     1 <1>   0.1500 
 36 H       -7.5680    -3.5020    -1.3990 H     1 <1>   0.1500 
 37 H       -4.0910    -6.6270     1.0630 H     1 <1>   0.0800 
 38 H       -5.5230    -6.5500     2.0880 H     1 <1>   0.0800 
 39 H       -7.9250    -6.2880    -0.0800 H     1 <1>   0.0800 
 40 H       -7.0560    -6.2990    -1.6120 H     1 <1>   0.0800 
 41 H       -5.2780    -7.4820    -0.7280 H     1 <1>   0.0800 
 42 H       -6.4260    -8.0210     0.4800 H     1 <1>   0.0800 
@<TRIPOS>BOND
  1   1   2  2   
  2   2   3  1   
  3   2   4  1   
  4   3   5  1   
  5   3   6  2   
  6   4   7  1   
  7   4  22  1   
  8   4  23  1   
  9   5   8  2   
 10   5   9  1   
 11   6  10  1   
 12   6  24  1   
 13   7   9  1   
 14   7  11  1   
 15   7  12  1   
 16   9  25  1   
 17   9  26  1   
 18  10  13  1   
 19  10  27  1   
 20  11  28  1   
 21  11  29  1   
 22  11  30  1   
 23  12  31  1   
 24  12  32  1   
 25  12  33  1   
 26  13  14  ar  
 27  13  15  ar  
 28  14  16  ar  
 29  14  34  1   
 30  15  17  ar  
 31  15  35  1   
 32  16  18  ar  
 33  16  19  1   
 34  17  18  ar  
 35  17  36  1   
 36  18  20  1   
 37  19  21  1   
 38  19  37  1   
 39  19  38  1   
 40  20  21  1   
 41  20  39  1   
 42  20  40  1   
 43  21  41  1   
 44  21  42  1   
@<TRIPOS>SUBSTRUCTURE
  1 ****   5 GROUP 4 **** **** 0

# MOE 2024.06 (io_trps.svl 2023.06)
