@<TRIPOS>MOLECULE
NONAME
36 37 1 0 0 
SMALL
USER_CHARGES


@<TRIPOS>ATOM
  1 O        0.2040    -1.0020    -1.9520 O.2   1 <1>  -0.5700 
  2 C        0.1530    -1.9770    -1.2390 C.2   1 <1>   0.4950 
  3 C        1.2500    -2.4150    -0.4270 C.2   1 <1>   0.0290 
  4 C       -1.1670    -2.7240    -1.2650 C.3   1 <1>  -0.0990 
  5 C        1.0940    -3.6210     0.3400 C.2   1 <1>   0.4950 
  6 C        2.4110    -1.6690    -0.4120 C.2   1 <1>  -0.0500 
  7 C       -1.4070    -3.4870     0.0370 C.3   1 <1>   0.0640 
  8 O        1.9570    -4.1140     1.0320 O.2   1 <1>  -0.5700 
  9 C       -0.2120    -4.3950     0.3240 C.3   1 <1>  -0.0990 
 10 N        3.5320    -1.9400     0.2980 N.pl3 1 <1>  -0.8690 
 11 C       -2.7110    -4.2780    -0.0120 C.ar  1 <1>  -0.1430 
 12 C        4.7800    -1.1380     0.3200 C.3   1 <1>   0.2090 
 13 C       -3.7220    -3.9910     0.8950 C.ar  1 <1>  -0.1500 
 14 C       -2.9160    -5.2850    -0.9470 C.ar  1 <1>  -0.1500 
 15 C        5.9310    -1.9480    -0.2840 C.3   1 <1>   0.1200 
 16 C       -4.9130    -4.6940     0.8700 C.ar  1 <1>  -0.1500 
 17 C       -4.1070    -5.9900    -0.9730 C.ar  1 <1>  -0.1500 
 18 O        7.0770    -1.1630    -0.3520 O.3   1 <1>  -0.6800 
 19 C       -5.1070    -5.6950    -0.0650 C.ar  1 <1>  -0.1500 
 20 H       -1.1590    -3.3930    -2.1050 H     1 <1>   0.0800 
 21 H       -1.9670    -2.0210    -1.4130 H     1 <1>   0.0800 
 22 H        2.4480    -0.7760    -1.0190 H     1 <1>   0.1500 
 23 H       -1.4720    -2.7660     0.8350 H     1 <1>   0.0800 
 24 H       -0.3540    -4.8670     1.2810 H     1 <1>   0.0800 
 25 H       -0.1350    -5.1710    -0.4150 H     1 <1>   0.0800 
 26 H        3.5410    -2.7880     0.9000 H     1 <1>   0.4000 
 27 H        5.0140    -0.8770     1.3370 H     1 <1>   0.0800 
 28 H        4.6310    -0.2370    -0.2490 H     1 <1>   0.0800 
 29 H       -3.5930    -3.2160     1.6310 H     1 <1>   0.1500 
 30 H       -2.1550    -5.5340    -1.6640 H     1 <1>   0.1500 
 31 H        5.6860    -2.2750    -1.2790 H     1 <1>   0.0800 
 32 H        6.1510    -2.8000     0.3350 H     1 <1>   0.0800 
 33 H       -5.6900    -4.4640     1.5770 H     1 <1>   0.1500 
 34 H       -4.2570    -6.7680    -1.7010 H     1 <1>   0.1500 
 35 H        6.9840    -0.4710    -1.0350 H     1 <1>   0.4000 
 36 H       -6.0330    -6.2430    -0.0850 H     1 <1>   0.1500 
@<TRIPOS>BOND
  1   1   2  2   
  2   2   3  1   
  3   2   4  1   
  4   3   5  1   
  5   3   6  2   
  6   4   7  1   
  7   4  20  1   
  8   4  21  1   
  9   5   8  2   
 10   5   9  1   
 11   6  10  1   
 12   6  22  1   
 13   7   9  1   
 14   7  11  1   
 15   7  23  1   
 16   9  24  1   
 17   9  25  1   
 18  10  12  1   
 19  10  26  1   
 20  11  13  ar  
 21  11  14  ar  
 22  12  15  1   
 23  12  27  1   
 24  12  28  1   
 25  13  16  ar  
 26  13  29  1   
 27  14  17  ar  
 28  14  30  1   
 29  15  18  1   
 30  15  31  1   
 31  15  32  1   
 32  16  19  ar  
 33  16  33  1   
 34  17  19  ar  
 35  17  34  1   
 36  18  35  1   
 37  19  36  1   
@<TRIPOS>SUBSTRUCTURE
  1 ****   5 GROUP 4 **** **** 0

# MOE 2024.06 (io_trps.svl 2023.06)
