@<TRIPOS>MOLECULE
NONAME
30 30 1 0 0 
SMALL
USER_CHARGES


@<TRIPOS>ATOM
  1 CL      -0.5860    -0.2820     0.8790 Cl    1 <1>  -0.1770 
  2 C       -0.3510    -1.9320     0.3680 C.ar  1 <1>   0.1770 
  3 C        0.7070    -2.6580     0.8780 C.ar  1 <1>  -0.1500 
  4 C       -1.2250    -2.4940    -0.5420 C.ar  1 <1>  -0.1500 
  5 C        0.8870    -3.9690     0.4690 C.ar  1 <1>  -0.1500 
  6 C       -1.0340    -3.8060    -0.9430 C.ar  1 <1>  -0.1500 
  7 C        0.0210    -4.5660    -0.4440 C.ar  1 <1>  -0.0090 
  8 S        0.2720    -6.2850    -0.9730 S.o2  1 <1>   1.4470 
  9 O        1.5250    -6.3790    -1.6920 O.2   1 <1>  -0.6500 
 10 O       -0.9290    -6.8100    -1.5820 O.2   1 <1>  -0.6500 
 11 N        0.4710    -7.1210     0.4900 N.am  1 <1>  -0.8490 
 12 C        1.0660    -8.4730     0.2890 C.3   1 <1>   0.2570 
 13 C       -0.7690    -7.2140     1.2700 C.3   1 <1>   0.1160 
 14 C        2.5850    -8.5570     0.5120 C.2   1 <1>   0.5690 
 15 O        2.9990    -9.2970     1.3740 O.2   1 <1>  -0.5700 
 16 N        3.4300    -7.8250    -0.2640 N.am  1 <1>  -0.7300 
 17 C        4.9100    -7.8120    -0.1730 C.3   1 <1>   0.0600 
 18 H        1.3780    -2.2020     1.5840 H     1 <1>   0.1500 
 19 H       -2.0420    -1.9090    -0.9280 H     1 <1>   0.1500 
 20 H        1.7120    -4.5410     0.8630 H     1 <1>   0.1500 
 21 H       -1.7150    -4.2460    -1.6540 H     1 <1>   0.1500 
 22 H        0.8430    -8.8350    -0.7000 H     1 <1>   0.0800 
 23 H        0.6240    -9.1690     0.9800 H     1 <1>   0.0800 
 24 H       -1.1730    -6.2310     1.4460 H     1 <1>   0.0800 
 25 H       -0.5700    -7.6700     2.2250 H     1 <1>   0.0800 
 26 H       -1.5040    -7.8030     0.7460 H     1 <1>   0.0800 
 27 H        3.0100    -7.2000    -0.9720 H     1 <1>   0.3700 
 28 H        5.2440    -8.4880     0.5960 H     1 <1>   0.0800 
 29 H        5.2490    -6.8190     0.0640 H     1 <1>   0.0800 
 30 H        5.3330    -8.1170    -1.1140 H     1 <1>   0.0800 
@<TRIPOS>BOND
  1   1   2  1   
  2   2   3  ar  
  3   2   4  ar  
  4   3   5  ar  
  5   3  18  1   
  6   4   6  ar  
  7   4  19  1   
  8   5   7  ar  
  9   5  20  1   
 10   6   7  ar  
 11   6  21  1   
 12   7   8  1   
 13   8   9  2   
 14   8  10  2   
 15   8  11  am  
 16  11  12  1   
 17  11  13  1   
 18  12  14  1   
 19  12  22  1   
 20  12  23  1   
 21  13  24  1   
 22  13  25  1   
 23  13  26  1   
 24  14  15  2   
 25  14  16  am  
 26  16  17  1   
 27  16  27  1   
 28  17  28  1   
 29  17  29  1   
 30  17  30  1   
@<TRIPOS>SUBSTRUCTURE
  1 ****   8 GROUP 4 **** **** 0

# MOE 2024.06 (io_trps.svl 2023.06)
