@<TRIPOS>MOLECULE
NONAME
53 54 1 0 0 
SMALL
USER_CHARGES


@<TRIPOS>ATOM
  1 S       -0.1840    -0.0110    -0.5220 S.o2  1 <1>   1.4470 
  2 O       -0.4120     1.1460     0.3110 O.2   1 <1>  -0.6500 
  3 O       -0.3790     0.0840    -1.9510 O.2   1 <1>  -0.6500 
  4 N       -1.3750    -1.0590     0.0330 N.am  1 <1>  -0.9140 
  5 C        1.3820    -0.8570    -0.1360 C.ar  1 <1>  -0.0090 
  6 C       -2.6740    -0.7370    -0.5190 C.3   1 <1>   0.1960 
  7 C        2.5500    -0.1770     0.2160 C.ar  1 <1>  -0.1430 
  8 C        1.4370    -2.2440    -0.2170 C.ar  1 <1>  -0.1500 
  9 C       -3.7080    -1.6880     0.0780 C.3   1 <1>  -0.1600 
 10 C        3.7090    -0.8810     0.5060 C.ar  1 <1>  -0.1500 
 11 C        2.6040     1.3450     0.2910 C.3   1 <1>  -0.0970 
 12 C        2.5990    -2.9530     0.0670 C.ar  1 <1>   0.0830 
 13 C       -5.0690    -1.4540    -0.5750 C.3   1 <1>   0.3430 
 14 C        3.7440    -2.2620     0.4390 C.ar  1 <1>  -0.1440 
 15 O        2.6740    -4.3070    -0.0030 O.3   1 <1>  -0.3630 
 16 N       -6.1090    -2.3080     0.0600 N.4   1 <1>  -0.9590 
 17 C        5.0300    -3.0080     0.7650 C.3   1 <1>  -0.0970 
 18 C        1.6250    -5.0880    -0.5240 C.3   1 <1>   0.1200 
 19 C       -5.9400    -3.7860    -0.1800 C.3   1 <1>   0.3430 
 20 C       -7.5040    -1.8870    -0.3060 C.3   1 <1>   0.3430 
 21 C        2.0810    -6.5430    -0.5350 C.3   1 <1>  -0.2400 
 22 C       -7.0940    -4.5990     0.4530 C.3   1 <1>   0.1200 
 23 C       -8.5610    -2.7590     0.4120 C.3   1 <1>   0.1200 
 24 O       -7.9550    -3.7650     1.1790 O.3   1 <1>  -0.5600 
 25 H       -1.3980    -0.8410     1.0290 H     1 <1>   0.4200 
 26 H       -2.6450    -0.8590    -1.5910 H     1 <1>   0.0800 
 27 H       -2.9250     0.2890    -0.2960 H     1 <1>   0.0800 
 28 H        0.5480    -2.7670    -0.5110 H     1 <1>   0.1500 
 29 H       -3.7750    -1.5120     1.1370 H     1 <1>   0.0800 
 30 H       -3.3810    -2.6970    -0.1030 H     1 <1>   0.0800 
 31 H        4.6000    -0.3480     0.7860 H     1 <1>   0.1500 
 32 H        2.1800     1.7840    -0.5950 H     1 <1>   0.0800 
 33 H        3.6170     1.6930     0.3770 H     1 <1>   0.0800 
 34 H        2.0570     1.6930     1.1500 H     1 <1>   0.0800 
 35 H       -5.0110    -1.6670    -1.6310 H     1 <1>   0.0800 
 36 H       -5.3370    -0.4160    -0.4570 H     1 <1>   0.0800 
 37 H       -6.0700    -2.2010     1.0860 H     1 <1>   0.4500 
 38 H        5.8150    -2.3310     1.0460 H     1 <1>   0.0800 
 39 H        5.3500    -3.5700    -0.0940 H     1 <1>   0.0800 
 40 H        4.8570    -3.6910     1.5780 H     1 <1>   0.0800 
 41 H        1.4110    -4.7480    -1.5230 H     1 <1>   0.0800 
 42 H        0.7630    -4.9650     0.1090 H     1 <1>   0.0800 
 43 H       -5.0080    -4.1240     0.2420 H     1 <1>   0.0800 
 44 H       -5.9090    -3.9890    -1.2380 H     1 <1>   0.0800 
 45 H       -7.6470    -1.9720    -1.3710 H     1 <1>   0.0800 
 46 H       -7.6640    -0.8550    -0.0390 H     1 <1>   0.0800 
 47 H        2.9530    -6.6510    -1.1550 H     1 <1>   0.0800 
 48 H        1.3000    -7.1680    -0.9280 H     1 <1>   0.0800 
 49 H        2.3100    -6.8660     0.4650 H     1 <1>   0.0800 
 50 H       -6.7010    -5.3370     1.1310 H     1 <1>   0.0800 
 51 H       -7.6640    -5.1090    -0.3050 H     1 <1>   0.0800 
 52 H       -9.2240    -3.2200    -0.3000 H     1 <1>   0.0800 
 53 H       -9.1520    -2.1530     1.0770 H     1 <1>   0.0800 
@<TRIPOS>BOND
  1   1   2  2   
  2   1   3  2   
  3   1   4  am  
  4   1   5  1   
  5   4   6  1   
  6   4  25  1   
  7   5   7  ar  
  8   5   8  ar  
  9   6   9  1   
 10   6  26  1   
 11   6  27  1   
 12   7  10  ar  
 13   7  11  1   
 14   8  12  ar  
 15   8  28  1   
 16   9  13  1   
 17   9  29  1   
 18   9  30  1   
 19  10  14  ar  
 20  10  31  1   
 21  11  32  1   
 22  11  33  1   
 23  11  34  1   
 24  12  14  ar  
 25  12  15  1   
 26  13  16  1   
 27  13  35  1   
 28  13  36  1   
 29  14  17  1   
 30  15  18  1   
 31  16  19  1   
 32  16  20  1   
 33  16  37  1   
 34  17  38  1   
 35  17  39  1   
 36  17  40  1   
 37  18  21  1   
 38  18  41  1   
 39  18  42  1   
 40  19  22  1   
 41  19  43  1   
 42  19  44  1   
 43  20  23  1   
 44  20  45  1   
 45  20  46  1   
 46  21  47  1   
 47  21  48  1   
 48  21  49  1   
 49  22  24  1   
 50  22  50  1   
 51  22  51  1   
 52  23  24  1   
 53  23  52  1   
 54  23  53  1   
@<TRIPOS>SUBSTRUCTURE
  1 ****   4 GROUP 4 **** **** 0

# MOE 2024.06 (io_trps.svl 2023.06)
