@<TRIPOS>MOLECULE
NONAME
43 44 1 0 0 
SMALL
USER_CHARGES


@<TRIPOS>ATOM
  1 O        0.7280    -0.8420    -1.4180 O.3   1 <1>  -0.6800 
  2 C        1.6060    -1.5160    -0.6070 C.3   1 <1>   0.2000 
  3 C        1.6690    -0.7840     0.7330 C.3   1 <1>  -0.1600 
  4 C        2.9570    -1.5170    -1.3170 C.3   1 <1>  -0.1600 
  5 C        2.8000    -1.3290     1.6030 C.3   1 <1>   0.3430 
  6 C        4.0570    -2.0490    -0.4060 C.3   1 <1>   0.3430 
  7 N        4.0850    -1.2530     0.8560 N.4   1 <1>  -0.9590 
  8 C        5.2390    -1.6340     1.7060 C.3   1 <1>   0.4810 
  9 C        6.5090    -1.3050     0.9450 C.2   1 <1>  -0.2760 
 10 C        7.2870    -2.2450     0.3960 C.2   1 <1>  -0.2880 
 11 C        6.8470     0.1830     0.8610 C.3   1 <1>  -0.0220 
 12 C        8.5790    -1.9590    -0.3580 C.3   1 <1>  -0.0220 
 13 C        7.8730     0.4610    -0.2450 C.3   1 <1>  -0.1600 
 14 C        9.0630    -0.5110    -0.1680 C.3   1 <1>   0.0580 
 15 C       10.1700    -0.1770    -1.1740 C.2   1 <1>  -0.2760 
 16 C       10.0320     0.6060    -2.2510 C.2   1 <1>  -0.3000 
 17 C       11.5110    -0.8220    -0.8470 C.3   1 <1>  -0.1020 
 18 H       -0.1930    -0.9130    -1.0950 H     1 <1>   0.4000 
 19 H        1.2450    -2.5250    -0.4810 H     1 <1>   0.0800 
 20 H        0.7370    -0.9080     1.2560 H     1 <1>   0.0800 
 21 H        1.8280     0.2680     0.5720 H     1 <1>   0.0800 
 22 H        3.2130    -0.5200    -1.6310 H     1 <1>   0.0800 
 23 H        2.8970    -2.1370    -2.1940 H     1 <1>   0.0800 
 24 H        2.5920    -2.3540     1.8670 H     1 <1>   0.0800 
 25 H        2.8640    -0.7500     2.5110 H     1 <1>   0.0800 
 26 H        5.0050    -1.9750    -0.9150 H     1 <1>   0.0800 
 27 H        3.8740    -3.0880    -0.1820 H     1 <1>   0.0800 
 28 H        4.2420    -0.2770     0.5790 H     1 <1>   0.4500 
 29 H        5.2050    -2.6900     1.9190 H     1 <1>   0.0800 
 30 H        5.2240    -1.0940     2.6390 H     1 <1>   0.0800 
 31 H        7.0710    -3.3010     0.4380 H     1 <1>   0.1500 
 32 H        7.2470     0.5070     1.8070 H     1 <1>   0.0800 
 33 H        5.9710     0.7720     0.6550 H     1 <1>   0.0800 
 34 H        8.4210    -2.1470    -1.4060 H     1 <1>   0.0800 
 35 H        9.3450    -2.6320    -0.0150 H     1 <1>   0.0800 
 36 H        8.2280     1.4730    -0.1580 H     1 <1>   0.0800 
 37 H        7.3930     0.3540    -1.2020 H     1 <1>   0.0800 
 38 H        9.4760    -0.4200     0.8230 H     1 <1>   0.0800 
 39 H       10.8320     0.8240    -2.9380 H     1 <1>   0.1500 
 40 H        9.1250     1.0980    -2.5530 H     1 <1>   0.1500 
 41 H       11.4370    -1.8930    -0.8810 H     1 <1>   0.0800 
 42 H       11.8390    -0.5250     0.1330 H     1 <1>   0.0800 
 43 H       12.2610    -0.5180    -1.5560 H     1 <1>   0.0800 
@<TRIPOS>BOND
  1   1   2  1   
  2   1  18  1   
  3   2   3  1   
  4   2   4  1   
  5   2  19  1   
  6   3   5  1   
  7   3  20  1   
  8   3  21  1   
  9   4   6  1   
 10   4  22  1   
 11   4  23  1   
 12   5   7  1   
 13   5  24  1   
 14   5  25  1   
 15   6   7  1   
 16   6  26  1   
 17   6  27  1   
 18   7   8  1   
 19   7  28  1   
 20   8   9  1   
 21   8  29  1   
 22   8  30  1   
 23   9  10  2   
 24   9  11  1   
 25  10  12  1   
 26  10  31  1   
 27  11  13  1   
 28  11  32  1   
 29  11  33  1   
 30  12  14  1   
 31  12  34  1   
 32  12  35  1   
 33  13  14  1   
 34  13  36  1   
 35  13  37  1   
 36  14  15  1   
 37  14  38  1   
 38  15  16  2   
 39  15  17  1   
 40  16  39  1   
 41  16  40  1   
 42  17  41  1   
 43  17  42  1   
 44  17  43  1   
@<TRIPOS>SUBSTRUCTURE
  1 ****   9 GROUP 4 **** **** 0

# MOE 2024.06 (io_trps.svl 2023.06)
