@<TRIPOS>MOLECULE
NONAME
36 39 1 0 0 
SMALL
USER_CHARGES


@<TRIPOS>ATOM
  1 O       -2.0600    -0.6040    -1.6520 O.2   1 <1>  -0.5700 
  2 C       -2.5270     0.2570    -0.9570 C.2   1 <1>   0.6670 
  3 O       -2.9700     0.2010     0.2990 O.3   1 <1>  -0.4080 
  4 C       -2.8250     1.7300    -1.1290 C.3   1 <1>   0.0530 
  5 C       -3.4370     1.5700     0.2760 C.3   1 <1>   0.2580 
  6 C       -5.0040     1.6270     0.3750 C.3   1 <1>   0.0000 
  7 C       -2.6420     2.3450     1.3420 C.3   1 <1>  -0.2400 
  8 C       -5.6990     0.6440    -0.6160 C.3   1 <1>  -0.1600 
  9 C       -5.4860     1.2540     1.8040 C.3   1 <1>  -0.1600 
 10 C       -5.5170     3.0570     0.0610 C.3   1 <1>  -0.1600 
 11 C       -7.2320     0.7210    -0.5100 C.3   1 <1>  -0.0800 
 12 C       -7.0200     1.3270     1.9220 C.3   1 <1>  -0.0800 
 13 C       -7.0520     3.1400     0.1710 C.3   1 <1>  -0.0800 
 14 C       -7.6570     0.3500     0.9200 C.3   1 <1>  -0.1600 
 15 C       -7.6880     2.1560    -0.8260 C.3   1 <1>  -0.1600 
 16 C       -7.4810     2.7600     1.5990 C.3   1 <1>  -0.1600 
 17 H       -3.5190     1.9480    -1.9180 H     1 <1>   0.0000 
 18 H       -1.9390     2.3390    -1.1620 H     1 <1>   0.0000 
 19 H       -1.5850     2.2410     1.1780 H     1 <1>   0.0800 
 20 H       -2.8600     1.9740     2.3270 H     1 <1>   0.0800 
 21 H       -2.8830     3.3910     1.3070 H     1 <1>   0.0800 
 22 H       -5.4260     0.8610    -1.6310 H     1 <1>   0.0800 
 23 H       -5.3920    -0.3670    -0.4080 H     1 <1>   0.0800 
 24 H       -5.0700     1.9270     2.5310 H     1 <1>   0.0800 
 25 H       -5.1540     0.2600     2.0510 H     1 <1>   0.0800 
 26 H       -5.2230     3.3490    -0.9310 H     1 <1>   0.0800 
 27 H       -5.0880     3.7650     0.7480 H     1 <1>   0.0800 
 28 H       -7.6790     0.0350    -1.2090 H     1 <1>   0.0800 
 29 H       -7.3200     1.0660     2.9230 H     1 <1>   0.0800 
 30 H       -7.3790     4.1420    -0.0510 H     1 <1>   0.0800 
 31 H       -7.3470    -0.6560     1.1440 H     1 <1>   0.0800 
 32 H       -8.7290     0.3890     1.0040 H     1 <1>   0.0800 
 33 H       -8.7610     2.2180    -0.7650 H     1 <1>   0.0800 
 34 H       -7.4040     2.4170    -1.8310 H     1 <1>   0.0800 
 35 H       -8.5520     2.8260     1.6880 H     1 <1>   0.0800 
 36 H       -7.0530     3.4500     2.3060 H     1 <1>   0.0800 
@<TRIPOS>BOND
  1   1   2  2   
  2   2   3  1   
  3   2   4  1   
  4   3   5  1   
  5   4   5  1   
  6   4  17  1   
  7   4  18  1   
  8   5   6  1   
  9   5   7  1   
 10   6   8  1   
 11   6   9  1   
 12   6  10  1   
 13   7  19  1   
 14   7  20  1   
 15   7  21  1   
 16   8  11  1   
 17   8  22  1   
 18   8  23  1   
 19   9  12  1   
 20   9  24  1   
 21   9  25  1   
 22  10  13  1   
 23  10  26  1   
 24  10  27  1   
 25  11  14  1   
 26  11  15  1   
 27  11  28  1   
 28  12  14  1   
 29  12  16  1   
 30  12  29  1   
 31  13  15  1   
 32  13  16  1   
 33  13  30  1   
 34  14  31  1   
 35  14  32  1   
 36  15  33  1   
 37  15  34  1   
 38  16  35  1   
 39  16  36  1   
@<TRIPOS>SUBSTRUCTURE
  1 ****   6 GROUP 4 **** **** 0

# MOE 2024.06 (io_trps.svl 2023.06)
