@<TRIPOS>MOLECULE
NONAME
28 28 1 0 0 
SMALL
USER_CHARGES


@<TRIPOS>ATOM
  1 BR      -1.4950    -0.2050     2.2720 Br    1 <1>  -0.1110 
  2 C       -1.5390    -1.4600     0.8150 C.ar  1 <1>   0.1110 
  3 C       -2.7430    -1.7100     0.1880 C.ar  1 <1>  -0.1500 
  4 C       -0.3630    -2.0760     0.4350 C.ar  1 <1>  -0.1500 
  5 C       -2.8000    -2.6200    -0.8660 C.ar  1 <1>   0.0860 
  6 C       -0.4030    -2.9740    -0.6170 C.ar  1 <1>  -0.1500 
  7 C       -4.0590    -2.9020    -1.5300 C.2   1 <1>   0.5440 
  8 C       -1.6050    -3.2350    -1.2560 C.ar  1 <1>  -0.1500 
  9 O       -4.8160    -2.0050    -1.8300 O.2   1 <1>  -0.5700 
 10 N       -4.4720    -4.1620    -1.8380 N.am  1 <1>  -0.7300 
 11 C       -4.0220    -5.4360    -1.2430 C.3   1 <1>   0.1400 
 12 C       -5.2310    -6.1660    -0.6610 C.3   1 <1>  -0.1600 
 13 C       -4.8190    -7.4950    -0.0150 C.3   1 <1>  -0.1600 
 14 C       -6.0330    -8.2230     0.5690 C.3   1 <1>  -0.2400 
 15 H       -3.6360    -1.2040     0.5080 H     1 <1>   0.1500 
 16 H        0.5570    -1.8560     0.9480 H     1 <1>   0.1500 
 17 H        0.4990    -3.4650    -0.9400 H     1 <1>   0.1500 
 18 H       -1.6250    -3.9270    -2.0800 H     1 <1>   0.1500 
 19 H       -5.3660    -4.1990    -2.3330 H     1 <1>   0.3700 
 20 H       -3.3020    -5.2500    -0.4640 H     1 <1>   0.0800 
 21 H       -3.5580    -6.0390    -2.0060 H     1 <1>   0.0800 
 22 H       -5.9430    -6.3590    -1.4450 H     1 <1>   0.0800 
 23 H       -5.6960    -5.5400     0.0820 H     1 <1>   0.0800 
 24 H       -4.1070    -7.3110     0.7720 H     1 <1>   0.0800 
 25 H       -4.3490    -8.1270    -0.7500 H     1 <1>   0.0800 
 26 H       -6.5070    -7.6190     1.3230 H     1 <1>   0.0800 
 27 H       -5.7250    -9.1510     1.0180 H     1 <1>   0.0800 
 28 H       -6.7510    -8.4390    -0.2030 H     1 <1>   0.0800 
@<TRIPOS>BOND
  1   1   2  1   
  2   2   3  ar  
  3   2   4  ar  
  4   3   5  ar  
  5   3  15  1   
  6   4   6  ar  
  7   4  16  1   
  8   5   7  1   
  9   5   8  ar  
 10   6   8  ar  
 11   6  17  1   
 12   7   9  2   
 13   7  10  am  
 14   8  18  1   
 15  10  11  1   
 16  10  19  1   
 17  11  12  1   
 18  11  20  1   
 19  11  21  1   
 20  12  13  1   
 21  12  22  1   
 22  12  23  1   
 23  13  14  1   
 24  13  24  1   
 25  13  25  1   
 26  14  26  1   
 27  14  27  1   
 28  14  28  1   
@<TRIPOS>SUBSTRUCTURE
  1 ****   5 GROUP 4 **** **** 0

# MOE 2024.06 (io_trps.svl 2023.06)
