@<TRIPOS>MOLECULE
NONAME
51 53 1 0 0 
SMALL
USER_CHARGES


@<TRIPOS>ATOM
  1 S        0.3820    -0.2450    -0.3260 S.o2  1 <1>   1.4470 
  2 O       -0.0570     0.2720    -1.6050 O.2   1 <1>  -0.6500 
  3 O       -0.0730     0.3940     0.8900 O.2   1 <1>  -0.6500 
  4 N        2.0770    -0.1640    -0.3300 N.am  1 <1>  -0.8490 
  5 C        0.0600    -2.0270    -0.2220 C.ar  1 <1>  -0.0090 
  6 C        2.5460     1.1920    -0.0380 C.3   1 <1>   0.1960 
  7 C        2.6440    -0.6590    -1.5870 C.3   1 <1>   0.1960 
  8 C        0.6270    -2.7950     0.7890 C.ar  1 <1>  -0.1500 
  9 C       -0.7520    -2.6730    -1.1490 C.ar  1 <1>  -0.1500 
 10 C        4.0660     1.1910     0.1360 C.3   1 <1>  -0.1600 
 11 C        4.1650    -0.7480    -1.4700 C.3   1 <1>  -0.1600 
 12 C        0.4000    -4.1570     0.8690 C.ar  1 <1>  -0.1500 
 13 C       -0.9860    -4.0360    -1.0780 C.ar  1 <1>  -0.1500 
 14 C        4.7730     0.6180    -1.1050 C.3   1 <1>  -0.0190 
 15 C       -0.4050    -4.7890    -0.0630 C.ar  1 <1>   0.0830 
 16 C        6.2840     0.5360    -0.9130 C.2   1 <1>   0.5690 
 17 O       -0.5740    -6.1250     0.0820 O.3   1 <1>  -0.3630 
 18 O        7.0020     1.1990    -1.6210 O.2   1 <1>  -0.5700 
 19 N        6.7860    -0.2810     0.0420 N.am  1 <1>  -0.7300 
 20 C       -1.3940    -6.8630    -0.7940 C.3   1 <1>   0.1200 
 21 C        8.2170    -0.5410     0.2650 C.3   1 <1>   0.3200 
 22 C       -1.3740    -8.3210    -0.3440 C.3   1 <1>  -0.2400 
 23 C        8.3920    -2.0140     0.5820 C.2   1 <1>  -0.0400 
 24 O        7.7940    -2.5170     1.6470 O.3   1 <1>  -0.2800 
 25 C        9.0850    -2.9750    -0.0670 C.2   1 <1>  -0.1500 
 26 C        8.0930    -3.7990     1.7040 C.2   1 <1>  -0.0100 
 27 C        8.8900    -4.1490     0.6720 C.2   1 <1>  -0.1500 
 28 H        2.0980     1.5480     0.8760 H     1 <1>   0.0800 
 29 H        2.2580     1.8600    -0.8340 H     1 <1>   0.0800 
 30 H        2.3740    -0.0020    -2.4000 H     1 <1>   0.0800 
 31 H        2.2540    -1.6400    -1.8050 H     1 <1>   0.0800 
 32 H        1.2550    -2.3160     1.5220 H     1 <1>   0.1500 
 33 H       -1.2070    -2.0990    -1.9390 H     1 <1>   0.1500 
 34 H        4.3080     0.6090     1.0070 H     1 <1>   0.0800 
 35 H        4.4050     2.1970     0.3090 H     1 <1>   0.0800 
 36 H        4.5760    -1.0850    -2.4050 H     1 <1>   0.0800 
 37 H        4.4080    -1.4810    -0.7210 H     1 <1>   0.0800 
 38 H        0.8450    -4.7400     1.6560 H     1 <1>   0.1500 
 39 H       -1.6200    -4.4910    -1.8160 H     1 <1>   0.1500 
 40 H        4.5930     1.2890    -1.9270 H     1 <1>   0.0800 
 41 H        6.1710    -0.8670     0.6090 H     1 <1>   0.3700 
 42 H       -1.0000    -6.7680    -1.7910 H     1 <1>   0.0800 
 43 H       -2.3920    -6.4630    -0.7440 H     1 <1>   0.0800 
 44 H        8.5640     0.0520     1.0930 H     1 <1>   0.0800 
 45 H        8.7850    -0.2800    -0.6120 H     1 <1>   0.0800 
 46 H       -0.3710    -8.7060    -0.3810 H     1 <1>   0.0800 
 47 H       -1.9930    -8.9120    -0.9940 H     1 <1>   0.0800 
 48 H       -1.7530    -8.4040     0.6590 H     1 <1>   0.0800 
 49 H        9.6730    -2.8930    -0.9640 H     1 <1>   0.1500 
 50 H        7.6990    -4.3910     2.5120 H     1 <1>   0.1500 
 51 H        9.3040    -5.1130     0.4360 H     1 <1>   0.1500 
@<TRIPOS>BOND
  1   1   2  2   
  2   1   3  2   
  3   1   4  am  
  4   1   5  1   
  5   4   6  1   
  6   4   7  1   
  7   5   8  ar  
  8   5   9  ar  
  9   6  10  1   
 10   6  28  1   
 11   6  29  1   
 12   7  11  1   
 13   7  30  1   
 14   7  31  1   
 15   8  12  ar  
 16   8  32  1   
 17   9  13  ar  
 18   9  33  1   
 19  10  14  1   
 20  10  34  1   
 21  10  35  1   
 22  11  14  1   
 23  11  36  1   
 24  11  37  1   
 25  12  15  ar  
 26  12  38  1   
 27  13  15  ar  
 28  13  39  1   
 29  14  16  1   
 30  14  40  1   
 31  15  17  1   
 32  16  18  2   
 33  16  19  am  
 34  17  20  1   
 35  19  21  1   
 36  19  41  1   
 37  20  22  1   
 38  20  42  1   
 39  20  43  1   
 40  21  23  1   
 41  21  44  1   
 42  21  45  1   
 43  22  46  1   
 44  22  47  1   
 45  22  48  1   
 46  23  24  1   
 47  23  25  2   
 48  24  26  1   
 49  25  27  1   
 50  25  49  1   
 51  26  27  2   
 52  26  50  1   
 53  27  51  1   
@<TRIPOS>SUBSTRUCTURE
  1 ****   7 GROUP 4 **** **** 0

# MOE 2024.06 (io_trps.svl 2023.06)
