@<TRIPOS>MOLECULE
NONAME
55 58 1 0 0 
SMALL
USER_CHARGES


@<TRIPOS>ATOM
  1 CL      -0.2680    -0.3660    -1.1960 Cl    1 <1>  -0.1770 
  2 C        0.0050    -1.7970    -0.2340 C.ar  1 <1>   0.1770 
  3 C        1.1680    -2.5180    -0.4130 C.ar  1 <1>  -0.1500 
  4 C       -0.9490    -2.1800     0.6910 C.ar  1 <1>  -0.1500 
  5 C        1.3940    -3.6590     0.3490 C.ar  1 <1>   0.1000 
  6 C       -0.7290    -3.3160     1.4530 C.ar  1 <1>  -0.1500 
  7 N        2.5500    -4.4140     0.2050 N.pl3 1 <1>  -0.8380 
  8 C        0.4350    -4.0450     1.2790 C.ar  1 <1>  -0.1500 
  9 C        2.7720    -5.0570    -1.1200 C.3   1 <1>   0.2090 
 10 C        3.7930    -3.8260     0.7710 C.3   1 <1>   0.2090 
 11 C        3.9200    -6.0830    -1.0400 C.3   1 <1>   0.1100 
 12 C        4.9110    -4.8840     0.8200 C.3   1 <1>   0.1100 
 13 N        5.1790    -5.4900    -0.5140 N.3   1 <1>  -0.8100 
 14 C        6.2560    -6.5130    -0.4400 C.3   1 <1>   0.2540 
 15 C        7.6510    -5.8710    -0.3560 C.cat 1 <1>   0.6560 
 16 N        7.8730    -4.6330    -0.7810 N.pl3 1 <1>  -0.7000 
 17 N        8.7760    -6.3980     0.1200 N.pl3 1 <1>  -0.7640 
 18 C        9.1790    -4.3390    -0.5750 C.2   1 <1>   0.4260 
 19 C        9.7710    -5.4180    -0.0100 C.2   1 <1>   0.2770 
 20 C        9.0180    -7.7480     0.6900 C.3   1 <1>   0.3540 
 21 N        9.8390    -3.1580    -0.8590 N.am  1 <1>  -0.4360 
 22 C       11.1650    -5.3350     0.3210 C.2   1 <1>   0.7030 
 23 C        9.5690    -8.6550    -0.4050 C.3   1 <1>  -0.2400 
 24 C       11.1780    -3.0610    -0.5130 C.2   1 <1>   0.6900 
 25 C        9.1250    -2.0090    -1.4910 C.3   1 <1>   0.0600 
 26 O       11.7470    -6.2690     0.8460 O.2   1 <1>  -0.5700 
 27 N       11.8380    -4.1530     0.0390 N.am  1 <1>  -0.4200 
 28 O       11.7700    -2.0150    -0.6840 O.2   1 <1>  -0.5700 
 29 C       13.2910    -4.0250     0.3740 C.3   1 <1>   0.0600 
 30 H        1.8910    -2.1970    -1.1350 H     1 <1>   0.1500 
 31 H       -1.8460    -1.5990     0.8090 H     1 <1>   0.1500 
 32 H       -1.4590    -3.6310     2.1780 H     1 <1>   0.1500 
 33 H        0.6160    -4.9280     1.8640 H     1 <1>   0.1500 
 34 H        3.0120    -4.3070    -1.8530 H     1 <1>   0.0800 
 35 H        1.8670    -5.5510    -1.4290 H     1 <1>   0.0800 
 36 H        3.5920    -3.4650     1.7650 H     1 <1>   0.0800 
 37 H        4.1060    -2.9920     0.1670 H     1 <1>   0.0800 
 38 H        4.0900    -6.4790    -2.0270 H     1 <1>   0.0800 
 39 H        3.6010    -6.8940    -0.4060 H     1 <1>   0.0800 
 40 H        4.6130    -5.6490     1.5180 H     1 <1>   0.0800 
 41 H        5.8020    -4.4160     1.2000 H     1 <1>   0.0800 
 42 H        6.2350    -7.1180    -1.3300 H     1 <1>   0.0800 
 43 H        6.0930    -7.1570     0.4060 H     1 <1>   0.0800 
 44 H        7.1230    -4.0520    -1.1660 H     1 <1>   0.4500 
 45 H        8.1010    -8.1600     1.0760 H     1 <1>   0.0800 
 46 H        9.7220    -7.6850     1.5050 H     1 <1>   0.0800 
 47 H        8.8750    -8.7340    -1.2230 H     1 <1>   0.0800 
 48 H        9.7350    -9.6400    -0.0060 H     1 <1>   0.0800 
 49 H       10.5100    -8.2810    -0.7660 H     1 <1>   0.0800 
 50 H        8.4230    -2.3610    -2.2250 H     1 <1>   0.0800 
 51 H        9.8250    -1.3550    -1.9860 H     1 <1>   0.0800 
 52 H        8.6050    -1.4450    -0.7360 H     1 <1>   0.0800 
 53 H       13.7690    -4.9890     0.4010 H     1 <1>   0.0800 
 54 H       13.3990    -3.5540     1.3360 H     1 <1>   0.0800 
 55 H       13.7930    -3.4240    -0.3650 H     1 <1>   0.0800 
@<TRIPOS>BOND
  1   1   2  1   
  2   2   3  ar  
  3   2   4  ar  
  4   3   5  ar  
  5   3  30  1   
  6   4   6  ar  
  7   4  31  1   
  8   5   7  1   
  9   5   8  ar  
 10   6   8  ar  
 11   6  32  1   
 12   7   9  1   
 13   7  10  1   
 14   8  33  1   
 15   9  11  1   
 16   9  34  1   
 17   9  35  1   
 18  10  12  1   
 19  10  36  1   
 20  10  37  1   
 21  11  13  1   
 22  11  38  1   
 23  11  39  1   
 24  12  13  1   
 25  12  40  1   
 26  12  41  1   
 27  13  14  1   
 28  14  15  1   
 29  14  42  1   
 30  14  43  1   
 31  15  16  ar  
 32  15  17  ar  
 33  16  18  1   
 34  16  44  1   
 35  17  19  1   
 36  17  20  1   
 37  18  19  2   
 38  18  21  1   
 39  19  22  1   
 40  20  23  1   
 41  20  45  1   
 42  20  46  1   
 43  21  24  am  
 44  21  25  1   
 45  22  26  2   
 46  22  27  am  
 47  23  47  1   
 48  23  48  1   
 49  23  49  1   
 50  24  27  am  
 51  24  28  2   
 52  25  50  1   
 53  25  51  1   
 54  25  52  1   
 55  27  29  1   
 56  29  53  1   
 57  29  54  1   
 58  29  55  1   
@<TRIPOS>SUBSTRUCTURE
  1 ****  13 GROUP 4 **** **** 0

# MOE 2024.06 (io_trps.svl 2023.06)
