@<TRIPOS>MOLECULE
NONAME
49 51 1 0 0 
SMALL
USER_CHARGES


@<TRIPOS>ATOM
  1 O       -3.7870     4.7730     0.8600 O.3   1 <1>  -0.5600 
  2 C       -4.5190     5.4910    -0.0970 C.3   1 <1>   0.2000 
  3 C       -3.4180     3.4540     0.5470 C.3   1 <1>   0.2000 
  4 C       -5.8550     4.7690    -0.4160 C.3   1 <1>   0.3430 
  5 C       -3.6450     5.7410    -1.3330 C.3   1 <1>  -0.2400 
  6 C       -4.5560     2.6970    -0.1880 C.3   1 <1>   0.3430 
  7 C       -3.0650     2.7890     1.8770 C.3   1 <1>  -0.2400 
  8 N       -5.8840     3.3420     0.0740 N.4   1 <1>  -0.9590 
  9 C       -7.0290     2.5430    -0.4400 C.3   1 <1>   0.3430 
 10 C       -8.3430     3.0860     0.1150 C.3   1 <1>  -0.1600 
 11 C       -9.5180     2.2100    -0.3170 C.3   1 <1>   0.1200 
 12 O      -10.6810     2.7910     0.2120 O.3   1 <1>  -0.3630 
 13 C      -11.9040     2.2430    -0.0030 C.ar  1 <1>   0.0820 
 14 C      -12.9860     2.9010     0.5640 C.ar  1 <1>  -0.1500 
 15 C      -12.1130     1.0810    -0.7480 C.ar  1 <1>  -0.1500 
 16 C      -14.2590     2.3960     0.3830 C.ar  1 <1>  -0.1430 
 17 C      -13.3960     0.5850    -0.9230 C.ar  1 <1>  -0.1500 
 18 C      -14.4610     1.2540    -0.3500 C.ar  1 <1>  -0.1430 
 19 C      -15.5610     2.9500     0.9060 C.3   1 <1>  -0.0170 
 20 C      -15.9250     0.8950    -0.4130 C.3   1 <1>  -0.0170 
 21 C      -16.5630     1.8120     0.6460 C.3   1 <1>  -0.1600 
 22 H       -4.7450     6.4470     0.3460 H     1 <1>   0.0800 
 23 H       -2.5370     3.4860    -0.0730 H     1 <1>   0.0800 
 24 H       -6.0130     4.7970    -1.4820 H     1 <1>   0.0800 
 25 H       -6.6600     5.3220     0.0390 H     1 <1>   0.0800 
 26 H       -3.4390     4.8360    -1.8740 H     1 <1>   0.0800 
 27 H       -2.7170     6.1970    -1.0340 H     1 <1>   0.0800 
 28 H       -4.1450     6.4210    -2.0000 H     1 <1>   0.0800 
 29 H       -4.5620     1.6700     0.1360 H     1 <1>   0.0800 
 30 H       -4.3520     2.7050    -1.2450 H     1 <1>   0.0800 
 31 H       -3.9150     2.7720     2.5350 H     1 <1>   0.0800 
 32 H       -2.2670     3.3330     2.3530 H     1 <1>   0.0800 
 33 H       -2.7300     1.7800     1.7160 H     1 <1>   0.0800 
 34 H       -5.9480     3.4100     1.1020 H     1 <1>   0.4500 
 35 H       -6.9170     1.5160    -0.1290 H     1 <1>   0.0800 
 36 H       -7.0450     2.5700    -1.5180 H     1 <1>   0.0800 
 37 H       -8.5190     4.0810    -0.2510 H     1 <1>   0.0800 
 38 H       -8.3070     3.0980     1.1900 H     1 <1>   0.0800 
 39 H       -9.4310     1.2120     0.0800 H     1 <1>   0.0800 
 40 H       -9.6150     2.1830    -1.3890 H     1 <1>   0.0800 
 41 H      -12.8280     3.7950     1.1380 H     1 <1>   0.1500 
 42 H      -11.3000     0.5480    -1.1990 H     1 <1>   0.1500 
 43 H      -13.5630    -0.3100    -1.4960 H     1 <1>   0.1500 
 44 H      -15.8270     3.8280     0.3450 H     1 <1>   0.0800 
 45 H      -15.4960     3.1890     1.9530 H     1 <1>   0.0800 
 46 H      -16.0870    -0.1440    -0.1860 H     1 <1>   0.0800 
 47 H      -16.3070     1.1210    -1.3930 H     1 <1>   0.0800 
 48 H      -17.5190     2.1860     0.3260 H     1 <1>   0.0800 
 49 H      -16.6920     1.2510     1.5550 H     1 <1>   0.0800 
@<TRIPOS>BOND
  1   1   2  1   
  2   1   3  1   
  3   2   4  1   
  4   2   5  1   
  5   2  22  1   
  6   3   6  1   
  7   3   7  1   
  8   3  23  1   
  9   4   8  1   
 10   4  24  1   
 11   4  25  1   
 12   5  26  1   
 13   5  27  1   
 14   5  28  1   
 15   6   8  1   
 16   6  29  1   
 17   6  30  1   
 18   7  31  1   
 19   7  32  1   
 20   7  33  1   
 21   8   9  1   
 22   8  34  1   
 23   9  10  1   
 24   9  35  1   
 25   9  36  1   
 26  10  11  1   
 27  10  37  1   
 28  10  38  1   
 29  11  12  1   
 30  11  39  1   
 31  11  40  1   
 32  12  13  1   
 33  13  14  ar  
 34  13  15  ar  
 35  14  16  ar  
 36  14  41  1   
 37  15  17  ar  
 38  15  42  1   
 39  16  18  ar  
 40  16  19  1   
 41  17  18  ar  
 42  17  43  1   
 43  18  20  1   
 44  19  21  1   
 45  19  44  1   
 46  19  45  1   
 47  20  21  1   
 48  20  46  1   
 49  20  47  1   
 50  21  48  1   
 51  21  49  1   
@<TRIPOS>SUBSTRUCTURE
  1 ****  11 GROUP 4 **** **** 0

# MOE 2024.06 (io_trps.svl 2023.06)
