@<TRIPOS>MOLECULE
NONAME
37 38 1 0 0 
SMALL
USER_CHARGES


@<TRIPOS>ATOM
  1 O        1.1920    -0.1330    -1.5140 O.3   1 <1>  -0.6800 
  2 C        1.7770     0.8100    -0.6870 C.3   1 <1>   0.1200 
  3 C        2.9980     0.1580    -0.0250 C.3   1 <1>   0.3430 
  4 N        3.7800     1.1060     0.8380 N.4   1 <1>  -0.9590 
  5 C        5.1570     0.6110     1.1210 C.3   1 <1>   0.3430 
  6 C        3.0780     1.5050     2.0980 C.3   1 <1>   0.3430 
  7 C        6.0680     0.7740    -0.1080 C.3   1 <1>  -0.0800 
  8 C        2.3470     2.8530     1.9120 C.3   1 <1>   0.1200 
  9 C        7.6080     0.3130     0.2570 C.3   1 <1>   0.0580 
 10 C        6.1550     2.3660    -0.6820 C.3   1 <1>  -0.1600 
 11 O        2.9460     3.5940     0.8870 O.3   1 <1>  -0.6800 
 12 C        9.1040     0.9350     0.3390 C.2   1 <1>  -0.2880 
 13 C        7.6400     1.5490    -0.2330 C.3   1 <1>  -0.1600 
 14 C        7.7440     2.8000    -0.6720 C.3   1 <1>   0.0580 
 15 C        9.1750     2.2420    -0.1490 C.2   1 <1>  -0.2880 
 16 H        0.4220     0.2340    -1.9980 H     1 <1>   0.4000 
 17 H        1.0440     1.1060     0.0420 H     1 <1>   0.0800 
 18 H        2.0700     1.6510    -1.2920 H     1 <1>   0.0800 
 19 H        3.6320    -0.2100    -0.8140 H     1 <1>   0.0800 
 20 H        2.6730    -0.6840     0.5630 H     1 <1>   0.0800 
 21 H        3.8740     2.0100     0.3330 H     1 <1>   0.4500 
 22 H        5.1280    -0.4230     1.4240 H     1 <1>   0.0800 
 23 H        5.5840     1.1840     1.9290 H     1 <1>   0.0800 
 24 H        3.8030     1.6350     2.8850 H     1 <1>   0.0800 
 25 H        2.3880     0.7410     2.4170 H     1 <1>   0.0800 
 26 H        5.6990     0.1300    -0.8930 H     1 <1>   0.0800 
 27 H        2.3880     3.4250     2.8240 H     1 <1>   0.0800 
 28 H        1.3140     2.6930     1.6540 H     1 <1>   0.0800 
 29 H        7.7630    -0.5430    -0.3850 H     1 <1>   0.0800 
 30 H        5.5990     3.0480    -0.0570 H     1 <1>   0.0800 
 31 H        5.7510     2.4340    -1.6810 H     1 <1>   0.0800 
 32 H        2.5720     4.5040     0.8480 H     1 <1>   0.4000 
 33 H        9.8980     0.3250     0.7410 H     1 <1>   0.1500 
 34 H        7.7850     1.1380    -1.3210 H     1 <1>   0.0800 
 35 H        7.4310     1.9790     0.8860 H     1 <1>   0.0800 
 36 H        7.9480     3.0090    -1.7140 H     1 <1>   0.0800 
 37 H       10.0360     2.8890    -0.2160 H     1 <1>   0.1500 
@<TRIPOS>BOND
  1   1   2  1   
  2   1  16  1   
  3   2   3  1   
  4   2  17  1   
  5   2  18  1   
  6   3   4  1   
  7   3  19  1   
  8   3  20  1   
  9   4   5  1   
 10   4   6  1   
 11   4  21  1   
 12   5   7  1   
 13   5  22  1   
 14   5  23  1   
 15   6   8  1   
 16   6  24  1   
 17   6  25  1   
 18   7   9  1   
 19   7  10  1   
 20   7  26  1   
 21   8  11  1   
 22   8  27  1   
 23   8  28  1   
 24   9  12  1   
 25   9  13  1   
 26   9  29  1   
 27  10  14  1   
 28  10  30  1   
 29  10  31  1   
 30  11  32  1   
 31  12  15  2   
 32  12  33  1   
 33  13  14  1   
 34  13  34  1   
 35  13  35  1   
 36  14  15  1   
 37  14  36  1   
 38  15  37  1   
@<TRIPOS>SUBSTRUCTURE
  1 ****   7 GROUP 4 **** **** 0

# MOE 2024.06 (io_trps.svl 2023.06)
