@<TRIPOS>MOLECULE
NONAME
47 48 1 0 0 
SMALL
USER_CHARGES


@<TRIPOS>ATOM
  1 O       -2.9450     5.0750     0.1110 O.3   1 <1>  -0.3630 
  2 C       -4.1480     5.6990     0.1600 C.ar  1 <1>   0.0830 
  3 C       -1.7340     5.7980     0.1070 C.3   1 <1>   0.1200 
  4 C       -5.2690     4.9130     0.1610 C.ar  1 <1>  -0.1500 
  5 C       -4.2870     7.1000     0.2100 C.ar  1 <1>  -0.1500 
  6 C       -0.5880     4.7930     0.0470 C.3   1 <1>   0.1200 
  7 C       -6.5620     5.4650     0.2090 C.ar  1 <1>   0.0000 
  8 C       -5.5330     7.6610     0.2580 C.ar  1 <1>  -0.1500 
  9 O        0.6240     5.4900     0.0410 O.3   1 <1>  -0.5600 
 10 C       -6.6990     6.8690     0.2590 C.ar  1 <1>   0.0000 
 11 C       -7.7280     4.6710     0.2100 C.ar  1 <1>  -0.1500 
 12 C        1.7490     4.6800    -0.0120 C.3   1 <1>   0.1200 
 13 C       -7.9940     7.4220     0.3080 C.ar  1 <1>  -0.1500 
 14 C       -8.9720     5.2350     0.2590 C.ar  1 <1>  -0.1500 
 15 C        2.9730     5.6000    -0.0100 C.3   1 <1>   0.3430 
 16 C       -9.1070     6.6270     0.3080 C.ar  1 <1>  -0.1500 
 17 N        4.2530     4.8240    -0.0650 N.4   1 <1>  -0.9060 
 18 C        5.4890     5.6120    -0.0680 C.3   1 <1>   0.5030 
 19 C        6.6340     4.6070    -0.1280 C.3   1 <1>  -0.2400 
 20 C        5.5840     6.4310     1.2190 C.3   1 <1>  -0.2400 
 21 C        5.5260     6.5150    -1.3000 C.3   1 <1>  -0.2400 
 22 H       -1.6820     6.3750     1.0120 H     1 <1>   0.0800 
 23 H       -1.7230     6.4340    -0.7600 H     1 <1>   0.0800 
 24 H       -5.1650     3.8450     0.1230 H     1 <1>   0.1500 
 25 H       -3.4240     7.7370     0.2110 H     1 <1>   0.1500 
 26 H       -0.6590     4.2110    -0.8570 H     1 <1>   0.0800 
 27 H       -0.6180     4.1520     0.9110 H     1 <1>   0.0800 
 28 H       -5.6450     8.7300     0.2960 H     1 <1>   0.1500 
 29 H       -7.6160     3.6020     0.1720 H     1 <1>   0.1500 
 30 H        1.7050     4.0980    -0.9170 H     1 <1>   0.0800 
 31 H        1.7460     4.0390     0.8540 H     1 <1>   0.0800 
 32 H       -8.0930     8.4920     0.3460 H     1 <1>   0.1500 
 33 H       -9.8570     4.6230     0.2590 H     1 <1>   0.1500 
 34 H        2.9460     6.1990     0.8860 H     1 <1>   0.0800 
 35 H        2.9060     6.2570    -0.8620 H     1 <1>   0.0800 
 36 H      -10.0940     7.0560     0.3450 H     1 <1>   0.1500 
 37 H        4.2670     4.2450    -0.9100 H     1 <1>   0.4500 
 38 H        4.3050     4.1900     0.7370 H     1 <1>   0.4500 
 39 H        6.5880     4.0150    -1.0250 H     1 <1>   0.0800 
 40 H        6.6290     3.9570     0.7290 H     1 <1>   0.0800 
 41 H        7.5770     5.1280    -0.1330 H     1 <1>   0.0800 
 42 H        5.5070     5.8020     2.0880 H     1 <1>   0.0800 
 43 H        4.8280     7.1940     1.2620 H     1 <1>   0.0800 
 44 H        6.5380     6.9300     1.2600 H     1 <1>   0.0800 
 45 H        5.4070     5.9450    -2.2050 H     1 <1>   0.0800 
 46 H        6.4770     7.0160    -1.3520 H     1 <1>   0.0800 
 47 H        4.7690     7.2780    -1.2580 H     1 <1>   0.0800 
@<TRIPOS>BOND
  1   1   2  1   
  2   1   3  1   
  3   2   4  ar  
  4   2   5  ar  
  5   3   6  1   
  6   3  22  1   
  7   3  23  1   
  8   4   7  ar  
  9   4  24  1   
 10   5   8  ar  
 11   5  25  1   
 12   6   9  1   
 13   6  26  1   
 14   6  27  1   
 15   7  10  ar  
 16   7  11  ar  
 17   8  10  ar  
 18   8  28  1   
 19   9  12  1   
 20  10  13  ar  
 21  11  14  ar  
 22  11  29  1   
 23  12  15  1   
 24  12  30  1   
 25  12  31  1   
 26  13  16  ar  
 27  13  32  1   
 28  14  16  ar  
 29  14  33  1   
 30  15  17  1   
 31  15  34  1   
 32  15  35  1   
 33  16  36  1   
 34  17  18  1   
 35  17  37  1   
 36  17  38  1   
 37  18  19  1   
 38  18  20  1   
 39  18  21  1   
 40  19  39  1   
 41  19  40  1   
 42  19  41  1   
 43  20  42  1   
 44  20  43  1   
 45  20  44  1   
 46  21  45  1   
 47  21  46  1   
 48  21  47  1   
@<TRIPOS>SUBSTRUCTURE
  1 ****   3 GROUP 4 **** **** 0

# MOE 2024.06 (io_trps.svl 2023.06)
