@<TRIPOS>MOLECULE
NONAME
35 35 1 0 0 
SMALL
USER_CHARGES


@<TRIPOS>ATOM
  1 S        0.6210    -0.3060    -0.7780 S.3   1 <1>  -0.3320 
  2 C        0.2710    -1.9760    -0.1690 C.ar  1 <1>   0.1020 
  3 C       -0.9790     0.4570    -1.3040 C.3   1 <1>  -0.0100 
  4 C        1.2700    -2.7100     0.4900 C.ar  1 <1>   0.0860 
  5 C       -1.0000    -2.4990    -0.3640 C.ar  1 <1>  -0.1500 
  6 C        2.6310    -2.2560     0.7210 C.2   1 <1>   0.5440 
  7 C        0.9120    -3.9780     0.9550 C.ar  1 <1>  -0.1500 
  8 C       -1.3130    -3.7610     0.1040 C.ar  1 <1>  -0.1500 
  9 O        3.1820    -2.5190     1.7740 O.2   1 <1>  -0.5700 
 10 N        3.3250    -1.5770    -0.2440 N.am  1 <1>  -0.7300 
 11 C       -0.3540    -4.5010     0.7690 C.ar  1 <1>  -0.1500 
 12 C        4.6920    -1.0200    -0.1920 C.3   1 <1>   0.2200 
 13 C        5.7200    -2.1390     0.0370 C.3   1 <1>  -0.1600 
 14 C        4.7430     0.0890     0.8600 C.3   1 <1>  -0.2400 
 15 C        7.1680    -1.6820    -0.2020 C.3   1 <1>  -0.1600 
 16 C        8.1440    -2.8510    -0.0450 C.3   1 <1>  -0.2400 
 17 H       -0.7800     1.4820    -1.5600 H     1 <1>   0.0800 
 18 H       -1.6640     0.3990    -0.4770 H     1 <1>   0.0800 
 19 H       -1.3430    -0.0830    -2.1590 H     1 <1>   0.0800 
 20 H       -1.7610    -1.9460    -0.8770 H     1 <1>   0.1500 
 21 H        1.6500    -4.5640     1.4770 H     1 <1>   0.1500 
 22 H       -2.2990    -4.1670    -0.0450 H     1 <1>   0.1500 
 23 H        2.7590    -1.2000    -1.0080 H     1 <1>   0.3700 
 24 H       -0.5920    -5.4830     1.1410 H     1 <1>   0.1500 
 25 H        4.8910    -0.5780    -1.1530 H     1 <1>   0.0800 
 26 H        5.4980    -2.9470    -0.6370 H     1 <1>   0.0800 
 27 H        5.6300    -2.5100     1.0430 H     1 <1>   0.0800 
 28 H        4.6280    -0.3230     1.8470 H     1 <1>   0.0800 
 29 H        3.9570     0.8020     0.6840 H     1 <1>   0.0800 
 30 H        5.6820     0.6060     0.8150 H     1 <1>   0.0800 
 31 H        7.4320    -0.9130     0.5040 H     1 <1>   0.0800 
 32 H        7.2610    -1.2740    -1.1940 H     1 <1>   0.0800 
 33 H        8.0780    -3.2630     0.9470 H     1 <1>   0.0800 
 34 H        9.1530    -2.5140    -0.2090 H     1 <1>   0.0800 
 35 H        7.9210    -3.6260    -0.7570 H     1 <1>   0.0800 
@<TRIPOS>BOND
  1   1   2  1   
  2   1   3  1   
  3   2   4  ar  
  4   2   5  ar  
  5   3  17  1   
  6   3  18  1   
  7   3  19  1   
  8   4   6  1   
  9   4   7  ar  
 10   5   8  ar  
 11   5  20  1   
 12   6   9  2   
 13   6  10  am  
 14   7  11  ar  
 15   7  21  1   
 16   8  11  ar  
 17   8  22  1   
 18  10  12  1   
 19  10  23  1   
 20  11  24  1   
 21  12  13  1   
 22  12  14  1   
 23  12  25  1   
 24  13  15  1   
 25  13  26  1   
 26  13  27  1   
 27  14  28  1   
 28  14  29  1   
 29  14  30  1   
 30  15  16  1   
 31  15  31  1   
 32  15  32  1   
 33  16  33  1   
 34  16  34  1   
 35  16  35  1   
@<TRIPOS>SUBSTRUCTURE
  1 ****   6 GROUP 4 **** **** 0

# MOE 2024.06 (io_trps.svl 2023.06)
