@<TRIPOS>MOLECULE
NONAME
50 52 1 0 0 
SMALL
USER_CHARGES


@<TRIPOS>ATOM
  1 O        0.7260     0.0060     0.9150 O.3   1 <1>  -0.3630 
  2 C        0.0690    -1.0200     0.2980 C.ar  1 <1>   0.0830 
  3 C        0.0310     0.9200     1.7420 C.3   1 <1>   0.0400 
  4 C       -1.2370    -0.9390    -0.2150 C.ar  1 <1>   0.0830 
  5 C        0.7860    -2.2060     0.1770 C.ar  1 <1>  -0.1440 
  6 O       -1.9120     0.2450    -0.1580 O.3   1 <1>  -0.3620 
  7 C       -1.8050    -2.0710    -0.7950 C.ar  1 <1>  -0.1500 
  8 C        0.2020    -3.3200    -0.4060 C.ar  1 <1>  -0.1500 
  9 C        2.2120    -2.2790     0.6830 C.3   1 <1>   0.4860 
 10 C       -3.2160     0.3970    -0.6770 C.3   1 <1>   0.0400 
 11 C       -1.0910    -3.2520    -0.8860 C.ar  1 <1>  -0.1500 
 12 N        3.1370    -2.1390    -0.4750 N.4   1 <1>  -0.9590 
 13 C        4.5510    -2.5090    -0.1190 C.3   1 <1>   0.3430 
 14 C        3.0880    -0.7410    -1.0480 C.3   1 <1>   0.3430 
 15 C        5.2360    -1.4540     0.7770 C.3   1 <1>   0.1100 
 16 C        3.8010     0.2980    -0.1580 C.3   1 <1>   0.1100 
 17 N        5.1820    -0.1240     0.1530 N.3   1 <1>  -0.8100 
 18 C        5.9490     0.8950     0.9160 C.3   1 <1>   0.2530 
 19 C        6.0020     2.2600     0.2250 C.ar  1 <1>   0.1670 
 20 N        6.7410     2.3560    -0.8730 N.ar  1 <1>  -0.6200 
 21 C        5.2900     3.3220     0.7670 C.ar  1 <1>  -0.1500 
 22 C        6.7700     3.5470    -1.4490 C.ar  1 <1>   0.1600 
 23 C        5.3270     4.5570     0.1550 C.ar  1 <1>  -0.1500 
 24 C        6.0920     4.6610    -0.9860 C.ar  1 <1>  -0.1500 
 25 H       -0.7360     0.3950     2.2850 H     1 <1>   0.0800 
 26 H       -0.4010     1.6890     1.1270 H     1 <1>   0.0800 
 27 H        0.7320     1.3590     2.4280 H     1 <1>   0.0800 
 28 H       -2.8040    -2.0580    -1.1880 H     1 <1>   0.1500 
 29 H        0.7370    -4.2510    -0.4900 H     1 <1>   0.1500 
 30 H        2.3640    -3.2310     1.1640 H     1 <1>   0.0800 
 31 H        2.3940    -1.5010     1.4050 H     1 <1>   0.0800 
 32 H       -3.8810    -0.2690    -0.1550 H     1 <1>   0.0800 
 33 H       -3.2020     0.1840    -1.7310 H     1 <1>   0.0800 
 34 H       -3.5230     1.4150    -0.5160 H     1 <1>   0.0800 
 35 H       -1.5490    -4.1180    -1.3340 H     1 <1>   0.1500 
 36 H        2.7910    -2.7730    -1.2030 H     1 <1>   0.4500 
 37 H        5.1320    -2.5940    -1.0230 H     1 <1>   0.0800 
 38 H        4.5700    -3.4660     0.3740 H     1 <1>   0.0800 
 39 H        2.0650    -0.4360    -1.1990 H     1 <1>   0.0800 
 40 H        3.5740    -0.7340    -2.0090 H     1 <1>   0.0800 
 41 H        6.2660    -1.7370     0.9120 H     1 <1>   0.0800 
 42 H        4.7680    -1.4290     1.7460 H     1 <1>   0.0800 
 43 H        3.2470     0.4550     0.7500 H     1 <1>   0.0800 
 44 H        3.8210     1.2300    -0.6970 H     1 <1>   0.0800 
 45 H        6.9630     0.5530     1.0340 H     1 <1>   0.0800 
 46 H        5.5230     1.0060     1.8970 H     1 <1>   0.0800 
 47 H        4.7090     3.1900     1.6610 H     1 <1>   0.1500 
 48 H        7.3670     3.6400    -2.3400 H     1 <1>   0.1500 
 49 H        4.7860     5.4000     0.5490 H     1 <1>   0.1500 
 50 H        6.1660     5.5940    -1.5130 H     1 <1>   0.1500 
@<TRIPOS>BOND
  1   1   2  1   
  2   1   3  1   
  3   2   4  ar  
  4   2   5  ar  
  5   3  25  1   
  6   3  26  1   
  7   3  27  1   
  8   4   6  1   
  9   4   7  ar  
 10   5   8  ar  
 11   5   9  1   
 12   6  10  1   
 13   7  11  ar  
 14   7  28  1   
 15   8  11  ar  
 16   8  29  1   
 17   9  12  1   
 18   9  30  1   
 19   9  31  1   
 20  10  32  1   
 21  10  33  1   
 22  10  34  1   
 23  11  35  1   
 24  12  13  1   
 25  12  14  1   
 26  12  36  1   
 27  13  15  1   
 28  13  37  1   
 29  13  38  1   
 30  14  16  1   
 31  14  39  1   
 32  14  40  1   
 33  15  17  1   
 34  15  41  1   
 35  15  42  1   
 36  16  17  1   
 37  16  43  1   
 38  16  44  1   
 39  17  18  1   
 40  18  19  1   
 41  18  45  1   
 42  18  46  1   
 43  19  20  ar  
 44  19  21  ar  
 45  20  22  ar  
 46  21  23  ar  
 47  21  47  1   
 48  22  24  ar  
 49  22  48  1   
 50  23  24  ar  
 51  23  49  1   
 52  24  50  1   
@<TRIPOS>SUBSTRUCTURE
  1 ****  16 GROUP 4 **** **** 0

# MOE 2024.06 (io_trps.svl 2023.06)
