@<TRIPOS>MOLECULE
NONAME
34 34 1 0 0 
SMALL
USER_CHARGES


@<TRIPOS>ATOM
  1 O       -0.1970    -0.2820    -0.7970 O.2   1 <1>  -0.5700 
  2 C        0.1120    -1.2680    -0.1600 C.2   1 <1>   0.6900 
  3 N        1.4120    -1.6320     0.0300 N.am  1 <1>  -0.5470 
  4 N       -0.8410    -2.0610     0.3870 N.am  1 <1>  -0.7300 
  5 C        2.6030    -0.9710    -0.3040 C.ar  1 <1>   0.1170 
  6 C       -2.2950    -1.8340     0.2520 C.3   1 <1>   0.1400 
  7 C        3.7510    -1.7220    -0.5150 C.ar  1 <1>  -0.1500 
  8 C        2.6880     0.4140    -0.4130 C.ar  1 <1>  -0.1500 
  9 C       -3.0020    -3.1830     0.1220 C.3   1 <1>  -0.1600 
 10 C        4.9620    -1.1210    -0.8280 C.ar  1 <1>   0.1170 
 11 C        3.8860     1.0270    -0.7320 C.ar  1 <1>  -0.1500 
 12 C       -4.5170    -3.0050    -0.0230 C.3   1 <1>  -0.2400 
 13 N        6.0940    -1.9140    -1.0380 N.am  1 <1>  -0.5470 
 14 C        5.0190     0.2620    -0.9420 C.ar  1 <1>  -0.1500 
 15 C        7.3200    -1.8700    -0.4560 C.2   1 <1>   0.5690 
 16 O        8.1740    -2.6440    -0.8000 O.2   1 <1>  -0.5700 
 17 C        7.6300    -0.8730     0.6360 C.3   1 <1>  -0.1790 
 18 H        1.5200    -2.5820     0.3630 H     1 <1>   0.3700 
 19 H       -0.5720    -2.7590     1.0750 H     1 <1>   0.3700 
 20 H       -2.4920    -1.2310    -0.6200 H     1 <1>   0.0800 
 21 H       -2.6530    -1.3050     1.1190 H     1 <1>   0.0800 
 22 H        3.7070    -2.7910    -0.4350 H     1 <1>   0.1500 
 23 H        1.8140     1.0190    -0.2480 H     1 <1>   0.1500 
 24 H       -2.8010    -3.7820     0.9930 H     1 <1>   0.0800 
 25 H       -2.6250    -3.6970    -0.7460 H     1 <1>   0.0800 
 26 H        3.9320     2.0990    -0.8190 H     1 <1>   0.1500 
 27 H       -4.9230    -2.5050     0.8390 H     1 <1>   0.0800 
 28 H       -4.9930    -3.9650    -0.1170 H     1 <1>   0.0800 
 29 H       -4.7450    -2.4240    -0.9000 H     1 <1>   0.0800 
 30 H        6.0020    -2.6830    -1.7020 H     1 <1>   0.3700 
 31 H        5.9450     0.7400    -1.2020 H     1 <1>   0.1500 
 32 H        6.7900    -0.7700     1.2970 H     1 <1>   0.0800 
 33 H        7.8660     0.0780     0.2000 H     1 <1>   0.0800 
 34 H        8.4760    -1.2150     1.2040 H     1 <1>   0.0800 
@<TRIPOS>BOND
  1   1   2  2   
  2   2   3  am  
  3   2   4  am  
  4   3   5  1   
  5   3  18  1   
  6   4   6  1   
  7   4  19  1   
  8   5   7  ar  
  9   5   8  ar  
 10   6   9  1   
 11   6  20  1   
 12   6  21  1   
 13   7  10  ar  
 14   7  22  1   
 15   8  11  ar  
 16   8  23  1   
 17   9  12  1   
 18   9  24  1   
 19   9  25  1   
 20  10  13  1   
 21  10  14  ar  
 22  11  14  ar  
 23  11  26  1   
 24  12  27  1   
 25  12  28  1   
 26  12  29  1   
 27  13  15  am  
 28  13  30  1   
 29  14  31  1   
 30  15  16  2   
 31  15  17  1   
 32  17  32  1   
 33  17  33  1   
 34  17  34  1   
@<TRIPOS>SUBSTRUCTURE
  1 ****   5 GROUP 4 **** **** 0

# MOE 2024.06 (io_trps.svl 2023.06)
