@<TRIPOS>MOLECULE
NONAME
49 50 1 0 0 
SMALL
USER_CHARGES


@<TRIPOS>ATOM
  1 CL       3.4470     0.1150     3.3180 Cl    1 <1>  -0.1770 
  2 C        3.4030     0.6760     1.6620 C.ar  1 <1>   0.1770 
  3 C        2.2800     1.3350     1.1800 C.ar  1 <1>  -0.1440 
  4 C        4.5050     0.4450     0.8640 C.ar  1 <1>  -0.1500 
  5 C        2.2820     1.7660    -0.1380 C.ar  1 <1>  -0.1500 
  6 C        1.0710     1.5850     2.0700 C.3   1 <1>  -0.0960 
  7 C        4.5020     0.8720    -0.4570 C.ar  1 <1>   0.1990 
  8 C        3.3830     1.5360    -0.9450 C.ar  1 <1>  -0.1500 
  9 N        5.5950     0.6530    -1.2840 N.am  1 <1>  -0.6930 
 10 S        5.9730    -0.9280    -1.8750 S.o2  1 <1>   1.3330 
 11 C        6.7020     1.6590    -1.2460 C.3   1 <1>   0.2570 
 12 O        7.2980    -0.8380    -2.4430 O.2   1 <1>  -0.6500 
 13 O        5.6990    -1.8730    -0.8230 O.2   1 <1>  -0.6500 
 14 C        4.7930    -1.1270    -3.1910 C.3   1 <1>  -0.1350 
 15 C        7.7480     1.4150    -0.1540 C.2   1 <1>   0.5690 
 16 O        7.7190     2.1130     0.8310 O.2   1 <1>  -0.5700 
 17 N        8.6880     0.4400    -0.3440 N.am  1 <1>  -0.5470 
 18 C        9.7180     0.0470     0.5230 C.ar  1 <1>   0.1170 
 19 C       10.8620     0.8330     0.7030 C.ar  1 <1>  -0.1430 
 20 C        9.6120    -1.1730     1.1970 C.ar  1 <1>  -0.1430 
 21 C       11.8680     0.3950     1.5490 C.ar  1 <1>  -0.1500 
 22 C       11.0590     2.1680    -0.0110 C.3   1 <1>  -0.0170 
 23 C       10.6290    -1.5910     2.0370 C.ar  1 <1>  -0.1500 
 24 C        8.3840    -2.0600     1.0310 C.3   1 <1>  -0.0970 
 25 C       11.7550    -0.8110     2.2150 C.ar  1 <1>  -0.1500 
 26 C       11.5600     1.9540    -1.4420 C.3   1 <1>  -0.2400 
 27 H        5.3600    -0.0640     1.2670 H     1 <1>   0.1500 
 28 H        1.4270     2.2820    -0.5400 H     1 <1>   0.1500 
 29 H        0.6750     0.6490     2.4220 H     1 <1>   0.0800 
 30 H        0.2970     2.1050     1.5360 H     1 <1>   0.0800 
 31 H        1.3580     2.1800     2.9190 H     1 <1>   0.0800 
 32 H        3.3790     1.8760    -1.9640 H     1 <1>   0.1500 
 33 H        6.2770     2.6330    -1.0780 H     1 <1>   0.0800 
 34 H        7.1970     1.6860    -2.1990 H     1 <1>   0.0800 
 35 H        4.9170    -0.3530    -3.9220 H     1 <1>   0.0800 
 36 H        3.7950    -1.0810    -2.8010 H     1 <1>   0.0800 
 37 H        4.9310    -2.0780    -3.6670 H     1 <1>   0.0800 
 38 H        8.5280    -0.1890    -1.1410 H     1 <1>   0.3700 
 39 H       12.7510     0.9910     1.6940 H     1 <1>   0.1500 
 40 H       11.7750     2.7640     0.5270 H     1 <1>   0.0800 
 41 H       10.1420     2.7270    -0.0220 H     1 <1>   0.0800 
 42 H       10.5510    -2.5270     2.5610 H     1 <1>   0.1500 
 43 H        8.4360    -2.9210     1.6710 H     1 <1>   0.0800 
 44 H        7.4960    -1.5100     1.2820 H     1 <1>   0.0800 
 45 H        8.3090    -2.3990     0.0140 H     1 <1>   0.0800 
 46 H       12.5420    -1.1410     2.8700 H     1 <1>   0.1500 
 47 H       12.4920     1.4170    -1.4290 H     1 <1>   0.0800 
 48 H       11.7120     2.9020    -1.9270 H     1 <1>   0.0800 
 49 H       10.8440     1.3850    -2.0070 H     1 <1>   0.0800 
@<TRIPOS>BOND
  1   1   2  1   
  2   2   3  ar  
  3   2   4  ar  
  4   3   5  ar  
  5   3   6  1   
  6   4   7  ar  
  7   4  27  1   
  8   5   8  ar  
  9   5  28  1   
 10   6  29  1   
 11   6  30  1   
 12   6  31  1   
 13   7   8  ar  
 14   7   9  1   
 15   8  32  1   
 16   9  10  am  
 17   9  11  1   
 18  10  12  2   
 19  10  13  2   
 20  10  14  1   
 21  11  15  1   
 22  11  33  1   
 23  11  34  1   
 24  14  35  1   
 25  14  36  1   
 26  14  37  1   
 27  15  16  2   
 28  15  17  am  
 29  17  18  1   
 30  17  38  1   
 31  18  19  ar  
 32  18  20  ar  
 33  19  21  ar  
 34  19  22  1   
 35  20  23  ar  
 36  20  24  1   
 37  21  25  ar  
 38  21  39  1   
 39  22  26  1   
 40  22  40  1   
 41  22  41  1   
 42  23  25  ar  
 43  23  42  1   
 44  24  43  1   
 45  24  44  1   
 46  24  45  1   
 47  25  46  1   
 48  26  47  1   
 49  26  48  1   
 50  26  49  1   
@<TRIPOS>SUBSTRUCTURE
  1 ****  15 GROUP 4 **** **** 0

# MOE 2024.06 (io_trps.svl 2023.06)
