@<TRIPOS>MOLECULE
NONAME
27 28 1 0 0 
SMALL
USER_CHARGES


@<TRIPOS>ATOM
  1 CL      -0.3070    -0.3360     1.2020 Cl    1 <1>  -0.1770 
  2 C       -1.9330    -0.1570     0.6000 C.ar  1 <1>   0.1770 
  3 C       -2.3780    -0.9830    -0.4130 C.ar  1 <1>  -0.1500 
  4 C       -2.7570     0.8090     1.1440 C.ar  1 <1>  -0.1500 
  5 C       -3.6720    -0.8370    -0.8860 C.ar  1 <1>  -0.1500 
  6 C       -4.0490     0.9440     0.6620 C.ar  1 <1>  -0.1500 
  7 C       -4.5300     0.1250    -0.3560 C.ar  1 <1>  -0.0090 
  8 S       -6.2360     0.2990    -0.9560 S.o2  1 <1>   1.4470 
  9 O       -6.4940     1.6980    -1.1750 O.2   1 <1>  -0.6500 
 10 O       -6.5040    -0.6780    -1.9810 O.2   1 <1>  -0.6500 
 11 N       -7.1780    -0.1570     0.3770 N.am  1 <1>  -0.8490 
 12 C       -8.6610     0.0020     0.1700 C.3   1 <1>   0.5060 
 13 C       -6.9230    -1.5760     0.7650 C.3   1 <1>   0.2570 
 14 S       -9.2230    -1.6000    -0.5560 S.3   1 <1>  -0.3710 
 15 C       -9.3910     1.2150    -0.5200 C.3   1 <1>   0.8700 
 16 C       -7.8490    -2.5160     0.0150 C.2   1 <1>   0.6500 
 17 CL     -11.1210     1.0860    -0.2340 Cl    1 <1>  -0.2900 
 18 CL      -9.2080     1.3110    -2.2680 Cl    1 <1>  -0.2900 
 19 CL      -8.9260     2.7600     0.1810 Cl    1 <1>  -0.2900 
 20 O       -7.7240    -3.6930    -0.1550 O.2   1 <1>  -0.5700 
 21 H       -1.7180    -1.7260    -0.8250 H     1 <1>   0.1500 
 22 H       -2.3880     1.4450     1.9290 H     1 <1>   0.1500 
 23 H       -4.0170    -1.4800    -1.6810 H     1 <1>   0.1500 
 24 H       -4.6930     1.7010     1.0810 H     1 <1>   0.1500 
 25 H       -9.0880    -0.0180     1.1570 H     1 <1>   0.0800 
 26 H       -7.1220    -1.6930     1.8160 H     1 <1>   0.0800 
 27 H       -5.9030    -1.8670     0.5910 H     1 <1>   0.0800 
@<TRIPOS>BOND
  1   1   2  1   
  2   2   3  ar  
  3   2   4  ar  
  4   3   5  ar  
  5   3  21  1   
  6   4   6  ar  
  7   4  22  1   
  8   5   7  ar  
  9   5  23  1   
 10   6   7  ar  
 11   6  24  1   
 12   7   8  1   
 13   8   9  2   
 14   8  10  2   
 15   8  11  am  
 16  11  12  1   
 17  11  13  1   
 18  12  14  1   
 19  12  15  1   
 20  12  25  1   
 21  13  16  1   
 22  13  26  1   
 23  13  27  1   
 24  14  16  1   
 25  15  17  1   
 26  15  18  1   
 27  15  19  1   
 28  16  20  2   
@<TRIPOS>SUBSTRUCTURE
  1 ****   8 GROUP 4 **** **** 0

# MOE 2024.06 (io_trps.svl 2023.06)
