@<TRIPOS>MOLECULE
NONAME
41 43 1 0 0 
SMALL
USER_CHARGES


@<TRIPOS>ATOM
  1 CL       4.4040    -0.2090    -1.1920 Cl    1 <1>  -0.1770 
  2 C        3.6230     0.9890    -0.1910 C.ar  1 <1>   0.1770 
  3 C        3.7100     2.3240    -0.5380 C.ar  1 <1>  -0.1500 
  4 C        2.9300     0.5800     0.9330 C.ar  1 <1>  -0.1500 
  5 C        3.0880     3.2770     0.2550 C.ar  1 <1>  -0.1440 
  6 C        2.3100     1.5320     1.7260 C.ar  1 <1>  -0.1500 
  7 C        2.3920     2.8730     1.3850 C.ar  1 <1>  -0.1500 
  8 C        3.1640     4.7520    -0.1120 C.3   1 <1>  -0.0160 
  9 C        1.8840     5.1890    -0.8270 C.3   1 <1>   0.1400 
 10 N        1.9940     6.6140    -1.1790 N.am  1 <1>  -0.7300 
 11 C        1.5310     7.6350    -0.4180 C.2   1 <1>   0.5690 
 12 O        0.7060     7.4450     0.4480 O.2   1 <1>  -0.5700 
 13 C        2.0270     9.0660    -0.6960 C.3   1 <1>  -0.0190 
 14 C        3.6980     9.2980    -0.8190 C.3   1 <1>  -0.1860 
 15 C        1.4780    10.1250     0.4340 C.3   1 <1>  -0.0800 
 16 C        4.5090     8.0140    -0.9490 C.2   1 <1>   0.9060 
 17 C        4.1460    10.3330     0.3770 C.3   1 <1>  -0.0800 
 18 C        2.8090    10.2420     0.3900 C.3   1 <1>  -0.1600 
 19 C        1.9280    11.1790     1.6000 C.3   1 <1>  -0.1600 
 20 O        4.4780     7.4410    -2.0460 O.co2 1 <1>  -0.9000 
 21 O        5.1010     7.5250     0.0160 O.co2 1 <1>  -0.9000 
 22 C        3.5800    11.3980     1.4780 C.3   1 <1>  -0.1600 
 23 H        4.2580     2.6140    -1.4160 H     1 <1>   0.1500 
 24 H        2.8780    -0.4640     1.1800 H     1 <1>   0.1500 
 25 H        1.7670     1.2340     2.6050 H     1 <1>   0.1500 
 26 H        1.9100     3.6130     2.0040 H     1 <1>   0.1500 
 27 H        4.0130     4.9340    -0.7490 H     1 <1>   0.0800 
 28 H        3.2960     5.3420     0.7780 H     1 <1>   0.0800 
 29 H        1.0330     5.0340    -0.1870 H     1 <1>   0.0800 
 30 H        1.7500     4.6120    -1.7250 H     1 <1>   0.0800 
 31 H        2.8420     6.8220    -1.7490 H     1 <1>   0.3700 
 32 H        1.5970     9.3220    -1.6500 H     1 <1>   0.0800 
 33 H        3.8820     9.8000    -1.7560 H     1 <1>   0.0800 
 34 H        0.8330    10.7480    -0.1690 H     1 <1>   0.0800 
 35 H        4.7640     9.7070     1.0070 H     1 <1>   0.0800 
 36 H        2.9010     9.3720     1.1790 H     1 <1>   0.0800 
 37 H        2.7100    11.0990    -0.4070 H     1 <1>   0.0800 
 38 H        1.6800    10.7740     2.5690 H     1 <1>   0.0800 
 39 H        1.4120    12.1190     1.4960 H     1 <1>   0.0800 
 40 H        3.8020    12.4070     1.1650 H     1 <1>   0.0800 
 41 H        4.0520    11.2420     2.4360 H     1 <1>   0.0800 
@<TRIPOS>BOND
  1   1   2  1   
  2   2   3  ar  
  3   2   4  ar  
  4   3   5  ar  
  5   3  23  1   
  6   4   6  ar  
  7   4  24  1   
  8   5   7  ar  
  9   5   8  1   
 10   6   7  ar  
 11   6  25  1   
 12   7  26  1   
 13   8   9  1   
 14   8  27  1   
 15   8  28  1   
 16   9  10  1   
 17   9  29  1   
 18   9  30  1   
 19  10  11  am  
 20  10  31  1   
 21  11  12  2   
 22  11  13  1   
 23  13  14  1   
 24  13  15  1   
 25  13  32  1   
 26  14  16  1   
 27  14  17  1   
 28  14  33  1   
 29  15  18  1   
 30  15  19  1   
 31  15  34  1   
 32  16  20  ar  
 33  16  21  ar  
 34  17  18  1   
 35  17  22  1   
 36  17  35  1   
 37  18  36  1   
 38  18  37  1   
 39  19  22  1   
 40  19  38  1   
 41  19  39  1   
 42  22  40  1   
 43  22  41  1   
@<TRIPOS>SUBSTRUCTURE
  1 ****   8 GROUP 4 **** **** 0

# MOE 2024.06 (io_trps.svl 2023.06)
