@<TRIPOS>MOLECULE
NONAME
45 48 1 0 0 
SMALL
USER_CHARGES


@<TRIPOS>ATOM
  1 O        0.4020    -0.3550    -0.9470 O.2   1 <1>  -0.5700 
  2 C        1.4910    -0.0740    -0.5070 C.2   1 <1>   0.5690 
  3 N        1.8540     1.2170    -0.2110 N.am  1 <1>  -0.5470 
  4 C        2.5110    -1.2120    -0.2740 C.3   1 <1>   0.0610 
  5 C        1.1620     2.4310    -0.3000 C.ar  1 <1>   0.1170 
  6 C        1.9440    -2.2170     0.7580 C.3   1 <1>  -0.1600 
  7 C        3.8820    -0.7040     0.2570 C.3   1 <1>  -0.1600 
  8 C        2.7660    -1.9670    -1.6020 C.3   1 <1>  -0.1600 
  9 C        1.8350     3.6200    -0.0760 C.ar  1 <1>  -0.1500 
 10 C       -0.1860     2.5580    -0.5960 C.ar  1 <1>  -0.1500 
 11 C        2.9090    -3.3980     0.9840 C.3   1 <1>   0.0000 
 12 C        4.8680    -1.8680     0.4770 C.3   1 <1>   0.0000 
 13 C        3.7390    -3.1400    -1.3920 C.3   1 <1>  -0.0800 
 14 C        1.1610     4.8230    -0.1570 C.ar  1 <1>   0.1600 
 15 C       -0.7650     3.8100    -0.6530 C.ar  1 <1>   0.1600 
 16 C        4.2560    -2.8510     1.4950 C.3   1 <1>  -0.1600 
 17 C        3.1410    -4.1150    -0.3620 C.3   1 <1>  -0.1600 
 18 C        2.3150    -4.3760     2.0060 C.3   1 <1>  -0.2400 
 19 C        5.0790    -2.6010    -0.8630 C.3   1 <1>  -0.1600 
 20 C        6.2070    -1.3330     1.0000 C.3   1 <1>  -0.2400 
 21 N       -0.1250     4.9500    -0.4400 N.ar  1 <1>  -0.6200 
 22 H        2.8100     1.2990     0.1240 H     1 <1>   0.3700 
 23 H        0.9970    -2.5920     0.4060 H     1 <1>   0.0800 
 24 H        1.7610    -1.7110     1.6890 H     1 <1>   0.0800 
 25 H        3.7400    -0.1890     1.1920 H     1 <1>   0.0800 
 26 H        4.3100    -0.0130    -0.4490 H     1 <1>   0.0800 
 27 H        3.1660    -1.2900    -2.3360 H     1 <1>   0.0800 
 28 H        1.8340    -2.3450    -1.9880 H     1 <1>   0.0800 
 29 H        2.8810     3.6150     0.1600 H     1 <1>   0.1500 
 30 H       -0.7950     1.6950    -0.7810 H     1 <1>   0.1500 
 31 H        3.8970    -3.6530    -2.3260 H     1 <1>   0.0800 
 32 H        1.7060     5.7350     0.0210 H     1 <1>   0.1500 
 33 H       -1.8140     3.8800    -0.8860 H     1 <1>   0.1500 
 34 H        4.1110    -2.3540     2.4380 H     1 <1>   0.0800 
 35 H        4.9370    -3.6680     1.6600 H     1 <1>   0.0800 
 36 H        2.2090    -4.5040    -0.7350 H     1 <1>   0.0800 
 37 H        3.8090    -4.9460    -0.2240 H     1 <1>   0.0800 
 38 H        2.1500    -3.8830     2.9470 H     1 <1>   0.0800 
 39 H        2.9820    -5.2040     2.1670 H     1 <1>   0.0800 
 40 H        1.3740    -4.7610     1.6540 H     1 <1>   0.0800 
 41 H        5.7650    -3.4190    -0.7280 H     1 <1>   0.0800 
 42 H        5.5090    -1.9320    -1.5870 H     1 <1>   0.0800 
 43 H        6.0710    -0.8210     1.9350 H     1 <1>   0.0800 
 44 H        6.6420    -0.6470     0.2940 H     1 <1>   0.0800 
 45 H        6.8990    -2.1420     1.1550 H     1 <1>   0.0800 
@<TRIPOS>BOND
  1   1   2  2   
  2   2   3  am  
  3   2   4  1   
  4   3   5  1   
  5   3  22  1   
  6   4   6  1   
  7   4   7  1   
  8   4   8  1   
  9   5   9  ar  
 10   5  10  ar  
 11   6  11  1   
 12   6  23  1   
 13   6  24  1   
 14   7  12  1   
 15   7  25  1   
 16   7  26  1   
 17   8  13  1   
 18   8  27  1   
 19   8  28  1   
 20   9  14  ar  
 21   9  29  1   
 22  10  15  ar  
 23  10  30  1   
 24  11  16  1   
 25  11  17  1   
 26  11  18  1   
 27  12  16  1   
 28  12  19  1   
 29  12  20  1   
 30  13  17  1   
 31  13  19  1   
 32  13  31  1   
 33  14  21  ar  
 34  14  32  1   
 35  15  21  ar  
 36  15  33  1   
 37  16  34  1   
 38  16  35  1   
 39  17  36  1   
 40  17  37  1   
 41  18  38  1   
 42  18  39  1   
 43  18  40  1   
 44  19  41  1   
 45  19  42  1   
 46  20  43  1   
 47  20  44  1   
 48  20  45  1   
@<TRIPOS>SUBSTRUCTURE
  1 ****   4 GROUP 4 **** **** 0

# MOE 2024.06 (io_trps.svl 2023.06)
