@<TRIPOS>MOLECULE
NONAME
48 50 1 0 0 
SMALL
USER_CHARGES


@<TRIPOS>ATOM
  1 O       -1.9450    -0.3470    -1.7600 O.2   1 <1>  -0.5750 
  2 C       -1.2750    -1.3390    -1.5600 C.2   1 <1>   0.6860 
  3 N       -0.1140    -1.5540    -2.2970 N.am  1 <1>  -0.4260 
  4 N       -1.6640    -2.2520    -0.5890 N.am  1 <1>  -0.4420 
  5 C        0.7060    -2.6450    -2.0410 C.2   1 <1>   0.6990 
  6 C        0.2680    -0.5640    -3.3520 C.3   1 <1>   0.0520 
  7 C       -0.8390    -3.3330    -0.3470 C.2   1 <1>   0.4200 
  8 C       -2.9210    -2.0480     0.1910 C.3   1 <1>   0.0520 
  9 O        1.7420    -2.8150    -2.6620 O.2   1 <1>  -0.5750 
 10 C        0.3060    -3.5660    -1.0200 C.2   1 <1>   0.2700 
 11 N       -1.0040    -4.3190     0.5730 N.pl3 1 <1>  -0.7040 
 12 N        0.8530    -4.7520    -0.4900 N.pl3 1 <1>  -0.7680 
 13 C        0.0210    -5.1590     0.4760 C.cat 1 <1>   1.0690 
 14 C        2.1360    -5.3150    -1.0110 C.3   1 <1>   0.4920 
 15 N        0.1560    -6.2340     1.2490 N.pl3 1 <1>  -0.7180 
 16 C        2.3740    -6.7050    -0.4510 C.ar  1 <1>  -0.1510 
 17 C       -0.7140    -6.7210     2.3480 C.3   1 <1>   0.1600 
 18 C        3.1130    -6.8710     0.7110 C.ar  1 <1>  -0.1580 
 19 C        1.8080    -7.8150    -1.0630 C.ar  1 <1>  -0.1580 
 20 C       -1.3290    -8.0750     1.9870 C.3   1 <1>   0.1120 
 21 C        3.2630    -8.1240     1.2790 C.ar  1 <1>   0.0740 
 22 C        1.9650    -9.0720    -0.5050 C.ar  1 <1>  -0.1580 
 23 O       -2.3700    -8.3090     2.8660 O.3   1 <1>  -0.6840 
 24 O        3.9690    -8.1830     2.4320 O.3   1 <1>  -0.3690 
 25 C        2.6860    -9.2300     0.6650 C.ar  1 <1>  -0.1580 
 26 C        4.3290    -9.4200     3.0080 C.3   1 <1>   0.0310 
 27 H       -0.6100    -0.2160    -3.8700 H     1 <1>   0.0720 
 28 H        0.9310    -1.0050    -4.0760 H     1 <1>   0.0720 
 29 H        0.7570     0.2790    -2.8950 H     1 <1>   0.0720 
 30 H       -3.6070    -1.4210    -0.3530 H     1 <1>   0.0720 
 31 H       -2.6920    -1.5710     1.1290 H     1 <1>   0.0720 
 32 H       -3.4070    -2.9890     0.3750 H     1 <1>   0.0720 
 33 H       -1.7670    -4.4220     1.2350 H     1 <1>   0.4440 
 34 H        2.9510    -4.6640    -0.7400 H     1 <1>   0.0720 
 35 H        2.0990    -5.3670    -2.0860 H     1 <1>   0.0720 
 36 H        0.9810    -6.8240     1.0680 H     1 <1>   0.4440 
 37 H       -1.5040    -6.0140     2.5370 H     1 <1>   0.0720 
 38 H       -0.1290    -6.8250     3.2460 H     1 <1>   0.0720 
 39 H        3.5780    -6.0330     1.2020 H     1 <1>   0.1420 
 40 H        1.2410    -7.7150    -1.9740 H     1 <1>   0.1420 
 41 H       -0.6070    -8.8680     2.0930 H     1 <1>   0.0720 
 42 H       -1.7370    -8.0680     0.9910 H     1 <1>   0.0720 
 43 H        1.5300    -9.9330    -0.9860 H     1 <1>   0.1420 
 44 H       -2.7420    -9.2080     2.7480 H     1 <1>   0.3940 
 45 H        2.7920   -10.2160     1.0790 H     1 <1>   0.1420 
 46 H        4.9400    -9.2210     3.8700 H     1 <1>   0.0720 
 47 H        4.8890    -9.9910     2.2880 H     1 <1>   0.0720 
 48 H        3.4380    -9.9420     3.3060 H     1 <1>   0.0720 
@<TRIPOS>BOND
  1   1   2  2   
  2   2   3  am  
  3   2   4  am  
  4   3   5  am  
  5   3   6  1   
  6   4   7  1   
  7   4   8  1   
  8   5   9  2   
  9   5  10  1   
 10   6  27  1   
 11   6  28  1   
 12   6  29  1   
 13   7  10  2   
 14   7  11  1   
 15   8  30  1   
 16   8  31  1   
 17   8  32  1   
 18  10  12  1   
 19  11  13  ar  
 20  11  33  1   
 21  12  13  ar  
 22  12  14  1   
 23  13  15  ar  
 24  14  16  1   
 25  14  34  1   
 26  14  35  1   
 27  15  17  1   
 28  15  36  1   
 29  16  18  ar  
 30  16  19  ar  
 31  17  20  1   
 32  17  37  1   
 33  17  38  1   
 34  18  21  ar  
 35  18  39  1   
 36  19  22  ar  
 37  19  40  1   
 38  20  23  1   
 39  20  41  1   
 40  20  42  1   
 41  21  24  1   
 42  21  25  ar  
 43  22  25  ar  
 44  22  43  1   
 45  23  44  1   
 46  24  26  1   
 47  25  45  1   
 48  26  46  1   
 49  26  47  1   
 50  26  48  1   
@<TRIPOS>SUBSTRUCTURE
  1 ****  12 GROUP 4 **** **** 0

# MOE 2024.06 (io_trps.svl 2023.06)
