@<TRIPOS>MOLECULE
NONAME
38 39 1 0 0 
SMALL
USER_CHARGES


@<TRIPOS>ATOM
  1 O       -0.9050    -0.0120     2.3190 O.3   1 <1>  -0.5320 
  2 C       -1.8340    -0.6280     1.5750 C.ar  1 <1>   0.0830 
  3 C       -2.7910    -1.4020     2.2040 C.ar  1 <1>  -0.1500 
  4 C       -1.8340    -0.4920     0.1970 C.ar  1 <1>  -0.1500 
  5 C       -3.7610    -2.0420     1.4540 C.ar  1 <1>  -0.1500 
  6 C       -2.8050    -1.1320    -0.5530 C.ar  1 <1>  -0.1500 
  7 C       -3.7780    -1.9040     0.0710 C.ar  1 <1>  -0.1430 
  8 C       -4.8570    -2.5820    -0.7510 C.3   1 <1>   0.4860 
  9 N       -6.1500    -1.8940    -0.5010 N.4   1 <1>  -0.9590 
 10 C       -7.3330    -2.5480    -1.1450 C.3   1 <1>   0.3430 
 11 C       -6.1280    -0.4200    -0.7840 C.3   1 <1>   0.3430 
 12 C       -8.6520    -1.8370    -0.7470 C.3   1 <1>   0.1100 
 13 C       -7.4570     0.2470    -0.3550 C.3   1 <1>   0.1100 
 14 N       -8.4310    -0.7210     0.2100 N.3   1 <1>  -0.8100 
 15 C       -9.6920    -0.0370     0.5720 C.3   1 <1>   0.1100 
 16 C      -10.5560    -0.8900     1.5100 C.3   1 <1>   0.1200 
 17 O      -11.7010    -0.1830     1.8380 O.3   1 <1>  -0.6800 
 18 H       -0.2560     0.4920     1.7970 H     1 <1>   0.4500 
 19 H       -2.7660    -1.4990     3.2760 H     1 <1>   0.1500 
 20 H       -1.0820     0.1050    -0.2890 H     1 <1>   0.1500 
 21 H       -4.4930    -2.6440     1.9640 H     1 <1>   0.1500 
 22 H       -2.7900    -1.0200    -1.6240 H     1 <1>   0.1500 
 23 H       -4.9260    -3.6180    -0.4620 H     1 <1>   0.0800 
 24 H       -4.6060    -2.5330    -1.7970 H     1 <1>   0.0800 
 25 H       -6.3520    -1.9290     0.5090 H     1 <1>   0.4500 
 26 H       -7.3920    -3.5800    -0.8430 H     1 <1>   0.0800 
 27 H       -7.2310    -2.5250    -2.2180 H     1 <1>   0.0800 
 28 H       -5.9650    -0.2470    -1.8350 H     1 <1>   0.0800 
 29 H       -5.3190     0.0460    -0.2460 H     1 <1>   0.0800 
 30 H       -9.3100    -2.5680    -0.3110 H     1 <1>   0.0800 
 31 H       -9.1330    -1.4650    -1.6370 H     1 <1>   0.0800 
 32 H       -7.8890     0.7480    -1.2060 H     1 <1>   0.0800 
 33 H       -7.2380     1.0010     0.3830 H     1 <1>   0.0800 
 34 H      -10.2520     0.2010    -0.3170 H     1 <1>   0.0800 
 35 H       -9.4570     0.8800     1.0850 H     1 <1>   0.0800 
 36 H      -10.0280    -1.1220     2.4190 H     1 <1>   0.0800 
 37 H      -10.8710    -1.7970     1.0280 H     1 <1>   0.0800 
 38 H      -11.5000     0.5520     2.4510 H     1 <1>   0.4000 
@<TRIPOS>BOND
  1   1   2  1   
  2   1  18  1   
  3   2   3  ar  
  4   2   4  ar  
  5   3   5  ar  
  6   3  19  1   
  7   4   6  ar  
  8   4  20  1   
  9   5   7  ar  
 10   5  21  1   
 11   6   7  ar  
 12   6  22  1   
 13   7   8  1   
 14   8   9  1   
 15   8  23  1   
 16   8  24  1   
 17   9  10  1   
 18   9  11  1   
 19   9  25  1   
 20  10  12  1   
 21  10  26  1   
 22  10  27  1   
 23  11  13  1   
 24  11  28  1   
 25  11  29  1   
 26  12  14  1   
 27  12  30  1   
 28  12  31  1   
 29  13  14  1   
 30  13  32  1   
 31  13  33  1   
 32  14  15  1   
 33  15  16  1   
 34  15  34  1   
 35  15  35  1   
 36  16  17  1   
 37  16  36  1   
 38  16  37  1   
 39  17  38  1   
@<TRIPOS>SUBSTRUCTURE
  1 ****   9 GROUP 4 **** **** 0

# MOE 2024.06 (io_trps.svl 2023.06)
