@<TRIPOS>MOLECULE
NONAME
34 37 1 0 0 
SMALL
USER_CHARGES


@<TRIPOS>ATOM
  1 BR      -0.0060    -0.3110    -0.8310 Br    1 <1>  -0.1110 
  2 C        1.8930    -0.1390    -0.5340 C.ar  1 <1>   0.1110 
  3 C        2.6970    -1.2680    -0.5020 C.ar  1 <1>   0.0830 
  4 C        2.4120     1.1380    -0.3580 C.ar  1 <1>  -0.1500 
  5 O        2.2020    -2.5130    -0.6730 O.3   1 <1>  -0.5330 
  6 C        4.0500    -1.0680    -0.2850 C.ar  1 <1>   0.0400 
  7 C        3.7710     1.3020    -0.1430 C.ar  1 <1>  -0.1500 
  8 S        5.2950    -2.3280    -0.1970 S.3   1 <1>  -0.0800 
  9 C        4.6180     0.1900    -0.1030 C.ar  1 <1>   0.0000 
 10 C        6.5470    -1.1290     0.0820 C.2   1 <1>   0.1660 
 11 C        6.0460     0.1290     0.1050 C.2   1 <1>  -0.0860 
 12 N        7.8410    -1.4840     0.2410 N.2   1 <1>  -0.5760 
 13 C        6.9860     1.1730     0.3260 C.2   1 <1>   0.7160 
 14 C        8.6730    -0.5200     0.4410 C.2   1 <1>   0.4490 
 15 O        6.6480     2.3490     0.3550 O.2   1 <1>  -0.5700 
 16 N        8.3130     0.8140     0.5100 N.am  1 <1>  -0.4200 
 17 C       10.1380    -0.9100     0.5980 C.3   1 <1>  -0.0990 
 18 C        9.3250     1.8810     0.7740 C.3   1 <1>   0.1400 
 19 C       11.0130    -0.4150    -0.5650 C.3   1 <1>  -0.1600 
 20 C       10.2720     2.0550    -0.4190 C.3   1 <1>  -0.1600 
 21 C       11.4360     1.0540    -0.4320 C.3   1 <1>  -0.1600 
 22 H        1.7540     1.9880    -0.3900 H     1 <1>   0.1500 
 23 H        2.8950    -3.1980    -0.6230 H     1 <1>   0.4500 
 24 H        4.1750     2.2900    -0.0060 H     1 <1>   0.1500 
 25 H       10.1950    -1.9850     0.6180 H     1 <1>   0.0800 
 26 H       10.5190    -0.5650     1.5410 H     1 <1>   0.0800 
 27 H        9.8820     1.6440     1.6640 H     1 <1>   0.0800 
 28 H        8.8370     2.8220     0.9600 H     1 <1>   0.0800 
 29 H       10.4950    -0.5670    -1.4970 H     1 <1>   0.0800 
 30 H       11.9070    -1.0160    -0.5960 H     1 <1>   0.0800 
 31 H       10.6950     3.0420    -0.3610 H     1 <1>   0.0800 
 32 H        9.7160     2.0030    -1.3400 H     1 <1>   0.0800 
 33 H       12.0810     1.2950    -1.2610 H     1 <1>   0.0800 
 34 H       12.0200     1.1750     0.4650 H     1 <1>   0.0800 
@<TRIPOS>BOND
  1   1   2  1   
  2   2   3  ar  
  3   2   4  ar  
  4   3   5  1   
  5   3   6  ar  
  6   4   7  ar  
  7   4  22  1   
  8   5  23  1   
  9   6   8  1   
 10   6   9  ar  
 11   7   9  ar  
 12   7  24  1   
 13   8  10  1   
 14   9  11  1   
 15  10  11  2   
 16  10  12  1   
 17  11  13  1   
 18  12  14  2   
 19  13  15  2   
 20  13  16  am  
 21  14  16  1   
 22  14  17  1   
 23  16  18  1   
 24  17  19  1   
 25  17  25  1   
 26  17  26  1   
 27  18  20  1   
 28  18  27  1   
 29  18  28  1   
 30  19  21  1   
 31  19  29  1   
 32  19  30  1   
 33  20  21  1   
 34  20  31  1   
 35  20  32  1   
 36  21  33  1   
 37  21  34  1   
@<TRIPOS>SUBSTRUCTURE
  1 ****  11 GROUP 4 **** **** 0

# MOE 2024.06 (io_trps.svl 2023.06)
