@<TRIPOS>MOLECULE
NONAME
50 51 1 0 0 
SMALL
USER_CHARGES


@<TRIPOS>ATOM
  1 O       -0.0070     0.3950     0.9980 O.2   1 <1>  -0.5700 
  2 C        0.5440    -0.5500     0.4680 C.2   1 <1>   0.6900 
  3 N        1.8730    -0.5670     0.1810 N.am  1 <1>  -0.5470 
  4 N       -0.1860    -1.6430     0.1350 N.am  1 <1>  -0.7300 
  5 C        2.9100     0.3720     0.3290 C.ar  1 <1>   0.1170 
  6 C       -1.6200    -1.7680     0.4210 C.3   1 <1>   0.2200 
  7 C        4.2190    -0.0590     0.0810 C.ar  1 <1>   0.0830 
  8 C        2.7010     1.6960     0.6990 C.ar  1 <1>  -0.1500 
  9 C       -1.9880    -3.2360     0.6140 C.3   1 <1>  -0.1600 
 10 C       -2.4180    -1.1550    -0.7270 C.3   1 <1>  -0.1600 
 11 O        4.3830    -1.3670    -0.2880 O.3   1 <1>  -0.3630 
 12 C        5.2830     0.8290     0.2110 C.ar  1 <1>  -0.1500 
 13 C        3.7620     2.5740     0.8270 C.ar  1 <1>  -0.1500 
 14 C       -3.4920    -3.3730     0.8430 C.3   1 <1>   0.3430 
 15 C       -3.9120    -1.3160    -0.4730 C.3   1 <1>   0.3430 
 16 C        5.6650    -1.9040    -0.5190 C.3   1 <1>   0.1200 
 17 C        5.0530     2.1420     0.5840 C.ar  1 <1>  -0.1500 
 18 N       -4.2460    -2.7620    -0.2970 N.4   1 <1>  -0.9590 
 19 C        5.5010    -3.3760    -0.8850 C.3   1 <1>  -0.2400 
 20 C       -5.7190    -2.9300    -0.1480 C.3   1 <1>   0.3430 
 21 C       -6.1190    -4.3890    -0.3760 C.3   1 <1>  -0.1600 
 22 C       -7.6430    -4.5490    -0.3420 C.3   1 <1>  -0.2400 
 23 H        2.2370    -1.4630    -0.1330 H     1 <1>   0.3700 
 24 H        0.2530    -2.3730    -0.4220 H     1 <1>   0.3700 
 25 H       -1.8410    -1.2290     1.3300 H     1 <1>   0.0800 
 26 H        1.7080     2.0570     0.8900 H     1 <1>   0.1500 
 27 H       -1.4690    -3.6210     1.4730 H     1 <1>   0.0800 
 28 H       -1.7010    -3.8160    -0.2450 H     1 <1>   0.0800 
 29 H       -2.1550    -1.6150    -1.6630 H     1 <1>   0.0800 
 30 H       -2.1900    -0.1050    -0.7930 H     1 <1>   0.0800 
 31 H        6.2960     0.5250     0.0280 H     1 <1>   0.1500 
 32 H        3.5800     3.5950     1.1170 H     1 <1>   0.1500 
 33 H       -3.7610    -2.8780     1.7630 H     1 <1>   0.0800 
 34 H       -3.7420    -4.4180     0.9370 H     1 <1>   0.0800 
 35 H       -4.4620    -0.9060    -1.3060 H     1 <1>   0.0800 
 36 H       -4.1840    -0.7660     0.4150 H     1 <1>   0.0800 
 37 H        6.2470    -1.7990     0.3810 H     1 <1>   0.0800 
 38 H        6.1220    -1.3610    -1.3280 H     1 <1>   0.0800 
 39 H        5.8770     2.8270     0.6850 H     1 <1>   0.1500 
 40 H       -3.9650    -3.2490    -1.1590 H     1 <1>   0.4500 
 41 H        5.0310    -3.9080    -0.0780 H     1 <1>   0.0800 
 42 H        6.4660    -3.8140    -1.0670 H     1 <1>   0.0800 
 43 H        4.9080    -3.4720    -1.7770 H     1 <1>   0.0800 
 44 H       -6.2270    -2.3190    -0.8770 H     1 <1>   0.0800 
 45 H       -6.0340    -2.6110     0.8330 H     1 <1>   0.0800 
 46 H       -5.6980    -5.0200     0.3870 H     1 <1>   0.0800 
 47 H       -5.7630    -4.7210    -1.3360 H     1 <1>   0.0800 
 48 H       -8.0390    -4.2490     0.6130 H     1 <1>   0.0800 
 49 H       -7.9080    -5.5800    -0.5060 H     1 <1>   0.0800 
 50 H       -8.1080    -3.9570    -1.1120 H     1 <1>   0.0800 
@<TRIPOS>BOND
  1   1   2  2   
  2   2   3  am  
  3   2   4  am  
  4   3   5  1   
  5   3  23  1   
  6   4   6  1   
  7   4  24  1   
  8   5   7  ar  
  9   5   8  ar  
 10   6   9  1   
 11   6  10  1   
 12   6  25  1   
 13   7  11  1   
 14   7  12  ar  
 15   8  13  ar  
 16   8  26  1   
 17   9  14  1   
 18   9  27  1   
 19   9  28  1   
 20  10  15  1   
 21  10  29  1   
 22  10  30  1   
 23  11  16  1   
 24  12  17  ar  
 25  12  31  1   
 26  13  17  ar  
 27  13  32  1   
 28  14  18  1   
 29  14  33  1   
 30  14  34  1   
 31  15  18  1   
 32  15  35  1   
 33  15  36  1   
 34  16  19  1   
 35  16  37  1   
 36  16  38  1   
 37  17  39  1   
 38  18  20  1   
 39  18  40  1   
 40  19  41  1   
 41  19  42  1   
 42  19  43  1   
 43  20  21  1   
 44  20  44  1   
 45  20  45  1   
 46  21  22  1   
 47  21  46  1   
 48  21  47  1   
 49  22  48  1   
 50  22  49  1   
 51  22  50  1   
@<TRIPOS>SUBSTRUCTURE
  1 ****   4 GROUP 4 **** **** 0

# MOE 2024.06 (io_trps.svl 2023.06)
