@<TRIPOS>MOLECULE
NONAME
42 43 1 0 0 
SMALL
USER_CHARGES


@<TRIPOS>ATOM
  1 O       -8.7890     0.3110    -1.2370 O.2   1 <1>  -0.5700 
  2 C       -8.7960    -0.0210    -0.0710 C.2   1 <1>   0.6340 
  3 O       -7.9060     0.5080     0.7770 O.3   1 <1>  -0.4300 
  4 C       -9.7400    -0.9830     0.4640 C.ar  1 <1>   0.0860 
  5 C       -6.8920     1.4590     0.4950 C.3   1 <1>   0.2000 
  6 C       -9.7610    -1.3740     1.7970 C.ar  1 <1>  -0.1500 
  7 C      -10.7050    -1.5900    -0.3310 C.ar  1 <1>  -0.1500 
  8 C       -7.4920     2.7850     0.0170 C.3   1 <1>  -0.1600 
  9 C       -5.8750     0.9060    -0.5080 C.3   1 <1>  -0.1600 
 10 C      -10.6880    -2.2960     2.2430 C.ar  1 <1>   0.1600 
 11 C      -11.5890    -2.5020     0.2110 C.ar  1 <1>   0.1600 
 12 C       -6.4070     3.8490    -0.2380 C.3   1 <1>   0.2560 
 13 C       -4.7340     1.9040    -0.7810 C.3   1 <1>   0.2560 
 14 N      -11.6030    -2.8690     1.4810 N.ar  1 <1>  -0.6200 
 15 N       -5.2980     3.2730    -1.0900 N.4   1 <1>  -0.1220 
 16 C       -5.9050     4.4350     1.0990 C.3   1 <1>  -0.2400 
 17 C       -7.0510     5.0010    -1.0300 C.3   1 <1>  -0.2400 
 18 C       -3.7330     1.9100     0.3940 C.3   1 <1>  -0.2400 
 19 C       -3.9730     1.4240    -2.0290 C.3   1 <1>  -0.2400 
 20 O       -4.2850     4.1870    -1.2420 O.2   1 <1>  -0.7500 
 21 H       -6.3950     1.6250     1.4340 H     1 <1>   0.0800 
 22 H       -9.0540    -0.9610     2.4940 H     1 <1>   0.1500 
 23 H      -10.7640    -1.3480    -1.3770 H     1 <1>   0.1500 
 24 H       -8.1860     3.1490     0.7530 H     1 <1>   0.0800 
 25 H       -8.0350     2.6300    -0.8960 H     1 <1>   0.0800 
 26 H       -6.3640     0.6880    -1.4390 H     1 <1>   0.0800 
 27 H       -5.4650    -0.0140    -0.1300 H     1 <1>   0.0800 
 28 H      -10.6800    -2.5800     3.2830 H     1 <1>   0.1500 
 29 H      -12.3260    -2.9560    -0.4320 H     1 <1>   0.1500 
 30 H       -5.7090     3.1800    -2.0220 H     1 <1>   0.3600 
 31 H       -5.5590     3.6830     1.7740 H     1 <1>   0.0800 
 32 H       -6.7010     4.9630     1.5920 H     1 <1>   0.0800 
 33 H       -5.1080     5.1370     0.9250 H     1 <1>   0.0800 
 34 H       -7.4070     4.6620    -1.9860 H     1 <1>   0.0800 
 35 H       -6.3320     5.7860    -1.1910 H     1 <1>   0.0800 
 36 H       -7.8810     5.4160    -0.4880 H     1 <1>   0.0800 
 37 H       -4.2020     2.1060     1.3340 H     1 <1>   0.0800 
 38 H       -2.9670     2.6480     0.2300 H     1 <1>   0.0800 
 39 H       -3.2510     0.9530     0.4720 H     1 <1>   0.0800 
 40 H       -4.6120     1.4140    -2.8930 H     1 <1>   0.0800 
 41 H       -3.5900     0.4300    -1.8810 H     1 <1>   0.0800 
 42 H       -3.1390     2.0750    -2.2280 H     1 <1>   0.0800 
@<TRIPOS>BOND
  1   1   2  2   
  2   2   3  1   
  3   2   4  1   
  4   3   5  1   
  5   4   6  ar  
  6   4   7  ar  
  7   5   8  1   
  8   5   9  1   
  9   5  21  1   
 10   6  10  ar  
 11   6  22  1   
 12   7  11  ar  
 13   7  23  1   
 14   8  12  1   
 15   8  24  1   
 16   8  25  1   
 17   9  13  1   
 18   9  26  1   
 19   9  27  1   
 20  10  14  ar  
 21  10  28  1   
 22  11  14  ar  
 23  11  29  1   
 24  12  15  1   
 25  12  16  1   
 26  12  17  1   
 27  13  15  1   
 28  13  18  1   
 29  13  19  1   
 30  15  20  2   
 31  15  30  1   
 32  16  31  1   
 33  16  32  1   
 34  16  33  1   
 35  17  34  1   
 36  17  35  1   
 37  17  36  1   
 38  18  37  1   
 39  18  38  1   
 40  18  39  1   
 41  19  40  1   
 42  19  41  1   
 43  19  42  1   
@<TRIPOS>SUBSTRUCTURE
  1 ****   5 GROUP 4 **** **** 0

# MOE 2024.06 (io_trps.svl 2023.06)
