@<TRIPOS>MOLECULE
NONAME
36 37 1 0 0 
SMALL
USER_CHARGES


@<TRIPOS>ATOM
  1 CL       0.0990    -0.6150     0.0200 Cl    1 <1>  -0.1770 
  2 C        1.8260    -0.4330    -0.1280 C.ar  1 <1>   0.1770 
  3 C        2.4880     0.4660     0.6860 C.ar  1 <1>  -0.1500 
  4 C        2.5120    -1.1890    -1.0590 C.ar  1 <1>  -0.1500 
  5 C        3.8610     0.6010     0.5690 C.ar  1 <1>  -0.1500 
  6 C        3.8840    -1.0440    -1.1680 C.ar  1 <1>  -0.1500 
  7 C        4.5900    -0.1580    -0.3490 C.ar  1 <1>   0.0860 
  8 C        6.0300    -0.0190    -0.4410 C.2   1 <1>   0.5440 
  9 O        6.5360     1.0680    -0.6500 O.2   1 <1>  -0.5700 
 10 N        6.8730    -1.0730    -0.2610 N.am  1 <1>  -0.4300 
 11 N        6.5250    -2.4370     0.1730 N.am  1 <1>  -0.4300 
 12 C        6.2100    -3.4790    -0.6450 C.2   1 <1>   0.5690 
 13 O        6.2550    -3.3860    -1.8540 O.2   1 <1>  -0.5700 
 14 C        5.7540    -4.7910    -0.0060 C.3   1 <1>  -0.0190 
 15 C        6.4470    -6.0170    -0.6330 C.3   1 <1>  -0.1600 
 16 C        4.2220    -4.9310    -0.0940 C.3   1 <1>  -0.1600 
 17 C        5.9650    -7.3260     0.0100 C.3   1 <1>  -0.1600 
 18 C        3.7380    -6.2400     0.5460 C.3   1 <1>  -0.1600 
 19 C        4.4380    -7.4540    -0.0770 C.3   1 <1>  -0.1600 
 20 H        1.9320     1.0510     1.3980 H     1 <1>   0.1500 
 21 H        1.9780    -1.8770    -1.6900 H     1 <1>   0.1500 
 22 H        4.3850     1.3050     1.1930 H     1 <1>   0.1500 
 23 H        4.4220    -1.6200    -1.9020 H     1 <1>   0.1500 
 24 H        7.8570    -0.8880    -0.4850 H     1 <1>   0.3700 
 25 H        6.4840    -2.5830     1.1860 H     1 <1>   0.3700 
 26 H        6.0240    -4.7660     1.0340 H     1 <1>   0.0800 
 27 H        7.5130    -5.9300    -0.5180 H     1 <1>   0.0800 
 28 H        6.2340    -6.0460    -1.6890 H     1 <1>   0.0800 
 29 H        3.9250    -4.9140    -1.1300 H     1 <1>   0.0800 
 30 H        3.7500    -4.0970     0.3950 H     1 <1>   0.0800 
 31 H        6.2670    -7.3520     1.0430 H     1 <1>   0.0800 
 32 H        6.4240    -8.1620    -0.4890 H     1 <1>   0.0800 
 33 H        2.6730    -6.3330     0.4140 H     1 <1>   0.0800 
 34 H        3.9360    -6.2180     1.6040 H     1 <1>   0.0800 
 35 H        4.1230    -8.3520     0.4280 H     1 <1>   0.0800 
 36 H        4.1480    -7.5400    -1.1110 H     1 <1>   0.0800 
@<TRIPOS>BOND
  1   1   2  1   
  2   2   3  ar  
  3   2   4  ar  
  4   3   5  ar  
  5   3  20  1   
  6   4   6  ar  
  7   4  21  1   
  8   5   7  ar  
  9   5  22  1   
 10   6   7  ar  
 11   6  23  1   
 12   7   8  1   
 13   8   9  2   
 14   8  10  am  
 15  10  11  1   
 16  10  24  1   
 17  11  12  am  
 18  11  25  1   
 19  12  13  2   
 20  12  14  1   
 21  14  15  1   
 22  14  16  1   
 23  14  26  1   
 24  15  17  1   
 25  15  27  1   
 26  15  28  1   
 27  16  18  1   
 28  16  29  1   
 29  16  30  1   
 30  17  19  1   
 31  17  31  1   
 32  17  32  1   
 33  18  19  1   
 34  18  33  1   
 35  18  34  1   
 36  19  35  1   
 37  19  36  1   
@<TRIPOS>SUBSTRUCTURE
  1 ****  12 GROUP 4 **** **** 0

# MOE 2024.06 (io_trps.svl 2023.06)
