@<TRIPOS>MOLECULE
NONAME
48 50 1 0 0 
SMALL
USER_CHARGES


@<TRIPOS>ATOM
  1 BR      -0.2650     0.1720    -0.9360 Br    1 <1>  -0.1110 
  2 C        1.3130     1.1020    -0.3450 C.ar  1 <1>   0.1110 
  3 C        1.2310     2.2280     0.4630 C.ar  1 <1>  -0.0090 
  4 C        2.5180     0.5800    -0.7770 C.ar  1 <1>  -0.1500 
  5 S       -0.3470     2.9170     1.0240 S.o2  1 <1>   1.4470 
  6 C        2.4360     2.8240     0.8180 C.ar  1 <1>  -0.1500 
  7 C        3.6930     1.2010    -0.4020 C.ar  1 <1>  -0.1500 
  8 O       -1.1640     1.8730     1.6030 O.2   1 <1>  -0.6500 
  9 O       -0.0800     4.0940     1.8230 O.2   1 <1>  -0.6500 
 10 N       -1.0720     3.4340    -0.4260 N.am  1 <1>  -0.8490 
 11 C        3.6790     2.3450     0.3980 C.ar  1 <1>   0.0860 
 12 C       -2.4750     3.0090    -0.5930 C.3   1 <1>   0.1960 
 13 C       -0.9600     4.8820    -0.6930 C.3   1 <1>   0.1960 
 14 C        4.9030     3.0230     0.7870 C.2   1 <1>   0.5440 
 15 C       -3.4380     3.8750     0.2400 C.3   1 <1>   0.1200 
 16 C       -1.9980     5.7180     0.0910 C.3   1 <1>   0.1200 
 17 O        4.9570     3.6460     1.8280 O.2   1 <1>  -0.5700 
 18 N        6.0050     2.9890    -0.0200 N.am  1 <1>  -0.7300 
 19 O       -3.2910     5.2220    -0.1090 O.3   1 <1>  -0.5600 
 20 C        7.2960     3.6370     0.2670 C.3   1 <1>   0.2200 
 21 C        7.5120     4.7740    -0.7370 C.3   1 <1>  -0.1600 
 22 C        8.4090     2.5890     0.1680 C.3   1 <1>  -0.1600 
 23 C        8.8940     5.4190    -0.5550 C.3   1 <1>  -0.1600 
 24 C        9.7920     3.2300     0.3510 C.3   1 <1>  -0.1600 
 25 C       10.0120     4.3720    -0.6500 C.3   1 <1>  -0.1600 
 26 H        2.5310    -0.3010    -1.3960 H     1 <1>   0.1500 
 27 H        2.4210     3.7000     1.4480 H     1 <1>   0.1500 
 28 H        4.6320     0.7880    -0.7270 H     1 <1>   0.1500 
 29 H       -2.5930     1.9720    -0.3320 H     1 <1>   0.0800 
 30 H       -2.7480     3.1050    -1.6300 H     1 <1>   0.0800 
 31 H       -1.1200     5.0520    -1.7440 H     1 <1>   0.0800 
 32 H        0.0340     5.2260    -0.4630 H     1 <1>   0.0800 
 33 H       -3.2480     3.7630     1.2940 H     1 <1>   0.0800 
 34 H       -4.4570     3.5940     0.0410 H     1 <1>   0.0800 
 35 H       -1.9820     6.7370    -0.2520 H     1 <1>   0.0800 
 36 H       -1.7910     5.7150     1.1460 H     1 <1>   0.0800 
 37 H        5.9430     2.5610    -0.9420 H     1 <1>   0.3700 
 38 H        7.2880     4.0460     1.2650 H     1 <1>   0.0800 
 39 H        6.7510     5.5210    -0.5930 H     1 <1>   0.0800 
 40 H        7.4340     4.3930    -1.7400 H     1 <1>   0.0800 
 41 H        8.3710     2.1100    -0.7950 H     1 <1>   0.0800 
 42 H        8.2610     1.8420     0.9290 H     1 <1>   0.0800 
 43 H        8.9370     5.9000     0.4070 H     1 <1>   0.0800 
 44 H        9.0420     6.1750    -1.3080 H     1 <1>   0.0800 
 45 H       10.5570     2.4830     0.2220 H     1 <1>   0.0800 
 46 H        9.8750     3.6150     1.3540 H     1 <1>   0.0800 
 47 H       10.9620     4.8410    -0.4580 H     1 <1>   0.0800 
 48 H       10.0410     3.9700    -1.6490 H     1 <1>   0.0800 
@<TRIPOS>BOND
  1   1   2  1   
  2   2   3  ar  
  3   2   4  ar  
  4   3   5  1   
  5   3   6  ar  
  6   4   7  ar  
  7   4  26  1   
  8   5   8  2   
  9   5   9  2   
 10   5  10  am  
 11   6  11  ar  
 12   6  27  1   
 13   7  11  ar  
 14   7  28  1   
 15  10  12  1   
 16  10  13  1   
 17  11  14  1   
 18  12  15  1   
 19  12  29  1   
 20  12  30  1   
 21  13  16  1   
 22  13  31  1   
 23  13  32  1   
 24  14  17  2   
 25  14  18  am  
 26  15  19  1   
 27  15  33  1   
 28  15  34  1   
 29  16  19  1   
 30  16  35  1   
 31  16  36  1   
 32  18  20  1   
 33  18  37  1   
 34  20  21  1   
 35  20  22  1   
 36  20  38  1   
 37  21  23  1   
 38  21  39  1   
 39  21  40  1   
 40  22  24  1   
 41  22  41  1   
 42  22  42  1   
 43  23  25  1   
 44  23  43  1   
 45  23  44  1   
 46  24  25  1   
 47  24  45  1   
 48  24  46  1   
 49  25  47  1   
 50  25  48  1   
@<TRIPOS>SUBSTRUCTURE
  1 ****   6 GROUP 4 **** **** 0

# MOE 2024.06 (io_trps.svl 2023.06)
