@<TRIPOS>MOLECULE
NONAME
43 44 1 0 0 
SMALL
USER_CHARGES


@<TRIPOS>ATOM
  1 O       -0.2840    -0.2890     0.6230 O.2   1 <1>  -0.5700 
  2 C       -0.2780    -1.2680    -0.0960 C.2   1 <1>   0.7160 
  3 N       -1.1980    -1.3700    -1.0880 N.am  1 <1>  -0.7300 
  4 C        0.6780    -2.3250     0.0850 C.2   1 <1>  -0.0860 
  5 C       -2.5260    -0.7610    -1.0380 C.3   1 <1>   0.3640 
  6 C        0.4320    -3.6910     0.1370 C.2   1 <1>   0.1080 
  7 C        2.0160    -2.2890     0.2480 C.2   1 <1>  -0.0400 
  8 C       -3.5130    -1.9090    -0.8670 C.ar  1 <1>  -0.1440 
  9 C       -2.7460     0.0540    -2.3090 C.3   1 <1>  -0.2400 
 10 N        1.5330    -4.3330     0.2810 N.2   1 <1>  -0.4100 
 11 C       -0.9470    -4.3430     0.0540 C.3   1 <1>   0.0210 
 12 O        2.5360    -3.4880     0.3560 O.3   1 <1>  -0.0190 
 13 C        2.9480    -1.0950     0.3130 C.3   1 <1>  -0.0600 
 14 C       -4.0910    -2.1210     0.3750 C.ar  1 <1>  -0.1500 
 15 C       -3.8230    -2.7780    -1.9040 C.ar  1 <1>  -0.1500 
 16 C       -1.0010    -5.7410     0.6830 C.3   1 <1>  -0.2400 
 17 C       -4.9610    -3.1780     0.5940 C.ar  1 <1>  -0.1430 
 18 C       -4.6910    -3.8330    -1.6950 C.ar  1 <1>  -0.1500 
 19 C       -5.2630    -4.0440    -0.4510 C.ar  1 <1>  -0.1430 
 20 C       -5.5620    -3.3650     1.9800 C.3   1 <1>  -0.0970 
 21 C       -6.2120    -5.2190    -0.2620 C.3   1 <1>  -0.0970 
 22 H       -1.1590    -2.1940    -1.6830 H     1 <1>   0.3700 
 23 H       -2.5950    -0.0990    -0.1900 H     1 <1>   0.0800 
 24 H       -2.5890    -0.5380    -3.1900 H     1 <1>   0.0800 
 25 H       -2.0700     0.8890    -2.3220 H     1 <1>   0.0800 
 26 H       -3.7520     0.4320    -2.3210 H     1 <1>   0.0800 
 27 H       -1.2420    -4.4110    -0.9770 H     1 <1>   0.0800 
 28 H       -1.6600    -3.7190     0.5630 H     1 <1>   0.0800 
 29 H        2.3990    -0.1770     0.2080 H     1 <1>   0.0800 
 30 H        3.6760    -1.1580    -0.4750 H     1 <1>   0.0800 
 31 H        3.4580    -1.0860     1.2590 H     1 <1>   0.0800 
 32 H       -3.8540    -1.4560     1.1870 H     1 <1>   0.1500 
 33 H       -3.3920    -2.6480    -2.8800 H     1 <1>   0.1500 
 34 H       -0.3370    -6.4090     0.1640 H     1 <1>   0.0800 
 35 H       -2.0010    -6.1320     0.6270 H     1 <1>   0.0800 
 36 H       -0.7040    -5.6920     1.7160 H     1 <1>   0.0800 
 37 H       -4.9180    -4.4940    -2.5130 H     1 <1>   0.1500 
 38 H       -5.2170    -2.6060     2.6570 H     1 <1>   0.0800 
 39 H       -5.2810    -4.3240     2.3770 H     1 <1>   0.0800 
 40 H       -6.6340    -3.3070     1.9270 H     1 <1>   0.0800 
 41 H       -7.1810    -4.8650     0.0390 H     1 <1>   0.0800 
 42 H       -5.8300    -5.8830     0.4920 H     1 <1>   0.0800 
 43 H       -6.3250    -5.7750    -1.1750 H     1 <1>   0.0800 
@<TRIPOS>BOND
  1   1   2  2   
  2   2   3  am  
  3   2   4  1   
  4   3   5  1   
  5   3  22  1   
  6   4   6  1   
  7   4   7  2   
  8   5   8  1   
  9   5   9  1   
 10   5  23  1   
 11   6  10  2   
 12   6  11  1   
 13   7  12  1   
 14   7  13  1   
 15   8  14  ar  
 16   8  15  ar  
 17   9  24  1   
 18   9  25  1   
 19   9  26  1   
 20  10  12  1   
 21  11  16  1   
 22  11  27  1   
 23  11  28  1   
 24  13  29  1   
 25  13  30  1   
 26  13  31  1   
 27  14  17  ar  
 28  14  32  1   
 29  15  18  ar  
 30  15  33  1   
 31  16  34  1   
 32  16  35  1   
 33  16  36  1   
 34  17  19  ar  
 35  17  20  1   
 36  18  19  ar  
 37  18  37  1   
 38  19  21  1   
 39  20  38  1   
 40  20  39  1   
 41  20  40  1   
 42  21  41  1   
 43  21  42  1   
 44  21  43  1   
@<TRIPOS>SUBSTRUCTURE
  1 ****   3 GROUP 4 **** **** 0

# MOE 2024.06 (io_trps.svl 2023.06)
