@<TRIPOS>MOLECULE
NONAME
31 32 1 0 0 
SMALL
USER_CHARGES


@<TRIPOS>ATOM
  1 S        0.6170    -0.6740     0.8450 S.3   1 <1>  -0.4600 
  2 C        0.3640    -1.3780    -0.8280 C.3   1 <1>   0.2110 
  3 C       -0.8910     0.3010     1.0610 C.3   1 <1>   0.0700 
  4 C       -1.0860    -1.8690    -1.0150 C.2   1 <1>   0.5690 
  5 C        1.4110    -2.4830    -1.0200 C.3   1 <1>  -0.0990 
  6 C       -2.0880    -0.6510     1.0200 C.3   1 <1>   0.1400 
  7 O       -1.3330    -2.6170    -1.9280 O.2   1 <1>  -0.5700 
  8 N       -2.1140    -1.4820    -0.2130 N.am  1 <1>  -0.7300 
  9 C        2.8030    -1.9110    -1.1640 C.2   1 <1>   0.5690 
 10 O        3.2320    -1.7440    -2.2780 O.2   1 <1>  -0.5700 
 11 N        3.4980    -1.6070    -0.0290 N.am  1 <1>  -0.5470 
 12 C        4.8100    -1.1320     0.1780 C.ar  1 <1>   0.1170 
 13 C        5.1760    -0.6180     1.4220 C.ar  1 <1>   0.1900 
 14 C        5.7970    -1.1540    -0.8040 C.ar  1 <1>  -0.1500 
 15 F        4.2840    -0.5880     2.3830 F     1 <1>  -0.1900 
 16 C        6.4410    -0.1370     1.7010 C.ar  1 <1>  -0.1500 
 17 C        7.0730    -0.6760    -0.5460 C.ar  1 <1>  -0.1500 
 18 C        7.3990    -0.1670     0.7020 C.ar  1 <1>  -0.1500 
 19 H        0.5410    -0.5800    -1.5270 H     1 <1>   0.0800 
 20 H       -0.9330     1.0260     0.2680 H     1 <1>   0.0800 
 21 H       -0.8180     0.8010     2.0110 H     1 <1>   0.0800 
 22 H        1.1910    -3.0270    -1.9210 H     1 <1>   0.0800 
 23 H        1.3740    -3.1780    -0.2030 H     1 <1>   0.0800 
 24 H       -2.9960    -0.0750     1.0730 H     1 <1>   0.0800 
 25 H       -2.0550    -1.3020     1.8780 H     1 <1>   0.0800 
 26 H       -3.0150    -1.9080    -0.4440 H     1 <1>   0.3700 
 27 H        2.9230    -1.5920     0.8190 H     1 <1>   0.3700 
 28 H        5.5790    -1.5460    -1.7800 H     1 <1>   0.1500 
 29 H        6.6690     0.2510     2.6770 H     1 <1>   0.1500 
 30 H        7.8170    -0.7010    -1.3230 H     1 <1>   0.1500 
 31 H        8.3920     0.2030     0.8930 H     1 <1>   0.1500 
@<TRIPOS>BOND
  1   1   2  1   
  2   1   3  1   
  3   2   4  1   
  4   2   5  1   
  5   2  19  1   
  6   3   6  1   
  7   3  20  1   
  8   3  21  1   
  9   4   7  2   
 10   4   8  am  
 11   5   9  1   
 12   5  22  1   
 13   5  23  1   
 14   6   8  1   
 15   6  24  1   
 16   6  25  1   
 17   8  26  1   
 18   9  10  2   
 19   9  11  am  
 20  11  12  1   
 21  11  27  1   
 22  12  13  ar  
 23  12  14  ar  
 24  13  15  1   
 25  13  16  ar  
 26  14  17  ar  
 27  14  28  1   
 28  16  18  ar  
 29  16  29  1   
 30  17  18  ar  
 31  17  30  1   
 32  18  31  1   
@<TRIPOS>SUBSTRUCTURE
  1 ****  11 GROUP 4 **** **** 0

# MOE 2024.06 (io_trps.svl 2023.06)
