@<TRIPOS>MOLECULE
NONAME
32 33 1 0 0 
SMALL
USER_CHARGES


@<TRIPOS>ATOM
  1 CL       1.4100     0.9670    -1.7950 Cl    1 <1>  -0.1770 
  2 C        0.6530     2.1480    -0.7560 C.ar  1 <1>   0.1770 
  3 C        1.2530     2.4680     0.4500 C.ar  1 <1>  -0.1440 
  4 C       -0.5240     2.7520    -1.1660 C.ar  1 <1>  -0.1500 
  5 C        0.6310     3.4280     1.2290 C.ar  1 <1>   0.1900 
  6 C        2.5250     1.7950     0.9070 C.3   1 <1>   0.4860 
  7 C       -1.1260     3.7070    -0.3590 C.ar  1 <1>  -0.1500 
  8 F        1.1820     3.7630     2.3640 F     1 <1>  -0.1900 
  9 C       -0.5440     4.0520     0.8510 C.ar  1 <1>  -0.1500 
 10 N        3.6500     2.3550     0.1250 N.4   1 <1>  -0.9060 
 11 C        4.9650     1.7540     0.5030 C.3   1 <1>   0.3430 
 12 C        6.1360     2.3460    -0.2980 C.3   1 <1>   0.2000 
 13 O        7.3070     1.8200     0.2140 O.3   1 <1>  -0.5600 
 14 C        6.3200     3.8540    -0.1690 C.3   1 <1>  -0.1600 
 15 C        8.3920     2.6370    -0.1030 C.3   1 <1>   0.1200 
 16 C        7.8160     4.0250    -0.3750 C.3   1 <1>  -0.1600 
 17 H       -0.9670     2.4790    -2.1090 H     1 <1>   0.1500 
 18 H        2.4500     0.7320     0.7450 H     1 <1>   0.0800 
 19 H        2.6780     1.9710     1.9610 H     1 <1>   0.0800 
 20 H       -2.0440     4.1790    -0.6720 H     1 <1>   0.1500 
 21 H       -0.9960     4.7920     1.4900 H     1 <1>   0.1500 
 22 H        3.6730     3.3730     0.2670 H     1 <1>   0.4500 
 23 H        3.4560     2.1890    -0.8720 H     1 <1>   0.4500 
 24 H        4.9430     0.6890     0.3350 H     1 <1>   0.0800 
 25 H        5.1550     1.9290     1.5500 H     1 <1>   0.0800 
 26 H        6.0830     2.0520    -1.3330 H     1 <1>   0.0800 
 27 H        6.0540     4.1800     0.8220 H     1 <1>   0.0800 
 28 H        5.7480     4.4030    -0.8970 H     1 <1>   0.0800 
 29 H        8.8800     2.2350    -0.9760 H     1 <1>   0.0800 
 30 H        9.0750     2.6370     0.7300 H     1 <1>   0.0800 
 31 H        8.2340     4.7590     0.2930 H     1 <1>   0.0800 
 32 H        8.0400     4.3140    -1.3880 H     1 <1>   0.0800 
@<TRIPOS>BOND
  1   1   2  1   
  2   2   3  ar  
  3   2   4  ar  
  4   3   5  ar  
  5   3   6  1   
  6   4   7  ar  
  7   4  17  1   
  8   5   8  1   
  9   5   9  ar  
 10   6  10  1   
 11   6  18  1   
 12   6  19  1   
 13   7   9  ar  
 14   7  20  1   
 15   9  21  1   
 16  10  11  1   
 17  10  22  1   
 18  10  23  1   
 19  11  12  1   
 20  11  24  1   
 21  11  25  1   
 22  12  13  1   
 23  12  14  1   
 24  12  26  1   
 25  13  15  1   
 26  14  16  1   
 27  14  27  1   
 28  14  28  1   
 29  15  16  1   
 30  15  29  1   
 31  15  30  1   
 32  16  31  1   
 33  16  32  1   
@<TRIPOS>SUBSTRUCTURE
  1 ****  10 GROUP 4 **** **** 0

# MOE 2024.06 (io_trps.svl 2023.06)
