@<TRIPOS>MOLECULE
NONAME
34 35 1 0 0 
SMALL
USER_CHARGES


@<TRIPOS>ATOM
  1 O        0.0070    -0.1500     0.5610 O.2   1 <1>  -0.5700 
  2 C        0.2770    -1.2950     0.3570 C.2   1 <1>   0.4480 
  3 C       -0.4680    -2.2290    -0.5710 C.3   1 <1>   0.2300 
  4 C        1.4780    -2.0180     0.9360 C.3   1 <1>   0.3910 
  5 C       -1.8970    -2.5340    -0.1250 C.ar  1 <1>  -0.1440 
  6 C        0.4090    -3.4770    -0.5290 C.cat 1 <1>   0.6040 
  7 N        1.4520    -3.3530     0.2660 N.pl3 1 <1>  -0.8330 
  8 C       -2.1520    -3.2070     1.0640 C.ar  1 <1>  -0.1500 
  9 C       -2.9640    -2.1410    -0.9210 C.ar  1 <1>  -0.1500 
 10 N        0.1220    -4.5570    -1.2150 N.pl3 1 <1>  -0.7540 
 11 C        2.5280    -4.3290     0.6040 C.3   1 <1>   0.3290 
 12 C       -3.4520    -3.4920     1.4420 C.ar  1 <1>  -0.1500 
 13 C       -4.2640    -2.4280    -0.5420 C.ar  1 <1>  -0.1500 
 14 C        3.8170    -3.9510    -0.1240 C.3   1 <1>  -0.1600 
 15 C       -4.5080    -3.1050     0.6390 C.ar  1 <1>  -0.1500 
 16 C        4.9420    -4.9270     0.2170 C.3   1 <1>   0.1200 
 17 O        6.1070    -4.4360    -0.3310 O.3   1 <1>  -0.6800 
 18 H       -0.4540    -1.8150    -1.5610 H     1 <1>   0.0800 
 19 H        1.3730    -2.1170     2.0030 H     1 <1>   0.0800 
 20 H        2.3790    -1.4770     0.7020 H     1 <1>   0.0800 
 21 H       -1.3540    -3.5180     1.7170 H     1 <1>   0.1500 
 22 H       -2.8060    -1.6040    -1.8410 H     1 <1>   0.1500 
 23 H        0.6850    -5.4080    -1.2070 H     1 <1>   0.4500 
 24 H       -0.7230    -4.6480    -1.7900 H     1 <1>   0.4500 
 25 H        2.2300    -5.3230     0.3190 H     1 <1>   0.0800 
 26 H        2.6930    -4.3290     1.6700 H     1 <1>   0.0800 
 27 H       -3.6480    -4.0130     2.3640 H     1 <1>   0.1500 
 28 H       -5.0890    -2.1190    -1.1620 H     1 <1>   0.1500 
 29 H        4.1240    -2.9660     0.1800 H     1 <1>   0.0800 
 30 H        3.6480    -3.9600    -1.1860 H     1 <1>   0.0800 
 31 H       -5.5200    -3.3250     0.9340 H     1 <1>   0.1500 
 32 H        4.7650    -5.9130    -0.1800 H     1 <1>   0.0800 
 33 H        5.0920    -4.9900     1.2820 H     1 <1>   0.0800 
 34 H        6.1330    -4.5480    -1.3020 H     1 <1>   0.4000 
@<TRIPOS>BOND
  1   1   2  2   
  2   2   3  1   
  3   2   4  1   
  4   3   5  1   
  5   3   6  1   
  6   3  18  1   
  7   4   7  1   
  8   4  19  1   
  9   4  20  1   
 10   5   8  ar  
 11   5   9  ar  
 12   6   7  ar  
 13   6  10  ar  
 14   7  11  1   
 15   8  12  ar  
 16   8  21  1   
 17   9  13  ar  
 18   9  22  1   
 19  10  23  1   
 20  10  24  1   
 21  11  14  1   
 22  11  25  1   
 23  11  26  1   
 24  12  15  ar  
 25  12  27  1   
 26  13  15  ar  
 27  13  28  1   
 28  14  16  1   
 29  14  29  1   
 30  14  30  1   
 31  15  31  1   
 32  16  17  1   
 33  16  32  1   
 34  16  33  1   
 35  17  34  1   
@<TRIPOS>SUBSTRUCTURE
  1 ****   6 GROUP 4 **** **** 0

# MOE 2024.06 (io_trps.svl 2023.06)
