@<TRIPOS>MOLECULE
NONAME
36 38 1 0 0 
SMALL
USER_CHARGES


@<TRIPOS>ATOM
  1 BR      -0.3230    -0.1100     1.2910 Br    1 <1>  -0.1110 
  2 C        1.4850    -0.7670     1.2030 C.ar  1 <1>   0.1110 
  3 C        2.4000    -0.0810     0.4230 C.ar  1 <1>  -0.1500 
  4 C        1.8130    -1.9070     1.9200 C.ar  1 <1>  -0.1500 
  5 C        3.7060    -0.5500     0.3820 C.ar  1 <1>  -0.1440 
  6 C        3.1070    -2.3950     1.8410 C.ar  1 <1>  -0.1500 
  7 C        4.0330    -1.7180     1.0600 C.ar  1 <1>   0.1170 
  8 C        4.9470    -0.0330    -0.3620 C.3   1 <1>   0.7550 
  9 N        5.3370    -2.0970     0.7900 N.am  1 <1>  -0.5470 
 10 O        4.6430     0.1320    -1.6990 O.3   1 <1>  -0.6800 
 11 N        5.4630     1.2840     0.1280 N.3   1 <1>  -0.8100 
 12 C        5.9000    -1.2520    -0.1080 C.2   1 <1>   0.5690 
 13 C        4.4970     2.3980     0.0440 C.3   1 <1>   0.1100 
 14 C        6.7700     1.6560    -0.4580 C.3   1 <1>   0.1100 
 15 O        6.9600    -1.4740    -0.6560 O.2   1 <1>  -0.5700 
 16 C        5.0390     3.6520     0.7380 C.3   1 <1>  -0.1600 
 17 C        7.3550     2.8830     0.2440 C.3   1 <1>  -0.1600 
 18 C        6.3960     4.0750     0.1680 C.3   1 <1>  -0.0800 
 19 C        6.9580     5.2790     0.9300 C.3   1 <1>  -0.2400 
 20 H        2.0920     0.7830    -0.1360 H     1 <1>   0.1500 
 21 H        1.0660    -2.4020     2.5150 H     1 <1>   0.1500 
 22 H        3.3910    -3.2870     2.3690 H     1 <1>   0.1500 
 23 H        5.7720    -2.9840     1.0410 H     1 <1>   0.3700 
 24 H        5.4930     0.2580    -2.1520 H     1 <1>   0.4000 
 25 H        3.5870     2.1370     0.5470 H     1 <1>   0.0800 
 26 H        4.2730     2.6160    -0.9870 H     1 <1>   0.0800 
 27 H        6.6560     1.8670    -1.5080 H     1 <1>   0.0800 
 28 H        7.4780     0.8550    -0.3460 H     1 <1>   0.0800 
 29 H        5.1300     3.4460     1.7910 H     1 <1>   0.0800 
 30 H        4.3300     4.4520     0.6210 H     1 <1>   0.0800 
 31 H        8.2910     3.1410    -0.2190 H     1 <1>   0.0800 
 32 H        7.5530     2.6310     1.2710 H     1 <1>   0.0800 
 33 H        6.2660     4.3500    -0.8660 H     1 <1>   0.0800 
 34 H        7.1000     5.0370     1.9690 H     1 <1>   0.0800 
 35 H        6.2810     6.1130     0.8620 H     1 <1>   0.0800 
 36 H        7.9040     5.5750     0.5140 H     1 <1>   0.0800 
@<TRIPOS>BOND
  1   1   2  1   
  2   2   3  ar  
  3   2   4  ar  
  4   3   5  ar  
  5   3  20  1   
  6   4   6  ar  
  7   4  21  1   
  8   5   7  ar  
  9   5   8  1   
 10   6   7  ar  
 11   6  22  1   
 12   7   9  1   
 13   8  10  1   
 14   8  11  1   
 15   8  12  1   
 16   9  12  am  
 17   9  23  1   
 18  10  24  1   
 19  11  13  1   
 20  11  14  1   
 21  12  15  2   
 22  13  16  1   
 23  13  25  1   
 24  13  26  1   
 25  14  17  1   
 26  14  27  1   
 27  14  28  1   
 28  16  18  1   
 29  16  29  1   
 30  16  30  1   
 31  17  18  1   
 32  17  31  1   
 33  17  32  1   
 34  18  19  1   
 35  18  33  1   
 36  19  34  1   
 37  19  35  1   
 38  19  36  1   
@<TRIPOS>SUBSTRUCTURE
  1 ****   8 GROUP 4 **** **** 0

# MOE 2024.06 (io_trps.svl 2023.06)
