@<TRIPOS>MOLECULE
NONAME
43 45 1 0 0 
SMALL
USER_CHARGES


@<TRIPOS>ATOM
  1 F        0.3460    -0.5050     0.3670 F     1 <1>  -0.1900 
  2 C        1.4880    -1.1350     0.2580 C.ar  1 <1>   0.1900 
  3 C        2.3770    -1.0920     1.3160 C.ar  1 <1>  -0.1500 
  4 C        1.7640    -1.8200    -0.9100 C.ar  1 <1>  -0.1500 
  5 C        3.5830    -1.7600     1.1950 C.ar  1 <1>  -0.1500 
  6 C        2.9740    -2.4830    -1.0160 C.ar  1 <1>  -0.1500 
  7 C        3.8910    -2.4610     0.0300 C.ar  1 <1>   0.1000 
  8 N        5.0970    -3.1390    -0.1080 N.pl3 1 <1>  -0.8380 
  9 C        5.2540    -4.3760     0.7090 C.3   1 <1>   0.2090 
 10 C        6.3250    -2.2950    -0.1950 C.3   1 <1>   0.2090 
 11 C        6.4650    -5.2020     0.2240 C.3   1 <1>   0.3430 
 12 C        7.5310    -3.1330    -0.6710 C.3   1 <1>   0.3430 
 13 N        7.7330    -4.3860     0.1520 N.4   1 <1>  -0.9590 
 14 C        8.8820    -5.1870    -0.3480 C.3   1 <1>   0.4860 
 15 C       10.1400    -4.3550    -0.2020 C.ar  1 <1>  -0.1430 
 16 C       10.7090    -4.1570     1.0480 C.ar  1 <1>  -0.1500 
 17 C       10.7270    -3.7760    -1.3170 C.ar  1 <1>  -0.1500 
 18 C       11.8430    -3.3760     1.1800 C.ar  1 <1>  -0.1500 
 19 C       11.8610    -2.9950    -1.1800 C.ar  1 <1>  -0.1500 
 20 C       12.4220    -2.7880     0.0680 C.ar  1 <1>  -0.1430 
 21 C       13.6690    -1.9340     0.2160 C.3   1 <1>  -0.0970 
 22 H        2.1230    -0.5470     2.2080 H     1 <1>   0.1500 
 23 H        1.0470    -1.8300    -1.7110 H     1 <1>   0.1500 
 24 H        4.2850    -1.7380     2.0070 H     1 <1>   0.1500 
 25 H        3.2160    -3.0240    -1.9120 H     1 <1>   0.1500 
 26 H        4.3600    -4.9710     0.6250 H     1 <1>   0.0800 
 27 H        5.3800    -4.1140     1.7450 H     1 <1>   0.0800 
 28 H        6.5390    -1.8610     0.7670 H     1 <1>   0.0800 
 29 H        6.1530    -1.4900    -0.8900 H     1 <1>   0.0800 
 30 H        6.2300    -5.5870    -0.7550 H     1 <1>   0.0800 
 31 H        6.6040    -6.0420     0.8850 H     1 <1>   0.0800 
 32 H        8.4170    -2.5200    -0.6310 H     1 <1>   0.0800 
 33 H        7.3630    -3.4010    -1.7010 H     1 <1>   0.0800 
 34 H        7.9810    -4.0760     1.0980 H     1 <1>   0.4500 
 35 H        8.7330    -5.4530    -1.3820 H     1 <1>   0.0800 
 36 H        8.9870    -6.0920     0.2280 H     1 <1>   0.0800 
 37 H       10.2890    -4.6070     1.9310 H     1 <1>   0.1500 
 38 H       10.3190    -3.9230    -2.3030 H     1 <1>   0.1500 
 39 H       12.2810    -3.2280     2.1530 H     1 <1>   0.1500 
 40 H       12.3130    -2.5510    -2.0510 H     1 <1>   0.1500 
 41 H       14.5450    -2.5500     0.1260 H     1 <1>   0.0800 
 42 H       13.6840    -1.4490     1.1760 H     1 <1>   0.0800 
 43 H       13.7000    -1.1750    -0.5450 H     1 <1>   0.0800 
@<TRIPOS>BOND
  1   1   2  1   
  2   2   3  ar  
  3   2   4  ar  
  4   3   5  ar  
  5   3  22  1   
  6   4   6  ar  
  7   4  23  1   
  8   5   7  ar  
  9   5  24  1   
 10   6   7  ar  
 11   6  25  1   
 12   7   8  1   
 13   8   9  1   
 14   8  10  1   
 15   9  11  1   
 16   9  26  1   
 17   9  27  1   
 18  10  12  1   
 19  10  28  1   
 20  10  29  1   
 21  11  13  1   
 22  11  30  1   
 23  11  31  1   
 24  12  13  1   
 25  12  32  1   
 26  12  33  1   
 27  13  14  1   
 28  13  34  1   
 29  14  15  1   
 30  14  35  1   
 31  14  36  1   
 32  15  16  ar  
 33  15  17  ar  
 34  16  18  ar  
 35  16  37  1   
 36  17  19  ar  
 37  17  38  1   
 38  18  20  ar  
 39  18  39  1   
 40  19  20  ar  
 41  19  40  1   
 42  20  21  1   
 43  21  41  1   
 44  21  42  1   
 45  21  43  1   
@<TRIPOS>SUBSTRUCTURE
  1 ****  10 GROUP 4 **** **** 0

# MOE 2024.06 (io_trps.svl 2023.06)
