@<TRIPOS>MOLECULE
NONAME
36 36 1 0 0 
SMALL
USER_CHARGES


@<TRIPOS>ATOM
  1 BR       1.4360    -0.3470    -0.3160 Br    1 <1>  -0.1110 
  2 C        0.4720    -1.9180     0.2440 C.ar  1 <1>   0.1110 
  3 C        0.9030    -2.6570     1.3300 C.ar  1 <1>   0.1900 
  4 C       -0.6590    -2.2870    -0.4610 C.ar  1 <1>  -0.1500 
  5 F        1.9700    -2.2960     1.9920 F     1 <1>  -0.1900 
  6 C        0.2140    -3.7850     1.7330 C.ar  1 <1>  -0.1500 
  7 C       -1.3690    -3.4140    -0.0590 C.ar  1 <1>  -0.1440 
  8 C       -0.9230    -4.1610     1.0310 C.ar  1 <1>  -0.1500 
  9 C       -2.6240    -3.8290    -0.8060 C.3   1 <1>   0.4870 
 10 N       -3.8150    -3.4330     0.0140 N.4   1 <1>  -0.9590 
 11 C       -5.0610    -4.1370    -0.4690 C.3   1 <1>   0.3430 
 12 C       -3.9400    -1.9330     0.0390 C.3   1 <1>   0.2630 
 13 C       -6.3030    -3.9550     0.4540 C.3   1 <1>   0.3430 
 14 N       -7.5570    -4.6480    -0.0280 N.4   1 <1>  -0.9590 
 15 C       -8.7270    -4.2540     0.8300 C.3   1 <1>   0.2630 
 16 C       -7.4560    -6.1490    -0.0370 C.3   1 <1>   0.2630 
 17 H       -0.9560    -1.6910    -1.3070 H     1 <1>   0.1500 
 18 H        0.5690    -4.3530     2.5760 H     1 <1>   0.1500 
 19 H       -1.4430    -5.0500     1.3490 H     1 <1>   0.1500 
 20 H       -2.6040    -4.8970    -0.9510 H     1 <1>   0.0800 
 21 H       -2.6530    -3.3550    -1.7740 H     1 <1>   0.0800 
 22 H       -3.5690    -3.7350     0.9710 H     1 <1>   0.4500 
 23 H       -4.8520    -5.1920    -0.5470 H     1 <1>   0.0800 
 24 H       -5.3060    -3.7720    -1.4530 H     1 <1>   0.0800 
 25 H       -4.1220    -1.5500    -0.9530 H     1 <1>   0.0800 
 26 H       -3.0310    -1.4870     0.4120 H     1 <1>   0.0800 
 27 H       -4.7480    -1.6250     0.6820 H     1 <1>   0.0800 
 28 H       -6.5090    -2.9010     0.5390 H     1 <1>   0.0800 
 29 H       -6.0610    -4.3250     1.4380 H     1 <1>   0.0800 
 30 H       -7.7920    -4.3390    -0.9880 H     1 <1>   0.4500 
 31 H       -8.5710    -4.5640     1.8510 H     1 <1>   0.0800 
 32 H       -9.6310    -4.7190     0.4680 H     1 <1>   0.0800 
 33 H       -8.8680    -3.1850     0.8130 H     1 <1>   0.0800 
 34 H       -7.2450    -6.5200     0.9530 H     1 <1>   0.0800 
 35 H       -6.6780    -6.4790    -0.7060 H     1 <1>   0.0800 
 36 H       -8.3870    -6.5820    -0.3680 H     1 <1>   0.0800 
@<TRIPOS>BOND
  1   1   2  1   
  2   2   3  ar  
  3   2   4  ar  
  4   3   5  1   
  5   3   6  ar  
  6   4   7  ar  
  7   4  17  1   
  8   6   8  ar  
  9   6  18  1   
 10   7   8  ar  
 11   7   9  1   
 12   8  19  1   
 13   9  10  1   
 14   9  20  1   
 15   9  21  1   
 16  10  11  1   
 17  10  12  1   
 18  10  22  1   
 19  11  13  1   
 20  11  23  1   
 21  11  24  1   
 22  12  25  1   
 23  12  26  1   
 24  12  27  1   
 25  13  14  1   
 26  13  28  1   
 27  13  29  1   
 28  14  15  1   
 29  14  16  1   
 30  14  30  1   
 31  15  31  1   
 32  15  32  1   
 33  15  33  1   
 34  16  34  1   
 35  16  35  1   
 36  16  36  1   
@<TRIPOS>SUBSTRUCTURE
  1 ****  10 GROUP 4 **** **** 0

# MOE 2024.06 (io_trps.svl 2023.06)
