@<TRIPOS>MOLECULE
NONAME
41 42 1 0 0 
SMALL
USER_CHARGES


@<TRIPOS>ATOM
  1 CL      -0.0450     0.3240     1.9980 Cl    1 <1>  -0.1770 
  2 C       -1.1070     0.7810     0.6860 C.ar  1 <1>   0.1770 
  3 C       -1.0090     2.0400     0.1000 C.ar  1 <1>  -0.1440 
  4 C       -2.0350    -0.1490     0.2550 C.ar  1 <1>  -0.1500 
  5 C       -1.8680     2.3580    -0.9450 C.ar  1 <1>  -0.1500 
  6 C        0.0150     3.0660     0.5720 C.3   1 <1>  -0.0160 
  7 C       -2.8770     0.1940    -0.7830 C.ar  1 <1>   0.1770 
  8 C       -2.8030     1.4360    -1.3880 C.ar  1 <1>  -0.1500 
  9 C        1.3860     2.7750    -0.0380 C.3   1 <1>   0.2090 
 10 CL      -4.0570    -0.9620    -1.3440 Cl    1 <1>  -0.1770 
 11 N        2.3760     3.7740     0.4400 N.pl3 1 <1>  -0.8690 
 12 C        3.7220     3.6370     0.6030 C.2   1 <1>  -0.0500 
 13 C        4.6090     2.6160     0.3030 C.2   1 <1>   0.0290 
 14 C        5.9530     2.7180     0.7940 C.2   1 <1>   0.4950 
 15 C        4.3130     1.4530    -0.4830 C.2   1 <1>   0.4950 
 16 O        6.4280     3.7440     1.2240 O.2   1 <1>  -0.5700 
 17 C        6.8770     1.5090     0.8640 C.3   1 <1>  -0.0990 
 18 O        3.5000     1.3980    -1.3760 O.2   1 <1>  -0.5700 
 19 C        5.1030     0.1780    -0.2530 C.3   1 <1>  -0.0990 
 20 C        6.6110     0.4550    -0.2200 C.3   1 <1>   0.0000 
 21 C        7.3680    -0.8380     0.1170 C.3   1 <1>  -0.2400 
 22 C        7.0980     0.9630    -1.5890 C.3   1 <1>  -0.2400 
 23 H       -2.0990    -1.1160     0.7170 H     1 <1>   0.1500 
 24 H       -1.8130     3.3220    -1.4210 H     1 <1>   0.1500 
 25 H        0.0880     3.0430     1.6440 H     1 <1>   0.0800 
 26 H       -0.2990     4.0510     0.2790 H     1 <1>   0.0800 
 27 H       -3.4710     1.6740    -2.1960 H     1 <1>   0.1500 
 28 H        1.3280     2.8140    -1.1130 H     1 <1>   0.0800 
 29 H        1.6970     1.7880     0.2560 H     1 <1>   0.0800 
 30 H        1.9370     4.6690     0.6920 H     1 <1>   0.4000 
 31 H        4.1650     4.5020     1.0760 H     1 <1>   0.1500 
 32 H        7.8970     1.8450     0.7980 H     1 <1>   0.0800 
 33 H        6.7510     1.0710     1.8380 H     1 <1>   0.0800 
 34 H        4.7790    -0.2560     0.6760 H     1 <1>   0.0800 
 35 H        4.8790    -0.5260    -1.0350 H     1 <1>   0.0800 
 36 H        8.4270    -0.6550     0.1660 H     1 <1>   0.0800 
 37 H        7.1910    -1.5870    -0.6360 H     1 <1>   0.0800 
 38 H        7.0500    -1.2350     1.0660 H     1 <1>   0.0800 
 39 H        6.6240     1.8880    -1.8670 H     1 <1>   0.0800 
 40 H        6.8860     0.2380    -2.3570 H     1 <1>   0.0800 
 41 H        8.1610     1.1290    -1.5740 H     1 <1>   0.0800 
@<TRIPOS>BOND
  1   1   2  1   
  2   2   3  ar  
  3   2   4  ar  
  4   3   5  ar  
  5   3   6  1   
  6   4   7  ar  
  7   4  23  1   
  8   5   8  ar  
  9   5  24  1   
 10   6   9  1   
 11   6  25  1   
 12   6  26  1   
 13   7   8  ar  
 14   7  10  1   
 15   8  27  1   
 16   9  11  1   
 17   9  28  1   
 18   9  29  1   
 19  11  12  1   
 20  11  30  1   
 21  12  13  2   
 22  12  31  1   
 23  13  14  1   
 24  13  15  1   
 25  14  16  2   
 26  14  17  1   
 27  15  18  2   
 28  15  19  1   
 29  17  20  1   
 30  17  32  1   
 31  17  33  1   
 32  19  20  1   
 33  19  34  1   
 34  19  35  1   
 35  20  21  1   
 36  20  22  1   
 37  21  36  1   
 38  21  37  1   
 39  21  38  1   
 40  22  39  1   
 41  22  40  1   
 42  22  41  1   
@<TRIPOS>SUBSTRUCTURE
  1 ****   9 GROUP 4 **** **** 0

# MOE 2024.06 (io_trps.svl 2023.06)
