@<TRIPOS>MOLECULE
NONAME
45 46 1 0 0 
SMALL
USER_CHARGES


@<TRIPOS>ATOM
  1 O      -15.4770     0.2190     1.2210 O.3   1 <1>  -0.3630 
  2 C      -14.6300     0.1900     0.1660 C.ar  1 <1>   0.0830 
  3 C      -16.7280     0.8370     1.0010 C.3   1 <1>   0.0400 
  4 C      -14.8780    -0.5450    -0.9960 C.ar  1 <1>   0.0830 
  5 C      -13.4680     0.9340     0.2730 C.ar  1 <1>  -0.1500 
  6 O      -15.9710    -1.3290    -1.1660 O.3   1 <1>  -0.3630 
  7 C      -13.9750    -0.4820    -2.0410 C.ar  1 <1>  -0.1500 
  8 C      -12.5440     0.9840    -0.7650 C.ar  1 <1>  -0.1430 
  9 C      -16.1310    -2.4220    -0.2870 C.3   1 <1>   0.0400 
 10 C      -12.8180     0.2710    -1.9290 C.ar  1 <1>  -0.1500 
 11 C      -11.2460     1.7840    -0.5690 C.3   1 <1>   0.1430 
 12 C      -11.5120     3.2210    -0.1020 C.3   1 <1>  -0.1600 
 13 C      -10.4290     2.0280    -1.8480 C.3   1 <1>  -0.1600 
 14 C      -10.3880     1.0490     0.4850 C.3   1 <1>   0.3430 
 15 C      -10.2530     4.0220    -0.4500 C.3   1 <1>  -0.1600 
 16 C       -9.5270     3.2260    -1.5390 C.3   1 <1>  -0.1600 
 17 N      -10.3060    -0.4160     0.1900 N.4   1 <1>  -0.9060 
 18 C       -9.7230    -1.2270     1.2830 C.3   1 <1>   0.3430 
 19 C       -8.2260    -0.9520     1.3770 C.3   1 <1>  -0.2400 
 20 H      -16.5640     1.8390     0.6460 H     1 <1>   0.0800 
 21 H      -17.2620     0.8600     1.9340 H     1 <1>   0.0800 
 22 H      -17.2850     0.2730     0.2760 H     1 <1>   0.0800 
 23 H      -13.3130     1.4780     1.1870 H     1 <1>   0.1500 
 24 H      -14.1860    -1.0280    -2.9440 H     1 <1>   0.1500 
 25 H      -16.9620    -3.0090    -0.6320 H     1 <1>   0.0800 
 26 H      -16.3280    -2.0600     0.7050 H     1 <1>   0.0800 
 27 H      -15.2330    -3.0130    -0.3000 H     1 <1>   0.0800 
 28 H      -12.1500     0.2820    -2.7720 H     1 <1>   0.1500 
 29 H      -11.7510     3.2910     0.9450 H     1 <1>   0.0800 
 30 H      -12.3410     3.6210    -0.6640 H     1 <1>   0.0800 
 31 H      -11.0960     2.3210    -2.6430 H     1 <1>   0.0800 
 32 H       -9.8640     1.1730    -2.1720 H     1 <1>   0.0800 
 33 H      -10.8490     1.1870     1.4490 H     1 <1>   0.0800 
 34 H       -9.4030     1.4830     0.5190 H     1 <1>   0.0800 
 35 H       -9.6190     4.1300     0.4130 H     1 <1>   0.0800 
 36 H      -10.5190     5.0060    -0.8020 H     1 <1>   0.0800 
 37 H       -9.3690     3.8250    -2.4210 H     1 <1>   0.0800 
 38 H       -8.5690     2.8950    -1.1750 H     1 <1>   0.0800 
 39 H       -9.7830    -0.5670    -0.6800 H     1 <1>   0.4500 
 40 H      -11.2720    -0.7300     0.0000 H     1 <1>   0.4500 
 41 H       -9.8780    -2.2750     1.0790 H     1 <1>   0.0800 
 42 H      -10.2040    -0.9920     2.2200 H     1 <1>   0.0800 
 43 H       -7.7350    -1.1770     0.4480 H     1 <1>   0.0800 
 44 H       -7.8010    -1.5850     2.1370 H     1 <1>   0.0800 
 45 H       -8.0300     0.0670     1.6560 H     1 <1>   0.0800 
@<TRIPOS>BOND
  1   1   2  1   
  2   1   3  1   
  3   2   4  ar  
  4   2   5  ar  
  5   3  20  1   
  6   3  21  1   
  7   3  22  1   
  8   4   6  1   
  9   4   7  ar  
 10   5   8  ar  
 11   5  23  1   
 12   6   9  1   
 13   7  10  ar  
 14   7  24  1   
 15   8  10  ar  
 16   8  11  1   
 17   9  25  1   
 18   9  26  1   
 19   9  27  1   
 20  10  28  1   
 21  11  12  1   
 22  11  13  1   
 23  11  14  1   
 24  12  15  1   
 25  12  29  1   
 26  12  30  1   
 27  13  16  1   
 28  13  31  1   
 29  13  32  1   
 30  14  17  1   
 31  14  33  1   
 32  14  34  1   
 33  15  16  1   
 34  15  35  1   
 35  15  36  1   
 36  16  37  1   
 37  16  38  1   
 38  17  18  1   
 39  17  39  1   
 40  17  40  1   
 41  18  19  1   
 42  18  41  1   
 43  18  42  1   
 44  19  43  1   
 45  19  44  1   
 46  19  45  1   
@<TRIPOS>SUBSTRUCTURE
  1 ****   8 GROUP 4 **** **** 0

# MOE 2024.06 (io_trps.svl 2023.06)
