@<TRIPOS>MOLECULE
NONAME
42 44 1 0 0 
SMALL
USER_CHARGES


@<TRIPOS>ATOM
  1 O        0.1300     1.0100    -1.7890 O.2   1 <1>  -0.5700 
  2 C        0.1150     1.6740    -0.7710 C.2   1 <1>   0.5440 
  3 N       -1.0360     1.8000    -0.0260 N.am  1 <1>  -0.5470 
  4 C        1.2850     2.3850    -0.3410 C.ar  1 <1>   0.0860 
  5 C       -2.3000     1.1920    -0.1200 C.ar  1 <1>   0.1170 
  6 C        2.3520     1.7400     0.3150 C.ar  1 <1>   0.4100 
  7 C        1.3890     3.7500    -0.5730 C.ar  1 <1>  -0.1500 
  8 C       -2.5630     0.0720    -0.9040 C.ar  1 <1>  -0.1500 
  9 C       -3.3430     1.7300     0.6260 C.ar  1 <1>  -0.1500 
 10 N        3.4560     2.3710     0.7090 N.ar  1 <1>  -0.6200 
 11 N        2.3520     0.3900     0.5960 N.pl3 1 <1>  -0.8380 
 12 C        2.5290     4.3960    -0.1550 C.ar  1 <1>  -0.1500 
 13 C       -3.8280    -0.4870    -0.9400 C.ar  1 <1>  -0.1500 
 14 C       -4.6100     1.1740     0.5950 C.ar  1 <1>  -0.1500 
 15 C        3.5220     3.6640     0.4720 C.ar  1 <1>   0.1600 
 16 C        3.4040    -0.4950     0.0270 C.3   1 <1>   0.2090 
 17 C        1.2940    -0.3430     1.3500 C.3   1 <1>   0.2090 
 18 C       -4.8600     0.0560    -0.1940 C.ar  1 <1>   0.0830 
 19 C        2.7590    -1.6810    -0.7140 C.3   1 <1>   0.1200 
 20 C        0.7800    -1.5450     0.5340 C.3   1 <1>   0.1200 
 21 O       -6.0710    -0.5530    -0.2870 O.3   1 <1>  -0.3630 
 22 O        1.8450    -2.3550     0.1110 O.3   1 <1>  -0.5600 
 23 C       -7.2000    -0.0340     0.3800 C.3   1 <1>   0.0400 
 24 H       -0.9550     2.4670     0.7390 H     1 <1>   0.3700 
 25 H        0.6010     4.2820    -1.0780 H     1 <1>   0.1500 
 26 H       -1.7870    -0.3750    -1.4960 H     1 <1>   0.1500 
 27 H       -3.1680     2.5940     1.2390 H     1 <1>   0.1500 
 28 H        2.6570     5.4510    -0.3150 H     1 <1>   0.1500 
 29 H       -4.0210    -1.3510    -1.5500 H     1 <1>   0.1500 
 30 H       -5.3860     1.6220     1.1870 H     1 <1>   0.1500 
 31 H        4.4150     4.1730     0.7940 H     1 <1>   0.1500 
 32 H        4.0280    -0.8620     0.8230 H     1 <1>   0.0800 
 33 H        4.0240     0.0620    -0.6540 H     1 <1>   0.0800 
 34 H        0.4800     0.3130     1.5960 H     1 <1>   0.0800 
 35 H        1.7130    -0.7040     2.2730 H     1 <1>   0.0800 
 36 H        3.5140    -2.3850    -1.0140 H     1 <1>   0.0800 
 37 H        2.2390    -1.3320    -1.5900 H     1 <1>   0.0800 
 38 H        0.2400    -1.2090    -0.3340 H     1 <1>   0.0800 
 39 H        0.1250    -2.1490     1.1350 H     1 <1>   0.0800 
 40 H       -8.0440    -0.6570     0.1420 H     1 <1>   0.0800 
 41 H       -7.3800     0.9690     0.0340 H     1 <1>   0.0800 
 42 H       -7.0200    -0.0520     1.4400 H     1 <1>   0.0800 
@<TRIPOS>BOND
  1   1   2  2   
  2   2   3  am  
  3   2   4  1   
  4   3   5  1   
  5   3  24  1   
  6   4   6  ar  
  7   4   7  ar  
  8   5   8  ar  
  9   5   9  ar  
 10   6  10  ar  
 11   6  11  1   
 12   7  12  ar  
 13   7  25  1   
 14   8  13  ar  
 15   8  26  1   
 16   9  14  ar  
 17   9  27  1   
 18  10  15  ar  
 19  11  16  1   
 20  11  17  1   
 21  12  15  ar  
 22  12  28  1   
 23  13  18  ar  
 24  13  29  1   
 25  14  18  ar  
 26  14  30  1   
 27  15  31  1   
 28  16  19  1   
 29  16  32  1   
 30  16  33  1   
 31  17  20  1   
 32  17  34  1   
 33  17  35  1   
 34  18  21  1   
 35  19  22  1   
 36  19  36  1   
 37  19  37  1   
 38  20  22  1   
 39  20  38  1   
 40  20  39  1   
 41  21  23  1   
 42  23  40  1   
 43  23  41  1   
 44  23  42  1   
@<TRIPOS>SUBSTRUCTURE
  1 ****   3 GROUP 4 **** **** 0

# MOE 2024.06 (io_trps.svl 2023.06)
