@<TRIPOS>MOLECULE
NONAME
41 42 1 0 0 
SMALL
USER_CHARGES


@<TRIPOS>ATOM
  1 O        0.2130    -0.0210     0.1010 O.2   1 <1>  -0.5700 
  2 C        0.1410    -1.1720    -0.2870 C.2   1 <1>   0.5440 
  3 N        1.2700    -1.7450    -0.7930 N.am  1 <1>  -0.7300 
  4 C       -1.1100    -1.9070    -0.2200 C.ar  1 <1>   0.0860 
  5 C        2.6160    -1.1310    -0.8170 C.3   1 <1>   0.2840 
  6 C       -2.3320    -1.2340    -0.1370 C.ar  1 <1>  -0.1500 
  7 C       -1.1560    -3.3050    -0.2340 C.ar  1 <1>  -0.1500 
  8 C        3.6630    -2.1830    -0.4670 C.ar  1 <1>   0.1660 
  9 C       -3.5370    -1.9100    -0.0800 C.ar  1 <1>  -0.1500 
 10 C       -2.3570    -3.9880    -0.1780 C.ar  1 <1>  -0.1500 
 11 N        3.7510    -3.2340    -1.2770 N.ar  1 <1>  -0.6200 
 12 C        4.4560    -2.0070     0.6580 C.ar  1 <1>  -0.1500 
 13 C       -3.5570    -3.3000    -0.1020 C.ar  1 <1>   0.0830 
 14 C        4.6690    -4.1320    -0.9540 C.ar  1 <1>   0.1600 
 15 C        5.4060    -2.9520     0.9810 C.ar  1 <1>  -0.1500 
 16 O       -4.6870    -4.0410    -0.0510 O.3   1 <1>  -0.3630 
 17 C        5.5070    -4.0420     0.1440 C.ar  1 <1>  -0.1500 
 18 C       -5.9610    -3.4450     0.0400 C.3   1 <1>   0.1200 
 19 C       -7.0080    -4.5580     0.0830 C.3   1 <1>  -0.1600 
 20 C       -8.4270    -3.9820     0.1840 C.3   1 <1>  -0.1600 
 21 C       -9.4710    -5.1010     0.2270 C.3   1 <1>  -0.2400 
 22 H        1.2700    -2.7020    -1.1520 H     1 <1>   0.3700 
 23 H        2.6600    -0.3100    -0.1230 H     1 <1>   0.0800 
 24 H        2.8120    -0.7530    -1.8040 H     1 <1>   0.0800 
 25 H       -2.3270    -0.1580    -0.1170 H     1 <1>   0.1500 
 26 H       -0.2420    -3.8690    -0.2810 H     1 <1>   0.1500 
 27 H       -4.4450    -1.3400    -0.0180 H     1 <1>   0.1500 
 28 H       -2.3750    -5.0630    -0.1900 H     1 <1>   0.1500 
 29 H        4.3320    -1.1380     1.2790 H     1 <1>   0.1500 
 30 H        4.7590    -4.9880    -1.6010 H     1 <1>   0.1500 
 31 H        6.0370    -2.8450     1.8460 H     1 <1>   0.1500 
 32 H        6.2280    -4.8150     0.3380 H     1 <1>   0.1500 
 33 H       -6.1050    -2.8200    -0.8240 H     1 <1>   0.0800 
 34 H       -5.9950    -2.8550     0.9400 H     1 <1>   0.0800 
 35 H       -6.8150    -5.1870     0.9350 H     1 <1>   0.0800 
 36 H       -6.9240    -5.1520    -0.8100 H     1 <1>   0.0800 
 37 H       -8.6220    -3.3490    -0.6660 H     1 <1>   0.0800 
 38 H       -8.5140    -3.3840     1.0750 H     1 <1>   0.0800 
 39 H       -9.4170    -5.7010    -0.6650 H     1 <1>   0.0800 
 40 H      -10.4590    -4.6810     0.2970 H     1 <1>   0.0800 
 41 H       -9.3080    -5.7350     1.0800 H     1 <1>   0.0800 
@<TRIPOS>BOND
  1   1   2  2   
  2   2   3  am  
  3   2   4  1   
  4   3   5  1   
  5   3  22  1   
  6   4   6  ar  
  7   4   7  ar  
  8   5   8  1   
  9   5  23  1   
 10   5  24  1   
 11   6   9  ar  
 12   6  25  1   
 13   7  10  ar  
 14   7  26  1   
 15   8  11  ar  
 16   8  12  ar  
 17   9  13  ar  
 18   9  27  1   
 19  10  13  ar  
 20  10  28  1   
 21  11  14  ar  
 22  12  15  ar  
 23  12  29  1   
 24  13  16  1   
 25  14  17  ar  
 26  14  30  1   
 27  15  17  ar  
 28  15  31  1   
 29  16  18  1   
 30  17  32  1   
 31  18  19  1   
 32  18  33  1   
 33  18  34  1   
 34  19  20  1   
 35  19  35  1   
 36  19  36  1   
 37  20  21  1   
 38  20  37  1   
 39  20  38  1   
 40  21  39  1   
 41  21  40  1   
 42  21  41  1   
@<TRIPOS>SUBSTRUCTURE
  1 ****   7 GROUP 4 **** **** 0

# MOE 2024.06 (io_trps.svl 2023.06)
