@<TRIPOS>MOLECULE
NONAME
41 41 1 0 0 
SMALL
USER_CHARGES


@<TRIPOS>ATOM
  1 O       -5.1060    -1.4540    -0.3770 O.3   1 <1>  -0.3630 
  2 C       -6.4400    -1.4780    -0.1630 C.ar  1 <1>   0.0830 
  3 C       -4.3270    -2.1280     0.5860 C.3   1 <1>   0.1200 
  4 C       -7.0370    -0.4630     0.5820 C.ar  1 <1>  -0.1440 
  5 C       -7.2010    -2.5180    -0.6930 C.ar  1 <1>  -0.1440 
  6 C       -2.8720    -2.1530     0.1050 C.3   1 <1>   0.2000 
  7 C       -8.3990    -0.5190     0.8240 C.ar  1 <1>  -0.1500 
  8 C       -6.2340     0.7100     1.1280 C.3   1 <1>  -0.0960 
  9 C       -8.5620    -2.5530    -0.4380 C.ar  1 <1>  -0.1500 
 10 C       -6.5790    -3.6090    -1.5530 C.3   1 <1>  -0.0960 
 11 O       -2.8390    -2.5870    -1.2220 O.3   1 <1>  -0.6800 
 12 C       -1.9830    -3.0860     0.9530 C.3   1 <1>   0.3430 
 13 C       -9.1580    -1.5610     0.3210 C.ar  1 <1>  -0.1500 
 14 N       -0.8040    -3.5230     0.1470 N.4   1 <1>  -0.9060 
 15 C       -0.1640    -4.7740     0.5620 C.3   1 <1>   0.4230 
 16 C        1.1580    -4.8750    -0.1870 C.3   1 <1>  -0.2400 
 17 C       -1.0740    -5.9470     0.2110 C.3   1 <1>  -0.2400 
 18 H       -4.7130    -3.1270     0.6960 H     1 <1>   0.0800 
 19 H       -4.4190    -1.6080     1.5230 H     1 <1>   0.0800 
 20 H       -2.4780    -1.1510     0.1320 H     1 <1>   0.0800 
 21 H       -8.8810     0.2490     1.4030 H     1 <1>   0.1500 
 22 H       -5.7390     0.4250     2.0380 H     1 <1>   0.0800 
 23 H       -6.8790     1.5450     1.3350 H     1 <1>   0.0800 
 24 H       -5.5000     1.0260     0.4090 H     1 <1>   0.0800 
 25 H       -9.1680    -3.3500    -0.8300 H     1 <1>   0.1500 
 26 H       -5.8810    -3.1810    -2.2490 H     1 <1>   0.0800 
 27 H       -7.3350    -4.1260    -2.1170 H     1 <1>   0.0800 
 28 H       -6.0670    -4.3220    -0.9330 H     1 <1>   0.0800 
 29 H       -3.5720    -2.1350    -1.7070 H     1 <1>   0.4000 
 30 H       -2.5700    -3.9450     1.2290 H     1 <1>   0.0800 
 31 H       -1.6710    -2.5900     1.8570 H     1 <1>   0.0800 
 32 H      -10.2160    -1.5970     0.5140 H     1 <1>   0.1500 
 33 H       -0.1110    -2.7710     0.0850 H     1 <1>   0.4500 
 34 H       -1.1780    -3.6250    -0.8140 H     1 <1>   0.4500 
 35 H        0.0290    -4.7590     1.6240 H     1 <1>   0.0800 
 36 H        1.0040    -4.8900    -1.2520 H     1 <1>   0.0800 
 37 H        1.6590    -5.7870     0.0880 H     1 <1>   0.0800 
 38 H        1.8070    -4.0580     0.0710 H     1 <1>   0.0800 
 39 H       -1.3050    -5.9590    -0.8400 H     1 <1>   0.0800 
 40 H       -1.9870    -5.9180     0.7780 H     1 <1>   0.0800 
 41 H       -0.5780    -6.8710     0.4520 H     1 <1>   0.0800 
@<TRIPOS>BOND
  1   1   2  1   
  2   1   3  1   
  3   2   4  ar  
  4   2   5  ar  
  5   3   6  1   
  6   3  18  1   
  7   3  19  1   
  8   4   7  ar  
  9   4   8  1   
 10   5   9  ar  
 11   5  10  1   
 12   6  11  1   
 13   6  12  1   
 14   6  20  1   
 15   7  13  ar  
 16   7  21  1   
 17   8  22  1   
 18   8  23  1   
 19   8  24  1   
 20   9  13  ar  
 21   9  25  1   
 22  10  26  1   
 23  10  27  1   
 24  10  28  1   
 25  11  29  1   
 26  12  14  1   
 27  12  30  1   
 28  12  31  1   
 29  13  32  1   
 30  14  15  1   
 31  14  33  1   
 32  14  34  1   
 33  15  16  1   
 34  15  17  1   
 35  15  35  1   
 36  16  36  1   
 37  16  37  1   
 38  16  38  1   
 39  17  39  1   
 40  17  40  1   
 41  17  41  1   
@<TRIPOS>SUBSTRUCTURE
  1 ****   3 GROUP 4 **** **** 0

# MOE 2024.06 (io_trps.svl 2023.06)
