@<TRIPOS>MOLECULE
NONAME
49 52 1 0 0 
SMALL
USER_CHARGES


@<TRIPOS>ATOM
  1 S       -1.2260    -0.1190    -0.9190 S.3   1 <1>  -0.0800 
  2 C       -0.7860     1.3840    -0.0930 C.2   1 <1>  -0.0450 
  3 C        0.4200    -0.7130    -0.8710 C.2   1 <1>  -0.1100 
  4 C       -1.7980     2.3720     0.1820 C.2   1 <1>   0.7150 
  5 C        0.5460     1.3560     0.1680 C.2   1 <1>  -0.1500 
  6 C        1.2240     0.1810    -0.2670 C.2   1 <1>  -0.1500 
  7 O       -1.4980     3.4010     0.7580 O.2   1 <1>  -0.5700 
  8 N       -3.0960     2.1350    -0.1970 N.am  1 <1>  -0.5470 
  9 C       -4.2690     2.9030    -0.0840 C.ar  1 <1>   0.1170 
 10 C       -5.4900     2.2550    -0.0860 C.ar  1 <1>  -0.1500 
 11 C       -4.2450     4.3070     0.0090 C.ar  1 <1>  -0.1500 
 12 C       -6.6690     2.9890     0.0110 C.ar  1 <1>   0.2270 
 13 C       -5.4050     5.0420     0.1070 C.ar  1 <1>  -0.1500 
 14 N       -7.9590     2.5520     0.0280 N.2   1 <1>  -0.5650 
 15 C       -6.6260     4.3640     0.1080 C.ar  1 <1>  -0.1520 
 16 C       -8.6620     3.6260     0.1330 C.2   1 <1>   0.0060 
 17 N       -7.9210     4.7720     0.1880 N.pl3 1 <1>   0.0480 
 18 C      -10.1790     3.6030     0.1890 C.3   1 <1>   0.0200 
 19 C       -8.3480     6.1800     0.3110 C.3   1 <1>   0.0160 
 20 C      -10.6650     2.1470     0.1710 C.3   1 <1>   0.3430 
 21 N      -12.1540     2.0170     0.2680 N.4   1 <1>  -0.9590 
 22 C      -12.5200     0.5810     0.5340 C.3   1 <1>   0.3430 
 23 C      -12.8580     2.5000    -0.9740 C.3   1 <1>   0.3430 
 24 C      -14.0460     0.3720     0.5260 C.3   1 <1>   0.1200 
 25 C      -14.3700     2.2080    -0.9190 C.3   1 <1>   0.1200 
 26 O      -14.5940     0.8520    -0.6680 O.3   1 <1>  -0.5600 
 27 H        0.6180    -1.6780    -1.3030 H     1 <1>   0.1500 
 28 H        1.0760     2.1510     0.6670 H     1 <1>   0.1500 
 29 H        2.2820     0.0600    -0.1090 H     1 <1>   0.1500 
 30 H       -3.2330     1.2030    -0.5850 H     1 <1>   0.3700 
 31 H       -5.5600     1.1870    -0.1570 H     1 <1>   0.1500 
 32 H       -3.3010     4.8200     0.0000 H     1 <1>   0.1500 
 33 H       -5.3730     6.1140     0.1810 H     1 <1>   0.1500 
 34 H      -10.5600     4.1360    -0.6620 H     1 <1>   0.0800 
 35 H      -10.5010     4.0820     1.0960 H     1 <1>   0.0800 
 36 H       -7.9360     6.5950     1.2130 H     1 <1>   0.0800 
 37 H       -9.4190     6.2470     0.3440 H     1 <1>   0.0800 
 38 H       -7.9810     6.7340    -0.5340 H     1 <1>   0.0800 
 39 H      -10.2020     1.6350     1.0000 H     1 <1>   0.0800 
 40 H      -10.3120     1.6730    -0.7320 H     1 <1>   0.0800 
 41 H      -12.4880     2.5690     1.0690 H     1 <1>   0.4500 
 42 H      -12.1230     0.2690     1.4870 H     1 <1>   0.0800 
 43 H      -12.0890    -0.0510    -0.2250 H     1 <1>   0.0800 
 44 H      -12.4500     2.0020    -1.8390 H     1 <1>   0.0800 
 45 H      -12.7060     3.5590    -1.1000 H     1 <1>   0.0800 
 46 H      -14.5160     0.8770     1.3520 H     1 <1>   0.0800 
 47 H      -14.2770    -0.6780     0.5910 H     1 <1>   0.0800 
 48 H      -14.8280     2.4450    -1.8640 H     1 <1>   0.0800 
 49 H      -14.8530     2.7880    -0.1510 H     1 <1>   0.0800 
@<TRIPOS>BOND
  1   1   2  1   
  2   1   3  1   
  3   2   4  1   
  4   2   5  2   
  5   3   6  2   
  6   3  27  1   
  7   4   7  2   
  8   4   8  am  
  9   5   6  1   
 10   5  28  1   
 11   6  29  1   
 12   8   9  1   
 13   8  30  1   
 14   9  10  ar  
 15   9  11  ar  
 16  10  12  ar  
 17  10  31  1   
 18  11  13  ar  
 19  11  32  1   
 20  12  14  1   
 21  12  15  ar  
 22  13  15  ar  
 23  13  33  1   
 24  14  16  2   
 25  15  17  1   
 26  16  17  1   
 27  16  18  1   
 28  17  19  1   
 29  18  20  1   
 30  18  34  1   
 31  18  35  1   
 32  19  36  1   
 33  19  37  1   
 34  19  38  1   
 35  20  21  1   
 36  20  39  1   
 37  20  40  1   
 38  21  22  1   
 39  21  23  1   
 40  21  41  1   
 41  22  24  1   
 42  22  42  1   
 43  22  43  1   
 44  23  25  1   
 45  23  44  1   
 46  23  45  1   
 47  24  26  1   
 48  24  46  1   
 49  24  47  1   
 50  25  26  1   
 51  25  48  1   
 52  25  49  1   
@<TRIPOS>SUBSTRUCTURE
  1 ****  12 GROUP 4 **** **** 0

# MOE 2024.06 (io_trps.svl 2023.06)
