@<TRIPOS>MOLECULE
NONAME
48 50 1 0 0 
SMALL
USER_CHARGES


@<TRIPOS>ATOM
  1 F       -0.2180    -2.5960    -2.3590 F     1 <1>  -0.1900 
  2 C       -1.1440    -2.1560    -1.5370 C.ar  1 <1>   0.1900 
  3 C       -0.9920    -2.3540    -0.1590 C.ar  1 <1>   0.1000 
  4 C       -2.2340    -1.5120    -2.0880 C.ar  1 <1>  -0.1500 
  5 N        0.0980    -3.0020     0.4380 N.pl3 1 <1>  -0.8380 
  6 C       -2.0040    -1.8650     0.6580 C.ar  1 <1>  -0.1500 
  7 C       -3.2250    -1.0380    -1.2450 C.ar  1 <1>  -0.1500 
  8 C        1.4010    -2.2750     0.3350 C.3   1 <1>   0.2090 
  9 C        0.2060    -4.4630     0.1440 C.3   1 <1>   0.2090 
 10 C       -3.1070    -1.2160     0.1250 C.ar  1 <1>  -0.1500 
 11 C        2.4840    -2.9460     1.2040 C.3   1 <1>   0.3430 
 12 C        1.2900    -5.1290     1.0170 C.3   1 <1>   0.3430 
 13 N        2.6140    -4.4220     0.9200 N.4   1 <1>  -0.9590 
 14 C        3.6690    -5.0630     1.7410 C.3   1 <1>   0.4860 
 15 C        5.0050    -4.4500     1.3680 C.ar  1 <1>  -0.1430 
 16 C        5.4850    -4.5510     0.0650 C.ar  1 <1>   0.0830 
 17 C        5.7500    -3.7850     2.3300 C.ar  1 <1>  -0.1500 
 18 O        4.7060    -5.2080    -0.8390 O.3   1 <1>  -0.3630 
 19 C        6.7120    -3.9830    -0.2670 C.ar  1 <1>  -0.1500 
 20 C        6.9660    -3.2210     1.9940 C.ar  1 <1>  -0.1500 
 21 C        5.2040    -5.5590    -2.1160 C.3   1 <1>   0.0400 
 22 C        7.4540    -3.3150     0.7020 C.ar  1 <1>   0.0830 
 23 O        8.6550    -2.7320     0.4680 O.3   1 <1>  -0.3620 
 24 C        9.2990    -2.8260    -0.7840 C.3   1 <1>   0.0400 
 25 H       -2.3070    -1.3840    -3.1530 H     1 <1>   0.1500 
 26 H       -1.9220    -1.9980     1.7220 H     1 <1>   0.1500 
 27 H       -4.0850    -0.5320    -1.6510 H     1 <1>   0.1500 
 28 H        1.2650    -1.2580     0.6590 H     1 <1>   0.0800 
 29 H        1.7270    -2.2530    -0.6910 H     1 <1>   0.0800 
 30 H        0.4410    -4.6100    -0.8960 H     1 <1>   0.0800 
 31 H       -0.7440    -4.9320     0.3370 H     1 <1>   0.0800 
 32 H       -3.8780    -0.8470     0.7800 H     1 <1>   0.1500 
 33 H        2.2210    -2.8000     2.2380 H     1 <1>   0.0800 
 34 H        3.4270    -2.4540     1.0300 H     1 <1>   0.0800 
 35 H        1.4000    -6.1570     0.7160 H     1 <1>   0.0800 
 36 H        0.9490    -5.1160     2.0390 H     1 <1>   0.0800 
 37 H        2.9670    -4.5130    -0.0480 H     1 <1>   0.4500 
 38 H        3.7030    -6.1210     1.5360 H     1 <1>   0.0800 
 39 H        3.4690    -4.9190     2.7890 H     1 <1>   0.0800 
 40 H        5.4020    -3.6990     3.3460 H     1 <1>   0.1500 
 41 H        7.0910    -4.0510    -1.2660 H     1 <1>   0.1500 
 42 H        7.5530    -2.7040     2.7330 H     1 <1>   0.1500 
 43 H        5.3930    -4.6630    -2.6810 H     1 <1>   0.0800 
 44 H        4.4610    -6.1530    -2.6190 H     1 <1>   0.0800 
 45 H        6.1060    -6.1340    -1.9970 H     1 <1>   0.0800 
 46 H       10.2420    -2.3140    -0.7130 H     1 <1>   0.0800 
 47 H        8.6850    -2.3550    -1.5310 H     1 <1>   0.0800 
 48 H        9.4650    -3.8640    -1.0150 H     1 <1>   0.0800 
@<TRIPOS>BOND
  1   1   2  1   
  2   2   3  ar  
  3   2   4  ar  
  4   3   5  1   
  5   3   6  ar  
  6   4   7  ar  
  7   4  25  1   
  8   5   8  1   
  9   5   9  1   
 10   6  10  ar  
 11   6  26  1   
 12   7  10  ar  
 13   7  27  1   
 14   8  11  1   
 15   8  28  1   
 16   8  29  1   
 17   9  12  1   
 18   9  30  1   
 19   9  31  1   
 20  10  32  1   
 21  11  13  1   
 22  11  33  1   
 23  11  34  1   
 24  12  13  1   
 25  12  35  1   
 26  12  36  1   
 27  13  14  1   
 28  13  37  1   
 29  14  15  1   
 30  14  38  1   
 31  14  39  1   
 32  15  16  ar  
 33  15  17  ar  
 34  16  18  1   
 35  16  19  ar  
 36  17  20  ar  
 37  17  40  1   
 38  18  21  1   
 39  19  22  ar  
 40  19  41  1   
 41  20  22  ar  
 42  20  42  1   
 43  21  43  1   
 44  21  44  1   
 45  21  45  1   
 46  22  23  1   
 47  23  24  1   
 48  24  46  1   
 49  24  47  1   
 50  24  48  1   
@<TRIPOS>SUBSTRUCTURE
  1 ****  11 GROUP 4 **** **** 0

# MOE 2024.06 (io_trps.svl 2023.06)
