@<TRIPOS>MOLECULE
NONAME
42 42 1 0 0 
SMALL
USER_CHARGES


@<TRIPOS>ATOM
  1 O       -1.7760    -1.4870     0.0000 O.co2 1 <1>  -0.9000 
  2 C       -2.8260    -0.8720     0.1800 C.2   1 <1>   0.9060 
  3 O       -3.5300    -0.4680    -0.7530 O.co2 1 <1>  -0.9000 
  4 C       -3.2880    -0.6390     1.5990 C.3   1 <1>  -0.2660 
  5 C       -4.7980    -0.3370     1.7380 C.3   1 <1>  -0.0990 
  6 C       -5.7240    -1.4790     1.3420 C.2   1 <1>   0.5690 
  7 O       -6.4320    -1.9580     2.1980 O.2   1 <1>  -0.5700 
  8 N       -5.7540    -1.8840     0.0410 N.am  1 <1>  -0.5470 
  9 C       -6.6320    -2.8010    -0.5610 C.ar  1 <1>   0.1170 
 10 C       -7.9710    -2.4390    -0.7840 C.ar  1 <1>  -0.1430 
 11 C       -6.1850    -4.0760    -0.9480 C.ar  1 <1>  -0.1430 
 12 C       -8.8410    -3.3590    -1.3500 C.ar  1 <1>  -0.1500 
 13 C       -8.5240    -1.0480    -0.4290 C.3   1 <1>   0.0630 
 14 C       -7.0860    -4.9630    -1.5200 C.ar  1 <1>  -0.1500 
 15 C       -4.7410    -4.5860    -0.7980 C.3   1 <1>   0.0630 
 16 C       -8.4060    -4.6140    -1.7170 C.ar  1 <1>  -0.1500 
 17 C       -9.5580    -1.1460     0.6970 C.3   1 <1>  -0.2400 
 18 C       -9.1220    -0.3510    -1.6580 C.3   1 <1>  -0.2400 
 19 C       -4.1900    -4.5070     0.6310 C.3   1 <1>  -0.2400 
 20 C       -3.8040    -3.9120    -1.8030 C.3   1 <1>  -0.2400 
 21 H       -2.7210     0.1870     1.9810 H     1 <1>   0.0800 
 22 H       -3.0390    -1.5100     2.1740 H     1 <1>   0.0800 
 23 H       -5.0460     0.5180     1.1350 H     1 <1>   0.0800 
 24 H       -5.0040    -0.0790     2.7600 H     1 <1>   0.0800 
 25 H       -4.9980    -1.4810    -0.5500 H     1 <1>   0.3700 
 26 H       -9.8720    -3.1030    -1.5120 H     1 <1>   0.1500 
 27 H       -7.7350    -0.4080    -0.0800 H     1 <1>   0.0800 
 28 H       -6.7680    -5.9440    -1.8220 H     1 <1>   0.1500 
 29 H       -4.7380    -5.6340    -1.0430 H     1 <1>   0.0800 
 30 H       -9.0910    -5.3170    -2.1550 H     1 <1>   0.1500 
 31 H      -10.4120    -1.7190     0.3880 H     1 <1>   0.0800 
 32 H       -9.8830    -0.1650     0.9920 H     1 <1>   0.0800 
 33 H       -9.1110    -1.6280     1.5490 H     1 <1>   0.0800 
 34 H       -9.9900    -0.8700    -2.0190 H     1 <1>   0.0800 
 35 H       -8.3870    -0.3160    -2.4430 H     1 <1>   0.0800 
 36 H       -9.4030     0.6560    -1.4100 H     1 <1>   0.0800 
 37 H       -3.8820    -3.5080     0.8690 H     1 <1>   0.0800 
 38 H       -3.3300    -5.1420     0.7290 H     1 <1>   0.0800 
 39 H       -4.9400    -4.8180     1.3360 H     1 <1>   0.0800 
 40 H       -3.7560    -2.8540    -1.6310 H     1 <1>   0.0800 
 41 H       -2.8080    -4.3060    -1.7140 H     1 <1>   0.0800 
 42 H       -4.1560    -4.0730    -2.8050 H     1 <1>   0.0800 
@<TRIPOS>BOND
  1   1   2  ar  
  2   2   3  ar  
  3   2   4  1   
  4   4   5  1   
  5   4  21  1   
  6   4  22  1   
  7   5   6  1   
  8   5  23  1   
  9   5  24  1   
 10   6   7  2   
 11   6   8  am  
 12   8   9  1   
 13   8  25  1   
 14   9  10  ar  
 15   9  11  ar  
 16  10  12  ar  
 17  10  13  1   
 18  11  14  ar  
 19  11  15  1   
 20  12  16  ar  
 21  12  26  1   
 22  13  17  1   
 23  13  18  1   
 24  13  27  1   
 25  14  16  ar  
 26  14  28  1   
 27  15  19  1   
 28  15  20  1   
 29  15  29  1   
 30  16  30  1   
 31  17  31  1   
 32  17  32  1   
 33  17  33  1   
 34  18  34  1   
 35  18  35  1   
 36  18  36  1   
 37  19  37  1   
 38  19  38  1   
 39  19  39  1   
 40  20  40  1   
 41  20  41  1   
 42  20  42  1   
@<TRIPOS>SUBSTRUCTURE
  1 ****   8 GROUP 4 **** **** 0

# MOE 2024.06 (io_trps.svl 2023.06)
