@<TRIPOS>MOLECULE
NONAME
38 39 1 0 0 
SMALL
USER_CHARGES


@<TRIPOS>ATOM
  1 O        0.2320    -0.2500     0.0900 O.3   1 <1>  -0.3630 
  2 C       -1.0150    -0.7860     0.1000 C.ar  1 <1>   0.0830 
  3 C        1.3690    -1.0460     0.3000 C.3   1 <1>   0.1200 
  4 C       -1.2810    -2.1260     0.3680 C.ar  1 <1>  -0.1500 
  5 C       -2.0630     0.0770    -0.1790 C.ar  1 <1>  -0.1500 
  6 C        2.5890    -0.1270     0.1900 C.3   1 <1>   0.3430 
  7 C       -2.5860    -2.5920     0.3550 C.ar  1 <1>  -0.1440 
  8 C       -3.3680    -0.3820    -0.1960 C.ar  1 <1>  -0.1440 
  9 N        3.8830    -0.8600     0.3770 N.4   1 <1>  -0.9590 
 10 C       -3.6220    -1.7170     0.0720 C.ar  1 <1>  -0.1500 
 11 C       -2.8900    -4.0510     0.6450 C.3   1 <1>  -0.0970 
 12 C       -4.5170     0.5610    -0.5010 C.3   1 <1>  -0.0970 
 13 C        5.0460     0.0610     0.4200 C.3   1 <1>   0.3430 
 14 C        4.1890    -1.8400    -0.6980 C.3   1 <1>   0.3430 
 15 C        6.2460    -0.8320     0.1350 C.3   1 <1>  -0.1600 
 16 C        5.6920    -2.0590    -0.5950 C.3   1 <1>  -0.1600 
 17 H        1.3830    -1.8080    -0.4590 H     1 <1>   0.0800 
 18 H        1.2980    -1.4770     1.2830 H     1 <1>   0.0800 
 19 H       -0.4950    -2.8200     0.5880 H     1 <1>   0.1500 
 20 H       -1.8480     1.1100    -0.3810 H     1 <1>   0.1500 
 21 H        2.5000     0.6400     0.9420 H     1 <1>   0.0800 
 22 H        2.5790     0.3460    -0.7780 H     1 <1>   0.0800 
 23 H        3.8690    -1.3670     1.2730 H     1 <1>   0.4500 
 24 H       -4.6360    -2.0770     0.0590 H     1 <1>   0.1500 
 25 H       -2.1010    -4.5000     1.2210 H     1 <1>   0.0800 
 26 H       -2.9960    -4.5910    -0.2790 H     1 <1>   0.0800 
 27 H       -3.8050    -4.1360     1.2030 H     1 <1>   0.0800 
 28 H       -4.1560     1.4740    -0.9400 H     1 <1>   0.0800 
 29 H       -5.0440     0.7970     0.4050 H     1 <1>   0.0800 
 30 H       -5.2010     0.1000    -1.1920 H     1 <1>   0.0800 
 31 H        5.1320     0.5560     1.3740 H     1 <1>   0.0800 
 32 H        4.9560     0.7990    -0.3610 H     1 <1>   0.0800 
 33 H        3.9530    -1.4120    -1.6600 H     1 <1>   0.0800 
 34 H        3.6420    -2.7610    -0.5710 H     1 <1>   0.0800 
 35 H        6.7110    -1.1240     1.0610 H     1 <1>   0.0800 
 36 H        6.9730    -0.3060    -0.4590 H     1 <1>   0.0800 
 37 H        6.1220    -2.1680    -1.5760 H     1 <1>   0.0800 
 38 H        5.8940    -2.9540    -0.0340 H     1 <1>   0.0800 
@<TRIPOS>BOND
  1   1   2  1   
  2   1   3  1   
  3   2   4  ar  
  4   2   5  ar  
  5   3   6  1   
  6   3  17  1   
  7   3  18  1   
  8   4   7  ar  
  9   4  19  1   
 10   5   8  ar  
 11   5  20  1   
 12   6   9  1   
 13   6  21  1   
 14   6  22  1   
 15   7  10  ar  
 16   7  11  1   
 17   8  10  ar  
 18   8  12  1   
 19   9  13  1   
 20   9  14  1   
 21   9  23  1   
 22  10  24  1   
 23  11  25  1   
 24  11  26  1   
 25  11  27  1   
 26  12  28  1   
 27  12  29  1   
 28  12  30  1   
 29  13  15  1   
 30  13  31  1   
 31  13  32  1   
 32  14  16  1   
 33  14  33  1   
 34  14  34  1   
 35  15  16  1   
 36  15  35  1   
 37  15  36  1   
 38  16  37  1   
 39  16  38  1   
@<TRIPOS>SUBSTRUCTURE
  1 ****   3 GROUP 4 **** **** 0

# MOE 2024.06 (io_trps.svl 2023.06)
