@<TRIPOS>MOLECULE
NONAME
42 45 1 0 0 
SMALL
USER_CHARGES


@<TRIPOS>ATOM
  1 S       -0.1030    -0.6110    -1.5580 S.3   1 <1>  -0.4600 
  2 C       -0.0960    -1.5060     0.0030 C.3   1 <1>   0.2300 
  3 C       -1.6930     0.2530    -1.5440 C.3   1 <1>   0.2140 
  4 C       -1.2980    -2.4520    -0.0430 C.3   1 <1>  -0.0160 
  5 C        1.2240    -2.2800     0.0340 C.3   1 <1>  -0.2400 
  6 C       -0.1470    -0.4910     1.1530 C.3   1 <1>  -0.2400 
  7 C       -2.8190    -0.5730    -0.9290 C.ar  1 <1>  -0.1440 
  8 C       -2.6540    -1.7840    -0.2350 C.ar  1 <1>   0.1670 
  9 C       -4.0900    -0.0470    -1.0740 C.ar  1 <1>  -0.1500 
 10 N       -3.6500    -2.4730     0.3020 N.ar  1 <1>  -0.5670 
 11 C       -5.1460    -0.7460    -0.5210 C.ar  1 <1>   0.0000 
 12 C       -4.8400    -1.9270     0.1370 C.ar  1 <1>   0.2970 
 13 C       -6.5510    -0.4440    -0.5120 C.2   1 <1>   0.1250 
 14 S       -6.3130    -2.6710     0.7730 S.3   1 <1>  -0.0800 
 15 N       -7.1170     0.6650    -1.0900 N.2   1 <1>  -0.5750 
 16 C       -7.3140    -1.3590     0.1310 C.2   1 <1>  -0.0450 
 17 C       -8.3960     0.7910    -0.9920 C.2   1 <1>   0.4500 
 18 C       -8.7140    -1.2240     0.2380 C.2   1 <1>   0.7150 
 19 N       -9.2410    -0.0960    -0.3570 N.am  1 <1>  -0.4200 
 20 O       -9.4360    -2.0300     0.8110 O.2   1 <1>  -0.5700 
 21 C      -10.6990     0.1740    -0.3150 C.3   1 <1>   0.1400 
 22 C      -11.0460     0.9890     0.9350 C.3   1 <1>  -0.1600 
 23 C      -12.5440     1.3070     0.9930 C.3   1 <1>  -0.2400 
 24 H       -1.9130     0.4990    -2.5680 H     1 <1>   0.0800 
 25 H       -1.5440     1.1600    -0.9850 H     1 <1>   0.0800 
 26 H       -1.3160    -3.0140     0.8740 H     1 <1>   0.0800 
 27 H       -1.1660    -3.1570    -0.8430 H     1 <1>   0.0800 
 28 H        1.2900    -2.9440    -0.8090 H     1 <1>   0.0800 
 29 H        1.2960    -2.8610     0.9350 H     1 <1>   0.0800 
 30 H        2.0560    -1.5990    -0.0030 H     1 <1>   0.0800 
 31 H       -1.0730     0.0540     1.1630 H     1 <1>   0.0800 
 32 H        0.6640     0.2090     1.0660 H     1 <1>   0.0800 
 33 H       -0.0560    -1.0010     2.0940 H     1 <1>   0.0800 
 34 H       -4.2810     0.8770    -1.5930 H     1 <1>   0.1500 
 35 H       -8.8640     1.6530    -1.4350 H     1 <1>   0.0600 
 36 H      -11.2410    -0.7580    -0.3070 H     1 <1>   0.0800 
 37 H      -10.9890     0.7160    -1.1990 H     1 <1>   0.0800 
 38 H      -10.4910     1.9110     0.9350 H     1 <1>   0.0800 
 39 H      -10.7750     0.4260     1.8130 H     1 <1>   0.0800 
 40 H      -12.8440     1.8860     0.1370 H     1 <1>   0.0800 
 41 H      -12.7640     1.8740     1.8810 H     1 <1>   0.0800 
 42 H      -13.1220     0.3990     1.0190 H     1 <1>   0.0800 
@<TRIPOS>BOND
  1   1   2  1   
  2   1   3  1   
  3   2   4  1   
  4   2   5  1   
  5   2   6  1   
  6   3   7  1   
  7   3  24  1   
  8   3  25  1   
  9   4   8  1   
 10   4  26  1   
 11   4  27  1   
 12   5  28  1   
 13   5  29  1   
 14   5  30  1   
 15   6  31  1   
 16   6  32  1   
 17   6  33  1   
 18   7   8  ar  
 19   7   9  ar  
 20   8  10  ar  
 21   9  11  ar  
 22   9  34  1   
 23  10  12  ar  
 24  11  12  ar  
 25  11  13  1   
 26  12  14  1   
 27  13  15  1   
 28  13  16  2   
 29  14  16  1   
 30  15  17  2   
 31  16  18  1   
 32  17  19  1   
 33  17  35  1   
 34  18  19  am  
 35  18  20  2   
 36  19  21  1   
 37  21  22  1   
 38  21  36  1   
 39  21  37  1   
 40  22  23  1   
 41  22  38  1   
 42  22  39  1   
 43  23  40  1   
 44  23  41  1   
 45  23  42  1   
@<TRIPOS>SUBSTRUCTURE
  1 ****  11 GROUP 4 **** **** 0

# MOE 2024.06 (io_trps.svl 2023.06)
