@<TRIPOS>MOLECULE
NONAME
43 45 1 0 0 
SMALL
USER_CHARGES


@<TRIPOS>ATOM
  1 F       -0.5770    -2.7420    -2.4020 F     1 <1>  -0.1900 
  2 C       -1.3920    -2.3100    -1.4670 C.ar  1 <1>   0.1900 
  3 C       -1.0620    -2.5080    -0.1210 C.ar  1 <1>   0.1000 
  4 C       -2.5490    -1.6730    -1.8710 C.ar  1 <1>  -0.1500 
  5 N        0.1020    -3.1490     0.3280 N.pl3 1 <1>  -0.8380 
  6 C       -1.9630    -2.0290     0.8220 C.ar  1 <1>  -0.1500 
  7 C       -3.4260    -1.2080    -0.9050 C.ar  1 <1>  -0.1500 
  8 C        1.3720    -2.4060     0.0650 C.3   1 <1>   0.2090 
  9 C        0.1790    -4.6080     0.0180 C.3   1 <1>   0.2090 
 10 C       -3.1300    -1.3880     0.4380 C.ar  1 <1>  -0.1500 
 11 C        2.5660    -3.0770     0.7730 C.3   1 <1>   0.3430 
 12 C        1.3820    -5.2650     0.7290 C.3   1 <1>   0.3430 
 13 N        2.6770    -4.5490     0.4480 N.4   1 <1>  -0.9590 
 14 C        3.8280    -5.1790     1.1470 C.3   1 <1>   0.4860 
 15 C        5.0990    -4.5050     0.6730 C.ar  1 <1>  -0.1430 
 16 C        5.5910    -4.7550    -0.6010 C.ar  1 <1>  -0.1500 
 17 C        5.7730    -3.6230     1.5060 C.ar  1 <1>  -0.1500 
 18 C        6.7370    -4.1200    -1.0490 C.ar  1 <1>  -0.1430 
 19 C        6.9180    -2.9880     1.0600 C.ar  1 <1>  -0.1500 
 20 C        7.3950    -3.2330    -0.2140 C.ar  1 <1>  -0.1500 
 21 C        7.2780    -4.3890    -2.4420 C.3   1 <1>  -0.0970 
 22 H       -2.7600    -1.5440    -2.9170 H     1 <1>   0.1500 
 23 H       -1.7440    -2.1630     1.8660 H     1 <1>   0.1500 
 24 H       -4.3350    -0.7080    -1.1950 H     1 <1>   0.1500 
 25 H        1.2690    -1.3950     0.4220 H     1 <1>   0.0800 
 26 H        1.5580    -2.3620    -0.9950 H     1 <1>   0.0800 
 27 H        0.2650    -4.7530    -1.0450 H     1 <1>   0.0800 
 28 H       -0.7300    -5.0850     0.3430 H     1 <1>   0.0800 
 29 H       -3.8130    -1.0250     1.1870 H     1 <1>   0.1500 
 30 H        2.4380    -2.9500     1.8350 H     1 <1>   0.0800 
 31 H        3.4710    -2.5670     0.4850 H     1 <1>   0.0800 
 32 H        1.4530    -6.2930     0.4160 H     1 <1>   0.0800 
 33 H        1.1860    -5.2530     1.7890 H     1 <1>   0.0800 
 34 H        2.8730    -4.6070    -0.5580 H     1 <1>   0.4500 
 35 H        3.8760    -6.2310     0.9160 H     1 <1>   0.0800 
 36 H        3.7270    -5.0660     2.2140 H     1 <1>   0.0800 
 37 H        5.0920    -5.4470    -1.2570 H     1 <1>   0.1500 
 38 H        5.4240    -3.4210     2.5040 H     1 <1>   0.1500 
 39 H        7.4440    -2.3020     1.7040 H     1 <1>   0.1500 
 40 H        8.2870    -2.7330    -0.5510 H     1 <1>   0.1500 
 41 H        6.9700    -5.3570    -2.7930 H     1 <1>   0.0800 
 42 H        8.3530    -4.3620    -2.4370 H     1 <1>   0.0800 
 43 H        6.9190    -3.6410    -3.1260 H     1 <1>   0.0800 
@<TRIPOS>BOND
  1   1   2  1   
  2   2   3  ar  
  3   2   4  ar  
  4   3   5  1   
  5   3   6  ar  
  6   4   7  ar  
  7   4  22  1   
  8   5   8  1   
  9   5   9  1   
 10   6  10  ar  
 11   6  23  1   
 12   7  10  ar  
 13   7  24  1   
 14   8  11  1   
 15   8  25  1   
 16   8  26  1   
 17   9  12  1   
 18   9  27  1   
 19   9  28  1   
 20  10  29  1   
 21  11  13  1   
 22  11  30  1   
 23  11  31  1   
 24  12  13  1   
 25  12  32  1   
 26  12  33  1   
 27  13  14  1   
 28  13  34  1   
 29  14  15  1   
 30  14  35  1   
 31  14  36  1   
 32  15  16  ar  
 33  15  17  ar  
 34  16  18  ar  
 35  16  37  1   
 36  17  19  ar  
 37  17  38  1   
 38  18  20  ar  
 39  18  21  1   
 40  19  20  ar  
 41  19  39  1   
 42  20  40  1   
 43  21  41  1   
 44  21  42  1   
 45  21  43  1   
@<TRIPOS>SUBSTRUCTURE
  1 ****  11 GROUP 4 **** **** 0

# MOE 2024.06 (io_trps.svl 2023.06)
