@<TRIPOS>MOLECULE
NONAME
42 43 1 0 0 
SMALL
USER_CHARGES


@<TRIPOS>ATOM
  1 O       -0.2500     1.1710     1.4760 O.2   1 <1>  -0.5700 
  2 C       -0.7820     1.7950     0.5760 C.2   1 <1>   0.5440 
  3 N        0.0000     2.5460    -0.2840 N.am  1 <1>  -0.6600 
  4 C       -2.2220     1.7330     0.4460 C.ar  1 <1>   0.0860 
  5 C       -0.5660     3.3590    -1.4040 C.3   1 <1>   0.1400 
  6 C        1.4840     2.5240    -0.1550 C.3   1 <1>   0.1400 
  7 C       -3.0520     2.3970     1.3480 C.ar  1 <1>  -0.1500 
  8 C       -2.8290     1.0130    -0.5840 C.ar  1 <1>  -0.1500 
  9 C       -0.1900     4.8460    -1.3230 C.3   1 <1>  -0.1600 
 10 C        1.9830     3.4510     0.9680 C.3   1 <1>  -0.1600 
 11 C       -4.4290     2.3630     1.2240 C.ar  1 <1>  -0.1500 
 12 C       -4.2040     0.9750    -0.7150 C.ar  1 <1>  -0.1500 
 13 C       -0.2930     5.4430     0.0950 C.3   1 <1>  -0.1600 
 14 C        2.2430     4.9080     0.5440 C.3   1 <1>  -0.1600 
 15 C       -5.0160     1.6500     0.1820 C.ar  1 <1>   0.0830 
 16 C        1.0560     5.8790     0.6920 C.3   1 <1>  -0.1600 
 17 O       -6.3510     1.5660    -0.0170 O.3   1 <1>  -0.3620 
 18 C       -7.2720     2.1840     0.8510 C.3   1 <1>   0.1200 
 19 C       -8.6780     1.8770     0.3430 C.3   1 <1>  -0.2400 
 20 H       -1.6380     3.2950    -1.4010 H     1 <1>   0.0800 
 21 H       -0.2240     2.9530    -2.3400 H     1 <1>   0.0800 
 22 H        1.9430     2.7820    -1.0920 H     1 <1>   0.0800 
 23 H        1.7830     1.5160     0.0790 H     1 <1>   0.0800 
 24 H       -2.5970     2.9440     2.1560 H     1 <1>   0.1500 
 25 H       -2.2070     0.4810    -1.2820 H     1 <1>   0.1500 
 26 H       -0.8630     5.3830    -1.9690 H     1 <1>   0.0800 
 27 H        0.7890     4.9900    -1.7390 H     1 <1>   0.0800 
 28 H        2.9270     3.0480     1.2910 H     1 <1>   0.0800 
 29 H        1.3240     3.4060     1.8180 H     1 <1>   0.0800 
 30 H       -5.0250     2.8920     1.9420 H     1 <1>   0.1500 
 31 H       -4.6620     0.4190    -1.5140 H     1 <1>   0.1500 
 32 H       -0.7660     4.7500     0.7680 H     1 <1>   0.0800 
 33 H       -0.9330     6.3070     0.0600 H     1 <1>   0.0800 
 34 H        2.6190     4.9290    -0.4630 H     1 <1>   0.0800 
 35 H        3.0350     5.2910     1.1640 H     1 <1>   0.0800 
 36 H        0.9040     6.0740     1.7400 H     1 <1>   0.0800 
 37 H        1.3400     6.8150     0.2400 H     1 <1>   0.0800 
 38 H       -7.0880     3.2440     0.8440 H     1 <1>   0.0800 
 39 H       -7.1290     1.7840     1.8400 H     1 <1>   0.0800 
 40 H       -8.8040     2.2660    -0.6520 H     1 <1>   0.0800 
 41 H       -9.4060     2.3360     0.9860 H     1 <1>   0.0800 
 42 H       -8.8450     0.8150     0.3380 H     1 <1>   0.0800 
@<TRIPOS>BOND
  1   1   2  2   
  2   2   3  am  
  3   2   4  1   
  4   3   5  1   
  5   3   6  1   
  6   4   7  ar  
  7   4   8  ar  
  8   5   9  1   
  9   5  20  1   
 10   5  21  1   
 11   6  10  1   
 12   6  22  1   
 13   6  23  1   
 14   7  11  ar  
 15   7  24  1   
 16   8  12  ar  
 17   8  25  1   
 18   9  13  1   
 19   9  26  1   
 20   9  27  1   
 21  10  14  1   
 22  10  28  1   
 23  10  29  1   
 24  11  15  ar  
 25  11  30  1   
 26  12  15  ar  
 27  12  31  1   
 28  13  16  1   
 29  13  32  1   
 30  13  33  1   
 31  14  16  1   
 32  14  34  1   
 33  14  35  1   
 34  15  17  1   
 35  16  36  1   
 36  16  37  1   
 37  17  18  1   
 38  18  19  1   
 39  18  38  1   
 40  18  39  1   
 41  19  40  1   
 42  19  41  1   
 43  19  42  1   
@<TRIPOS>SUBSTRUCTURE
  1 ****   4 GROUP 4 **** **** 0

# MOE 2024.06 (io_trps.svl 2023.06)
