@<TRIPOS>MOLECULE
NONAME
30 30 1 0 0 
SMALL
USER_CHARGES


@<TRIPOS>ATOM
  1 N       -3.1750     2.3600     0.7430 N.ar  1 <1>  -0.2100 
  2 C       -2.4260     2.8250    -0.2960 C.ar  1 <1>   0.2180 
  3 C       -3.7230     3.2370     1.6180 C.ar  1 <1>   0.2110 
  4 C       -3.4190     0.9040     0.9880 C.3   1 <1>   0.3280 
  5 C       -2.2370     4.1870    -0.4570 C.ar  1 <1>  -0.1500 
  6 C       -1.7820     1.8820    -1.3090 C.3   1 <1>  -0.0960 
  7 C       -3.5510     4.5990     1.4800 C.ar  1 <1>  -0.1500 
  8 C       -4.8900     0.4830     0.8040 C.3   1 <1>  -0.1600 
  9 C       -2.7980     5.0890     0.4290 C.ar  1 <1>  -0.1500 
 10 C       -5.4380     0.5390    -0.6390 C.3   1 <1>  -0.0800 
 11 C       -5.8460     1.9560    -1.0710 C.3   1 <1>  -0.2400 
 12 C       -6.6690    -0.3690    -0.7490 C.3   1 <1>  -0.2400 
 13 H       -4.3100     2.8630     2.4420 H     1 <1>   0.1500 
 14 H       -3.1250     0.6840     2.0000 H     1 <1>   0.0800 
 15 H       -2.8030     0.2950     0.3530 H     1 <1>   0.0800 
 16 H       -1.6480     4.5660    -1.2770 H     1 <1>   0.1500 
 17 H       -2.5300     1.2830    -1.7960 H     1 <1>   0.0800 
 18 H       -1.0670     1.2410    -0.8260 H     1 <1>   0.0800 
 19 H       -1.2620     2.4360    -2.0700 H     1 <1>   0.0800 
 20 H       -3.9980     5.2800     2.1850 H     1 <1>   0.1500 
 21 H       -5.5310     1.0420     1.4630 H     1 <1>   0.0800 
 22 H       -4.9450    -0.5410     1.1340 H     1 <1>   0.0800 
 23 H       -2.6510     6.1510     0.3030 H     1 <1>   0.1500 
 24 H       -4.6970     0.1610    -1.3240 H     1 <1>   0.0800 
 25 H       -6.5520     2.3780    -0.3770 H     1 <1>   0.0800 
 26 H       -6.3140     1.9230    -2.0400 H     1 <1>   0.0800 
 27 H       -5.0040     2.6130    -1.1520 H     1 <1>   0.0800 
 28 H       -7.4480    -0.0430    -0.0820 H     1 <1>   0.0800 
 29 H       -6.4170    -1.3880    -0.5090 H     1 <1>   0.0800 
 30 H       -7.0570    -0.3570    -1.7530 H     1 <1>   0.0800 
@<TRIPOS>BOND
  1   1   2  ar  
  2   1   3  ar  
  3   1   4  1   
  4   2   5  ar  
  5   2   6  1   
  6   3   7  ar  
  7   3  13  1   
  8   4   8  1   
  9   4  14  1   
 10   4  15  1   
 11   5   9  ar  
 12   5  16  1   
 13   6  17  1   
 14   6  18  1   
 15   6  19  1   
 16   7   9  ar  
 17   7  20  1   
 18   8  10  1   
 19   8  21  1   
 20   8  22  1   
 21   9  23  1   
 22  10  11  1   
 23  10  12  1   
 24  10  24  1   
 25  11  25  1   
 26  11  26  1   
 27  11  27  1   
 28  12  28  1   
 29  12  29  1   
 30  12  30  1   
@<TRIPOS>SUBSTRUCTURE
  1 ****   1 GROUP 4 **** **** 0

# MOE 2024.06 (io_trps.svl 2023.06)
