@<TRIPOS>MOLECULE
NONAME
47 50 1 0 0 
SMALL
USER_CHARGES


@<TRIPOS>ATOM
  1 S       -0.3800    -0.8230     0.5360 S.o2  1 <1>   1.4470 
  2 O       -0.8380     0.4920     0.1450 O.2   1 <1>  -0.6500 
  3 O       -0.6400    -1.2920     1.8820 O.2   1 <1>  -0.6500 
  4 N       -1.1230    -1.9390    -0.5040 N.am  1 <1>  -0.8490 
  5 C        1.3820    -0.9890     0.1380 C.ar  1 <1>  -0.0090 
  6 C       -2.5730    -1.7020    -0.5760 C.3   1 <1>   0.1960 
  7 C       -0.8170    -3.3240    -0.1280 C.3   1 <1>   0.1960 
  8 C        2.3190    -1.3050     1.0900 C.ar  1 <1>  -0.1500 
  9 C        1.8250    -0.8000    -1.1830 C.ar  1 <1>  -0.1500 
 10 C       -3.2430    -2.6400    -1.5890 C.3   1 <1>  -0.0190 
 11 C       -1.3930    -4.2930    -1.1640 C.3   1 <1>  -0.1600 
 12 C        3.6870    -1.4500     0.7880 C.ar  1 <1>   0.0000 
 13 C        3.1450    -0.9320    -1.5130 C.ar  1 <1>  -0.1500 
 14 C       -4.7410    -2.3720    -1.6240 C.2   1 <1>   0.5690 
 15 C       -2.9100    -4.1180    -1.3020 C.3   1 <1>  -0.1600 
 16 C        4.1100    -1.2610    -0.5430 C.ar  1 <1>   0.0000 
 17 C        4.6490    -1.7790     1.7650 C.ar  1 <1>  -0.1500 
 18 O       -5.2120    -1.8660    -2.6130 O.2   1 <1>  -0.5700 
 19 N       -5.5000    -2.6980    -0.5420 N.am  1 <1>  -0.5790 
 20 C        5.4790    -1.4080    -0.8480 C.ar  1 <1>  -0.1500 
 21 C        5.9700    -1.9160     1.4420 C.ar  1 <1>  -0.1500 
 22 C       -6.9480    -2.4830    -0.4220 C.3   1 <1>   0.0490 
 23 C        6.3900    -1.7280     0.1200 C.ar  1 <1>  -0.1500 
 24 C       -7.4930    -2.1240     0.9200 C.3   1 <1>  -0.2000 
 25 C       -7.7440    -3.4860     0.3450 C.3   1 <1>  -0.2000 
 26 H       -2.7580    -0.6850    -0.8840 H     1 <1>   0.0800 
 27 H       -3.0070    -1.8360     0.4010 H     1 <1>   0.0800 
 28 H       -1.2280    -3.5430     0.8450 H     1 <1>   0.0800 
 29 H        0.2500    -3.4620    -0.0800 H     1 <1>   0.0800 
 30 H        2.0120    -1.4510     2.1120 H     1 <1>   0.1500 
 31 H        1.0950    -0.5480    -1.9340 H     1 <1>   0.1500 
 32 H       -2.8530    -2.3900    -2.5600 H     1 <1>   0.0800 
 33 H       -1.1700    -5.3030    -0.8700 H     1 <1>   0.0800 
 34 H       -0.9150    -4.1140    -2.1120 H     1 <1>   0.0800 
 35 H        3.4700    -0.7830    -2.5280 H     1 <1>   0.1500 
 36 H       -3.2800    -4.7360    -2.1020 H     1 <1>   0.0800 
 37 H       -3.3820    -4.4360    -0.3880 H     1 <1>   0.0800 
 38 H        4.3220    -1.9200     2.7800 H     1 <1>   0.1500 
 39 H       -5.0690    -3.1420     0.2670 H     1 <1>   0.3700 
 40 H        5.7960    -1.2620    -1.8650 H     1 <1>   0.1500 
 41 H        6.7000    -2.1660     2.1920 H     1 <1>   0.1500 
 42 H       -7.3890    -2.0320    -1.2980 H     1 <1>   0.1000 
 43 H        7.4340    -1.8390    -0.1180 H     1 <1>   0.1500 
 44 H       -8.3180    -1.4340     0.9710 H     1 <1>   0.1000 
 45 H       -6.8150    -2.0200     1.7490 H     1 <1>   0.1000 
 46 H       -7.2430    -4.3360     0.7720 H     1 <1>   0.1000 
 47 H       -8.7390    -3.7190     0.0070 H     1 <1>   0.1000 
@<TRIPOS>BOND
  1   1   2  2   
  2   1   3  2   
  3   1   4  am  
  4   1   5  1   
  5   4   6  1   
  6   4   7  1   
  7   5   8  ar  
  8   5   9  ar  
  9   6  10  1   
 10   6  26  1   
 11   6  27  1   
 12   7  11  1   
 13   7  28  1   
 14   7  29  1   
 15   8  12  ar  
 16   8  30  1   
 17   9  13  ar  
 18   9  31  1   
 19  10  14  1   
 20  10  15  1   
 21  10  32  1   
 22  11  15  1   
 23  11  33  1   
 24  11  34  1   
 25  12  16  ar  
 26  12  17  ar  
 27  13  16  ar  
 28  13  35  1   
 29  14  18  2   
 30  14  19  am  
 31  15  36  1   
 32  15  37  1   
 33  16  20  ar  
 34  17  21  ar  
 35  17  38  1   
 36  19  22  1   
 37  19  39  1   
 38  20  23  ar  
 39  20  40  1   
 40  21  23  ar  
 41  21  41  1   
 42  22  24  1   
 43  22  25  1   
 44  22  42  1   
 45  23  43  1   
 46  24  25  1   
 47  24  44  1   
 48  24  45  1   
 49  25  46  1   
 50  25  47  1   
@<TRIPOS>SUBSTRUCTURE
  1 ****   4 GROUP 4 **** **** 0

# MOE 2024.06 (io_trps.svl 2023.06)
