@<TRIPOS>MOLECULE
NONAME
53 56 1 0 0 
SMALL
USER_CHARGES


@<TRIPOS>ATOM
  1 O        1.5350    -1.4870    -2.4880 O.2   1 <1>  -0.5700 
  2 C        1.0340    -2.1510    -1.6100 C.2   1 <1>   0.4950 
  3 C        1.7120    -2.5700    -0.4290 C.2   1 <1>  -0.1240 
  4 C       -0.3940    -2.6260    -1.8290 C.3   1 <1>  -0.0990 
  5 C        1.1930    -3.4550     0.4580 C.2   1 <1>  -0.0380 
  6 C        3.1020    -1.9790    -0.1870 C.3   1 <1>   0.3400 
  7 C       -1.0880    -3.0390    -0.5190 C.3   1 <1>  -0.1600 
  8 N        1.9200    -3.9220     1.5250 N.pl3 1 <1>  -0.6000 
  9 C       -0.2180    -4.0010     0.3040 C.3   1 <1>  -0.0220 
 10 C        3.8800    -2.6870     0.9300 C.2   1 <1>  -0.1240 
 11 C        2.9670    -0.4910     0.1480 C.ar  1 <1>  -0.1430 
 12 C        3.2460    -3.5930     1.7210 C.2   1 <1>  -0.0380 
 13 C        5.2400    -2.2480     1.0440 C.2   1 <1>   0.6160 
 14 C        2.4520    -0.0900     1.3750 C.ar  1 <1>  -0.1500 
 15 C        3.3520     0.4760    -0.7730 C.ar  1 <1>  -0.1500 
 16 C        3.8940    -4.3370     2.8770 C.3   1 <1>  -0.1020 
 17 O        5.6770    -1.8790     2.1210 O.2   1 <1>  -0.5700 
 18 N        6.0920    -2.2340    -0.0410 N.am  1 <1>  -0.6600 
 19 C        2.3260     1.2530     1.6790 C.ar  1 <1>  -0.1500 
 20 C        3.2270     1.8210    -0.4740 C.ar  1 <1>  -0.1500 
 21 C        6.1090    -3.3140    -1.0640 C.3   1 <1>   0.1400 
 22 C        7.2650    -1.3230    -0.0720 C.3   1 <1>   0.1400 
 23 C        2.7130     2.2050     0.7530 C.ar  1 <1>   0.0830 
 24 C        6.2390    -2.7060    -2.4660 C.3   1 <1>  -0.1600 
 25 C        7.3910    -0.6960    -1.4650 C.3   1 <1>  -0.1600 
 26 O        2.5830     3.5060     1.0530 O.3   1 <1>  -0.5330 
 27 C        7.4490    -1.7650    -2.5660 C.3   1 <1>  -0.1600 
 28 H       -0.3670    -3.4610    -2.5040 H     1 <1>   0.0800 
 29 H       -0.9540    -1.8370    -2.2990 H     1 <1>   0.0800 
 30 H        3.6500    -2.0810    -1.1030 H     1 <1>   0.0800 
 31 H       -2.0400    -3.4930    -0.7320 H     1 <1>   0.0800 
 32 H       -1.2680    -2.1530     0.0680 H     1 <1>   0.0800 
 33 H        1.4820    -4.5780     2.1820 H     1 <1>   0.4000 
 34 H       -0.6680    -4.1290     1.2740 H     1 <1>   0.0800 
 35 H       -0.1710    -4.9620    -0.1760 H     1 <1>   0.0800 
 36 H        2.1510    -0.8290     2.0990 H     1 <1>   0.1500 
 37 H        3.7430     0.1810    -1.7310 H     1 <1>   0.1500 
 38 H        3.4570    -4.0150     3.8050 H     1 <1>   0.0800 
 39 H        4.9520    -4.1590     2.9250 H     1 <1>   0.0800 
 40 H        3.7420    -5.3950     2.7650 H     1 <1>   0.0800 
 41 H        1.9320     1.5660     2.6280 H     1 <1>   0.1500 
 42 H        3.5270     2.5570    -1.1970 H     1 <1>   0.1500 
 43 H        5.2170    -3.9120    -1.0010 H     1 <1>   0.0800 
 44 H        6.9520    -3.9550    -0.8710 H     1 <1>   0.0800 
 45 H        8.1520    -1.8830     0.1670 H     1 <1>   0.0800 
 46 H        7.1490    -0.5440     0.6630 H     1 <1>   0.0800 
 47 H        5.3420    -2.1620    -2.7040 H     1 <1>   0.0800 
 48 H        6.3380    -3.4970    -3.1880 H     1 <1>   0.0800 
 49 H        8.2790    -0.0900    -1.5010 H     1 <1>   0.0800 
 50 H        6.5460    -0.0490    -1.6280 H     1 <1>   0.0800 
 51 H        2.8820     4.0880     0.3340 H     1 <1>   0.4500 
 52 H        7.4640    -1.2920    -3.5320 H     1 <1>   0.0800 
 53 H        8.3550    -2.3370    -2.4590 H     1 <1>   0.0800 
@<TRIPOS>BOND
  1   1   2  2   
  2   2   3  1   
  3   2   4  1   
  4   3   5  2   
  5   3   6  1   
  6   4   7  1   
  7   4  28  1   
  8   4  29  1   
  9   5   8  1   
 10   5   9  1   
 11   6  10  1   
 12   6  11  1   
 13   6  30  1   
 14   7   9  1   
 15   7  31  1   
 16   7  32  1   
 17   8  12  1   
 18   8  33  1   
 19   9  34  1   
 20   9  35  1   
 21  10  12  2   
 22  10  13  1   
 23  11  14  ar  
 24  11  15  ar  
 25  12  16  1   
 26  13  17  2   
 27  13  18  am  
 28  14  19  ar  
 29  14  36  1   
 30  15  20  ar  
 31  15  37  1   
 32  16  38  1   
 33  16  39  1   
 34  16  40  1   
 35  18  21  1   
 36  18  22  1   
 37  19  23  ar  
 38  19  41  1   
 39  20  23  ar  
 40  20  42  1   
 41  21  24  1   
 42  21  43  1   
 43  21  44  1   
 44  22  25  1   
 45  22  45  1   
 46  22  46  1   
 47  23  26  1   
 48  24  27  1   
 49  24  47  1   
 50  24  48  1   
 51  25  27  1   
 52  25  49  1   
 53  25  50  1   
 54  26  51  1   
 55  27  52  1   
 56  27  53  1   
@<TRIPOS>SUBSTRUCTURE
  1 ****   6 GROUP 4 **** **** 0

# MOE 2024.06 (io_trps.svl 2023.06)
