@<TRIPOS>MOLECULE
NONAME
40 41 1 0 0 
SMALL
USER_CHARGES


@<TRIPOS>ATOM
  1 O        0.0480     0.3330     0.4140 O.3   1 <1>  -0.1650 
  2 C       -0.6080     1.4890     0.2370 C.ar  1 <1>   0.7020 
  3 C        1.4040     0.2540     0.3650 C.ar  1 <1>   0.3920 
  4 N       -1.9080     1.3800     0.1820 N.ar  1 <1>  -0.6200 
  5 N        0.0740     2.5980     0.1310 N.ar  1 <1>  -0.6200 
  6 N        2.0070    -0.1460     1.4800 N.ar  1 <1>  -0.3100 
  7 C        2.0660     0.5520    -0.8170 C.ar  1 <1>  -0.1500 
  8 C       -2.5360     2.5200     0.0160 C.ar  1 <1>   0.7200 
  9 C       -0.6680     3.6570    -0.0280 C.ar  1 <1>   0.7200 
 10 N        3.3180    -0.2490     1.4950 N.ar  1 <1>  -0.3100 
 11 C        3.4260     0.4450    -0.8050 C.ar  1 <1>  -0.1500 
 12 N       -1.9640     3.6930    -0.0920 N.ar  1 <1>  -0.6200 
 13 N       -3.9130     2.4750    -0.0510 N.pl3 1 <1>  -0.8380 
 14 N       -0.0480     4.8520    -0.1330 N.pl3 1 <1>  -0.8690 
 15 C        4.0320     0.0420     0.3820 C.ar  1 <1>   0.1390 
 16 C       -4.7240     3.6240    -0.5450 C.3   1 <1>   0.1290 
 17 C       -4.6940     1.2750     0.3670 C.3   1 <1>   0.1290 
 18 C        1.3580     5.0850     0.2700 C.3   1 <1>   0.2090 
 19 O        5.2810    -0.0520     0.4140 O.3   1 <1>  -0.8290 
 20 C        1.7610     6.5450     0.0010 C.3   1 <1>  -0.0800 
 21 C        3.2470     6.7450     0.3270 C.3   1 <1>  -0.2400 
 22 C        0.9190     7.5430     0.8130 C.3   1 <1>  -0.2400 
 23 H        1.5300     0.8580    -1.6920 H     1 <1>   0.1500 
 24 H        4.0500     0.6530    -1.6510 H     1 <1>   0.1500 
 25 H       -0.6760     5.6470    -0.0470 H     1 <1>   0.4000 
 26 H       -4.1510     4.2310    -1.2250 H     1 <1>   0.0800 
 27 H       -5.0350     4.2300     0.2880 H     1 <1>   0.0800 
 28 H       -5.5940     3.2650    -1.0680 H     1 <1>   0.0800 
 29 H       -4.1550     0.7110     1.1090 H     1 <1>   0.0800 
 30 H       -4.8730     0.6470    -0.4870 H     1 <1>   0.0800 
 31 H       -5.6350     1.5760     0.7920 H     1 <1>   0.0800 
 32 H        1.9980     4.4210    -0.2890 H     1 <1>   0.0800 
 33 H        1.4720     4.8540     1.3160 H     1 <1>   0.0800 
 34 H        1.6230     6.7400    -1.0490 H     1 <1>   0.0800 
 35 H        3.4360     6.5560     1.3700 H     1 <1>   0.0800 
 36 H        3.5500     7.7510     0.0980 H     1 <1>   0.0800 
 37 H        3.8510     6.0700    -0.2560 H     1 <1>   0.0800 
 38 H        1.0070     7.3410     1.8660 H     1 <1>   0.0800 
 39 H       -0.1180     7.4840     0.5370 H     1 <1>   0.0800 
 40 H        1.2530     8.5490     0.6280 H     1 <1>   0.0800 
@<TRIPOS>BOND
  1   1   2  1   
  2   1   3  1   
  3   2   4  ar  
  4   2   5  ar  
  5   3   6  ar  
  6   3   7  ar  
  7   4   8  ar  
  8   5   9  ar  
  9   6  10  ar  
 10   7  11  ar  
 11   7  23  1   
 12   8  12  ar  
 13   8  13  1   
 14   9  12  ar  
 15   9  14  1   
 16  10  15  ar  
 17  11  15  ar  
 18  11  24  1   
 19  13  16  1   
 20  13  17  1   
 21  14  18  1   
 22  14  25  1   
 23  15  19  1   
 24  16  26  1   
 25  16  27  1   
 26  16  28  1   
 27  17  29  1   
 28  17  30  1   
 29  17  31  1   
 30  18  20  1   
 31  18  32  1   
 32  18  33  1   
 33  20  21  1   
 34  20  22  1   
 35  20  34  1   
 36  21  35  1   
 37  21  36  1   
 38  21  37  1   
 39  22  38  1   
 40  22  39  1   
 41  22  40  1   
@<TRIPOS>SUBSTRUCTURE
  1 ****   5 GROUP 4 **** **** 0

# MOE 2024.06 (io_trps.svl 2023.06)
