@<TRIPOS>MOLECULE
NONAME
45 48 1 0 0 
SMALL
USER_CHARGES


@<TRIPOS>ATOM
  1 S        1.1360     1.4370    -1.9800 S.3   1 <1>  -0.0800 
  2 C        0.1750     2.1840    -0.6960 C.2   1 <1>  -0.0450 
  3 C        2.4360     1.0390    -0.8810 C.2   1 <1>  -0.1100 
  4 C       -1.1120     2.7460    -1.0270 C.2   1 <1>   0.7150 
  5 C        0.8710     2.0920     0.4690 C.2   1 <1>  -0.1500 
  6 C        2.1400     1.4510     0.3650 C.2   1 <1>  -0.1500 
  7 O       -1.5940     2.6200    -2.1350 O.2   1 <1>  -0.5700 
  8 N       -1.7840     3.4500    -0.0580 N.am  1 <1>  -0.5470 
  9 C       -3.0690     4.0210    -0.0480 C.ar  1 <1>   0.1170 
 10 C       -4.1110     3.5570    -0.8310 C.ar  1 <1>  -0.1500 
 11 C       -3.2990     5.0990     0.8250 C.ar  1 <1>  -0.1500 
 12 C       -5.3640     4.1580    -0.7440 C.ar  1 <1>   0.2270 
 13 C       -4.5330     5.7010     0.9170 C.ar  1 <1>  -0.1500 
 14 N       -6.5130     3.8510    -1.4060 N.2   1 <1>  -0.5650 
 15 C       -5.5710     5.2170     0.1170 C.ar  1 <1>  -0.1520 
 16 C       -7.3780     4.6990    -0.9610 C.2   1 <1>   0.0070 
 17 N       -6.8770     5.5670    -0.0360 N.pl3 1 <1>   0.0480 
 18 C       -8.8320     4.7280    -1.4190 C.3   1 <1>   0.2900 
 19 C       -7.5890     6.6230     0.7090 C.3   1 <1>   0.0160 
 20 N       -9.7760     4.6220    -0.2860 N.3   1 <1>  -0.8100 
 21 C       -9.6190     3.3220     0.4030 C.3   1 <1>   0.1100 
 22 C      -11.1690     4.7590    -0.7500 C.3   1 <1>   0.1100 
 23 C      -10.6580     3.1590     1.5260 C.3   1 <1>   0.1200 
 24 C      -12.1590     4.5660     0.4120 C.3   1 <1>   0.1200 
 25 O      -11.9560     3.3260     1.0270 O.3   1 <1>  -0.5600 
 26 H        3.2940     0.5330    -1.2870 H     1 <1>   0.1500 
 27 H        0.5340     2.4540     1.4230 H     1 <1>   0.1500 
 28 H        2.7750     1.3250     1.2260 H     1 <1>   0.1500 
 29 H       -1.2330     3.6290     0.7750 H     1 <1>   0.3700 
 30 H       -3.9920     2.7370    -1.5110 H     1 <1>   0.1500 
 31 H       -2.4890     5.4610     1.4310 H     1 <1>   0.1500 
 32 H       -4.7030     6.5260     1.5850 H     1 <1>   0.1500 
 33 H       -8.9970     3.9170    -2.1090 H     1 <1>   0.0800 
 34 H       -9.0040     5.6510    -1.9440 H     1 <1>   0.0800 
 35 H       -6.9020     7.4050     0.9740 H     1 <1>   0.0800 
 36 H       -8.0160     6.1960     1.5980 H     1 <1>   0.0800 
 37 H       -8.3740     7.0300     0.0990 H     1 <1>   0.0800 
 38 H       -8.6330     3.2510     0.8290 H     1 <1>   0.0800 
 39 H       -9.7340     2.5130    -0.2990 H     1 <1>   0.0800 
 40 H      -11.3810     4.0270    -1.5110 H     1 <1>   0.0800 
 41 H      -11.3120     5.7380    -1.1740 H     1 <1>   0.0800 
 42 H      -10.4910     3.8850     2.3010 H     1 <1>   0.0800 
 43 H      -10.5940     2.1740     1.9520 H     1 <1>   0.0800 
 44 H      -13.1710     4.5890     0.0490 H     1 <1>   0.0800 
 45 H      -12.0340     5.3400     1.1480 H     1 <1>   0.0800 
@<TRIPOS>BOND
  1   1   2  1   
  2   1   3  1   
  3   2   4  1   
  4   2   5  2   
  5   3   6  2   
  6   3  26  1   
  7   4   7  2   
  8   4   8  am  
  9   5   6  1   
 10   5  27  1   
 11   6  28  1   
 12   8   9  1   
 13   8  29  1   
 14   9  10  ar  
 15   9  11  ar  
 16  10  12  ar  
 17  10  30  1   
 18  11  13  ar  
 19  11  31  1   
 20  12  14  1   
 21  12  15  ar  
 22  13  15  ar  
 23  13  32  1   
 24  14  16  2   
 25  15  17  1   
 26  16  17  1   
 27  16  18  1   
 28  17  19  1   
 29  18  20  1   
 30  18  33  1   
 31  18  34  1   
 32  19  35  1   
 33  19  36  1   
 34  19  37  1   
 35  20  21  1   
 36  20  22  1   
 37  21  23  1   
 38  21  38  1   
 39  21  39  1   
 40  22  24  1   
 41  22  40  1   
 42  22  41  1   
 43  23  25  1   
 44  23  42  1   
 45  23  43  1   
 46  24  25  1   
 47  24  44  1   
 48  24  45  1   
@<TRIPOS>SUBSTRUCTURE
  1 ****  12 GROUP 4 **** **** 0

# MOE 2024.06 (io_trps.svl 2023.06)
