@<TRIPOS>MOLECULE
NONAME
38 39 1 0 0 
SMALL
USER_CHARGES


@<TRIPOS>ATOM
  1 O       -0.1580    -0.3690    -1.0260 O.2   1 <1>  -0.5700 
  2 C       -0.0140    -1.3780    -0.3770 C.2   1 <1>   0.5690 
  3 N        1.1910    -1.8050     0.1210 N.am  1 <1>  -0.5470 
  4 C       -1.2830    -2.2080    -0.1060 C.3   1 <1>   0.4040 
  5 C        2.4640    -1.2140     0.0520 C.ar  1 <1>   0.1170 
  6 N       -2.5560    -1.4030    -0.2350 N.4   1 <1>  -0.9590 
  7 C        3.5780    -2.0250     0.2370 C.ar  1 <1>  -0.1500 
  8 C        2.6670     0.1450    -0.1710 C.ar  1 <1>  -0.1500 
  9 C       -2.7170    -0.3690     0.8140 C.3   1 <1>   0.3430 
 10 C       -3.8110    -2.1870    -0.2660 C.3   1 <1>   0.3430 
 11 C        4.8590    -1.5050     0.1980 C.ar  1 <1>  -0.1430 
 12 C        3.9430     0.6780    -0.2170 C.ar  1 <1>  -0.1430 
 13 C       -4.1890     0.0100     0.7370 C.3   1 <1>  -0.1600 
 14 C       -4.8960    -1.1700     0.0610 C.3   1 <1>  -0.1600 
 15 C        5.0360    -0.1510    -0.0300 C.ar  1 <1>  -0.1500 
 16 C        6.0720    -2.3960     0.3980 C.3   1 <1>  -0.0970 
 17 C        4.1530     2.1610    -0.4660 C.3   1 <1>  -0.0970 
 18 H        1.2160    -2.7160     0.5770 H     1 <1>   0.3700 
 19 H       -1.2200    -2.6300     0.8820 H     1 <1>   0.0800 
 20 H       -1.3000    -3.0150    -0.8180 H     1 <1>   0.0800 
 21 H       -2.4670    -0.8760    -1.1210 H     1 <1>   0.4500 
 22 H        3.4460    -3.0770     0.4090 H     1 <1>   0.1500 
 23 H        1.8290     0.8000    -0.3080 H     1 <1>   0.1500 
 24 H       -2.0740     0.4800     0.6380 H     1 <1>   0.0800 
 25 H       -2.5020    -0.7890     1.7840 H     1 <1>   0.0800 
 26 H       -3.7890    -2.9470     0.5000 H     1 <1>   0.0800 
 27 H       -3.9720    -2.6480    -1.2280 H     1 <1>   0.0800 
 28 H       -4.3010     0.9030     0.1460 H     1 <1>   0.0800 
 29 H       -4.5810     0.2030     1.7210 H     1 <1>   0.0800 
 30 H       -5.6400    -1.6100     0.7030 H     1 <1>   0.0800 
 31 H       -5.3790    -0.8470    -0.8460 H     1 <1>   0.0800 
 32 H        6.0300     0.2600    -0.0620 H     1 <1>   0.1500 
 33 H        5.7810    -3.3830     0.7090 H     1 <1>   0.0800 
 34 H        6.7150    -1.9770     1.1520 H     1 <1>   0.0800 
 35 H        6.6220    -2.4730    -0.5220 H     1 <1>   0.0800 
 36 H        3.2840     2.5970    -0.9260 H     1 <1>   0.0800 
 37 H        4.9930     2.3130    -1.1190 H     1 <1>   0.0800 
 38 H        4.3400     2.6640     0.4660 H     1 <1>   0.0800 
@<TRIPOS>BOND
  1   1   2  2   
  2   2   3  am  
  3   2   4  1   
  4   3   5  1   
  5   3  18  1   
  6   4   6  1   
  7   4  19  1   
  8   4  20  1   
  9   5   7  ar  
 10   5   8  ar  
 11   6   9  1   
 12   6  10  1   
 13   6  21  1   
 14   7  11  ar  
 15   7  22  1   
 16   8  12  ar  
 17   8  23  1   
 18   9  13  1   
 19   9  24  1   
 20   9  25  1   
 21  10  14  1   
 22  10  26  1   
 23  10  27  1   
 24  11  15  ar  
 25  11  16  1   
 26  12  15  ar  
 27  12  17  1   
 28  13  14  1   
 29  13  28  1   
 30  13  29  1   
 31  14  30  1   
 32  14  31  1   
 33  15  32  1   
 34  16  33  1   
 35  16  34  1   
 36  16  35  1   
 37  17  36  1   
 38  17  37  1   
 39  17  38  1   
@<TRIPOS>SUBSTRUCTURE
  1 ****   3 GROUP 4 **** **** 0

# MOE 2024.06 (io_trps.svl 2023.06)
