@<TRIPOS>MOLECULE
NONAME
33 33 1 0 0 
SMALL
USER_CHARGES


@<TRIPOS>ATOM
  1 S       -0.1330    -0.2920    -0.2240 S.o2  1 <1>   1.3330 
  2 O        0.9030    -0.7050    -1.1440 O.2   1 <1>  -0.6500 
  3 O        0.0080    -0.5700     1.1830 O.2   1 <1>  -0.6500 
  4 N       -0.3260     1.4140    -0.4240 N.am  1 <1>  -0.6930 
  5 C       -1.6910    -0.9190    -0.8110 C.3   1 <1>  -0.1350 
  6 C       -1.2120     2.0960     0.4050 C.ar  1 <1>   0.1990 
  7 C        0.8800     2.1340    -0.9520 C.3   1 <1>   0.3370 
  8 C       -0.8920     2.3850     1.7260 C.ar  1 <1>  -0.1500 
  9 C       -2.4470     2.5010    -0.0870 C.ar  1 <1>  -0.1500 
 10 C        2.0810     2.1260     0.0290 C.2   1 <1>   0.5690 
 11 C        0.4960     3.5450    -1.4290 C.3   1 <1>  -0.2400 
 12 C       -1.7850     3.0600     2.5380 C.ar  1 <1>  -0.1500 
 13 C       -3.3440     3.1760     0.7220 C.ar  1 <1>  -0.1500 
 14 O        2.3210     3.1010     0.7060 O.2   1 <1>  -0.5700 
 15 N        2.8580     1.0080     0.1070 N.am  1 <1>  -0.7300 
 16 C       -3.0130     3.4560     2.0360 C.ar  1 <1>  -0.1500 
 17 C        3.9890     0.8040     1.0440 C.3   1 <1>   0.0600 
 18 H       -1.6940    -1.9900    -0.7680 H     1 <1>   0.0800 
 19 H       -1.8550    -0.6130    -1.8250 H     1 <1>   0.0800 
 20 H       -2.4910    -0.5490    -0.2010 H     1 <1>   0.0800 
 21 H        1.2100     1.6110    -1.8320 H     1 <1>   0.0800 
 22 H        0.0620     2.0760     2.1180 H     1 <1>   0.1500 
 23 H       -2.6990     2.2890    -1.1090 H     1 <1>   0.1500 
 24 H        0.2070     4.1630    -0.5970 H     1 <1>   0.0800 
 25 H       -0.3090     3.4950    -2.1390 H     1 <1>   0.0800 
 26 H        1.3430     4.0060    -1.9030 H     1 <1>   0.0800 
 27 H       -1.5220     3.2770     3.5590 H     1 <1>   0.1500 
 28 H       -4.2980     3.4870     0.3310 H     1 <1>   0.1500 
 29 H        2.5520     0.1680    -0.4090 H     1 <1>   0.3700 
 30 H       -3.7080     3.9820     2.6690 H     1 <1>   0.1500 
 31 H        3.7260     0.0510     1.7670 H     1 <1>   0.0800 
 32 H        4.2170     1.7200     1.5620 H     1 <1>   0.0800 
 33 H        4.8600     0.4860     0.4990 H     1 <1>   0.0800 
@<TRIPOS>BOND
  1   1   2  2   
  2   1   3  2   
  3   1   4  am  
  4   1   5  1   
  5   4   6  1   
  6   4   7  1   
  7   5  18  1   
  8   5  19  1   
  9   5  20  1   
 10   6   8  ar  
 11   6   9  ar  
 12   7  10  1   
 13   7  11  1   
 14   7  21  1   
 15   8  12  ar  
 16   8  22  1   
 17   9  13  ar  
 18   9  23  1   
 19  10  14  2   
 20  10  15  am  
 21  11  24  1   
 22  11  25  1   
 23  11  26  1   
 24  12  16  ar  
 25  12  27  1   
 26  13  16  ar  
 27  13  28  1   
 28  15  17  1   
 29  15  29  1   
 30  16  30  1   
 31  17  31  1   
 32  17  32  1   
 33  17  33  1   
@<TRIPOS>SUBSTRUCTURE
  1 ****   4 GROUP 4 **** **** 0

# MOE 2024.06 (io_trps.svl 2023.06)
