@<TRIPOS>MOLECULE
NONAME
43 45 1 0 0 
SMALL
USER_CHARGES


@<TRIPOS>ATOM
  1 S       -2.1890     0.2880     1.9180 S.3   1 <1>  -0.0800 
  2 C       -2.0670     0.9290     0.2850 C.2   1 <1>  -0.1400 
  3 C       -0.7270     1.1240     2.4010 C.2   1 <1>  -0.1100 
  4 C       -0.9780     1.7140     0.1610 C.2   1 <1>  -0.1810 
  5 C       -3.1640     0.5190    -0.6730 C.3   1 <1>   0.5230 
  6 C       -0.2190     1.8220     1.3710 C.2   1 <1>  -0.1500 
  7 C       -0.5030     2.4520    -1.0790 C.3   1 <1>  -0.0590 
  8 N       -4.4540     1.0170    -0.1360 N.4   1 <1>  -0.9590 
  9 C       -5.6240     0.4820    -0.8800 C.3   1 <1>   0.4860 
 10 C       -4.5050     2.5060    -0.0520 C.3   1 <1>   0.3430 
 11 C       -6.9160     0.9970    -0.2680 C.ar  1 <1>  -0.1430 
 12 C       -5.6870     2.9370     0.8190 C.3   1 <1>  -0.0170 
 13 C       -6.9540     2.1510     0.5100 C.ar  1 <1>  -0.1430 
 14 C       -8.0900     0.2950    -0.5030 C.ar  1 <1>  -0.1500 
 15 C       -8.1610     2.5940     1.0260 C.ar  1 <1>  -0.1500 
 16 C       -9.2940     0.7250     0.0250 C.ar  1 <1>   0.0830 
 17 C       -9.3340     1.9030     0.7770 C.ar  1 <1>   0.0830 
 18 O      -10.3830    -0.0420    -0.2250 O.3   1 <1>  -0.3620 
 19 O      -10.4790     2.4210     1.2810 O.3   1 <1>  -0.3620 
 20 C      -11.0580    -0.5860     0.8900 C.3   1 <1>   0.0400 
 21 C      -11.4180     2.9010     0.3430 C.3   1 <1>   0.0400 
 22 H       -0.3950     1.0010     3.4180 H     1 <1>   0.1500 
 23 H       -3.1790    -0.5560    -0.7500 H     1 <1>   0.0800 
 24 H       -2.9760     0.9350    -1.6480 H     1 <1>   0.0800 
 25 H        0.6790     2.4170     1.4140 H     1 <1>   0.1500 
 26 H       -1.1580     2.2840    -1.9130 H     1 <1>   0.0800 
 27 H        0.4830     2.1140    -1.3460 H     1 <1>   0.0800 
 28 H       -0.4580     3.5090    -0.8820 H     1 <1>   0.0800 
 29 H       -4.5240     0.6660     0.8290 H     1 <1>   0.4500 
 30 H       -5.6210    -0.5950    -0.8460 H     1 <1>   0.0800 
 31 H       -5.5780     0.7910    -1.9120 H     1 <1>   0.0800 
 32 H       -4.6210     2.9210    -1.0410 H     1 <1>   0.0800 
 33 H       -3.5940     2.8940     0.3760 H     1 <1>   0.0800 
 34 H       -5.8650     3.9880     0.6700 H     1 <1>   0.0800 
 35 H       -5.4310     2.7970     1.8540 H     1 <1>   0.0800 
 36 H       -8.0950    -0.6030    -1.0970 H     1 <1>   0.1500 
 37 H       -8.2120     3.4850     1.6280 H     1 <1>   0.1500 
 38 H      -11.7720    -1.3060     0.5310 H     1 <1>   0.0800 
 39 H      -11.5690     0.1980     1.4180 H     1 <1>   0.0800 
 40 H      -10.3420    -1.0660     1.5330 H     1 <1>   0.0800 
 41 H      -12.2400     3.3360     0.8820 H     1 <1>   0.0800 
 42 H      -11.7690     2.0850    -0.2630 H     1 <1>   0.0800 
 43 H      -10.9450     3.6460    -0.2730 H     1 <1>   0.0800 
@<TRIPOS>BOND
  1   1   2  1   
  2   1   3  1   
  3   2   4  2   
  4   2   5  1   
  5   3   6  2   
  6   3  22  1   
  7   4   6  1   
  8   4   7  1   
  9   5   8  1   
 10   5  23  1   
 11   5  24  1   
 12   6  25  1   
 13   7  26  1   
 14   7  27  1   
 15   7  28  1   
 16   8   9  1   
 17   8  10  1   
 18   8  29  1   
 19   9  11  1   
 20   9  30  1   
 21   9  31  1   
 22  10  12  1   
 23  10  32  1   
 24  10  33  1   
 25  11  13  ar  
 26  11  14  ar  
 27  12  13  1   
 28  12  34  1   
 29  12  35  1   
 30  13  15  ar  
 31  14  16  ar  
 32  14  36  1   
 33  15  17  ar  
 34  15  37  1   
 35  16  17  ar  
 36  16  18  1   
 37  17  19  1   
 38  18  20  1   
 39  19  21  1   
 40  20  38  1   
 41  20  39  1   
 42  20  40  1   
 43  21  41  1   
 44  21  42  1   
 45  21  43  1   
@<TRIPOS>SUBSTRUCTURE
  1 ****  11 GROUP 4 **** **** 0

# MOE 2024.06 (io_trps.svl 2023.06)
