@<TRIPOS>MOLECULE
NONAME
53 54 1 0 0 
SMALL
USER_CHARGES


@<TRIPOS>ATOM
  1 S        0.1640     0.3650    -0.0740 S.o2  1 <1>   1.4470 
  2 O        0.5160     0.0870    -1.4460 O.2   1 <1>  -0.6500 
  3 O        1.1520     0.1740     0.9680 O.2   1 <1>  -0.6500 
  4 N       -0.2790     2.0370     0.0080 N.am  1 <1>  -0.6930 
  5 C       -1.3800    -0.4660     0.3870 C.ar  1 <1>  -0.0090 
  6 C       -1.2260     2.5430    -0.8700 C.ar  1 <1>   0.1990 
  7 C        0.7450     2.9840     0.5490 C.3   1 <1>   0.2570 
  8 C       -1.6350    -0.8350     1.7050 C.ar  1 <1>  -0.1500 
  9 C       -2.3610    -0.7230    -0.5650 C.ar  1 <1>  -0.1500 
 10 C       -2.5520     2.6530    -0.4730 C.ar  1 <1>  -0.1500 
 11 C       -0.8780     2.9400    -2.1550 C.ar  1 <1>  -0.1500 
 12 C        2.0380     3.0700    -0.2700 C.2   1 <1>   0.5690 
 13 C       -2.8260    -1.4440     2.0670 C.ar  1 <1>  -0.1500 
 14 C       -3.5560    -1.3290    -0.2180 C.ar  1 <1>  -0.1500 
 15 C       -3.5100     3.1460    -1.3390 C.ar  1 <1>  -0.1500 
 16 C       -1.8340     3.4350    -3.0220 C.ar  1 <1>  -0.1500 
 17 O        2.2220     4.0400    -0.9670 O.2   1 <1>  -0.5700 
 18 N        2.9510     2.0660    -0.1870 N.am  1 <1>  -0.7300 
 19 C       -3.7830    -1.6870     1.0960 C.ar  1 <1>   0.1010 
 20 C       -3.1560     3.5410    -2.6200 C.ar  1 <1>  -0.1440 
 21 C        4.2110     1.9840    -0.9560 C.3   1 <1>   0.1400 
 22 S       -5.3600    -2.4680     1.4740 S.3   1 <1>  -0.3320 
 23 C       -4.2020     4.0820    -3.5760 C.3   1 <1>  -0.0970 
 24 C        5.3460     1.4370    -0.0750 C.3   1 <1>  -0.0800 
 25 C       -5.3500    -2.8490     3.2820 C.3   1 <1>  -0.0100 
 26 C        5.6400     2.3540     1.1220 C.3   1 <1>  -0.2400 
 27 C        6.6200     1.2610    -0.9110 C.3   1 <1>  -0.2400 
 28 H        0.9960     2.6950     1.5540 H     1 <1>   0.0800 
 29 H        0.3160     3.9690     0.5940 H     1 <1>   0.0800 
 30 H       -0.8910    -0.6440     2.4610 H     1 <1>   0.1500 
 31 H       -2.1890    -0.4410    -1.5910 H     1 <1>   0.1500 
 32 H       -2.8310     2.3490     0.5190 H     1 <1>   0.1500 
 33 H        0.1460     2.8570    -2.4750 H     1 <1>   0.1500 
 34 H       -2.9890    -1.7160     3.0910 H     1 <1>   0.1500 
 35 H       -4.3090    -1.5230    -0.9620 H     1 <1>   0.1500 
 36 H       -4.5330     3.2200    -1.0140 H     1 <1>   0.1500 
 37 H       -1.5430     3.7370    -4.0130 H     1 <1>   0.1500 
 38 H        2.7140     1.2240     0.3570 H     1 <1>   0.3700 
 39 H        4.4730     2.9600    -1.3300 H     1 <1>   0.0800 
 40 H        4.0550     1.3320    -1.7990 H     1 <1>   0.0800 
 41 H       -3.7790     4.8530    -4.1950 H     1 <1>   0.0800 
 42 H       -5.0310     4.5000    -3.0340 H     1 <1>   0.0800 
 43 H       -4.5630     3.2890    -4.2060 H     1 <1>   0.0800 
 44 H        5.0540     0.4670     0.2910 H     1 <1>   0.0800 
 45 H       -6.2850    -3.3250     3.5170 H     1 <1>   0.0800 
 46 H       -5.2490    -1.9220     3.8170 H     1 <1>   0.0800 
 47 H       -4.5250    -3.5100     3.4770 H     1 <1>   0.0800 
 48 H        5.9050     3.3410     0.7840 H     1 <1>   0.0800 
 49 H        6.4520     1.9590     1.7060 H     1 <1>   0.0800 
 50 H        4.7770     2.4330     1.7590 H     1 <1>   0.0800 
 51 H        6.9510     2.2080    -1.3010 H     1 <1>   0.0800 
 52 H        6.4380     0.5950    -1.7360 H     1 <1>   0.0800 
 53 H        7.4080     0.8430    -0.3090 H     1 <1>   0.0800 
@<TRIPOS>BOND
  1   1   2  2   
  2   1   3  2   
  3   1   4  am  
  4   1   5  1   
  5   4   6  1   
  6   4   7  1   
  7   5   8  ar  
  8   5   9  ar  
  9   6  10  ar  
 10   6  11  ar  
 11   7  12  1   
 12   7  28  1   
 13   7  29  1   
 14   8  13  ar  
 15   8  30  1   
 16   9  14  ar  
 17   9  31  1   
 18  10  15  ar  
 19  10  32  1   
 20  11  16  ar  
 21  11  33  1   
 22  12  17  2   
 23  12  18  am  
 24  13  19  ar  
 25  13  34  1   
 26  14  19  ar  
 27  14  35  1   
 28  15  20  ar  
 29  15  36  1   
 30  16  20  ar  
 31  16  37  1   
 32  18  21  1   
 33  18  38  1   
 34  19  22  1   
 35  20  23  1   
 36  21  24  1   
 37  21  39  1   
 38  21  40  1   
 39  22  25  1   
 40  23  41  1   
 41  23  42  1   
 42  23  43  1   
 43  24  26  1   
 44  24  27  1   
 45  24  44  1   
 46  25  45  1   
 47  25  46  1   
 48  25  47  1   
 49  26  48  1   
 50  26  49  1   
 51  26  50  1   
 52  27  51  1   
 53  27  52  1   
 54  27  53  1   
@<TRIPOS>SUBSTRUCTURE
  1 ****   4 GROUP 4 **** **** 0

# MOE 2024.06 (io_trps.svl 2023.06)
