@<TRIPOS>MOLECULE
NONAME
54 54 1 0 0 
SMALL
USER_CHARGES


@<TRIPOS>ATOM
  1 N        0.1410    -0.6680    -0.0290 N.4   1 <1>  -0.9590 
  2 C        1.3180     0.2250     0.2660 C.3   1 <1>   0.4230 
  3 C       -1.1950    -0.1890     0.5080 C.3   1 <1>   0.3430 
  4 C        0.4160    -2.0410     0.5020 C.3   1 <1>   0.3430 
  5 C        0.9930     1.7150     0.0730 C.3   1 <1>  -0.1600 
  6 C        2.4830    -0.1540    -0.6630 C.3   1 <1>  -0.1600 
  7 C       -2.0330     0.6570    -0.4950 C.3   1 <1>   0.3430 
  8 C       -0.4020    -3.0600    -0.2840 C.3   1 <1>  -0.2400 
  9 C        2.2220     2.6000     0.3330 C.3   1 <1>  -0.1600 
 10 C        3.7200     0.7210    -0.4100 C.3   1 <1>  -0.1600 
 11 N       -3.3910     1.0800     0.0190 N.4   1 <1>  -0.9590 
 12 C        3.4170     2.2280    -0.5750 C.3   1 <1>  -0.0800 
 13 C       -4.1850     1.7220    -1.0830 C.3   1 <1>   0.2630 
 14 C       -3.3230     2.0300     1.1820 C.3   1 <1>   0.2630 
 15 C        4.6700     3.1490    -0.3830 C.3   1 <1>   0.0000 
 16 C        5.2680     3.0680     1.0340 C.3   1 <1>  -0.2400 
 17 C        5.7780     2.7720    -1.3840 C.3   1 <1>  -0.2400 
 18 C        4.3090     4.6210    -0.6580 C.3   1 <1>  -0.2400 
 19 H        0.1120    -0.7690    -1.0530 H     1 <1>   0.4500 
 20 H        1.6320     0.0810     1.2880 H     1 <1>   0.0800 
 21 H       -1.0270     0.3800     1.4070 H     1 <1>   0.0800 
 22 H       -1.7870    -1.0480     0.7760 H     1 <1>   0.0800 
 23 H        0.1750    -2.0960     1.5520 H     1 <1>   0.0800 
 24 H        1.4590    -2.2900     0.3930 H     1 <1>   0.0800 
 25 H        0.2340     2.0330     0.7640 H     1 <1>   0.0800 
 26 H        0.6620     1.8930    -0.9350 H     1 <1>   0.0800 
 27 H        2.1880    -0.0330    -1.6910 H     1 <1>   0.0800 
 28 H        2.7840    -1.1750    -0.5180 H     1 <1>   0.0800 
 29 H       -2.1750     0.0720    -1.3890 H     1 <1>   0.0800 
 30 H       -1.4770     1.5400    -0.7640 H     1 <1>   0.0800 
 31 H       -1.4590    -2.9200    -0.1550 H     1 <1>   0.0800 
 32 H       -0.1620    -4.0470     0.0740 H     1 <1>   0.0800 
 33 H       -0.1530    -3.0270    -1.3300 H     1 <1>   0.0800 
 34 H        2.5080     2.5100     1.3660 H     1 <1>   0.0800 
 35 H        1.9350     3.6220     0.1630 H     1 <1>   0.0800 
 36 H        4.4820     0.4180    -1.1060 H     1 <1>   0.0800 
 37 H        4.0900     0.5270     0.5810 H     1 <1>   0.0800 
 38 H       -3.9340     0.2490     0.3160 H     1 <1>   0.4500 
 39 H        3.0940     2.3710    -1.5930 H     1 <1>   0.0800 
 40 H       -3.6930     2.6150    -1.4360 H     1 <1>   0.0800 
 41 H       -5.1670     1.9930    -0.7290 H     1 <1>   0.0800 
 42 H       -4.3010     1.0420    -1.9130 H     1 <1>   0.0800 
 43 H       -2.7920     2.9270     0.9080 H     1 <1>   0.0800 
 44 H       -2.8250     1.5740     2.0230 H     1 <1>   0.0800 
 45 H       -4.3180     2.3090     1.4930 H     1 <1>   0.0800 
 46 H        6.1230     3.7180     1.1110 H     1 <1>   0.0800 
 47 H        5.5980     2.0730     1.2640 H     1 <1>   0.0800 
 48 H        4.5590     3.3790     1.7780 H     1 <1>   0.0800 
 49 H        6.2000     1.8100    -1.1620 H     1 <1>   0.0800 
 50 H        6.5830     3.4860    -1.3460 H     1 <1>   0.0800 
 51 H        5.3940     2.7580    -2.3890 H     1 <1>   0.0800 
 52 H        5.1930     5.2350    -0.6570 H     1 <1>   0.0800 
 53 H        3.8350     4.7240    -1.6180 H     1 <1>   0.0800 
 54 H        3.6530     5.0150     0.0960 H     1 <1>   0.0800 
@<TRIPOS>BOND
  1   1   2  1   
  2   1   3  1   
  3   1   4  1   
  4   1  19  1   
  5   2   5  1   
  6   2   6  1   
  7   2  20  1   
  8   3   7  1   
  9   3  21  1   
 10   3  22  1   
 11   4   8  1   
 12   4  23  1   
 13   4  24  1   
 14   5   9  1   
 15   5  25  1   
 16   5  26  1   
 17   6  10  1   
 18   6  27  1   
 19   6  28  1   
 20   7  11  1   
 21   7  29  1   
 22   7  30  1   
 23   8  31  1   
 24   8  32  1   
 25   8  33  1   
 26   9  12  1   
 27   9  34  1   
 28   9  35  1   
 29  10  12  1   
 30  10  36  1   
 31  10  37  1   
 32  11  13  1   
 33  11  14  1   
 34  11  38  1   
 35  12  15  1   
 36  12  39  1   
 37  13  40  1   
 38  13  41  1   
 39  13  42  1   
 40  14  43  1   
 41  14  44  1   
 42  14  45  1   
 43  15  16  1   
 44  15  17  1   
 45  15  18  1   
 46  16  46  1   
 47  16  47  1   
 48  16  48  1   
 49  17  49  1   
 50  17  50  1   
 51  17  51  1   
 52  18  52  1   
 53  18  53  1   
 54  18  54  1   
@<TRIPOS>SUBSTRUCTURE
  1 ****   5 GROUP 4 **** **** 0

# MOE 2024.06 (io_trps.svl 2023.06)
