@<TRIPOS>MOLECULE
NONAME
44 44 1 0 0 
SMALL
USER_CHARGES


@<TRIPOS>ATOM
  1 O        0.8460    -0.5280    -0.7010 O.3   1 <1>  -0.3630 
  2 C        0.3180    -1.7550    -0.4780 C.ar  1 <1>   0.0830 
  3 C        2.1560    -0.2030    -0.2900 C.3   1 <1>   0.0400 
  4 C        0.9620    -2.7640     0.2300 C.ar  1 <1>  -0.1500 
  5 C       -0.9450    -1.9780    -1.0020 C.ar  1 <1>  -0.1500 
  6 C        0.3310    -3.9910     0.4070 C.ar  1 <1>   0.0830 
  7 C       -1.5830    -3.1950    -0.8190 C.ar  1 <1>  -0.1430 
  8 O        0.8750    -5.0330     1.0810 O.3   1 <1>  -0.3630 
  9 C       -0.9320    -4.2000    -0.1200 C.ar  1 <1>  -0.1500 
 10 C       -2.9750    -3.4210    -1.3650 C.3   1 <1>   0.4860 
 11 C        2.1930    -4.9800     1.5840 C.3   1 <1>   0.0400 
 12 N       -3.9350    -3.3340    -0.2170 N.4   1 <1>  -0.9590 
 13 C       -5.2750    -3.9200    -0.5840 C.3   1 <1>   0.3430 
 14 C       -3.9990    -1.9130     0.2780 C.3   1 <1>   0.2630 
 15 C       -6.2680    -4.0550     0.6100 C.3   1 <1>   0.3430 
 16 N       -7.6110    -4.6510     0.2540 N.4   1 <1>  -0.9590 
 17 C       -8.5480    -4.5550     1.4250 C.3   1 <1>   0.2630 
 18 C       -7.5350    -6.0890    -0.1810 C.3   1 <1>   0.2630 
 19 H        2.3640     0.8050    -0.6030 H     1 <1>   0.0800 
 20 H        2.8480    -0.8800    -0.7600 H     1 <1>   0.0800 
 21 H        2.2160    -0.2710     0.7810 H     1 <1>   0.0800 
 22 H        1.9370    -2.5960     0.6380 H     1 <1>   0.1500 
 23 H       -1.4060    -1.1760    -1.5520 H     1 <1>   0.1500 
 24 H       -1.3780    -5.1680     0.0290 H     1 <1>   0.1500 
 25 H       -3.0160    -4.3970    -1.8210 H     1 <1>   0.0800 
 26 H       -3.2060    -2.6800    -2.1140 H     1 <1>   0.0800 
 27 H        2.4150    -5.9270     2.0410 H     1 <1>   0.0800 
 28 H        2.2570    -4.1970     2.3190 H     1 <1>   0.0800 
 29 H        2.8720    -4.8010     0.7690 H     1 <1>   0.0800 
 30 H       -3.4720    -3.8900     0.5220 H     1 <1>   0.4500 
 31 H       -5.1180    -4.9010    -1.0020 H     1 <1>   0.0800 
 32 H       -5.7280    -3.3030    -1.3420 H     1 <1>   0.0800 
 33 H       -4.3900    -1.2610    -0.4870 H     1 <1>   0.0800 
 34 H       -3.0120    -1.5660     0.5460 H     1 <1>   0.0800 
 35 H       -4.6240    -1.8380     1.1530 H     1 <1>   0.0800 
 36 H       -6.4300    -3.0730     1.0250 H     1 <1>   0.0800 
 37 H       -5.8110    -4.6640     1.3730 H     1 <1>   0.0800 
 38 H       -8.0540    -4.1100    -0.5100 H     1 <1>   0.4500 
 39 H       -8.1680    -5.1180     2.2630 H     1 <1>   0.0800 
 40 H       -9.5180    -4.9510     1.1640 H     1 <1>   0.0800 
 41 H       -8.6740    -3.5280     1.7280 H     1 <1>   0.0800 
 42 H       -7.1080    -6.6990     0.6000 H     1 <1>   0.0800 
 43 H       -6.9320    -6.1910    -1.0690 H     1 <1>   0.0800 
 44 H       -8.5220    -6.4650    -0.4010 H     1 <1>   0.0800 
@<TRIPOS>BOND
  1   1   2  1   
  2   1   3  1   
  3   2   4  ar  
  4   2   5  ar  
  5   3  19  1   
  6   3  20  1   
  7   3  21  1   
  8   4   6  ar  
  9   4  22  1   
 10   5   7  ar  
 11   5  23  1   
 12   6   8  1   
 13   6   9  ar  
 14   7   9  ar  
 15   7  10  1   
 16   8  11  1   
 17   9  24  1   
 18  10  12  1   
 19  10  25  1   
 20  10  26  1   
 21  11  27  1   
 22  11  28  1   
 23  11  29  1   
 24  12  13  1   
 25  12  14  1   
 26  12  30  1   
 27  13  15  1   
 28  13  31  1   
 29  13  32  1   
 30  14  33  1   
 31  14  34  1   
 32  14  35  1   
 33  15  16  1   
 34  15  36  1   
 35  15  37  1   
 36  16  17  1   
 37  16  18  1   
 38  16  38  1   
 39  17  39  1   
 40  17  40  1   
 41  17  41  1   
 42  18  42  1   
 43  18  43  1   
 44  18  44  1   
@<TRIPOS>SUBSTRUCTURE
  1 ****   7 GROUP 4 **** **** 0

# MOE 2024.06 (io_trps.svl 2023.06)
