@<TRIPOS>MOLECULE
NONAME
37 39 1 0 0 
SMALL
USER_CHARGES


@<TRIPOS>ATOM
  1 S        0.1260    -0.6100    -2.0280 S.3   1 <1>  -0.0800 
  2 C        0.7980    -1.5770    -0.7460 C.2   1 <1>   0.4340 
  3 C       -1.4200    -1.3210    -1.6640 C.2   1 <1>  -0.1100 
  4 S        2.5440    -1.4020    -0.4520 S.3   1 <1>  -0.2860 
  5 N       -0.0130    -2.3350    -0.1280 N.2   1 <1>  -0.5650 
  6 C       -1.3070    -2.1990    -0.6390 C.2   1 <1>   0.1730 
  7 C        2.8230    -2.5100     1.0100 C.3   1 <1>   0.1310 
  8 C       -2.3870    -2.9770    -0.0550 C.ar  1 <1>   0.0540 
  9 C        4.3070    -2.7880     1.2040 C.2   1 <1>   0.5690 
 10 C       -3.7200    -2.5720    -0.1860 C.ar  1 <1>  -0.1500 
 11 C       -2.1330    -4.1550     0.6560 C.ar  1 <1>  -0.1500 
 12 O        4.8240    -2.3350     2.1990 O.2   1 <1>  -0.5700 
 13 N        5.0220    -3.5400     0.3030 N.am  1 <1>  -0.6600 
 14 C       -4.7570    -3.3080     0.3600 C.ar  1 <1>  -0.1500 
 15 C       -3.1570    -4.9040     1.2090 C.ar  1 <1>  -0.1500 
 16 C        6.4880    -3.7740     0.4740 C.3   1 <1>   0.1400 
 17 C        4.4780    -4.1580    -0.9460 C.3   1 <1>   0.1400 
 18 C       -4.4560    -4.4650     1.0500 C.ar  1 <1>   0.1900 
 19 C        6.8320    -5.2570     0.2640 C.3   1 <1>   0.1200 
 20 C        4.9400    -5.6200    -1.0760 C.3   1 <1>   0.1200 
 21 F       -5.4290    -5.1640     1.5680 F     1 <1>  -0.1900 
 22 O        6.3310    -5.7130    -0.9620 O.3   1 <1>  -0.5600 
 23 H       -2.2600    -1.0110    -2.2560 H     1 <1>   0.1500 
 24 H        2.2830    -3.4220     0.8430 H     1 <1>   0.0800 
 25 H        2.4190    -2.0040     1.8670 H     1 <1>   0.0800 
 26 H       -3.9530    -1.6670    -0.7170 H     1 <1>   0.1500 
 27 H       -1.1180    -4.4900     0.7750 H     1 <1>   0.1500 
 28 H       -5.7810    -2.9950     0.2580 H     1 <1>   0.1500 
 29 H       -2.9570    -5.8090     1.7540 H     1 <1>   0.1500 
 30 H        6.8090    -3.4740     1.4570 H     1 <1>   0.0800 
 31 H        7.0260    -3.1800    -0.2440 H     1 <1>   0.0800 
 32 H        4.8320    -3.6010    -1.7960 H     1 <1>   0.0800 
 33 H        3.4050    -4.1320    -0.9570 H     1 <1>   0.0800 
 34 H        6.4160    -5.8570     1.0540 H     1 <1>   0.0800 
 35 H        7.8990    -5.3920     0.2530 H     1 <1>   0.0800 
 36 H        4.6640    -6.0120    -2.0390 H     1 <1>   0.0800 
 37 H        4.4910    -6.2300    -0.3130 H     1 <1>   0.0800 
@<TRIPOS>BOND
  1   1   2  1   
  2   1   3  1   
  3   2   4  1   
  4   2   5  2   
  5   3   6  2   
  6   3  23  1   
  7   4   7  1   
  8   5   6  1   
  9   6   8  1   
 10   7   9  1   
 11   7  24  1   
 12   7  25  1   
 13   8  10  ar  
 14   8  11  ar  
 15   9  12  2   
 16   9  13  am  
 17  10  14  ar  
 18  10  26  1   
 19  11  15  ar  
 20  11  27  1   
 21  13  16  1   
 22  13  17  1   
 23  14  18  ar  
 24  14  28  1   
 25  15  18  ar  
 26  15  29  1   
 27  16  19  1   
 28  16  30  1   
 29  16  31  1   
 30  17  20  1   
 31  17  32  1   
 32  17  33  1   
 33  18  21  1   
 34  19  22  1   
 35  19  34  1   
 36  19  35  1   
 37  20  22  1   
 38  20  36  1   
 39  20  37  1   
@<TRIPOS>SUBSTRUCTURE
  1 ****   5 GROUP 4 **** **** 0

# MOE 2024.06 (io_trps.svl 2023.06)
