@<TRIPOS>MOLECULE
NONAME
36 38 1 0 0 
SMALL
USER_CHARGES


@<TRIPOS>ATOM
  1 O       -0.4020     0.0690    -1.3700 O.3   1 <1>  -0.6800 
  2 C       -1.7540     0.3830    -1.3520 C.3   1 <1>   0.1200 
  3 C       -2.0650     1.1510    -0.0700 C.3   1 <1>   0.0860 
  4 N       -3.4840     1.5300    -0.0660 N.2   1 <1>  -0.6960 
  5 C       -3.9210     2.7010     0.1630 C.2   1 <1>   0.4740 
  6 C       -5.3210     3.0000     0.0810 C.2   1 <1>  -0.2370 
  7 C       -3.0530     3.9180     0.5170 C.3   1 <1>  -0.0990 
  8 N       -6.2970     2.0970    -0.2440 N.pl3 1 <1>   0.0330 
  9 C       -5.9110     4.2050     0.2950 C.2   1 <1>  -0.1810 
 10 C       -3.7980     5.0050     1.3310 C.3   1 <1>  -0.1600 
 11 C       -7.5090     2.7380    -0.2450 C.ar  1 <1>  -0.1520 
 12 C       -7.2970     4.0720     0.0900 C.ar  1 <1>   0.0000 
 13 C       -5.1260     5.4380     0.6860 C.3   1 <1>   0.0210 
 14 C       -8.7950     2.2640    -0.5140 C.ar  1 <1>  -0.1500 
 15 C       -8.3870     4.9490     0.1570 C.ar  1 <1>  -0.1500 
 16 C       -9.8540     3.1380    -0.4440 C.ar  1 <1>  -0.1500 
 17 C       -9.6560     4.4850    -0.1080 C.ar  1 <1>  -0.1430 
 18 C      -10.8570     5.4110    -0.0440 C.3   1 <1>  -0.0970 
 19 H       -0.1800    -0.4430    -2.1720 H     1 <1>   0.4000 
 20 H       -1.9730     0.9870    -2.2150 H     1 <1>   0.0800 
 21 H       -2.3170    -0.5340    -1.3850 H     1 <1>   0.0800 
 22 H       -1.4180     2.0070    -0.0230 H     1 <1>   0.0800 
 23 H       -1.8730     0.5160     0.7770 H     1 <1>   0.0800 
 24 H       -2.2040     3.6090     1.0970 H     1 <1>   0.0800 
 25 H       -2.6960     4.3470    -0.4010 H     1 <1>   0.0800 
 26 H       -6.1200     1.1090    -0.4480 H     1 <1>   0.2700 
 27 H       -4.0150     4.6040     2.3070 H     1 <1>   0.0800 
 28 H       -3.1630     5.8630     1.4630 H     1 <1>   0.0800 
 29 H       -4.9400     6.0280    -0.1950 H     1 <1>   0.0800 
 30 H       -5.6950     6.0300     1.3810 H     1 <1>   0.0800 
 31 H       -8.9420     1.2310    -0.7710 H     1 <1>   0.1500 
 32 H       -8.2060     5.9750     0.4160 H     1 <1>   0.1500 
 33 H      -10.8510     2.7900    -0.6480 H     1 <1>   0.1500 
 34 H      -11.3440     5.4430    -1.0020 H     1 <1>   0.0800 
 35 H      -10.5590     6.4080     0.2230 H     1 <1>   0.0800 
 36 H      -11.5550     5.0530     0.6910 H     1 <1>   0.0800 
@<TRIPOS>BOND
  1   1   2  1   
  2   1  19  1   
  3   2   3  1   
  4   2  20  1   
  5   2  21  1   
  6   3   4  1   
  7   3  22  1   
  8   3  23  1   
  9   4   5  2   
 10   5   6  1   
 11   5   7  1   
 12   6   8  1   
 13   6   9  2   
 14   7  10  1   
 15   7  24  1   
 16   7  25  1   
 17   8  11  1   
 18   8  26  1   
 19   9  12  1   
 20   9  13  1   
 21  10  13  1   
 22  10  27  1   
 23  10  28  1   
 24  11  12  ar  
 25  11  14  ar  
 26  12  15  ar  
 27  13  29  1   
 28  13  30  1   
 29  14  16  ar  
 30  14  31  1   
 31  15  17  ar  
 32  15  32  1   
 33  16  17  ar  
 34  16  33  1   
 35  17  18  1   
 36  18  34  1   
 37  18  35  1   
 38  18  36  1   
@<TRIPOS>SUBSTRUCTURE
  1 ****   6 GROUP 4 **** **** 0

# MOE 2024.06 (io_trps.svl 2023.06)
