@<TRIPOS>MOLECULE
NONAME
32 32 1 0 0 
SMALL
USER_CHARGES


@<TRIPOS>ATOM
  1 O       -0.4870    -0.3870    -0.1610 O.3   1 <1>  -0.3630 
  2 C       -1.8360    -0.2540    -0.1960 C.ar  1 <1>   0.0830 
  3 C        0.1470    -1.1750     0.8220 C.3   1 <1>   0.0400 
  4 C       -2.7030    -0.8880     0.6890 C.ar  1 <1>  -0.1500 
  5 C       -2.3570     0.5670    -1.1810 C.ar  1 <1>  -0.1500 
  6 C       -4.0690    -0.6940     0.5800 C.ar  1 <1>  -0.1500 
  7 C       -3.7230     0.7600    -1.2870 C.ar  1 <1>  -0.1500 
  8 C       -4.5930     0.1310    -0.4070 C.ar  1 <1>  -0.1430 
  9 C       -6.1030     0.3500    -0.5400 C.3   1 <1>   0.0630 
 10 C       -6.6820     1.0140     0.7420 C.3   1 <1>  -0.0800 
 11 C       -6.7480    -0.9990    -0.9200 C.3   1 <1>   0.0400 
 12 C       -8.1960     1.2720     0.6720 C.3   1 <1>  -0.2400 
 13 C       -5.9810     2.3520     1.0370 C.3   1 <1>  -0.2400 
 14 C       -8.0240    -0.8480    -1.6720 C.1   1 <1>   0.3570 
 15 N       -8.9990    -0.7300    -2.2460 N.1   1 <1>  -0.5570 
 16 H        1.2090    -1.1210     0.6590 H     1 <1>   0.0800 
 17 H       -0.1870    -2.1920     0.7230 H     1 <1>   0.0800 
 18 H       -0.0930    -0.7810     1.7940 H     1 <1>   0.0800 
 19 H       -2.3330    -1.5300     1.4650 H     1 <1>   0.1500 
 20 H       -1.6840     1.0550    -1.8620 H     1 <1>   0.1500 
 21 H       -4.7200    -1.1910     1.2760 H     1 <1>   0.1500 
 22 H       -4.0990     1.4060    -2.0610 H     1 <1>   0.1500 
 23 H       -6.2640     1.0300    -1.3600 H     1 <1>   0.0800 
 24 H       -6.5040     0.3630     1.5810 H     1 <1>   0.0800 
 25 H       -6.9220    -1.5900    -0.0400 H     1 <1>   0.0800 
 26 H       -6.0770    -1.5460    -1.5570 H     1 <1>   0.0800 
 27 H       -8.4470     1.8400    -0.2080 H     1 <1>   0.0800 
 28 H       -8.5230     1.8250     1.5350 H     1 <1>   0.0800 
 29 H       -8.7480     0.3500     0.6600 H     1 <1>   0.0800 
 30 H       -6.1130     3.0370     0.2190 H     1 <1>   0.0800 
 31 H       -4.9270     2.2080     1.1960 H     1 <1>   0.0800 
 32 H       -6.3850     2.8010     1.9270 H     1 <1>   0.0800 
@<TRIPOS>BOND
  1   1   2  1   
  2   1   3  1   
  3   2   4  ar  
  4   2   5  ar  
  5   3  16  1   
  6   3  17  1   
  7   3  18  1   
  8   4   6  ar  
  9   4  19  1   
 10   5   7  ar  
 11   5  20  1   
 12   6   8  ar  
 13   6  21  1   
 14   7   8  ar  
 15   7  22  1   
 16   8   9  1   
 17   9  10  1   
 18   9  11  1   
 19   9  23  1   
 20  10  12  1   
 21  10  13  1   
 22  10  24  1   
 23  11  14  1   
 24  11  25  1   
 25  11  26  1   
 26  12  27  1   
 27  12  28  1   
 28  12  29  1   
 29  13  30  1   
 30  13  31  1   
 31  13  32  1   
 32  14  15  3   
@<TRIPOS>SUBSTRUCTURE
  1 ****   8 GROUP 4 **** **** 0

# MOE 2024.06 (io_trps.svl 2023.06)
