@<TRIPOS>MOLECULE
NONAME
41 42 1 0 0 
SMALL
USER_CHARGES


@<TRIPOS>ATOM
  1 O       -1.6790    -0.1300    -2.9080 O.2   1 <1>  -0.5700 
  2 C       -2.3780    -0.7570    -2.1390 C.2   1 <1>   0.7060 
  3 O       -3.5850    -0.2760    -1.8360 O.3   1 <1>  -0.2330 
  4 C       -1.9760    -1.9850    -1.5390 C.2   1 <1>  -0.1360 
  5 C       -4.4430    -0.8920    -0.9850 C.ar  1 <1>   0.0820 
  6 C       -2.7790    -2.6570    -0.6850 C.2   1 <1>  -0.1670 
  7 C       -4.0730    -2.1070    -0.3820 C.ar  1 <1>   0.0280 
  8 C       -5.6810    -0.3010    -0.7330 C.ar  1 <1>  -0.1440 
  9 C       -2.3300    -3.9690    -0.0550 C.3   1 <1>  -0.1020 
 10 C       -4.9910    -2.7080     0.4810 C.ar  1 <1>  -0.1500 
 11 C       -6.5760    -0.9310     0.1230 C.ar  1 <1>   0.0830 
 12 C       -6.0650     1.0250    -1.3930 C.3   1 <1>  -0.0960 
 13 C       -6.2190    -2.1350     0.7300 C.ar  1 <1>  -0.1500 
 14 O       -7.7800    -0.3430     0.3310 O.3   1 <1>  -0.3630 
 15 C       -8.8130    -0.9620     1.0780 C.3   1 <1>   0.1810 
 16 C      -10.0740    -0.1050     1.0880 C.2   1 <1>   0.4480 
 17 O      -10.3830     0.4650     2.0960 O.2   1 <1>  -0.5700 
 18 C      -10.9540    -0.0470    -0.1900 C.3   1 <1>   0.0610 
 19 C      -10.1450     0.3740    -1.4320 C.3   1 <1>  -0.2400 
 20 C      -11.5950    -1.4200    -0.4620 C.3   1 <1>  -0.2400 
 21 C      -12.0970     0.9750    -0.0190 C.3   1 <1>  -0.2400 
 22 H       -0.9980    -2.3290    -1.8150 H     1 <1>   0.1500 
 23 H       -3.0020    -4.7620    -0.3300 H     1 <1>   0.0800 
 24 H       -2.3110    -3.8780     1.0160 H     1 <1>   0.0800 
 25 H       -1.3420    -4.2360    -0.3870 H     1 <1>   0.0800 
 26 H       -4.7470    -3.6350     0.9650 H     1 <1>   0.1500 
 27 H       -5.2000     1.5830    -1.7040 H     1 <1>   0.0800 
 28 H       -6.6150     1.6430    -0.7070 H     1 <1>   0.0800 
 29 H       -6.6790     0.8340    -2.2540 H     1 <1>   0.0800 
 30 H       -6.8860    -2.6370     1.4040 H     1 <1>   0.1500 
 31 H       -8.4630    -1.0800     2.0870 H     1 <1>   0.0800 
 32 H       -9.0150    -1.9240     0.6490 H     1 <1>   0.0800 
 33 H       -9.4080    -0.3660    -1.6850 H     1 <1>   0.0800 
 34 H       -9.6410     1.3070    -1.2470 H     1 <1>   0.0800 
 35 H      -10.7910     0.5000    -2.2830 H     1 <1>   0.0800 
 36 H      -12.1600    -1.7430     0.3950 H     1 <1>   0.0800 
 37 H      -10.8480    -2.1630    -0.6790 H     1 <1>   0.0800 
 38 H      -12.2610    -1.3650    -1.3050 H     1 <1>   0.0800 
 39 H      -12.7190     0.7070     0.8170 H     1 <1>   0.0800 
 40 H      -12.7130     1.0210    -0.8990 H     1 <1>   0.0800 
 41 H      -11.6940     1.9550     0.1680 H     1 <1>   0.0800 
@<TRIPOS>BOND
  1   1   2  2   
  2   2   3  1   
  3   2   4  1   
  4   3   5  1   
  5   4   6  2   
  6   4  22  1   
  7   5   7  ar  
  8   5   8  ar  
  9   6   7  1   
 10   6   9  1   
 11   7  10  ar  
 12   8  11  ar  
 13   8  12  1   
 14   9  23  1   
 15   9  24  1   
 16   9  25  1   
 17  10  13  ar  
 18  10  26  1   
 19  11  13  ar  
 20  11  14  1   
 21  12  27  1   
 22  12  28  1   
 23  12  29  1   
 24  13  30  1   
 25  14  15  1   
 26  15  16  1   
 27  15  31  1   
 28  15  32  1   
 29  16  17  2   
 30  16  18  1   
 31  18  19  1   
 32  18  20  1   
 33  18  21  1   
 34  19  33  1   
 35  19  34  1   
 36  19  35  1   
 37  20  36  1   
 38  20  37  1   
 39  20  38  1   
 40  21  39  1   
 41  21  40  1   
 42  21  41  1   
@<TRIPOS>SUBSTRUCTURE
  1 ****  11 GROUP 4 **** **** 0

# MOE 2024.06 (io_trps.svl 2023.06)
