@<TRIPOS>MOLECULE
NONAME
33 33 1 0 0 
SMALL
USER_CHARGES


@<TRIPOS>ATOM
  1 S       -0.1520     0.2350    -0.4960 S.3   1 <1>  -0.2860 
  2 C        1.5560    -0.2780    -0.7290 C.2   1 <1>   0.2420 
  3 C       -1.1020    -1.1290    -1.3190 C.3   1 <1>   0.1310 
  4 N        1.8630    -1.3640    -1.3470 N.2   1 <1>  -0.3380 
  5 N        2.6180     0.4090    -0.2910 N.pl3 1 <1>   0.0480 
  6 C       -2.5920    -0.9080    -1.1510 C.2   1 <1>   0.6590 
  7 N        3.1950    -1.4270    -1.3320 N.2   1 <1>  -0.3380 
  8 C        3.6240    -0.3810    -0.7090 C.2   1 <1>   0.0060 
  9 C        2.7250     1.6930     0.4590 C.3   1 <1>   0.1760 
 10 O       -3.3010    -0.6320    -2.0850 O.2   1 <1>  -0.5700 
 11 O       -3.0710    -1.0520     0.0790 O.3   1 <1>  -0.4300 
 12 C        5.0980    -0.1000    -0.4890 C.3   1 <1>  -0.0600 
 13 C        2.0740     1.5890     1.8440 C.3   1 <1>  -0.2400 
 14 C        2.1550     2.8640    -0.3510 C.3   1 <1>  -0.2400 
 15 C       -4.4370    -0.8650     0.3630 C.3   1 <1>   0.1200 
 16 C       -4.6460    -1.0950     1.8560 C.3   1 <1>  -0.2400 
 17 H       -0.8020    -2.0520    -0.8610 H     1 <1>   0.0800 
 18 H       -0.8310    -1.1240    -2.3580 H     1 <1>   0.0800 
 19 H        3.7700     1.8920     0.6130 H     1 <1>   0.0800 
 20 H        5.3140    -0.0520     0.5630 H     1 <1>   0.0800 
 21 H        5.3730     0.8280    -0.9560 H     1 <1>   0.0800 
 22 H        5.6880    -0.8880    -0.9230 H     1 <1>   0.0800 
 23 H        1.0090     1.4690     1.7670 H     1 <1>   0.0800 
 24 H        2.2670     2.4850     2.4060 H     1 <1>   0.0800 
 25 H        2.4850     0.7560     2.3870 H     1 <1>   0.0800 
 26 H        1.0910     2.7720    -0.4740 H     1 <1>   0.0800 
 27 H        2.6200     2.9080    -1.3190 H     1 <1>   0.0800 
 28 H        2.3500     3.7900     0.1600 H     1 <1>   0.0800 
 29 H       -5.0070    -1.5680    -0.2220 H     1 <1>   0.0800 
 30 H       -4.7080     0.1400     0.0840 H     1 <1>   0.0800 
 31 H       -4.3610    -2.0970     2.1200 H     1 <1>   0.0800 
 32 H       -5.6830    -0.9570     2.1030 H     1 <1>   0.0800 
 33 H       -4.0630    -0.3930     2.4240 H     1 <1>   0.0800 
@<TRIPOS>BOND
  1   1   2  1   
  2   1   3  1   
  3   2   4  2   
  4   2   5  1   
  5   3   6  1   
  6   3  17  1   
  7   3  18  1   
  8   4   7  1   
  9   5   8  1   
 10   5   9  1   
 11   6  10  2   
 12   6  11  1   
 13   7   8  2   
 14   8  12  1   
 15   9  13  1   
 16   9  14  1   
 17   9  19  1   
 18  11  15  1   
 19  12  20  1   
 20  12  21  1   
 21  12  22  1   
 22  13  23  1   
 23  13  24  1   
 24  13  25  1   
 25  14  26  1   
 26  14  27  1   
 27  14  28  1   
 28  15  16  1   
 29  15  29  1   
 30  15  30  1   
 31  16  31  1   
 32  16  32  1   
 33  16  33  1   
@<TRIPOS>SUBSTRUCTURE
  1 ****   1 GROUP 4 **** **** 0

# MOE 2024.06 (io_trps.svl 2023.06)
