@<TRIPOS>MOLECULE
NONAME
32 33 1 0 0 
SMALL
USER_CHARGES


@<TRIPOS>ATOM
  1 S       -3.9980    -0.0080     0.5030 S.3   1 <1>  -0.2860 
  2 C       -5.5540     0.8630     0.4780 C.2   1 <1>   0.2420 
  3 C       -2.7650     1.2970     0.0300 C.3   1 <1>   0.1310 
  4 N       -5.6960     2.0570     0.0250 N.2   1 <1>  -0.5650 
  5 N       -6.6710     0.2690     0.9480 N.pl3 1 <1>   0.0330 
  6 C       -2.4340     2.1880     1.2270 C.2   1 <1>   0.6590 
  7 C       -7.0270     2.2950     0.2090 C.ar  1 <1>   0.2270 
  8 C       -7.6510     1.1960     0.7810 C.ar  1 <1>  -0.1520 
  9 O       -2.0270     1.6980     2.2470 O.2   1 <1>  -0.5700 
 10 O       -2.5270     3.5130     1.1340 O.3   1 <1>  -0.4300 
 11 C       -7.7630     3.4370    -0.0930 C.ar  1 <1>  -0.1500 
 12 C       -9.0160     1.2030     1.0650 C.ar  1 <1>  -0.1500 
 13 C       -3.0230     4.2440     0.0380 C.3   1 <1>   0.1200 
 14 C       -9.1200     3.4550     0.1840 C.ar  1 <1>   0.0830 
 15 C       -9.7370     2.3370     0.7620 C.ar  1 <1>  -0.1500 
 16 C       -2.8950     5.7260     0.3700 C.3   1 <1>  -0.2400 
 17 O       -9.9320     4.5170    -0.0700 O.3   1 <1>  -0.3630 
 18 C       -9.4120     5.6980    -0.6390 C.3   1 <1>   0.0400 
 19 H       -3.1840     1.8360    -0.7960 H     1 <1>   0.0800 
 20 H       -1.8800     0.7800    -0.2870 H     1 <1>   0.0800 
 21 H       -6.7400    -0.6660     1.3530 H     1 <1>   0.2700 
 22 H       -7.2430     4.2630    -0.5330 H     1 <1>   0.1500 
 23 H       -9.4890     0.3450     1.5090 H     1 <1>   0.1500 
 24 H       -4.0550     3.9830    -0.1150 H     1 <1>   0.0800 
 25 H       -2.4430     4.0010    -0.8350 H     1 <1>   0.0800 
 26 H      -10.7920     2.3870     0.9630 H     1 <1>   0.1500 
 27 H       -3.4700     5.9570     1.2500 H     1 <1>   0.0800 
 28 H       -3.2660     6.3170    -0.4470 H     1 <1>   0.0800 
 29 H       -1.8640     5.9810     0.5400 H     1 <1>   0.0800 
 30 H      -10.2190     6.4000    -0.7480 H     1 <1>   0.0800 
 31 H       -8.9960     5.4670    -1.6040 H     1 <1>   0.0800 
 32 H       -8.6620     6.1020     0.0190 H     1 <1>   0.0800 
@<TRIPOS>BOND
  1   1   2  1   
  2   1   3  1   
  3   2   4  2   
  4   2   5  1   
  5   3   6  1   
  6   3  19  1   
  7   3  20  1   
  8   4   7  1   
  9   5   8  1   
 10   5  21  1   
 11   6   9  2   
 12   6  10  1   
 13   7   8  ar  
 14   7  11  ar  
 15   8  12  ar  
 16  10  13  1   
 17  11  14  ar  
 18  11  22  1   
 19  12  15  ar  
 20  12  23  1   
 21  13  16  1   
 22  13  24  1   
 23  13  25  1   
 24  14  15  ar  
 25  14  17  1   
 26  15  26  1   
 27  16  27  1   
 28  16  28  1   
 29  16  29  1   
 30  17  18  1   
 31  18  30  1   
 32  18  31  1   
 33  18  32  1   
@<TRIPOS>SUBSTRUCTURE
  1 ****   4 GROUP 4 **** **** 0

# MOE 2024.06 (io_trps.svl 2023.06)
