@<TRIPOS>MOLECULE
NONAME
39 40 1 0 0 
SMALL
USER_CHARGES


@<TRIPOS>ATOM
  1 O       -1.4820     0.7230     2.4280 O.2   1 <1>  -0.5700 
  2 C       -2.0220     1.7680     2.1290 C.2   1 <1>   0.5690 
  3 N       -1.3130     2.8960     1.7620 N.am  1 <1>  -0.2980 
  4 C       -3.5390     1.8280     2.1680 C.3   1 <1>   0.0440 
  5 N       -1.7680     4.1970     1.9030 N.2   1 <1>  -0.5120 
  6 C        0.1140     2.8740     1.3220 C.3   1 <1>   0.5800 
  7 C       -4.1110     1.7440     0.7580 C.ar  1 <1>  -0.1440 
  8 C       -0.8060     4.9920     1.7550 C.2   1 <1>   0.3290 
  9 O        0.8170     2.1550     2.2630 O.3   1 <1>  -0.6800 
 10 C        0.3410     2.2760    -0.1310 C.3   1 <1>   0.0000 
 11 C        0.5200     4.3500     1.4660 C.3   1 <1>  -0.0990 
 12 C       -4.2780     0.5110     0.1470 C.ar  1 <1>  -0.1500 
 13 C       -4.4530     2.8970     0.0690 C.ar  1 <1>  -0.1500 
 14 C       -0.4810     3.0330    -1.1990 C.3   1 <1>  -0.2400 
 15 C        1.8310     2.3540    -0.5420 C.3   1 <1>  -0.2400 
 16 C       -0.0570     0.7870    -0.2520 C.3   1 <1>  -0.2400 
 17 C       -4.7850     0.4310    -1.1380 C.ar  1 <1>  -0.1500 
 18 C       -4.9600     2.8190    -1.2170 C.ar  1 <1>  -0.1500 
 19 C       -5.1270     1.5850    -1.8210 C.ar  1 <1>  -0.1500 
 20 H       -3.8550     2.7360     2.6480 H     1 <1>   0.0800 
 21 H       -3.9070     1.0080     2.7560 H     1 <1>   0.0800 
 22 H       -0.8590     6.0640     1.8200 H     1 <1>   0.0600 
 23 H        0.2670     1.3610     2.4550 H     1 <1>   0.4000 
 24 H        0.9370     4.7680     0.5740 H     1 <1>   0.0800 
 25 H        1.1960     4.5010     2.2870 H     1 <1>   0.0800 
 26 H       -4.0080    -0.3920     0.6690 H     1 <1>   0.1500 
 27 H       -4.3180     3.8610     0.5300 H     1 <1>   0.1500 
 28 H       -1.5330     2.9780    -0.9750 H     1 <1>   0.0800 
 29 H       -0.3310     2.5970    -2.1710 H     1 <1>   0.0800 
 30 H       -0.2040     4.0690    -1.2580 H     1 <1>   0.0800 
 31 H        2.1840     3.3660    -0.5900 H     1 <1>   0.0800 
 32 H        1.9820     1.9130    -1.5120 H     1 <1>   0.0800 
 33 H        2.4420     1.8180     0.1630 H     1 <1>   0.0800 
 34 H        0.4370     0.1930     0.4960 H     1 <1>   0.0800 
 35 H        0.2140     0.3960    -1.2170 H     1 <1>   0.0800 
 36 H       -1.1190     0.6590    -0.1470 H     1 <1>   0.0800 
 37 H       -4.9120    -0.5290    -1.6070 H     1 <1>   0.1500 
 38 H       -5.2230     3.7180    -1.7450 H     1 <1>   0.1500 
 39 H       -5.5210     1.5230    -2.8200 H     1 <1>   0.1500 
@<TRIPOS>BOND
  1   1   2  2   
  2   2   3  am  
  3   2   4  1   
  4   3   5  1   
  5   3   6  1   
  6   4   7  1   
  7   4  20  1   
  8   4  21  1   
  9   5   8  2   
 10   6   9  1   
 11   6  10  1   
 12   6  11  1   
 13   7  12  ar  
 14   7  13  ar  
 15   8  11  1   
 16   8  22  1   
 17   9  23  1   
 18  10  14  1   
 19  10  15  1   
 20  10  16  1   
 21  11  24  1   
 22  11  25  1   
 23  12  17  ar  
 24  12  26  1   
 25  13  18  ar  
 26  13  27  1   
 27  14  28  1   
 28  14  29  1   
 29  14  30  1   
 30  15  31  1   
 31  15  32  1   
 32  15  33  1   
 33  16  34  1   
 34  16  35  1   
 35  16  36  1   
 36  17  19  ar  
 37  17  37  1   
 38  18  19  ar  
 39  18  38  1   
 40  19  39  1   
@<TRIPOS>SUBSTRUCTURE
  1 ****   3 GROUP 4 **** **** 0

# MOE 2024.06 (io_trps.svl 2023.06)
