@<TRIPOS>MOLECULE
NONAME
33 35 1 0 0 
SMALL
USER_CHARGES


@<TRIPOS>ATOM
  1 O       -0.6690     0.4660     1.6090 O.2   1 <1>  -0.5700 
  2 C        0.0210     1.3200     1.1050 C.2   1 <1>   0.5700 
  3 N       -0.4280     2.4230     0.4190 N.am  1 <1>  -0.6600 
  4 C       -1.8930     2.7280     0.1950 C.3   1 <1>   0.3000 
  5 C        0.6020     3.3560    -0.1250 C.3   1 <1>   0.0600 
  6 C       -2.6130     2.8990     1.5520 C.3   1 <1>  -0.1600 
  7 C       -2.5580     1.5820    -0.6020 C.3   1 <1>  -0.1600 
  8 C       -2.1040     4.0390    -0.6120 C.3   1 <1>  -0.1600 
  9 C       -4.1160     3.1750     1.3470 C.3   1 <1>  -0.0800 
 10 C       -4.0610     1.8570    -0.8090 C.3   1 <1>  -0.0800 
 11 C       -3.6000     4.3320    -0.8290 C.3   1 <1>  -0.0800 
 12 C       -4.7410     2.0030     0.5650 C.3   1 <1>  -0.1600 
 13 C       -4.2900     4.4720     0.5390 C.3   1 <1>  -0.1600 
 14 C       -4.2350     3.1630    -1.6030 C.3   1 <1>  -0.1600 
 15 H        1.0860     1.2020     1.2040 H     1 <1>   0.0600 
 16 H        1.5930     3.0090     0.1120 H     1 <1>   0.0800 
 17 H        0.4790     4.3350     0.3050 H     1 <1>   0.0800 
 18 H        0.5170     3.4170    -1.1960 H     1 <1>   0.0800 
 19 H       -2.1670     3.7100     2.0980 H     1 <1>   0.0800 
 20 H       -2.5160     2.0090     2.1450 H     1 <1>   0.0800 
 21 H       -2.4600     0.6510    -0.0760 H     1 <1>   0.0800 
 22 H       -2.0730     1.4770    -1.5550 H     1 <1>   0.0800 
 23 H       -1.6350     3.9590    -1.5760 H     1 <1>   0.0800 
 24 H       -1.6730     4.8700    -0.0840 H     1 <1>   0.0800 
 25 H       -4.6000     3.2730     2.3030 H     1 <1>   0.0800 
 26 H       -4.5060     1.0390    -1.3500 H     1 <1>   0.0800 
 27 H       -3.7170     5.2440    -1.3890 H     1 <1>   0.0800 
 28 H       -5.7950     2.1750     0.4330 H     1 <1>   0.0800 
 29 H       -4.6270     1.0910     1.1260 H     1 <1>   0.0800 
 30 H       -3.8640     5.2990     1.0810 H     1 <1>   0.0800 
 31 H       -5.3370     4.6770     0.4010 H     1 <1>   0.0800 
 32 H       -5.2820     3.3560    -1.7610 H     1 <1>   0.0800 
 33 H       -3.7710     3.0680    -2.5690 H     1 <1>   0.0800 
@<TRIPOS>BOND
  1   1   2  2   
  2   2   3  am  
  3   2  15  1   
  4   3   4  1   
  5   3   5  1   
  6   4   6  1   
  7   4   7  1   
  8   4   8  1   
  9   5  16  1   
 10   5  17  1   
 11   5  18  1   
 12   6   9  1   
 13   6  19  1   
 14   6  20  1   
 15   7  10  1   
 16   7  21  1   
 17   7  22  1   
 18   8  11  1   
 19   8  23  1   
 20   8  24  1   
 21   9  12  1   
 22   9  13  1   
 23   9  25  1   
 24  10  12  1   
 25  10  14  1   
 26  10  26  1   
 27  11  13  1   
 28  11  14  1   
 29  11  27  1   
 30  12  28  1   
 31  12  29  1   
 32  13  30  1   
 33  13  31  1   
 34  14  32  1   
 35  14  33  1   
@<TRIPOS>SUBSTRUCTURE
  1 ****   4 GROUP 4 **** **** 0

# MOE 2024.06 (io_trps.svl 2023.06)
