@<TRIPOS>MOLECULE
NONAME
44 47 1 0 0 
SMALL
USER_CHARGES


@<TRIPOS>ATOM
  1 O       -1.3460    -0.3070    -1.2390 O.2   1 <1>  -0.5700 
  2 C       -1.3390    -0.1090    -0.0410 C.2   1 <1>   0.7800 
  3 O       -0.2290     0.2840     0.5660 O.3   1 <1>  -0.4300 
  4 N       -2.4110    -0.2600     0.7640 N.am  1 <1>  -0.7300 
  5 C        0.9510     0.4730    -0.1800 C.3   1 <1>   0.2630 
  6 C       -3.7770    -0.6760     0.4180 C.3   1 <1>   0.3000 
  7 C        2.0540     0.9210     0.7650 C.ar  1 <1>  -0.1440 
  8 C       -4.4140     0.3130    -0.5760 C.3   1 <1>  -0.1600 
  9 C       -3.7800    -2.0950    -0.1830 C.3   1 <1>  -0.1600 
 10 C       -4.6060    -0.6830     1.7160 C.3   1 <1>  -0.1600 
 11 C        2.9120    -0.0080     1.3330 C.ar  1 <1>  -0.1500 
 12 C        2.2100     2.2660     1.0670 C.ar  1 <1>  -0.1500 
 13 C       -5.8620    -0.1140    -0.8890 C.3   1 <1>  -0.0800 
 14 C       -5.2260    -2.5310    -0.4950 C.3   1 <1>  -0.0800 
 15 C       -6.0570    -1.1130     1.4210 C.3   1 <1>  -0.0800 
 16 C        3.9200     0.4030     2.1890 C.ar  1 <1>  -0.1500 
 17 C        3.2170     2.6780     1.9230 C.ar  1 <1>  -0.1500 
 18 C       -5.8490    -1.5340    -1.4910 C.3   1 <1>  -0.1600 
 19 C       -6.6800    -0.1270     0.4160 C.3   1 <1>  -0.1600 
 20 C       -6.0490    -2.5250     0.8070 C.3   1 <1>  -0.1600 
 21 C        4.0730     1.7460     2.4840 C.ar  1 <1>  -0.1500 
 22 H       -2.2580    -0.0610     1.7490 H     1 <1>   0.3700 
 23 H        0.7640     1.2190    -0.9320 H     1 <1>   0.0800 
 24 H        1.2070    -0.4580    -0.6560 H     1 <1>   0.0800 
 25 H       -3.8500     0.3310    -1.4910 H     1 <1>   0.0800 
 26 H       -4.4110     1.3040    -0.1590 H     1 <1>   0.0800 
 27 H       -3.3340    -2.7870     0.5080 H     1 <1>   0.0800 
 28 H       -3.2070    -2.1110    -1.0930 H     1 <1>   0.0800 
 29 H       -4.6100     0.3000     2.1510 H     1 <1>   0.0800 
 30 H       -4.1710    -1.3660     2.4230 H     1 <1>   0.0800 
 31 H        2.7980    -1.0550     1.1120 H     1 <1>   0.1500 
 32 H        1.5460     2.9960     0.6390 H     1 <1>   0.1500 
 33 H       -6.3010     0.5750    -1.5900 H     1 <1>   0.0800 
 34 H       -5.2230    -3.5190    -0.9220 H     1 <1>   0.0800 
 35 H       -6.6300    -1.1150     2.3330 H     1 <1>   0.0800 
 36 H        4.5840    -0.3230     2.6260 H     1 <1>   0.1500 
 37 H        3.3340     3.7220     2.1540 H     1 <1>   0.1500 
 38 H       -6.8540    -1.8370    -1.7280 H     1 <1>   0.0800 
 39 H       -5.2850    -1.5350    -2.4080 H     1 <1>   0.0800 
 40 H       -7.6950    -0.4150     0.2050 H     1 <1>   0.0800 
 41 H       -6.7050     0.8620     0.8400 H     1 <1>   0.0800 
 42 H       -5.6280    -3.2270     1.5070 H     1 <1>   0.0800 
 43 H       -7.0580    -2.8380     0.6000 H     1 <1>   0.0800 
 44 H        4.8560     2.0650     3.1490 H     1 <1>   0.1500 
@<TRIPOS>BOND
  1   1   2  2   
  2   2   3  1   
  3   2   4  am  
  4   3   5  1   
  5   4   6  1   
  6   4  22  1   
  7   5   7  1   
  8   5  23  1   
  9   5  24  1   
 10   6   8  1   
 11   6   9  1   
 12   6  10  1   
 13   7  11  ar  
 14   7  12  ar  
 15   8  13  1   
 16   8  25  1   
 17   8  26  1   
 18   9  14  1   
 19   9  27  1   
 20   9  28  1   
 21  10  15  1   
 22  10  29  1   
 23  10  30  1   
 24  11  16  ar  
 25  11  31  1   
 26  12  17  ar  
 27  12  32  1   
 28  13  18  1   
 29  13  19  1   
 30  13  33  1   
 31  14  18  1   
 32  14  20  1   
 33  14  34  1   
 34  15  19  1   
 35  15  20  1   
 36  15  35  1   
 37  16  21  ar  
 38  16  36  1   
 39  17  21  ar  
 40  17  37  1   
 41  18  38  1   
 42  18  39  1   
 43  19  40  1   
 44  19  41  1   
 45  20  42  1   
 46  20  43  1   
 47  21  44  1   
@<TRIPOS>SUBSTRUCTURE
  1 ****   4 GROUP 4 **** **** 0

# MOE 2024.06 (io_trps.svl 2023.06)
