@<TRIPOS>MOLECULE
NONAME
39 40 1 0 0 
SMALL
USER_CHARGES


@<TRIPOS>ATOM
  1 O       -0.5850    -0.1410     0.6600 O.2   1 <1>  -0.5700 
  2 C       -0.9610    -1.2880     0.8160 C.2   1 <1>   0.6900 
  3 N       -2.2970    -1.5630     0.9510 N.am  1 <1>  -0.6600 
  4 N       -0.0760    -2.3240     0.8840 N.am  1 <1>  -0.5470 
  5 C       -3.2650    -0.4670     1.2450 C.3   1 <1>   0.1400 
  6 C       -2.9350    -2.7870     0.3940 C.3   1 <1>   0.1400 
  7 C        1.3080    -2.3820     0.6560 C.ar  1 <1>   0.1170 
  8 C       -3.9820    -0.0560    -0.0450 C.3   1 <1>  -0.0190 
  9 C       -3.6750    -2.4290    -0.9010 C.3   1 <1>  -0.1600 
 10 C        1.9770    -1.4710    -0.1550 C.ar  1 <1>  -0.1500 
 11 C        2.0420    -3.4040     1.2460 C.ar  1 <1>  -0.1500 
 12 C       -4.9670     1.0610     0.2580 C.2   1 <1>   0.5690 
 13 C       -4.6710    -1.2750    -0.6940 C.3   1 <1>  -0.1600 
 14 C        3.3400    -1.5710    -0.3690 C.ar  1 <1>  -0.1500 
 15 C        3.4050    -3.5100     1.0350 C.ar  1 <1>  -0.1500 
 16 O       -5.8980     0.8660     0.9960 O.2   1 <1>  -0.5700 
 17 N       -4.7910     2.2760    -0.2930 N.am  1 <1>  -0.8000 
 18 C        4.0650    -2.5980     0.2290 C.ar  1 <1>   0.0830 
 19 O        5.4050    -2.7720     0.0750 O.3   1 <1>  -0.3630 
 20 C        6.1660    -1.8670    -0.6920 C.3   1 <1>   0.0400 
 21 H       -0.4890    -3.1560     1.2860 H     1 <1>   0.3700 
 22 H       -2.7520     0.3820     1.6660 H     1 <1>   0.0800 
 23 H       -3.9820    -0.8110     1.9700 H     1 <1>   0.0800 
 24 H       -3.6300    -3.1800     1.1170 H     1 <1>   0.0800 
 25 H       -2.2000    -3.5450     0.1860 H     1 <1>   0.0800 
 26 H       -3.2390     0.3230    -0.7240 H     1 <1>   0.0800 
 27 H       -4.1980    -3.2960    -1.2640 H     1 <1>   0.0800 
 28 H       -2.9500    -2.1500    -1.6470 H     1 <1>   0.0800 
 29 H        1.4290    -0.6750    -0.6270 H     1 <1>   0.1500 
 30 H        1.5510    -4.1200     1.8770 H     1 <1>   0.1500 
 31 H       -5.1000    -0.9890    -1.6390 H     1 <1>   0.0800 
 32 H       -5.4720    -1.6100    -0.0570 H     1 <1>   0.0800 
 33 H        3.8150    -0.8440    -1.0000 H     1 <1>   0.1500 
 34 H        3.9690    -4.3010     1.4950 H     1 <1>   0.1500 
 35 H       -5.4510     3.0230    -0.0750 H     1 <1>   0.3700 
 36 H       -4.0030     2.5210    -0.8920 H     1 <1>   0.3700 
 37 H        7.1930    -2.1860    -0.6630 H     1 <1>   0.0800 
 38 H        6.0760    -0.8840    -0.2630 H     1 <1>   0.0800 
 39 H        5.8080    -1.8810    -1.7060 H     1 <1>   0.0800 
@<TRIPOS>BOND
  1   1   2  2   
  2   2   3  am  
  3   2   4  am  
  4   3   5  1   
  5   3   6  1   
  6   4   7  1   
  7   4  21  1   
  8   5   8  1   
  9   5  22  1   
 10   5  23  1   
 11   6   9  1   
 12   6  24  1   
 13   6  25  1   
 14   7  10  ar  
 15   7  11  ar  
 16   8  12  1   
 17   8  13  1   
 18   8  26  1   
 19   9  13  1   
 20   9  27  1   
 21   9  28  1   
 22  10  14  ar  
 23  10  29  1   
 24  11  15  ar  
 25  11  30  1   
 26  12  16  2   
 27  12  17  am  
 28  13  31  1   
 29  13  32  1   
 30  14  18  ar  
 31  14  33  1   
 32  15  18  ar  
 33  15  34  1   
 34  17  35  1   
 35  17  36  1   
 36  18  19  1   
 37  19  20  1   
 38  20  37  1   
 39  20  38  1   
 40  20  39  1   
@<TRIPOS>SUBSTRUCTURE
  1 ****   2 GROUP 4 **** **** 0

# MOE 2024.06 (io_trps.svl 2023.06)
