@<TRIPOS>MOLECULE
NONAME
53 55 1 0 0 
SMALL
USER_CHARGES


@<TRIPOS>ATOM
  1 O        0.4420     0.6770    -0.1900 O.2   1 <1>  -0.5700 
  2 C        0.2280     1.8430    -0.4670 C.2   1 <1>   0.5440 
  3 N        1.2530     2.6050    -0.9970 N.am  1 <1>  -0.6600 
  4 C       -1.0910     2.3910    -0.2220 C.ar  1 <1>   0.0860 
  5 C        1.2470     4.0940    -1.0130 C.3   1 <1>   0.1400 
  6 C        2.5420     1.9890    -1.4150 C.3   1 <1>   0.1400 
  7 C       -1.6710     2.3200     1.0440 C.ar  1 <1>  -0.1500 
  8 C       -1.8310     3.0020    -1.2360 C.ar  1 <1>  -0.1500 
  9 C        2.3710     4.6190    -0.1170 C.3   1 <1>  -0.1600 
 10 C        3.6700     2.4940    -0.5110 C.3   1 <1>  -0.1600 
 11 C       -2.9230     2.8490     1.2990 C.ar  1 <1>  -0.1500 
 12 C       -3.0820     3.5340    -0.9900 C.ar  1 <1>  -0.1500 
 13 C        3.7450     4.0330    -0.5050 C.3   1 <1>  -0.0190 
 14 C       -3.6390     3.4670     0.2770 C.ar  1 <1>   0.0820 
 15 C        4.8800     4.5240     0.3960 C.2   1 <1>   0.5690 
 16 O       -4.8650     4.0130     0.4380 O.3   1 <1>  -0.3630 
 17 O        4.6290     5.0040     1.4750 O.2   1 <1>  -0.5700 
 18 N        6.1550     4.3860    -0.0750 N.am  1 <1>  -0.5470 
 19 C       -5.5390     3.9710     1.6760 C.3   1 <1>   0.0400 
 20 C        7.3600     4.7010     0.5700 C.ar  1 <1>   0.1170 
 21 C        7.7240     6.0260     0.8260 C.ar  1 <1>  -0.1430 
 22 C        8.2270     3.6680     0.9370 C.ar  1 <1>  -0.1430 
 23 C        8.9350     6.3010     1.4380 C.ar  1 <1>  -0.1500 
 24 C        6.8210     7.1940     0.4460 C.3   1 <1>  -0.0970 
 25 C        9.4350     3.9640     1.5440 C.ar  1 <1>  -0.1500 
 26 C        7.8630     2.2080     0.6940 C.3   1 <1>  -0.0970 
 27 C        9.7900     5.2760     1.7950 C.ar  1 <1>  -0.1500 
 28 H        0.3090     4.4830    -0.6570 H     1 <1>   0.0800 
 29 H        1.3900     4.4350    -2.0240 H     1 <1>   0.0800 
 30 H        2.7400     2.2560    -2.4390 H     1 <1>   0.0800 
 31 H        2.4880     0.9140    -1.3610 H     1 <1>   0.0800 
 32 H       -1.1210     1.8360     1.8330 H     1 <1>   0.1500 
 33 H       -1.4130     3.0520    -2.2260 H     1 <1>   0.1500 
 34 H        2.1430     4.3640     0.9040 H     1 <1>   0.0800 
 35 H        2.4060     5.6930    -0.1810 H     1 <1>   0.0800 
 36 H        4.6010     2.0760    -0.8490 H     1 <1>   0.0800 
 37 H        3.4950     2.1350     0.4900 H     1 <1>   0.0800 
 38 H       -3.3250     2.7710     2.2910 H     1 <1>   0.1500 
 39 H       -3.6420     4.0040    -1.7790 H     1 <1>   0.1500 
 40 H        3.9670     4.3630    -1.5040 H     1 <1>   0.0800 
 41 H        6.2640     3.8730    -0.9450 H     1 <1>   0.3700 
 42 H       -6.4910     4.4550     1.5540 H     1 <1>   0.0800 
 43 H       -4.9530     4.4950     2.4100 H     1 <1>   0.0800 
 44 H       -5.6840     2.9440     1.9600 H     1 <1>   0.0800 
 45 H        9.2210     7.3170     1.6440 H     1 <1>   0.1500 
 46 H        6.4330     7.0630    -0.5470 H     1 <1>   0.0800 
 47 H        7.3590     8.1240     0.4770 H     1 <1>   0.0800 
 48 H        5.9990     7.2540     1.1370 H     1 <1>   0.0800 
 49 H       10.1100     3.1770     1.8310 H     1 <1>   0.1500 
 50 H        6.9120     1.9890     1.1470 H     1 <1>   0.0800 
 51 H        8.5980     1.5510     1.1230 H     1 <1>   0.0800 
 52 H        7.8060     2.0120    -0.3610 H     1 <1>   0.0800 
 53 H       10.7290     5.4990     2.2710 H     1 <1>   0.1500 
@<TRIPOS>BOND
  1   1   2  2   
  2   2   3  am  
  3   2   4  1   
  4   3   5  1   
  5   3   6  1   
  6   4   7  ar  
  7   4   8  ar  
  8   5   9  1   
  9   5  28  1   
 10   5  29  1   
 11   6  10  1   
 12   6  30  1   
 13   6  31  1   
 14   7  11  ar  
 15   7  32  1   
 16   8  12  ar  
 17   8  33  1   
 18   9  13  1   
 19   9  34  1   
 20   9  35  1   
 21  10  13  1   
 22  10  36  1   
 23  10  37  1   
 24  11  14  ar  
 25  11  38  1   
 26  12  14  ar  
 27  12  39  1   
 28  13  15  1   
 29  13  40  1   
 30  14  16  1   
 31  15  17  2   
 32  15  18  am  
 33  16  19  1   
 34  18  20  1   
 35  18  41  1   
 36  19  42  1   
 37  19  43  1   
 38  19  44  1   
 39  20  21  ar  
 40  20  22  ar  
 41  21  23  ar  
 42  21  24  1   
 43  22  25  ar  
 44  22  26  1   
 45  23  27  ar  
 46  23  45  1   
 47  24  46  1   
 48  24  47  1   
 49  24  48  1   
 50  25  27  ar  
 51  25  49  1   
 52  26  50  1   
 53  26  51  1   
 54  26  52  1   
 55  27  53  1   
@<TRIPOS>SUBSTRUCTURE
  1 ****   9 GROUP 4 **** **** 0

# MOE 2024.06 (io_trps.svl 2023.06)
