@<TRIPOS>MOLECULE
NONAME
38 40 1 0 0 
SMALL
USER_CHARGES


@<TRIPOS>ATOM
  1 S        1.2340    -3.1460    -1.1730 S.3   1 <1>  -0.3320 
  2 C        2.7340    -3.7840    -0.3910 C.ar  1 <1>   0.1020 
  3 C       -0.1600    -4.0540    -0.3910 C.3   1 <1>   0.0700 
  4 C        3.8070    -2.8940    -0.1460 C.ar  1 <1>   0.3100 
  5 C        2.7970    -5.1140    -0.0630 C.ar  1 <1>  -0.1500 
  6 C       -1.3830    -3.1440    -0.5250 C.3   1 <1>   0.3430 
  7 N        3.7080    -1.5730    -0.4690 N.ar  1 <1>  -0.6200 
  8 C        4.9700    -3.4290     0.4580 C.ar  1 <1>   0.0000 
  9 C        3.9500    -5.6240     0.5390 C.ar  1 <1>  -0.1500 
 10 N       -2.6050    -3.7310     0.1070 N.4   1 <1>  -0.9590 
 11 C        4.7280    -0.8090    -0.2220 C.ar  1 <1>   0.1600 
 12 C        6.0500    -2.5640     0.7070 C.ar  1 <1>  -0.1500 
 13 C        5.0100    -4.7980     0.7920 C.ar  1 <1>  -0.1500 
 14 C       -3.1160    -4.9750    -0.5700 C.3   1 <1>   0.3430 
 15 C       -3.7130    -2.7240     0.2350 C.3   1 <1>   0.3430 
 16 C        5.9210    -1.2540     0.3620 C.ar  1 <1>  -0.1500 
 17 C       -4.4330    -5.4720     0.0730 C.3   1 <1>   0.1200 
 18 C       -4.9540    -3.3390     0.9250 C.3   1 <1>   0.1200 
 19 O       -4.7640    -4.7030     1.1970 O.3   1 <1>  -0.5600 
 20 H        0.1070    -4.2170     0.6380 H     1 <1>   0.0800 
 21 H       -0.2700    -4.9810    -0.9240 H     1 <1>   0.0800 
 22 H        1.9850    -5.7850    -0.2710 H     1 <1>   0.1500 
 23 H       -1.5660    -2.9520    -1.5690 H     1 <1>   0.0800 
 24 H       -1.1510    -2.2030    -0.0510 H     1 <1>   0.0800 
 25 H        3.9940    -6.6700     0.7940 H     1 <1>   0.1500 
 26 H       -2.4000    -4.0120     1.0790 H     1 <1>   0.4500 
 27 H        4.6530     0.2330    -0.4830 H     1 <1>   0.1500 
 28 H        6.9480    -2.9450     1.1590 H     1 <1>   0.1500 
 29 H        5.9010    -5.1870     1.2540 H     1 <1>   0.1500 
 30 H       -2.3810    -5.7600    -0.5030 H     1 <1>   0.0800 
 31 H       -3.2900    -4.7830    -1.6160 H     1 <1>   0.0800 
 32 H       -3.9980    -2.3650    -0.7400 H     1 <1>   0.0800 
 33 H       -3.3790    -1.8750     0.8080 H     1 <1>   0.0800 
 34 H        6.7140    -0.5480     0.5270 H     1 <1>   0.1500 
 35 H       -4.3300    -6.4950     0.3910 H     1 <1>   0.0800 
 36 H       -5.2460    -5.4200    -0.6320 H     1 <1>   0.0800 
 37 H       -5.8290    -3.2290     0.3080 H     1 <1>   0.0800 
 38 H       -5.1410    -2.8430     1.8620 H     1 <1>   0.0800 
@<TRIPOS>BOND
  1   1   2  1   
  2   1   3  1   
  3   2   4  ar  
  4   2   5  ar  
  5   3   6  1   
  6   3  20  1   
  7   3  21  1   
  8   4   7  ar  
  9   4   8  ar  
 10   5   9  ar  
 11   5  22  1   
 12   6  10  1   
 13   6  23  1   
 14   6  24  1   
 15   7  11  ar  
 16   8  12  ar  
 17   8  13  ar  
 18   9  13  ar  
 19   9  25  1   
 20  10  14  1   
 21  10  15  1   
 22  10  26  1   
 23  11  16  ar  
 24  11  27  1   
 25  12  16  ar  
 26  12  28  1   
 27  13  29  1   
 28  14  17  1   
 29  14  30  1   
 30  14  31  1   
 31  15  18  1   
 32  15  32  1   
 33  15  33  1   
 34  16  34  1   
 35  17  19  1   
 36  17  35  1   
 37  17  36  1   
 38  18  19  1   
 39  18  37  1   
 40  18  38  1   
@<TRIPOS>SUBSTRUCTURE
  1 ****   1 GROUP 4 **** **** 0

# MOE 2024.06 (io_trps.svl 2023.06)
