@<TRIPOS>MOLECULE
NONAME
25 25 1 0 0 
SMALL
USER_CHARGES


@<TRIPOS>ATOM
  1 F       -2.0300     1.6490    -2.1140 F     1 <1>  -0.3400 
  2 C       -1.0550     1.8750    -1.2360 C.3   1 <1>   1.0200 
  3 F       -1.0260     0.8010    -0.4490 F     1 <1>  -0.3400 
  4 F        0.0730     1.8370    -1.9410 F     1 <1>  -0.3400 
  5 C       -1.2320     3.2350    -0.4140 C.3   1 <1>   0.5600 
  6 O       -2.3190     3.2410     0.4840 O.3   1 <1>  -0.5600 
  7 O       -0.1840     3.4520     0.4640 O.3   1 <1>  -0.6800 
  8 C       -1.3060     4.4840    -1.2960 C.3   1 <1>  -0.0990 
  9 C       -3.6170     3.2390    -0.0490 C.3   1 <1>   0.1200 
 10 C       -2.6810     4.5920    -1.9030 C.2   1 <1>   0.4480 
 11 C       -3.8600     4.4800    -0.9270 C.3   1 <1>   0.0610 
 12 O       -2.8100     4.7370    -3.0810 O.2   1 <1>  -0.5700 
 13 C       -3.9580     5.7430    -0.0480 C.3   1 <1>  -0.2400 
 14 C       -5.2010     4.3070    -1.6710 C.3   1 <1>  -0.2400 
 15 H       -0.3710     2.9220     1.2630 H     1 <1>   0.4000 
 16 H       -0.5700     4.4310    -2.0770 H     1 <1>   0.0800 
 17 H       -1.1120     5.3640    -0.7130 H     1 <1>   0.0800 
 18 H       -4.3050     3.2340     0.7790 H     1 <1>   0.0800 
 19 H       -3.7680     2.3300    -0.6040 H     1 <1>   0.0800 
 20 H       -4.8050     5.6800     0.6130 H     1 <1>   0.0800 
 21 H       -3.0760     5.8660     0.5550 H     1 <1>   0.0800 
 22 H       -4.0730     6.6180    -0.6650 H     1 <1>   0.0800 
 23 H       -5.1670     3.4410    -2.3100 H     1 <1>   0.0800 
 24 H       -5.3970     5.1660    -2.2890 H     1 <1>   0.0800 
 25 H       -6.0150     4.1920    -0.9770 H     1 <1>   0.0800 
@<TRIPOS>BOND
  1   1   2  1   
  2   2   3  1   
  3   2   4  1   
  4   2   5  1   
  5   5   6  1   
  6   5   7  1   
  7   5   8  1   
  8   6   9  1   
  9   7  15  1   
 10   8  10  1   
 11   8  16  1   
 12   8  17  1   
 13   9  11  1   
 14   9  18  1   
 15   9  19  1   
 16  10  11  1   
 17  10  12  2   
 18  11  13  1   
 19  11  14  1   
 20  13  20  1   
 21  13  21  1   
 22  13  22  1   
 23  14  23  1   
 24  14  24  1   
 25  14  25  1   
@<TRIPOS>SUBSTRUCTURE
  1 ****   5 GROUP 4 **** **** 0

# MOE 2024.06 (io_trps.svl 2023.06)
