@<TRIPOS>MOLECULE
NONAME
45 49 1 0 0 
SMALL
USER_CHARGES


@<TRIPOS>ATOM
  1 O       -0.8890    -2.0280     2.0620 O.2   1 <1>  -0.5700 
  2 C       -0.5200    -2.1380     0.9050 C.2   1 <1>   0.5440 
  3 N       -1.4120    -1.8920    -0.1070 N.am  1 <1>  -0.7300 
  4 C        0.8550    -2.5290     0.5790 C.ar  1 <1>   0.3960 
  5 C       -2.8270    -1.4910    -0.0560 C.3   1 <1>   0.3000 
  6 N        1.2220    -2.6390    -0.6850 N.ar  1 <1>  -0.6200 
  7 C        1.7700    -2.7820     1.6270 C.ar  1 <1>  -0.1500 
  8 C       -3.3220    -1.3590    -1.5080 C.3   1 <1>  -0.1600 
  9 C       -3.6740    -2.5590     0.6630 C.3   1 <1>  -0.1600 
 10 C       -2.9880    -0.1320     0.6500 C.3   1 <1>  -0.1600 
 11 C        2.4970    -3.0000    -0.9630 C.ar  1 <1>   0.3100 
 12 C        3.0550    -3.1470     1.3730 C.ar  1 <1>  -0.1500 
 13 C       -4.8050    -0.9400    -1.5330 C.3   1 <1>  -0.0800 
 14 C       -5.1590    -2.1430     0.6580 C.3   1 <1>  -0.0800 
 15 C       -4.4710     0.2910     0.6450 C.3   1 <1>  -0.0800 
 16 C        3.4580    -3.2670     0.0360 C.ar  1 <1>   0.0000 
 17 C        2.8870    -3.1170    -2.3080 C.ar  1 <1>  -0.1500 
 18 C       -5.6420    -2.0050    -0.7990 C.3   1 <1>  -0.1600 
 19 C       -4.9590     0.4120    -0.8110 C.3   1 <1>  -0.1600 
 20 C       -5.3050    -0.7840     1.3700 C.3   1 <1>  -0.1600 
 21 C        4.7620    -3.6380    -0.3450 C.ar  1 <1>  -0.1500 
 22 C        4.1610    -3.4790    -2.6590 C.ar  1 <1>  -0.1500 
 23 C        5.1090    -3.7420    -1.6650 C.ar  1 <1>  -0.1500 
 24 H       -1.0400    -2.0020    -1.0520 H     1 <1>   0.3700 
 25 H        1.4220    -2.6790     2.6400 H     1 <1>   0.1500 
 26 H       -3.2110    -2.2990    -2.0180 H     1 <1>   0.0800 
 27 H       -2.7370    -0.6210    -2.0270 H     1 <1>   0.0800 
 28 H       -3.3440    -2.6650     1.6800 H     1 <1>   0.0800 
 29 H       -3.5590    -3.5080     0.1710 H     1 <1>   0.0800 
 30 H       -2.3950     0.6120     0.1500 H     1 <1>   0.0800 
 31 H       -2.6490    -0.2040     1.6670 H     1 <1>   0.0800 
 32 H        3.7590    -3.3420     2.1640 H     1 <1>   0.1500 
 33 H       -5.1430    -0.8500    -2.5520 H     1 <1>   0.0800 
 34 H       -5.7460    -2.8870     1.1690 H     1 <1>   0.0800 
 35 H       -4.5800     1.2370     1.1470 H     1 <1>   0.0800 
 36 H        2.1470    -2.9120    -3.0590 H     1 <1>   0.1500 
 37 H       -5.5530    -2.9510    -1.3030 H     1 <1>   0.0800 
 38 H       -6.6810    -1.7240    -0.8120 H     1 <1>   0.0800 
 39 H       -5.9910     0.7170    -0.8240 H     1 <1>   0.0800 
 40 H       -4.3890     1.1670    -1.3240 H     1 <1>   0.0800 
 41 H       -4.9740    -0.8720     2.3910 H     1 <1>   0.0800 
 42 H       -6.3400    -0.4910     1.3870 H     1 <1>   0.0800 
 43 H        5.4870    -3.8390     0.4240 H     1 <1>   0.1500 
 44 H        4.4460    -3.5650    -3.6940 H     1 <1>   0.1500 
 45 H        6.1060    -4.0250    -1.9540 H     1 <1>   0.1500 
@<TRIPOS>BOND
  1   1   2  2   
  2   2   3  am  
  3   2   4  1   
  4   3   5  1   
  5   3  24  1   
  6   4   6  ar  
  7   4   7  ar  
  8   5   8  1   
  9   5   9  1   
 10   5  10  1   
 11   6  11  ar  
 12   7  12  ar  
 13   7  25  1   
 14   8  13  1   
 15   8  26  1   
 16   8  27  1   
 17   9  14  1   
 18   9  28  1   
 19   9  29  1   
 20  10  15  1   
 21  10  30  1   
 22  10  31  1   
 23  11  16  ar  
 24  11  17  ar  
 25  12  16  ar  
 26  12  32  1   
 27  13  18  1   
 28  13  19  1   
 29  13  33  1   
 30  14  18  1   
 31  14  20  1   
 32  14  34  1   
 33  15  19  1   
 34  15  20  1   
 35  15  35  1   
 36  16  21  ar  
 37  17  22  ar  
 38  17  36  1   
 39  18  37  1   
 40  18  38  1   
 41  19  39  1   
 42  19  40  1   
 43  20  41  1   
 44  20  42  1   
 45  21  23  ar  
 46  21  43  1   
 47  22  23  ar  
 48  22  44  1   
 49  23  45  1   
@<TRIPOS>SUBSTRUCTURE
  1 ****   3 GROUP 4 **** **** 0

# MOE 2024.06 (io_trps.svl 2023.06)
