@<TRIPOS>MOLECULE
NONAME
40 41 1 0 0 
SMALL
USER_CHARGES


@<TRIPOS>ATOM
  1 S       -0.0760     0.4300     0.0110 S.3   1 <1>  -0.3320 
  2 C       -1.4240    -0.7080     0.3810 C.ar  1 <1>   0.1020 
  3 C        1.4490    -0.5990    -0.1500 C.3   1 <1>   0.0700 
  4 C       -2.6810    -0.1580     0.5510 C.ar  1 <1>  -0.1500 
  5 C       -1.2250    -2.0760     0.4940 C.ar  1 <1>  -0.1500 
  6 C        2.6190     0.3340    -0.4650 C.3   1 <1>  -0.0990 
  7 C       -3.7560    -0.9820     0.8380 C.ar  1 <1>  -0.1500 
  8 C       -2.3040    -2.8950     0.7810 C.ar  1 <1>  -0.1500 
  9 C        3.9390    -0.4060    -0.6140 C.2   1 <1>   0.5690 
 10 C       -3.5660    -2.3500     0.9520 C.ar  1 <1>  -0.1500 
 11 O        3.9220    -1.6140    -0.5580 O.2   1 <1>  -0.5700 
 12 N        5.1060     0.2910    -0.8080 N.am  1 <1>  -0.6600 
 13 C        5.2080     1.7700    -0.9580 C.3   1 <1>   0.1400 
 14 C        6.4190    -0.4120    -0.8500 C.3   1 <1>   0.1400 
 15 C        6.0970     2.3350     0.1520 C.3   1 <1>  -0.1600 
 16 C        7.3260     0.1320     0.2580 C.3   1 <1>  -0.1600 
 17 C        7.4830     1.6610     0.1680 C.3   1 <1>  -0.0190 
 18 C        8.3580     2.1910     1.3010 C.2   1 <1>   0.5690 
 19 O        7.9350     2.2550     2.4260 O.2   1 <1>  -0.5700 
 20 N        9.6180     2.5870     1.0410 N.am  1 <1>  -0.8000 
 21 H        1.2850    -1.3050    -0.9450 H     1 <1>   0.0800 
 22 H        1.5980    -1.1120     0.7850 H     1 <1>   0.0800 
 23 H       -2.8140     0.9050     0.4600 H     1 <1>   0.1500 
 24 H       -0.2550    -2.5140     0.3640 H     1 <1>   0.1500 
 25 H        2.7130     1.0470     0.3340 H     1 <1>   0.0800 
 26 H        2.4110     0.8550    -1.3800 H     1 <1>   0.0800 
 27 H       -4.7370    -0.5600     0.9710 H     1 <1>   0.1500 
 28 H       -2.1620    -3.9580     0.8710 H     1 <1>   0.1500 
 29 H       -4.4020    -2.9900     1.1750 H     1 <1>   0.1500 
 30 H        4.2430     2.2410    -0.9170 H     1 <1>   0.0800 
 31 H        5.6400     1.9920    -1.9190 H     1 <1>   0.0800 
 32 H        6.8720    -0.2530    -1.8130 H     1 <1>   0.0800 
 33 H        6.2910    -1.4730    -0.7170 H     1 <1>   0.0800 
 34 H        5.6080     2.1840     1.0990 H     1 <1>   0.0800 
 35 H        6.2140     3.3950     0.0130 H     1 <1>   0.0800 
 36 H        8.2900    -0.3380     0.1900 H     1 <1>   0.0800 
 37 H        6.9020    -0.1330     1.2120 H     1 <1>   0.0800 
 38 H        7.9710     1.8900    -0.7630 H     1 <1>   0.0800 
 39 H       10.1920     2.9330     1.8100 H     1 <1>   0.3700 
 40 H       10.0570     2.5540     0.1220 H     1 <1>   0.3700 
@<TRIPOS>BOND
  1   1   2  1   
  2   1   3  1   
  3   2   4  ar  
  4   2   5  ar  
  5   3   6  1   
  6   3  21  1   
  7   3  22  1   
  8   4   7  ar  
  9   4  23  1   
 10   5   8  ar  
 11   5  24  1   
 12   6   9  1   
 13   6  25  1   
 14   6  26  1   
 15   7  10  ar  
 16   7  27  1   
 17   8  10  ar  
 18   8  28  1   
 19   9  11  2   
 20   9  12  am  
 21  10  29  1   
 22  12  13  1   
 23  12  14  1   
 24  13  15  1   
 25  13  30  1   
 26  13  31  1   
 27  14  16  1   
 28  14  32  1   
 29  14  33  1   
 30  15  17  1   
 31  15  34  1   
 32  15  35  1   
 33  16  17  1   
 34  16  36  1   
 35  16  37  1   
 36  17  18  1   
 37  17  38  1   
 38  18  19  2   
 39  18  20  am  
 40  20  39  1   
 41  20  40  1   
@<TRIPOS>SUBSTRUCTURE
  1 ****   6 GROUP 4 **** **** 0

# MOE 2024.06 (io_trps.svl 2023.06)
