@<TRIPOS>MOLECULE
NONAME
52 56 1 0 0 
SMALL
USER_CHARGES


@<TRIPOS>ATOM
  1 O        0.9320    -0.8700     2.1710 O.2   1 <1>  -0.5700 
  2 C        1.3350    -1.5660     1.2580 C.2   1 <1>   0.7160 
  3 N        2.5140    -1.2340     0.6190 N.am  1 <1>  -0.6600 
  4 C        0.5690    -2.7170     0.8630 C.2   1 <1>  -0.0860 
  5 C        3.0620    -1.9740    -0.5540 C.3   1 <1>   0.1400 
  6 C        3.3190    -0.0470     1.0250 C.3   1 <1>   0.1400 
  7 C       -0.6960    -2.7040     0.2510 C.2   1 <1>   0.2350 
  8 C        0.8590    -4.0380     0.9920 C.2   1 <1>  -0.3020 
  9 C        3.2070    -1.0260    -1.7500 C.3   1 <1>  -0.1600 
 10 C        3.4480     0.9170    -0.1590 C.3   1 <1>  -0.1600 
 11 N       -1.1210    -3.9200     0.0320 N.2   1 <1>  -0.7070 
 12 C       -1.4640    -1.5280    -0.1080 C.ar  1 <1>   0.0540 
 13 N       -0.1630    -4.7550     0.4900 N.pl3 1 <1>   0.5930 
 14 C        4.0310     0.2190    -1.3950 C.3   1 <1>  -0.1600 
 15 C       -2.8460    -1.5120     0.0830 C.ar  1 <1>  -0.1500 
 16 C       -0.8760    -0.3890    -0.6630 C.ar  1 <1>  -0.1500 
 17 C       -0.2690    -6.1770     0.4320 C.ar  1 <1>  -0.0230 
 18 C       -3.6060    -0.4070    -0.2510 C.ar  1 <1>   0.0820 
 19 C       -1.6250     0.7260    -0.9960 C.ar  1 <1>  -0.1500 
 20 C       -1.5170    -6.7960     0.4820 C.ar  1 <1>  -0.1500 
 21 C        0.8630    -6.9840     0.3250 C.ar  1 <1>  -0.1500 
 22 O       -4.9500    -0.4490    -0.0560 O.3   1 <1>  -0.3630 
 23 C       -2.9910     0.7260    -0.7850 C.ar  1 <1>   0.0820 
 24 C       -1.6310    -8.1740     0.4340 C.ar  1 <1>  -0.1500 
 25 C        0.7500    -8.3630     0.2780 C.ar  1 <1>  -0.1500 
 26 C       -5.7200     0.5500    -0.6990 C.3   1 <1>   0.1200 
 27 O       -3.7080     1.8340    -1.1010 O.3   1 <1>  -0.3630 
 28 C       -0.4970    -8.9590     0.3330 C.ar  1 <1>  -0.1500 
 29 C       -5.0230     1.9130    -0.5850 C.3   1 <1>   0.1200 
 30 H        2.4260    -2.7950    -0.8320 H     1 <1>   0.0800 
 31 H        4.0260    -2.3740    -0.2900 H     1 <1>   0.0800 
 32 H        4.2950    -0.3770     1.3360 H     1 <1>   0.0800 
 33 H        2.8630     0.4650     1.8560 H     1 <1>   0.0800 
 34 H        1.7290    -4.4910     1.4270 H     1 <1>   0.1500 
 35 H        2.2280    -0.7300    -2.0830 H     1 <1>   0.0800 
 36 H        3.6800    -1.5500    -2.5610 H     1 <1>   0.0800 
 37 H        4.0800     1.7410     0.1230 H     1 <1>   0.0800 
 38 H        2.4750     1.3160    -0.3870 H     1 <1>   0.0800 
 39 H        4.0390     0.9010    -2.2280 H     1 <1>   0.0800 
 40 H        5.0490    -0.0710    -1.1940 H     1 <1>   0.0800 
 41 H       -3.3310    -2.3770     0.4960 H     1 <1>   0.1500 
 42 H        0.1830    -0.3690    -0.8400 H     1 <1>   0.1500 
 43 H       -1.1570     1.5980    -1.4150 H     1 <1>   0.1500 
 44 H       -2.4060    -6.1920     0.5570 H     1 <1>   0.1500 
 45 H        1.8410    -6.5420     0.2730 H     1 <1>   0.1500 
 46 H       -2.6040    -8.6340     0.4740 H     1 <1>   0.1500 
 47 H        1.6320    -8.9740     0.1960 H     1 <1>   0.1500 
 48 H       -6.6870     0.5740    -0.2310 H     1 <1>   0.0800 
 49 H       -5.8310     0.2720    -1.7320 H     1 <1>   0.0800 
 50 H       -0.5860   -10.0320     0.2960 H     1 <1>   0.1500 
 51 H       -4.9590     2.2150     0.4450 H     1 <1>   0.0800 
 52 H       -5.5540     2.6620    -1.1430 H     1 <1>   0.0800 
@<TRIPOS>BOND
  1   1   2  2   
  2   2   3  am  
  3   2   4  1   
  4   3   5  1   
  5   3   6  1   
  6   4   7  1   
  7   4   8  2   
  8   5   9  1   
  9   5  30  1   
 10   5  31  1   
 11   6  10  1   
 12   6  32  1   
 13   6  33  1   
 14   7  11  2   
 15   7  12  1   
 16   8  13  1   
 17   8  34  1   
 18   9  14  1   
 19   9  35  1   
 20   9  36  1   
 21  10  14  1   
 22  10  37  1   
 23  10  38  1   
 24  11  13  1   
 25  12  15  ar  
 26  12  16  ar  
 27  13  17  1   
 28  14  39  1   
 29  14  40  1   
 30  15  18  ar  
 31  15  41  1   
 32  16  19  ar  
 33  16  42  1   
 34  17  20  ar  
 35  17  21  ar  
 36  18  22  1   
 37  18  23  ar  
 38  19  23  ar  
 39  19  43  1   
 40  20  24  ar  
 41  20  44  1   
 42  21  25  ar  
 43  21  45  1   
 44  22  26  1   
 45  23  27  1   
 46  24  28  ar  
 47  24  46  1   
 48  25  28  ar  
 49  25  47  1   
 50  26  29  1   
 51  26  48  1   
 52  26  49  1   
 53  27  29  1   
 54  28  50  1   
 55  29  51  1   
 56  29  52  1   
@<TRIPOS>SUBSTRUCTURE
  1 ****   7 GROUP 4 **** **** 0

# MOE 2024.06 (io_trps.svl 2023.06)
