@<TRIPOS>MOLECULE
NONAME
34 35 1 0 0 
SMALL
USER_CHARGES


@<TRIPOS>ATOM
  1 I        2.3200     1.5260    -0.2180 I     1 <1>  -0.0810 
  2 C        3.4060    -0.2920    -0.4540 C.ar  1 <1>   0.0810 
  3 C        4.5330    -0.4970     0.3200 C.ar  1 <1>  -0.1500 
  4 C        2.9570    -1.2200    -1.3750 C.ar  1 <1>  -0.1500 
  5 C        5.2320    -1.6810     0.1610 C.ar  1 <1>  -0.1500 
  6 C        3.6690    -2.3980    -1.5190 C.ar  1 <1>  -0.1500 
  7 C        4.8060    -2.6440    -0.7540 C.ar  1 <1>   0.1990 
  8 N        5.4890    -3.8440    -0.9240 N.am  1 <1>  -0.6930 
  9 S        5.7820    -4.9360     0.3840 S.o2  1 <1>   1.3330 
 10 C        6.4460    -3.9310    -2.0750 C.3   1 <1>   0.2570 
 11 O        6.7040    -4.2630     1.2670 O.2   1 <1>  -0.6500 
 12 O        6.1460    -6.1940    -0.2160 O.2   1 <1>  -0.6500 
 13 C        4.1790    -5.0980     1.1410 C.3   1 <1>  -0.1350 
 14 C        7.7300    -3.1070    -1.9190 C.2   1 <1>   0.5690 
 15 O        8.1810    -2.5740    -2.9070 O.2   1 <1>  -0.5700 
 16 N        8.3320    -2.9930    -0.7010 N.am  1 <1>  -0.5790 
 17 C        9.5460    -2.2250    -0.4040 C.3   1 <1>   0.0490 
 18 C       10.4590    -2.7480     0.6530 C.3   1 <1>  -0.2000 
 19 C        9.6220    -1.5320     0.9150 C.3   1 <1>  -0.2000 
 20 H        4.8600     0.2480     1.0240 H     1 <1>   0.1500 
 21 H        2.0770    -1.0260    -1.9640 H     1 <1>   0.1500 
 22 H        6.1170    -1.8500     0.7470 H     1 <1>   0.1500 
 23 H        3.3430    -3.1370    -2.2280 H     1 <1>   0.1500 
 24 H        5.9450    -3.5870    -2.9610 H     1 <1>   0.0800 
 25 H        6.7230    -4.9550    -2.2480 H     1 <1>   0.0800 
 26 H        3.8400    -4.1480     1.5050 H     1 <1>   0.0800 
 27 H        4.2300    -5.7820     1.9650 H     1 <1>   0.0800 
 28 H        3.4690    -5.4700     0.4290 H     1 <1>   0.0800 
 29 H        7.9040    -3.4440     0.1200 H     1 <1>   0.3700 
 30 H        9.9740    -1.7450    -1.2710 H     1 <1>   0.1000 
 31 H       11.5190    -2.6200     0.5280 H     1 <1>   0.1000 
 32 H       10.2060    -3.6730     1.1430 H     1 <1>   0.1000 
 33 H        8.7910    -1.6120     1.5950 H     1 <1>   0.1000 
 34 H       10.1140    -0.5780     0.9690 H     1 <1>   0.1000 
@<TRIPOS>BOND
  1   1   2  1   
  2   2   3  ar  
  3   2   4  ar  
  4   3   5  ar  
  5   3  20  1   
  6   4   6  ar  
  7   4  21  1   
  8   5   7  ar  
  9   5  22  1   
 10   6   7  ar  
 11   6  23  1   
 12   7   8  1   
 13   8   9  am  
 14   8  10  1   
 15   9  11  2   
 16   9  12  2   
 17   9  13  1   
 18  10  14  1   
 19  10  24  1   
 20  10  25  1   
 21  13  26  1   
 22  13  27  1   
 23  13  28  1   
 24  14  15  2   
 25  14  16  am  
 26  16  17  1   
 27  16  29  1   
 28  17  18  1   
 29  17  19  1   
 30  17  30  1   
 31  18  19  1   
 32  18  31  1   
 33  18  32  1   
 34  19  33  1   
 35  19  34  1   
@<TRIPOS>SUBSTRUCTURE
  1 ****   7 GROUP 4 **** **** 0

# MOE 2024.06 (io_trps.svl 2023.06)
