@<TRIPOS>MOLECULE
NONAME
29 29 1 0 0 
SMALL
USER_CHARGES


@<TRIPOS>ATOM
  1 I       -0.2090     0.4520     0.1430 I     1 <1>  -0.0810 
  2 C        1.5750    -0.6920    -0.0050 C.ar  1 <1>   0.0810 
  3 C        2.7890    -0.0330    -0.0340 C.ar  1 <1>  -0.1500 
  4 C        1.4820    -2.0680    -0.0710 C.ar  1 <1>  -0.1500 
  5 C        3.9460    -0.7860    -0.1300 C.ar  1 <1>  -0.1500 
  6 C        2.6510    -2.8020    -0.1650 C.ar  1 <1>  -0.1500 
  7 C        3.9060    -2.1850    -0.1900 C.ar  1 <1>   0.0860 
  8 C        5.1180    -2.9810    -0.2770 C.2   1 <1>   0.5440 
  9 O        5.1110    -4.0690    -0.8200 O.2   1 <1>  -0.5700 
 10 N        6.2900    -2.5320     0.2670 N.am  1 <1>  -0.7300 
 11 C        7.5820    -3.2450     0.2000 C.3   1 <1>   0.1400 
 12 C        8.7130    -2.2230     0.1130 C.3   1 <1>  -0.1600 
 13 C       10.0640    -2.9230     0.0010 C.3   1 <1>   0.1200 
 14 O       11.0440    -1.9400    -0.0270 O.3   1 <1>  -0.5600 
 15 C       12.3380    -2.4340    -0.1500 C.3   1 <1>   0.0400 
 16 H        2.8290     1.0420     0.0120 H     1 <1>   0.1500 
 17 H        0.5230    -2.5560    -0.0510 H     1 <1>   0.1500 
 18 H        4.8940    -0.2810    -0.1680 H     1 <1>   0.1500 
 19 H        2.6010    -3.8770    -0.2220 H     1 <1>   0.1500 
 20 H        6.2830    -1.6900     0.8420 H     1 <1>   0.3700 
 21 H        7.5970    -3.8870    -0.6670 H     1 <1>   0.0800 
 22 H        7.6940    -3.8560     1.0790 H     1 <1>   0.0800 
 23 H        8.7120    -1.6100     0.9960 H     1 <1>   0.0800 
 24 H        8.5700    -1.6050    -0.7550 H     1 <1>   0.0800 
 25 H       10.1220    -3.4960    -0.9090 H     1 <1>   0.0800 
 26 H       10.2390    -3.5590     0.8520 H     1 <1>   0.0800 
 27 H       13.0150    -1.5980    -0.1600 H     1 <1>   0.0800 
 28 H       12.4240    -2.9810    -1.0730 H     1 <1>   0.0800 
 29 H       12.5580    -3.0690     0.6910 H     1 <1>   0.0800 
@<TRIPOS>BOND
  1   1   2  1   
  2   2   3  ar  
  3   2   4  ar  
  4   3   5  ar  
  5   3  16  1   
  6   4   6  ar  
  7   4  17  1   
  8   5   7  ar  
  9   5  18  1   
 10   6   7  ar  
 11   6  19  1   
 12   7   8  1   
 13   8   9  2   
 14   8  10  am  
 15  10  11  1   
 16  10  20  1   
 17  11  12  1   
 18  11  21  1   
 19  11  22  1   
 20  12  13  1   
 21  12  23  1   
 22  12  24  1   
 23  13  14  1   
 24  13  25  1   
 25  13  26  1   
 26  14  15  1   
 27  15  27  1   
 28  15  28  1   
 29  15  29  1   
@<TRIPOS>SUBSTRUCTURE
  1 ****  10 GROUP 4 **** **** 0

# MOE 2024.06 (io_trps.svl 2023.06)
