@<TRIPOS>MOLECULE
NONAME
46 48 1 0 0 
SMALL
USER_CHARGES


@<TRIPOS>ATOM
  1 CL       1.0810    -0.3010    -1.7820 Cl    1 <1>  -0.1770 
  2 C        2.3640    -0.7820    -0.6920 C.ar  1 <1>   0.1770 
  3 C        3.1870     0.1670    -0.1010 C.ar  1 <1>  -0.1440 
  4 C        2.5170    -2.1360    -0.4540 C.ar  1 <1>  -0.1500 
  5 C        4.2190    -0.2750     0.7330 C.ar  1 <1>   0.1000 
  6 C        2.9450     1.6540    -0.3540 C.3   1 <1>  -0.0960 
  7 C        3.5190    -2.5650     0.3970 C.ar  1 <1>  -0.1500 
  8 N        5.1300     0.5950     1.3240 N.pl3 1 <1>  -0.8690 
  9 C        4.3580    -1.6370     0.9840 C.ar  1 <1>  -0.1500 
 10 C        6.1810     1.1450     0.4620 C.3   1 <1>   0.2890 
 11 C        7.4060     0.2370     0.5170 C.3   1 <1>  -0.1600 
 12 C        6.5200     2.5500     0.9500 C.3   1 <1>  -0.1600 
 13 C        8.5550     0.8440    -0.2810 C.3   1 <1>   0.3430 
 14 C        7.6800     3.1310     0.1490 C.3   1 <1>   0.3430 
 15 N        8.8560     2.2180     0.2260 N.4   1 <1>  -0.9590 
 16 C       10.0450     2.8020    -0.4550 C.3   1 <1>   0.4860 
 17 C       11.2550     1.9540    -0.1210 C.ar  1 <1>  -0.1430 
 18 C       11.8280     2.0180     1.1420 C.ar  1 <1>  -0.1500 
 19 C       11.7950     1.1010    -1.0730 C.ar  1 <1>  -0.1500 
 20 C       12.9200     1.2260     1.4520 C.ar  1 <1>  -0.1500 
 21 C       12.8880     0.3110    -0.7610 C.ar  1 <1>  -0.1500 
 22 C       13.4480     0.3720     0.5020 C.ar  1 <1>  -0.1500 
 23 H        1.8560    -2.8390    -0.9280 H     1 <1>   0.1500 
 24 H        1.8920     1.8610    -0.4140 H     1 <1>   0.0800 
 25 H        3.4090     1.9510    -1.2760 H     1 <1>   0.0800 
 26 H        3.3360     2.2500     0.4490 H     1 <1>   0.0800 
 27 H        3.6420    -3.6150     0.5980 H     1 <1>   0.1500 
 28 H        5.4980     0.2410     2.2130 H     1 <1>   0.4000 
 29 H        5.1340    -1.9770     1.6430 H     1 <1>   0.1500 
 30 H        5.8170     1.1960    -0.5520 H     1 <1>   0.0800 
 31 H        7.1570    -0.7190     0.0930 H     1 <1>   0.0800 
 32 H        7.7190     0.0840     1.5350 H     1 <1>   0.0800 
 33 H        6.7750     2.5320     1.9950 H     1 <1>   0.0800 
 34 H        5.6590     3.1820     0.8290 H     1 <1>   0.0800 
 35 H        8.2860     0.8890    -1.3240 H     1 <1>   0.0800 
 36 H        9.4260     0.2130    -0.1840 H     1 <1>   0.0800 
 37 H        7.9360     4.1020     0.5450 H     1 <1>   0.0800 
 38 H        7.3790     3.2540    -0.8790 H     1 <1>   0.0800 
 39 H        9.1250     2.1130     1.2130 H     1 <1>   0.4500 
 40 H       10.2150     3.8100    -0.1110 H     1 <1>   0.0800 
 41 H        9.8930     2.8260    -1.5220 H     1 <1>   0.0800 
 42 H       11.4420     2.6810     1.8980 H     1 <1>   0.1500 
 43 H       11.3820     1.0400    -2.0660 H     1 <1>   0.1500 
 44 H       13.3660     1.2750     2.4320 H     1 <1>   0.1500 
 45 H       13.3080    -0.3510    -1.5000 H     1 <1>   0.1500 
 46 H       14.3000    -0.2420     0.7430 H     1 <1>   0.1500 
@<TRIPOS>BOND
  1   1   2  1   
  2   2   3  ar  
  3   2   4  ar  
  4   3   5  ar  
  5   3   6  1   
  6   4   7  ar  
  7   4  23  1   
  8   5   8  1   
  9   5   9  ar  
 10   6  24  1   
 11   6  25  1   
 12   6  26  1   
 13   7   9  ar  
 14   7  27  1   
 15   8  10  1   
 16   8  28  1   
 17   9  29  1   
 18  10  11  1   
 19  10  12  1   
 20  10  30  1   
 21  11  13  1   
 22  11  31  1   
 23  11  32  1   
 24  12  14  1   
 25  12  33  1   
 26  12  34  1   
 27  13  15  1   
 28  13  35  1   
 29  13  36  1   
 30  14  15  1   
 31  14  37  1   
 32  14  38  1   
 33  15  16  1   
 34  15  39  1   
 35  16  17  1   
 36  16  40  1   
 37  16  41  1   
 38  17  18  ar  
 39  17  19  ar  
 40  18  20  ar  
 41  18  42  1   
 42  19  21  ar  
 43  19  43  1   
 44  20  22  ar  
 45  20  44  1   
 46  21  22  ar  
 47  21  45  1   
 48  22  46  1   
@<TRIPOS>SUBSTRUCTURE
  1 ****  11 GROUP 4 **** **** 0

# MOE 2024.06 (io_trps.svl 2023.06)
