@<TRIPOS>MOLECULE
NONAME
36 37 1 0 0 
SMALL
USER_CHARGES


@<TRIPOS>ATOM
  1 BR      -0.1440     0.4940     0.5500 Br    1 <1>  -0.1110 
  2 C       -1.1740    -1.1290     0.5940 C.ar  1 <1>   0.1110 
  3 C       -2.2140    -1.2830    -0.2990 C.ar  1 <1>  -0.1500 
  4 C       -0.8500    -2.0980     1.5180 C.ar  1 <1>  -0.1500 
  5 C       -2.9810    -2.4440    -0.2900 C.ar  1 <1>  -0.0090 
  6 C       -1.6000    -3.2580     1.5360 C.ar  1 <1>  -0.1500 
  7 S       -4.3580    -2.5930    -1.4780 S.o2  1 <1>   1.4470 
  8 C       -2.6530    -3.4370     0.6450 C.ar  1 <1>  -0.1430 
  9 O       -4.2020    -3.8130    -2.2410 O.2   1 <1>  -0.6500 
 10 O       -4.5240    -1.3450    -2.1930 O.2   1 <1>  -0.6500 
 11 N       -5.7380    -2.7600    -0.5010 N.am  1 <1>  -0.8490 
 12 C       -3.4320    -4.7450     0.7240 C.3   1 <1>  -0.0970 
 13 C       -5.9950    -1.5370     0.2660 C.3   1 <1>   0.1960 
 14 C       -6.8990    -3.1940    -1.2870 C.3   1 <1>   0.1960 
 15 C       -7.0600    -1.7150     1.3550 C.3   1 <1>  -0.1600 
 16 C       -7.8780    -3.9730    -0.4030 C.3   1 <1>  -0.1600 
 17 C       -8.4910    -1.7450     0.8010 C.3   1 <1>  -0.1600 
 18 C       -8.9460    -3.1240     0.3050 C.3   1 <1>  -0.1600 
 19 H       -2.4220    -0.4950    -1.0010 H     1 <1>   0.1500 
 20 H       -0.0330    -1.9490     2.2020 H     1 <1>   0.1500 
 21 H       -1.3560    -4.0250     2.2520 H     1 <1>   0.1500 
 22 H       -4.4530    -4.5590     1.0070 H     1 <1>   0.0800 
 23 H       -3.0030    -5.4100     1.4510 H     1 <1>   0.0800 
 24 H       -3.4200    -5.2490    -0.2270 H     1 <1>   0.0800 
 25 H       -6.2780    -0.7360    -0.3990 H     1 <1>   0.0800 
 26 H       -5.0850    -1.2380     0.7580 H     1 <1>   0.0800 
 27 H       -6.5790    -3.8710    -2.0610 H     1 <1>   0.0800 
 28 H       -7.3760    -2.3580    -1.7710 H     1 <1>   0.0800 
 29 H       -6.9850    -0.8640     2.0090 H     1 <1>   0.0800 
 30 H       -6.8490    -2.5890     1.9470 H     1 <1>   0.0800 
 31 H       -7.3150    -4.5340     0.3230 H     1 <1>   0.0800 
 32 H       -8.3890    -4.6910    -1.0190 H     1 <1>   0.0800 
 33 H       -8.5780    -1.0300     0.0010 H     1 <1>   0.0800 
 34 H       -9.1710    -1.4310     1.5740 H     1 <1>   0.0800 
 35 H       -9.3140    -3.6910     1.1440 H     1 <1>   0.0800 
 36 H       -9.7780    -2.9790    -0.3630 H     1 <1>   0.0800 
@<TRIPOS>BOND
  1   1   2  1   
  2   2   3  ar  
  3   2   4  ar  
  4   3   5  ar  
  5   3  19  1   
  6   4   6  ar  
  7   4  20  1   
  8   5   7  1   
  9   5   8  ar  
 10   6   8  ar  
 11   6  21  1   
 12   7   9  2   
 13   7  10  2   
 14   7  11  am  
 15   8  12  1   
 16  11  13  1   
 17  11  14  1   
 18  12  22  1   
 19  12  23  1   
 20  12  24  1   
 21  13  15  1   
 22  13  25  1   
 23  13  26  1   
 24  14  16  1   
 25  14  27  1   
 26  14  28  1   
 27  15  17  1   
 28  15  29  1   
 29  15  30  1   
 30  16  18  1   
 31  16  31  1   
 32  16  32  1   
 33  17  18  1   
 34  17  33  1   
 35  17  34  1   
 36  18  35  1   
 37  18  36  1   
@<TRIPOS>SUBSTRUCTURE
  1 ****   5 GROUP 4 **** **** 0

# MOE 2024.06 (io_trps.svl 2023.06)
