@<TRIPOS>MOLECULE
NONAME
36 36 1 0 0 
SMALL
USER_CHARGES


@<TRIPOS>ATOM
  1 O        0.1150     0.6370     1.0240 O.3   1 <1>  -0.6800 
  2 C       -0.4770     1.7550     0.4930 C.3   1 <1>   0.4800 
  3 C        0.6270     2.5300    -0.1410 C.1   1 <1>  -0.2000 
  4 C       -1.5090     1.3080    -0.5570 C.3   1 <1>  -0.1600 
  5 C       -1.0830     2.5390     1.6550 C.3   1 <1>  -0.2400 
  6 C        1.5940     3.0440    -0.6040 C.1   1 <1>  -0.2000 
  7 C       -2.6200     0.3640    -0.0560 C.3   1 <1>  -0.2400 
  8 C        2.9150     3.5080    -1.0920 C.3   1 <1>   0.5430 
  9 N        3.9420     2.8350    -0.2570 N.4   1 <1>  -0.9590 
 10 C        5.2900     3.4360    -0.4440 C.3   1 <1>   0.3430 
 11 C        3.9400     1.3520    -0.4620 C.3   1 <1>   0.3430 
 12 C        6.2730     2.8130     0.5500 C.3   1 <1>  -0.1600 
 13 C        4.9050     0.6960     0.5270 C.3   1 <1>  -0.1600 
 14 C        6.3180     1.2850     0.4250 C.3   1 <1>  -0.1600 
 15 H       -0.5860     0.0740     1.3970 H     1 <1>   0.4000 
 16 H       -0.9860     0.8260    -1.3650 H     1 <1>   0.0800 
 17 H       -1.9710     2.1880    -0.9690 H     1 <1>   0.0800 
 18 H       -0.3110     2.8440     2.3380 H     1 <1>   0.0800 
 19 H       -1.8060     1.9500     2.1870 H     1 <1>   0.0800 
 20 H       -1.5700     3.4210     1.2820 H     1 <1>   0.0800 
 21 H       -2.2070    -0.5530     0.3250 H     1 <1>   0.0800 
 22 H       -3.2750     0.1160    -0.8740 H     1 <1>   0.0800 
 23 H       -3.2120     0.8310     0.7100 H     1 <1>   0.0800 
 24 H        2.9820     4.5780    -0.9830 H     1 <1>   0.0800 
 25 H        3.0410     3.2510    -2.1310 H     1 <1>   0.0800 
 26 H        3.6470     2.9850     0.7160 H     1 <1>   0.4500 
 27 H        5.2490     4.5020    -0.2840 H     1 <1>   0.0800 
 28 H        5.6350     3.2540    -1.4490 H     1 <1>   0.0800 
 29 H        4.2440     1.1200    -1.4700 H     1 <1>   0.0800 
 30 H        2.9490     0.9530    -0.3060 H     1 <1>   0.0800 
 31 H        5.9920     3.0910     1.5520 H     1 <1>   0.0800 
 32 H        7.2560     3.2130     0.3710 H     1 <1>   0.0800 
 33 H        4.9430    -0.3610     0.3300 H     1 <1>   0.0800 
 34 H        4.5240     0.8200     1.5270 H     1 <1>   0.0800 
 35 H        6.9420     0.8720     1.2010 H     1 <1>   0.0800 
 36 H        6.7520     1.0130    -0.5230 H     1 <1>   0.0800 
@<TRIPOS>BOND
  1   1   2  1   
  2   1  15  1   
  3   2   3  1   
  4   2   4  1   
  5   2   5  1   
  6   3   6  3   
  7   4   7  1   
  8   4  16  1   
  9   4  17  1   
 10   5  18  1   
 11   5  19  1   
 12   5  20  1   
 13   6   8  1   
 14   7  21  1   
 15   7  22  1   
 16   7  23  1   
 17   8   9  1   
 18   8  24  1   
 19   8  25  1   
 20   9  10  1   
 21   9  11  1   
 22   9  26  1   
 23  10  12  1   
 24  10  27  1   
 25  10  28  1   
 26  11  13  1   
 27  11  29  1   
 28  11  30  1   
 29  12  14  1   
 30  12  31  1   
 31  12  32  1   
 32  13  14  1   
 33  13  33  1   
 34  13  34  1   
 35  14  35  1   
 36  14  36  1   
@<TRIPOS>SUBSTRUCTURE
  1 ****   6 GROUP 4 **** **** 0

# MOE 2024.06 (io_trps.svl 2023.06)
