@<TRIPOS>MOLECULE
NONAME
28 28 1 0 0 
SMALL
USER_CHARGES


@<TRIPOS>ATOM
  1 BR      -0.1580     0.3270    -0.3360 Br    1 <1>  -0.1110 
  2 C       -0.4450    -1.5590    -0.0850 C.ar  1 <1>   0.1110 
  3 C       -1.4060    -2.1900    -0.8510 C.ar  1 <1>  -0.1500 
  4 C        0.3160    -2.2310     0.8510 C.ar  1 <1>  -0.1500 
  5 C       -1.6180    -3.5500    -0.6700 C.ar  1 <1>  -0.1440 
  6 C        0.1040    -3.5870     1.0290 C.ar  1 <1>  -0.1500 
  7 C       -0.8620    -4.2510     0.2710 C.ar  1 <1>   0.0830 
  8 C       -2.6660    -4.2680    -1.4980 C.3   1 <1>   0.4870 
  9 O       -1.1190    -5.5810     0.4100 O.3   1 <1>  -0.3630 
 10 N       -3.6690    -4.8560    -0.5800 N.4   1 <1>  -0.9060 
 11 C       -0.2490    -6.4170     1.1510 C.3   1 <1>   0.0400 
 12 C       -4.4480    -3.8490     0.1690 C.3   1 <1>   0.3430 
 13 C       -5.3690    -4.5840     1.1300 C.3   1 <1>  -0.2400 
 14 H       -1.9610    -1.6120    -1.5690 H     1 <1>   0.1500 
 15 H        1.0560    -1.7020     1.4260 H     1 <1>   0.1500 
 16 H        0.6990    -4.1010     1.7610 H     1 <1>   0.1500 
 17 H       -2.1860    -5.0500    -2.0650 H     1 <1>   0.0800 
 18 H       -3.1380    -3.5840    -2.1830 H     1 <1>   0.0800 
 19 H       -3.1090    -5.4050     0.0930 H     1 <1>   0.4500 
 20 H       -4.2850    -5.5050    -1.0770 H     1 <1>   0.4500 
 21 H       -0.5810    -7.4340     1.0430 H     1 <1>   0.0800 
 22 H       -0.2850    -6.1330     2.1890 H     1 <1>   0.0800 
 23 H        0.7500    -6.3190     0.7630 H     1 <1>   0.0800 
 24 H       -5.0300    -3.2450    -0.5090 H     1 <1>   0.0800 
 25 H       -3.7850    -3.2030     0.7240 H     1 <1>   0.0800 
 26 H       -6.0580    -5.2170     0.5970 H     1 <1>   0.0800 
 27 H       -5.9430    -3.8660     1.6890 H     1 <1>   0.0800 
 28 H       -4.8020    -5.1720     1.8300 H     1 <1>   0.0800 
@<TRIPOS>BOND
  1   1   2  1   
  2   2   3  ar  
  3   2   4  ar  
  4   3   5  ar  
  5   3  14  1   
  6   4   6  ar  
  7   4  15  1   
  8   5   7  ar  
  9   5   8  1   
 10   6   7  ar  
 11   6  16  1   
 12   7   9  1   
 13   8  10  1   
 14   8  17  1   
 15   8  18  1   
 16   9  11  1   
 17  10  12  1   
 18  10  19  1   
 19  10  20  1   
 20  11  21  1   
 21  11  22  1   
 22  11  23  1   
 23  12  13  1   
 24  12  24  1   
 25  12  25  1   
 26  13  26  1   
 27  13  27  1   
 28  13  28  1   
@<TRIPOS>SUBSTRUCTURE
  1 ****   5 GROUP 4 **** **** 0

# MOE 2024.06 (io_trps.svl 2023.06)
