@<TRIPOS>MOLECULE
NONAME
43 44 1 0 0 
SMALL
USER_CHARGES


@<TRIPOS>ATOM
  1 S       -0.0050     0.1120     0.8720 S.3   1 <1>  -0.3710 
  2 C        1.5020     1.0460     1.1510 C.2   1 <1>   0.6510 
  3 C       -0.8260     0.8610    -0.5820 C.3   1 <1>   0.0700 
  4 N        2.2530     0.5910     2.0790 N.2   1 <1>  -0.6210 
  5 N        1.7510     2.1580     0.3670 N.am  1 <1>  -0.4200 
  6 C       -0.6240     2.3630    -0.4860 C.3   1 <1>  -0.1600 
  7 C        3.4340     1.2340     2.3290 C.2   1 <1>   0.0210 
  8 C        2.9730     2.7910     0.5700 C.2   1 <1>   0.6160 
  9 C        0.8480     2.7180    -0.6770 C.3   1 <1>   0.1400 
 10 O        4.1260     0.7740     3.2440 O.3   1 <1>  -0.8500 
 11 C        3.8180     2.3340     1.5740 C.2   1 <1>  -0.1240 
 12 O        3.2620     3.7530    -0.1730 O.2   1 <1>  -0.5700 
 13 C        5.1560     3.0160     1.8470 C.3   1 <1>  -0.0220 
 14 C        6.2580     2.4000     0.9780 C.3   1 <1>  -0.1600 
 15 C        7.6160     3.0670     1.2320 C.3   1 <1>  -0.1600 
 16 C        8.7100     2.4350     0.3620 C.3   1 <1>  -0.1600 
 17 C       10.0700     3.0980     0.6150 C.3   1 <1>  -0.1600 
 18 C       11.1640     2.4640    -0.2530 C.3   1 <1>  -0.1600 
 19 C       12.5230     3.1260    -0.0010 C.3   1 <1>  -0.1600 
 20 C       13.6140     2.4910    -0.8680 C.3   1 <1>  -0.2400 
 21 H       -1.8650     0.5910    -0.5300 H     1 <1>   0.0800 
 22 H       -0.3720     0.4410    -1.4620 H     1 <1>   0.0800 
 23 H       -0.9750     2.7320     0.4620 H     1 <1>   0.0800 
 24 H       -1.1960     2.8410    -1.2600 H     1 <1>   0.0800 
 25 H        1.1900     2.3750    -1.6380 H     1 <1>   0.0800 
 26 H        0.9270     3.7920    -0.6670 H     1 <1>   0.0800 
 27 H        5.4060     2.8930     2.8860 H     1 <1>   0.0800 
 28 H        5.0740     4.0700     1.6520 H     1 <1>   0.0800 
 29 H        5.9870     2.5010    -0.0580 H     1 <1>   0.0800 
 30 H        6.3170     1.3490     1.2100 H     1 <1>   0.0800 
 31 H        7.8730     2.9530     2.2710 H     1 <1>   0.0800 
 32 H        7.5430     4.1180     1.0140 H     1 <1>   0.0800 
 33 H        8.4450     2.5410    -0.6760 H     1 <1>   0.0800 
 34 H        8.7750     1.3840     0.5860 H     1 <1>   0.0800 
 35 H       10.3290     2.9900     1.6550 H     1 <1>   0.0800 
 36 H       10.0000     4.1490     0.3940 H     1 <1>   0.0800 
 37 H       10.9010     2.5690    -1.2920 H     1 <1>   0.0800 
 38 H       11.2310     1.4130    -0.0300 H     1 <1>   0.0800 
 39 H       12.7900     3.0210     1.0370 H     1 <1>   0.0800 
 40 H       12.4600     4.1770    -0.2250 H     1 <1>   0.0800 
 41 H       13.7090     1.4430    -0.6440 H     1 <1>   0.0800 
 42 H       14.5590     2.9680    -0.6770 H     1 <1>   0.0800 
 43 H       13.3780     2.6040    -1.9110 H     1 <1>   0.0800 
@<TRIPOS>BOND
  1   1   2  1   
  2   1   3  1   
  3   2   4  2   
  4   2   5  1   
  5   3   6  1   
  6   3  21  1   
  7   3  22  1   
  8   4   7  1   
  9   5   8  am  
 10   5   9  1   
 11   6   9  1   
 12   6  23  1   
 13   6  24  1   
 14   7  10  1   
 15   7  11  2   
 16   8  11  1   
 17   8  12  2   
 18   9  25  1   
 19   9  26  1   
 20  11  13  1   
 21  13  14  1   
 22  13  27  1   
 23  13  28  1   
 24  14  15  1   
 25  14  29  1   
 26  14  30  1   
 27  15  16  1   
 28  15  31  1   
 29  15  32  1   
 30  16  17  1   
 31  16  33  1   
 32  16  34  1   
 33  17  18  1   
 34  17  35  1   
 35  17  36  1   
 36  18  19  1   
 37  18  37  1   
 38  18  38  1   
 39  19  20  1   
 40  19  39  1   
 41  19  40  1   
 42  20  41  1   
 43  20  42  1   
 44  20  43  1   
@<TRIPOS>SUBSTRUCTURE
  1 ****  11 GROUP 4 **** **** 0

# MOE 2024.06 (io_trps.svl 2023.06)
