@<TRIPOS>MOLECULE
NONAME
41 42 1 0 0 
SMALL
USER_CHARGES


@<TRIPOS>ATOM
  1 O       -0.0780    -0.7430    -0.5230 O.2   1 <1>  -0.5700 
  2 C       -0.9750    -1.5610    -0.4750 C.2   1 <1>   0.6340 
  3 O       -0.6530    -2.8600    -0.5270 O.3   1 <1>  -0.4300 
  4 C       -2.3770    -1.2110    -0.3660 C.ar  1 <1>   0.0860 
  5 C        0.6910    -3.2890    -0.6320 C.3   1 <1>   0.0400 
  6 C       -2.7870     0.1200    -0.2490 C.ar  1 <1>  -0.1500 
  7 C       -3.3830    -2.1820    -0.3740 C.ar  1 <1>  -0.1500 
  8 C       -4.1220     0.4750    -0.1470 C.ar  1 <1>   0.1170 
  9 C       -4.7180    -1.8440    -0.2750 C.ar  1 <1>  -0.1500 
 10 N       -4.5760     1.7980    -0.0340 N.am  1 <1>  -0.5470 
 11 C       -5.1110    -0.5190    -0.1640 C.ar  1 <1>   0.1000 
 12 C       -3.9620     2.9910     0.2030 C.2   1 <1>   0.5690 
 13 N       -6.4650    -0.1750    -0.0610 N.pl3 1 <1>  -0.8380 
 14 O       -2.7740     3.1190     0.3590 O.2   1 <1>  -0.5700 
 15 C       -4.8430     4.2260     0.2740 C.3   1 <1>  -0.0990 
 16 C       -7.1210    -0.3230     1.2750 C.3   1 <1>   0.2090 
 17 C       -7.3740    -0.4630    -1.2150 C.3   1 <1>   0.2090 
 18 C       -5.8540     4.1810     1.4320 C.3   1 <1>  -0.2400 
 19 C       -7.9940    -1.5890     1.3500 C.3   1 <1>   0.1200 
 20 C       -8.2540    -1.7050    -0.9740 C.3   1 <1>   0.1200 
 21 O       -8.8870    -1.6480     0.2730 O.3   1 <1>  -0.5600 
 22 H        0.7050    -4.3640    -0.6570 H     1 <1>   0.0800 
 23 H        1.2380    -2.9290     0.2220 H     1 <1>   0.0800 
 24 H        1.1130    -2.8900    -1.5390 H     1 <1>   0.0800 
 25 H       -2.0320     0.8860    -0.2420 H     1 <1>   0.1500 
 26 H       -3.1140    -3.2210    -0.4600 H     1 <1>   0.1500 
 27 H       -5.4640    -2.6150    -0.2810 H     1 <1>   0.1500 
 28 H       -5.5980     1.8090    -0.0670 H     1 <1>   0.3700 
 29 H       -5.3620     4.3310    -0.6610 H     1 <1>   0.0800 
 30 H       -4.2090     5.0870     0.3930 H     1 <1>   0.0800 
 31 H       -7.7380     0.5390     1.4600 H     1 <1>   0.0800 
 32 H       -6.3690    -0.3610     2.0450 H     1 <1>   0.0800 
 33 H       -6.7900    -0.6060    -2.1080 H     1 <1>   0.0800 
 34 H       -8.0120     0.3880    -1.3750 H     1 <1>   0.0800 
 35 H       -6.5360     3.3570     1.3130 H     1 <1>   0.0800 
 36 H       -6.4210     5.0940     1.4620 H     1 <1>   0.0800 
 37 H       -5.3350     4.0680     2.3680 H     1 <1>   0.0800 
 38 H       -8.5720    -1.5840     2.2560 H     1 <1>   0.0800 
 39 H       -7.3790    -2.4710     1.3390 H     1 <1>   0.0800 
 40 H       -7.6640    -2.6020    -1.0190 H     1 <1>   0.0800 
 41 H       -9.0200    -1.7630    -1.7270 H     1 <1>   0.0800 
@<TRIPOS>BOND
  1   1   2  2   
  2   2   3  1   
  3   2   4  1   
  4   3   5  1   
  5   4   6  ar  
  6   4   7  ar  
  7   5  22  1   
  8   5  23  1   
  9   5  24  1   
 10   6   8  ar  
 11   6  25  1   
 12   7   9  ar  
 13   7  26  1   
 14   8  10  1   
 15   8  11  ar  
 16   9  11  ar  
 17   9  27  1   
 18  10  12  am  
 19  10  28  1   
 20  11  13  1   
 21  12  14  2   
 22  12  15  1   
 23  13  16  1   
 24  13  17  1   
 25  15  18  1   
 26  15  29  1   
 27  15  30  1   
 28  16  19  1   
 29  16  31  1   
 30  16  32  1   
 31  17  20  1   
 32  17  33  1   
 33  17  34  1   
 34  18  35  1   
 35  18  36  1   
 36  18  37  1   
 37  19  21  1   
 38  19  38  1   
 39  19  39  1   
 40  20  21  1   
 41  20  40  1   
 42  20  41  1   
@<TRIPOS>SUBSTRUCTURE
  1 ****   8 GROUP 4 **** **** 0

# MOE 2024.06 (io_trps.svl 2023.06)
