@<TRIPOS>MOLECULE
NONAME
32 32 1 0 0 
SMALL
USER_CHARGES


@<TRIPOS>ATOM
  1 S       -0.1800     0.1140     0.7470 S.3   1 <1>  -0.3710 
  2 C        1.4320     0.8640     0.8260 C.2   1 <1>   0.6410 
  3 C       -1.3050     1.3420    -0.0420 C.3   1 <1>   0.2080 
  4 N        2.3690     0.2010     1.3840 N.2   1 <1>  -0.6610 
  5 N        1.5620     2.1030     0.2830 N.pl3 1 <1>  -0.5500 
  6 C       -2.6820     0.7150    -0.1250 C.2   1 <1>  -0.2880 
  7 C        3.5930     0.8000     1.4310 C.2   1 <1>   0.7670 
  8 C        2.7640     2.7530     0.2970 C.2   1 <1>  -0.0380 
  9 C       -3.3890     0.5470    -1.2470 C.2   1 <1>  -0.3000 
 10 O        4.4970     0.1720     1.9650 O.2   1 <1>  -0.5700 
 11 C        3.8080     2.1080     0.8820 C.2   1 <1>  -0.1240 
 12 C        2.7770     4.1250    -0.3590 C.3   1 <1>  -0.1020 
 13 C        5.2130     2.7070     0.9790 C.3   1 <1>   0.1160 
 14 C        5.9790     2.5720    -0.3350 C.2   1 <1>  -0.2760 
 15 C        6.4210     3.6190    -1.0390 C.2   1 <1>  -0.3000 
 16 C        6.2190     1.1360    -0.7780 C.3   1 <1>  -0.1020 
 17 H       -0.9160     1.5630    -1.0200 H     1 <1>   0.0800 
 18 H       -1.3160     2.2200     0.5780 H     1 <1>   0.0800 
 19 H        0.7490     2.5290    -0.1530 H     1 <1>   0.4000 
 20 H       -3.0470     0.4040     0.8400 H     1 <1>   0.1500 
 21 H       -4.3660     0.0950    -1.2760 H     1 <1>   0.1500 
 22 H       -3.0570     0.8400    -2.2290 H     1 <1>   0.1500 
 23 H        2.1130     4.7890     0.1640 H     1 <1>   0.0800 
 24 H        2.4540     4.0420    -1.3820 H     1 <1>   0.0800 
 25 H        3.7560     4.5610    -0.3610 H     1 <1>   0.0800 
 26 H        5.7800     2.2410     1.7650 H     1 <1>   0.0800 
 27 H        5.1370     3.7450     1.2480 H     1 <1>   0.0800 
 28 H        6.9670     3.5350    -1.9640 H     1 <1>   0.1500 
 29 H        6.2830     4.6480    -0.7560 H     1 <1>   0.1500 
 30 H        5.2880     0.6460    -0.9990 H     1 <1>   0.0800 
 31 H        6.7210     0.5860    -0.0010 H     1 <1>   0.0800 
 32 H        6.8310     1.1070    -1.6620 H     1 <1>   0.0800 
@<TRIPOS>BOND
  1   1   2  1   
  2   1   3  1   
  3   2   4  2   
  4   2   5  1   
  5   3   6  1   
  6   3  17  1   
  7   3  18  1   
  8   4   7  1   
  9   5   8  1   
 10   5  19  1   
 11   6   9  2   
 12   6  20  1   
 13   7  10  2   
 14   7  11  1   
 15   8  11  2   
 16   8  12  1   
 17   9  21  1   
 18   9  22  1   
 19  11  13  1   
 20  12  23  1   
 21  12  24  1   
 22  12  25  1   
 23  13  14  1   
 24  13  26  1   
 25  13  27  1   
 26  14  15  2   
 27  14  16  1   
 28  15  28  1   
 29  15  29  1   
 30  16  30  1   
 31  16  31  1   
 32  16  32  1   
@<TRIPOS>SUBSTRUCTURE
  1 ****   5 GROUP 4 **** **** 0

# MOE 2024.06 (io_trps.svl 2023.06)
