@<TRIPOS>MOLECULE
NONAME
36 37 1 0 0 
SMALL
USER_CHARGES


@<TRIPOS>ATOM
  1 O       -1.6260    -0.1860     1.0990 O.3   1 <1>  -0.3630 
  2 C       -2.2300     0.7490     0.3110 C.ar  1 <1>   0.0830 
  3 C       -0.2360    -0.2040     1.3420 C.3   1 <1>   0.0400 
  4 C       -1.6980     1.9880    -0.0890 C.ar  1 <1>   0.0830 
  5 C       -3.5000     0.3880    -0.1050 C.ar  1 <1>  -0.1500 
  6 O       -0.4590     2.3730     0.3320 O.3   1 <1>  -0.3630 
  7 C       -2.4670     2.8130    -0.9090 C.ar  1 <1>  -0.1500 
  8 C       -4.2640     1.2210    -0.9060 C.ar  1 <1>  -0.1430 
  9 C        0.1390     3.5890    -0.0650 C.3   1 <1>   0.0400 
 10 C       -3.7350     2.4340    -1.3130 C.ar  1 <1>  -0.1500 
 11 C       -5.6630     0.8060    -1.3150 C.3   1 <1>   0.4860 
 12 N       -6.5310     0.8580    -0.1090 N.4   1 <1>  -0.9590 
 13 C       -7.9130     0.3780    -0.3320 C.3   1 <1>   0.3430 
 14 C       -6.6450     2.2140     0.4800 C.3   1 <1>   0.3430 
 15 C       -8.6990     0.9480     0.8420 C.3   1 <1>  -0.1600 
 16 C       -7.8810     2.1340     1.3640 C.3   1 <1>  -0.1600 
 17 H        0.0120    -1.1400     1.8080 H     1 <1>   0.0800 
 18 H        0.0120     0.6080     2.0020 H     1 <1>   0.0800 
 19 H        0.2850    -0.1100     0.4060 H     1 <1>   0.0800 
 20 H       -3.8720    -0.5700     0.2140 H     1 <1>   0.1500 
 21 H       -2.0960     3.7620    -1.2460 H     1 <1>   0.1500 
 22 H        1.1130     3.6440     0.3870 H     1 <1>   0.0800 
 23 H       -0.4680     4.4070     0.2800 H     1 <1>   0.0800 
 24 H        0.2340     3.6000    -1.1360 H     1 <1>   0.0800 
 25 H       -4.2980     3.1000    -1.9470 H     1 <1>   0.1500 
 26 H       -5.6370    -0.1960    -1.7120 H     1 <1>   0.0800 
 27 H       -6.0380     1.4690    -2.0770 H     1 <1>   0.0800 
 28 H       -6.0920     0.2680     0.6080 H     1 <1>   0.4500 
 29 H       -7.9640    -0.6990    -0.3620 H     1 <1>   0.0800 
 30 H       -8.2990     0.7850    -1.2530 H     1 <1>   0.0800 
 31 H       -6.8040     2.9410    -0.3000 H     1 <1>   0.0800 
 32 H       -5.7620     2.4790     1.0420 H     1 <1>   0.0800 
 33 H       -8.8040     0.1990     1.6080 H     1 <1>   0.0800 
 34 H       -9.6830     1.2490     0.5240 H     1 <1>   0.0800 
 35 H       -8.4360     3.0560     1.3180 H     1 <1>   0.0800 
 36 H       -7.5860     1.9660     2.3860 H     1 <1>   0.0800 
@<TRIPOS>BOND
  1   1   2  1   
  2   1   3  1   
  3   2   4  ar  
  4   2   5  ar  
  5   3  17  1   
  6   3  18  1   
  7   3  19  1   
  8   4   6  1   
  9   4   7  ar  
 10   5   8  ar  
 11   5  20  1   
 12   6   9  1   
 13   7  10  ar  
 14   7  21  1   
 15   8  10  ar  
 16   8  11  1   
 17   9  22  1   
 18   9  23  1   
 19   9  24  1   
 20  10  25  1   
 21  11  12  1   
 22  11  26  1   
 23  11  27  1   
 24  12  13  1   
 25  12  14  1   
 26  12  28  1   
 27  13  15  1   
 28  13  29  1   
 29  13  30  1   
 30  14  16  1   
 31  14  31  1   
 32  14  32  1   
 33  15  16  1   
 34  15  33  1   
 35  15  34  1   
 36  16  35  1   
 37  16  36  1   
@<TRIPOS>SUBSTRUCTURE
  1 ****   8 GROUP 4 **** **** 0

# MOE 2024.06 (io_trps.svl 2023.06)
