@<TRIPOS>MOLECULE
NONAME
34 35 1 0 0 
SMALL
USER_CHARGES


@<TRIPOS>ATOM
  1 S       -0.4080    -0.6560     0.6400 S.3   1 <1>  -0.0800 
  2 C       -1.0250     0.8090    -0.0620 C.2   1 <1>   0.4420 
  3 C        1.1220    -0.2660    -0.0640 C.2   1 <1>   0.1980 
  4 N       -0.1270     1.4430    -0.7200 N.2   1 <1>  -0.3380 
  5 N       -2.3340     1.2090     0.0940 N.am  1 <1>  -0.4940 
  6 N        1.0930     0.8270    -0.7180 N.2   1 <1>  -0.3380 
  7 C        2.2530    -1.2500     0.1890 C.3   1 <1>   0.3000 
  8 C       -3.3880     0.6380     0.7470 C.2   1 <1>   0.5690 
  9 O        3.4450    -0.8250    -0.4410 O.3   1 <1>  -0.3630 
 10 O       -3.3220    -0.4030     1.3460 O.2   1 <1>  -0.5700 
 11 C       -4.7160     1.3720     0.7060 C.3   1 <1>  -0.0990 
 12 C        4.5900    -1.5460    -0.3530 C.ar  1 <1>   0.0820 
 13 C       -5.3900     1.2830    -0.6730 C.3   1 <1>  -0.1600 
 14 C        5.6950    -1.0260    -1.0140 C.ar  1 <1>  -0.1500 
 15 C        4.6990    -2.7480     0.3500 C.ar  1 <1>  -0.1500 
 16 C       -6.7300     2.0250    -0.6850 C.3   1 <1>  -0.2400 
 17 C        6.9100    -1.6890    -0.9830 C.ar  1 <1>  -0.1500 
 18 C        5.9100    -3.4200     0.3860 C.ar  1 <1>  -0.1500 
 19 C        6.9920    -2.8770    -0.2810 C.ar  1 <1>   0.1900 
 20 F        8.1350    -3.5100    -0.2470 F     1 <1>  -0.1900 
 21 H       -2.5330     2.0850    -0.3800 H     1 <1>   0.3700 
 22 H        1.9890    -2.2130    -0.2090 H     1 <1>   0.0800 
 23 H        2.4390    -1.3230     1.2450 H     1 <1>   0.0800 
 24 H       -4.5550     2.4000     0.9740 H     1 <1>   0.0800 
 25 H       -5.3640     0.9400     1.4480 H     1 <1>   0.0800 
 26 H       -5.5570     0.2470    -0.9190 H     1 <1>   0.0800 
 27 H       -4.7480     1.7030    -1.4280 H     1 <1>   0.0800 
 28 H        5.5950    -0.0980    -1.5510 H     1 <1>   0.1500 
 29 H        3.8640    -3.1770     0.8700 H     1 <1>   0.1500 
 30 H       -7.4020     1.6020     0.0420 H     1 <1>   0.0800 
 31 H       -7.1870     1.9430    -1.6560 H     1 <1>   0.0800 
 32 H       -6.5890     3.0680    -0.4620 H     1 <1>   0.0800 
 33 H        7.7730    -1.2980    -1.4900 H     1 <1>   0.1500 
 34 H        6.0210    -4.3460     0.9190 H     1 <1>   0.1500 
@<TRIPOS>BOND
  1   1   2  1   
  2   1   3  1   
  3   2   4  2   
  4   2   5  1   
  5   3   6  2   
  6   3   7  1   
  7   4   6  1   
  8   5   8  am  
  9   5  21  1   
 10   7   9  1   
 11   7  22  1   
 12   7  23  1   
 13   8  10  2   
 14   8  11  1   
 15   9  12  1   
 16  11  13  1   
 17  11  24  1   
 18  11  25  1   
 19  12  14  ar  
 20  12  15  ar  
 21  13  16  1   
 22  13  26  1   
 23  13  27  1   
 24  14  17  ar  
 25  14  28  1   
 26  15  18  ar  
 27  15  29  1   
 28  16  30  1   
 29  16  31  1   
 30  16  32  1   
 31  17  19  ar  
 32  17  33  1   
 33  18  19  ar  
 34  18  34  1   
 35  19  20  1   
@<TRIPOS>SUBSTRUCTURE
  1 ****   3 GROUP 4 **** **** 0

# MOE 2024.06 (io_trps.svl 2023.06)
