@<TRIPOS>MOLECULE
Structure905
19 19 1 0 0 
SMALL
USER_CHARGES


@<TRIPOS>ATOM
  1 CL      -0.3960     0.4380    -1.6240 Cl    1 <1>  -0.1770 
  2 C       -1.6810     1.0670    -0.6370 C.ar  1 <1>   0.4870 
  3 N       -1.4780     2.2260    -0.0570 N.ar  1 <1>  -0.6200 
  4 C       -2.8340     0.3360    -0.5080 C.ar  1 <1>  -0.1500 
  5 C       -2.4960     2.6400     0.6750 C.ar  1 <1>   0.4700 
  6 C       -3.8210     0.8740     0.2820 C.ar  1 <1>   0.1660 
  7 N       -3.6560     2.0350     0.8810 N.ar  1 <1>  -0.6200 
  8 C       -5.1400     0.1480     0.4910 C.3   1 <1>  -0.0160 
  9 C       -6.2460     0.7350    -0.3970 C.3   1 <1>  -0.1600 
 10 C       -7.5760     0.0000    -0.2020 C.3   1 <1>  -0.2400 
 11 H       -2.9450    -0.6060    -1.0070 H     1 <1>   0.1500 
 12 H       -2.3670     3.5900     1.1670 H     1 <1>   0.1500 
 13 H       -5.4230     0.2340     1.5260 H     1 <1>   0.0800 
 14 H       -5.0170    -0.8970     0.2700 H     1 <1>   0.0800 
 15 H       -5.9490     0.6710    -1.4300 H     1 <1>   0.0800 
 16 H       -6.3760     1.7770    -0.1560 H     1 <1>   0.0800 
 17 H       -7.4760    -1.0400    -0.4600 H     1 <1>   0.0800 
 18 H       -8.3320     0.4360    -0.8320 H     1 <1>   0.0800 
 19 H       -7.9010     0.0760     0.8210 H     1 <1>   0.0800 
@<TRIPOS>BOND
  1   1   2  1   
  2   2   3  ar  
  3   2   4  ar  
  4   3   5  ar  
  5   4   6  ar  
  6   4  11  1   
  7   5   7  ar  
  8   5  12  1   
  9   6   7  ar  
 10   6   8  1   
 11   8   9  1   
 12   8  13  1   
 13   8  14  1   
 14   9  10  1   
 15   9  15  1   
 16   9  16  1   
 17  10  17  1   
 18  10  18  1   
 19  10  19  1   
@<TRIPOS>SUBSTRUCTURE
  1 ****   6 GROUP 4 **** **** 0

# MOE 2024.06 (io_trps.svl 2023.06)
