@<TRIPOS>MOLECULE
NONAME
45 46 1 0 0 
SMALL
USER_CHARGES


@<TRIPOS>ATOM
  1 O       -6.7190    -3.4660     1.8020 O.3   1 <1>  -0.3630 
  2 C       -7.1570    -2.7840     0.7200 C.ar  1 <1>   0.0830 
  3 C       -5.9030    -4.5900     1.5560 C.3   1 <1>   0.1200 
  4 C       -6.3340    -1.8900     0.0360 C.ar  1 <1>  -0.1440 
  5 C       -8.4610    -3.0050     0.3000 C.ar  1 <1>  -0.1500 
  6 C       -6.7640    -5.7160     0.9630 C.3   1 <1>   0.3430 
  7 C       -6.8240    -1.2850    -1.1120 C.ar  1 <1>  -0.1500 
  8 C       -4.9260    -1.5450     0.5220 C.3   1 <1>   0.1220 
  9 C       -8.9380    -2.3860    -0.8400 C.ar  1 <1>  -0.1500 
 10 N       -5.9630    -6.9270     0.5890 N.4   1 <1>  -0.9590 
 11 C       -8.1140    -1.5340    -1.5520 C.ar  1 <1>  -0.1500 
 12 C       -4.6540    -0.0520     0.4430 C.2   1 <1>  -0.2880 
 13 C       -5.0820    -6.6700    -0.5920 C.3   1 <1>   0.3430 
 14 C       -6.8720    -8.0830     0.3340 C.3   1 <1>   0.3430 
 15 C       -3.6690     0.5220    -0.2560 C.2   1 <1>  -0.3000 
 16 C       -4.2150    -7.8990    -0.8660 C.3   1 <1>  -0.1600 
 17 C       -6.0450    -9.3440     0.0820 C.3   1 <1>  -0.1600 
 18 C       -5.0690    -9.1560    -1.0880 C.3   1 <1>  -0.0800 
 19 C       -4.1790   -10.3920    -1.2550 C.3   1 <1>  -0.2400 
 20 H       -5.4820    -4.8900     2.4990 H     1 <1>   0.0800 
 21 H       -5.1190    -4.2950     0.8840 H     1 <1>   0.0800 
 22 H       -9.1040    -3.6540     0.8660 H     1 <1>   0.1500 
 23 H       -7.2720    -5.3440     0.0890 H     1 <1>   0.0800 
 24 H       -7.5060    -5.9890     1.6960 H     1 <1>   0.0800 
 25 H       -6.2060    -0.6020    -1.6700 H     1 <1>   0.1500 
 26 H       -4.2060    -2.0760    -0.0740 H     1 <1>   0.0800 
 27 H       -4.7970    -1.8450     1.5460 H     1 <1>   0.0800 
 28 H       -9.9480    -2.5580    -1.1720 H     1 <1>   0.1500 
 29 H       -5.3600    -7.1920     1.3790 H     1 <1>   0.4500 
 30 H       -8.4790    -1.0510    -2.4420 H     1 <1>   0.1500 
 31 H       -5.3570     0.5210     1.0260 H     1 <1>   0.1500 
 32 H       -4.4430    -5.8220    -0.4070 H     1 <1>   0.0800 
 33 H       -5.6860    -6.4560    -1.4590 H     1 <1>   0.0800 
 34 H       -7.4900    -7.8810    -0.5270 H     1 <1>   0.0800 
 35 H       -7.5160    -8.2430     1.1840 H     1 <1>   0.0800 
 36 H       -3.5040     1.5850    -0.2920 H     1 <1>   0.1500 
 37 H       -2.9490    -0.0130    -0.8500 H     1 <1>   0.1500 
 38 H       -3.5380    -8.0490    -0.0430 H     1 <1>   0.0800 
 39 H       -3.6190    -7.7150    -1.7430 H     1 <1>   0.0800 
 40 H       -6.7130   -10.1590    -0.1400 H     1 <1>   0.0800 
 41 H       -5.5090    -9.6040     0.9780 H     1 <1>   0.0800 
 42 H       -5.6390    -9.0290    -1.9960 H     1 <1>   0.0800 
 43 H       -3.5860   -10.5650    -0.3730 H     1 <1>   0.0800 
 44 H       -3.5140   -10.2660    -2.0920 H     1 <1>   0.0800 
 45 H       -4.7810   -11.2660    -1.4370 H     1 <1>   0.0800 
@<TRIPOS>BOND
  1   1   2  1   
  2   1   3  1   
  3   2   4  ar  
  4   2   5  ar  
  5   3   6  1   
  6   3  20  1   
  7   3  21  1   
  8   4   7  ar  
  9   4   8  1   
 10   5   9  ar  
 11   5  22  1   
 12   6  10  1   
 13   6  23  1   
 14   6  24  1   
 15   7  11  ar  
 16   7  25  1   
 17   8  12  1   
 18   8  26  1   
 19   8  27  1   
 20   9  11  ar  
 21   9  28  1   
 22  10  13  1   
 23  10  14  1   
 24  10  29  1   
 25  11  30  1   
 26  12  15  2   
 27  12  31  1   
 28  13  16  1   
 29  13  32  1   
 30  13  33  1   
 31  14  17  1   
 32  14  34  1   
 33  14  35  1   
 34  15  36  1   
 35  15  37  1   
 36  16  18  1   
 37  16  38  1   
 38  16  39  1   
 39  17  18  1   
 40  17  40  1   
 41  17  41  1   
 42  18  19  1   
 43  18  42  1   
 44  19  43  1   
 45  19  44  1   
 46  19  45  1   
@<TRIPOS>SUBSTRUCTURE
  1 ****   3 GROUP 4 **** **** 0

# MOE 2024.06 (io_trps.svl 2023.06)
