@<TRIPOS>MOLECULE
NONAME
31 32 1 0 0 
SMALL
USER_CHARGES


@<TRIPOS>ATOM
  1 O        0.4100     0.7670    -1.3320 O.2   1 <1>  -0.5700 
  2 C        0.9020     1.4540    -0.4560 C.2   1 <1>   0.7150 
  3 N        0.0710     2.2020     0.3310 N.am  1 <1>  -0.7300 
  4 C        2.3330     1.5010    -0.2290 C.2   1 <1>   0.0550 
  5 C       -1.3940     2.2590     0.2290 C.3   1 <1>   0.2200 
  6 O        3.1680     0.7900    -1.0040 O.3   1 <1>  -0.2800 
  7 C        3.0590     2.1850     0.6940 C.2   1 <1>  -0.1500 
  8 C       -1.7820     3.6550    -0.2770 C.3   1 <1>  -0.1600 
  9 C       -1.9630     1.9440     1.6110 C.3   1 <1>  -0.2400 
 10 C        4.4130     1.0100    -0.5890 C.ar  1 <1>   0.1400 
 11 C        4.4140     1.8830     0.4810 C.ar  1 <1>   0.0000 
 12 C       -3.2870     3.8090    -0.5410 C.3   1 <1>  -0.2400 
 13 C        5.5860     0.4770    -1.1050 C.ar  1 <1>  -0.1500 
 14 C        5.6280     2.2460     1.0690 C.ar  1 <1>  -0.1500 
 15 C        6.7830     0.8400    -0.5210 C.ar  1 <1>  -0.1500 
 16 C        6.8010     1.7230     0.5640 C.ar  1 <1>  -0.1500 
 17 H        0.4770     2.7920     1.0520 H     1 <1>   0.3700 
 18 H       -1.7380     1.5160    -0.4740 H     1 <1>   0.0800 
 19 H        2.7130     2.8460     1.4660 H     1 <1>   0.1500 
 20 H       -1.2630     3.8340    -1.2030 H     1 <1>   0.0800 
 21 H       -1.4710     4.4010     0.4320 H     1 <1>   0.0800 
 22 H       -1.6860     2.7020     2.3210 H     1 <1>   0.0800 
 23 H       -1.6000     0.9890     1.9460 H     1 <1>   0.0800 
 24 H       -3.0350     1.8900     1.5670 H     1 <1>   0.0800 
 25 H       -3.6290     3.0510    -1.2240 H     1 <1>   0.0800 
 26 H       -3.4840     4.7730    -0.9780 H     1 <1>   0.0800 
 27 H       -3.8500     3.7350     0.3730 H     1 <1>   0.0800 
 28 H        5.5400    -0.1990    -1.9400 H     1 <1>   0.1500 
 29 H        5.6340     2.9250     1.9020 H     1 <1>   0.1500 
 30 H        7.7110     0.4450    -0.8980 H     1 <1>   0.1500 
 31 H        7.7460     1.9920     1.0040 H     1 <1>   0.1500 
@<TRIPOS>BOND
  1   1   2  2   
  2   2   3  am  
  3   2   4  1   
  4   3   5  1   
  5   3  17  1   
  6   4   6  1   
  7   4   7  2   
  8   5   8  1   
  9   5   9  1   
 10   5  18  1   
 11   6  10  1   
 12   7  11  1   
 13   7  19  1   
 14   8  12  1   
 15   8  20  1   
 16   8  21  1   
 17   9  22  1   
 18   9  23  1   
 19   9  24  1   
 20  10  11  ar  
 21  10  13  ar  
 22  11  14  ar  
 23  12  25  1   
 24  12  26  1   
 25  12  27  1   
 26  13  15  ar  
 27  13  28  1   
 28  14  16  ar  
 29  14  29  1   
 30  15  16  ar  
 31  15  30  1   
 32  16  31  1   
@<TRIPOS>SUBSTRUCTURE
  1 ****   4 GROUP 4 **** **** 0

# MOE 2024.06 (io_trps.svl 2023.06)
