@<TRIPOS>MOLECULE
NONAME
35 36 1 0 0 
SMALL
USER_CHARGES


@<TRIPOS>ATOM
  1 S        0.1150    -0.1740    -0.0130 S.o2  1 <1>   1.4970 
  2 O        0.1210    -1.2260    -1.0090 O.2   1 <1>  -0.6500 
  3 O        0.3990    -0.5200     1.3690 O.2   1 <1>  -0.6500 
  4 N        1.2230     0.9840    -0.4880 N.2   1 <1>  -0.6380 
  5 C       -1.4620     0.7240    -0.0990 C.ar  1 <1>  -0.0090 
  6 C        2.4520     0.7090    -0.2910 C.2   1 <1>   0.4860 
  7 C       -2.2030     0.7650    -1.2740 C.ar  1 <1>  -0.1500 
  8 C       -1.9570     1.4180     0.9980 C.ar  1 <1>  -0.1500 
  9 N        3.0110    -0.3740     0.3240 N.pl3 1 <1>  -0.4710 
 10 C        3.5580     1.5250    -0.6260 C.2   1 <1>  -0.1360 
 11 C       -3.3950     1.4650    -1.3500 C.ar  1 <1>  -0.1500 
 12 C       -3.1470     2.1200     0.9280 C.ar  1 <1>  -0.1500 
 13 O        4.3790    -0.2270     0.4090 O.3   1 <1>  -0.0560 
 14 C        4.6730     0.9230    -0.1760 C.2   1 <1>  -0.0620 
 15 C       -3.8800     2.1510    -0.2480 C.ar  1 <1>  -0.1430 
 16 C        6.1260     1.3430    -0.2450 C.3   1 <1>  -0.1020 
 17 C       -5.1960     2.9200    -0.3460 C.3   1 <1>   0.0630 
 18 C       -4.9710     4.4160    -0.1040 C.3   1 <1>  -0.2400 
 19 C       -6.2320     2.3590     0.6330 C.3   1 <1>  -0.2400 
 20 H       -1.8430     0.2400    -2.1430 H     1 <1>   0.1500 
 21 H       -1.4040     1.4110     1.9220 H     1 <1>   0.1500 
 22 H        2.5360    -0.8580     1.0970 H     1 <1>   0.4000 
 23 H        3.4500     2.4580    -1.1440 H     1 <1>   0.1500 
 24 H       -3.9420     1.4710    -2.2770 H     1 <1>   0.1500 
 25 H       -3.5000     2.6450     1.7990 H     1 <1>   0.1500 
 26 H        6.6930     0.6060    -0.7850 H     1 <1>   0.0800 
 27 H        6.5280     1.4340     0.7480 H     1 <1>   0.0800 
 28 H        6.2170     2.2890    -0.7470 H     1 <1>   0.0800 
 29 H       -5.5910     2.8050    -1.3410 H     1 <1>   0.0800 
 30 H       -4.6240     4.5950     0.8980 H     1 <1>   0.0800 
 31 H       -5.8880     4.9590    -0.2520 H     1 <1>   0.0800 
 32 H       -4.2360     4.7910    -0.7930 H     1 <1>   0.0800 
 33 H       -5.9120     2.4950     1.6510 H     1 <1>   0.0800 
 34 H       -6.3710     1.3080     0.4550 H     1 <1>   0.0800 
 35 H       -7.1760     2.8570     0.5010 H     1 <1>   0.0800 
@<TRIPOS>BOND
  1   1   2  2   
  2   1   3  2   
  3   1   4  1   
  4   1   5  1   
  5   4   6  2   
  6   5   7  ar  
  7   5   8  ar  
  8   6   9  1   
  9   6  10  1   
 10   7  11  ar  
 11   7  20  1   
 12   8  12  ar  
 13   8  21  1   
 14   9  13  1   
 15   9  22  1   
 16  10  14  2   
 17  10  23  1   
 18  11  15  ar  
 19  11  24  1   
 20  12  15  ar  
 21  12  25  1   
 22  13  14  1   
 23  14  16  1   
 24  15  17  1   
 25  16  26  1   
 26  16  27  1   
 27  16  28  1   
 28  17  18  1   
 29  17  19  1   
 30  17  29  1   
 31  18  30  1   
 32  18  31  1   
 33  18  32  1   
 34  19  33  1   
 35  19  34  1   
 36  19  35  1   
@<TRIPOS>SUBSTRUCTURE
  1 ****   5 GROUP 4 **** **** 0

# MOE 2024.06 (io_trps.svl 2023.06)
