@<TRIPOS>MOLECULE
NONAME
35 36 1 0 0 
SMALL
USER_CHARGES


@<TRIPOS>ATOM
  1 O        0.2950    -0.4850     0.9380 O.3   1 <1>  -0.3630 
  2 C        0.2730    -1.7420     0.4320 C.ar  1 <1>   0.0830 
  3 C        0.7050     0.6150     0.1560 C.3   1 <1>   0.0400 
  4 C       -0.2600    -2.7310     1.2410 C.ar  1 <1>  -0.1500 
  5 C        0.7470    -2.0780    -0.8330 C.ar  1 <1>  -0.1500 
  6 C       -0.3150    -4.0420     0.8060 C.ar  1 <1>  -0.1500 
  7 C        0.6930    -3.3920    -1.2670 C.ar  1 <1>  -0.1500 
  8 C        0.1710    -4.3830    -0.4480 C.ar  1 <1>  -0.1430 
  9 C        0.1490    -5.8320    -0.9070 C.3   1 <1>  -0.0170 
 10 C        1.1850    -6.6610    -0.1270 C.3   1 <1>  -0.0800 
 11 C        2.5530    -5.9580    -0.1230 C.3   1 <1>   0.3430 
 12 C        1.2930    -8.0850    -0.6980 C.3   1 <1>  -0.1600 
 13 N        3.5600    -6.7860     0.6020 N.4   1 <1>  -0.9060 
 14 C        2.3950    -8.8800     0.0190 C.3   1 <1>  -0.1600 
 15 C        3.7340    -8.1380     0.0070 C.3   1 <1>   0.3430 
 16 H        0.5940     1.5050     0.7490 H     1 <1>   0.0800 
 17 H        0.0770     0.6770    -0.7160 H     1 <1>   0.0800 
 18 H        1.7360     0.4850    -0.1180 H     1 <1>   0.0800 
 19 H       -0.6350    -2.4610     2.2120 H     1 <1>   0.1500 
 20 H        1.1550    -1.3320    -1.4880 H     1 <1>   0.1500 
 21 H       -0.7430    -4.7900     1.4500 H     1 <1>   0.1500 
 22 H        1.0580    -3.6300    -2.2510 H     1 <1>   0.1500 
 23 H        0.3520    -5.8790    -1.9630 H     1 <1>   0.0800 
 24 H       -0.8370    -6.2380    -0.7520 H     1 <1>   0.0800 
 25 H        0.8450    -6.7240     0.8930 H     1 <1>   0.0800 
 26 H        2.4590    -4.9930     0.3520 H     1 <1>   0.0800 
 27 H        2.8740    -5.8000    -1.1400 H     1 <1>   0.0800 
 28 H        1.5180    -8.0410    -1.7510 H     1 <1>   0.0800 
 29 H        0.3510    -8.5970    -0.5880 H     1 <1>   0.0800 
 30 H        3.2540    -6.8870     1.5770 H     1 <1>   0.4500 
 31 H        4.4600    -6.2900     0.6210 H     1 <1>   0.4500 
 32 H        2.5180    -9.8330    -0.4660 H     1 <1>   0.0800 
 33 H        2.1030    -9.0770     1.0370 H     1 <1>   0.0800 
 34 H        4.4650    -8.7000     0.5670 H     1 <1>   0.0800 
 35 H        4.0830    -8.0470    -1.0090 H     1 <1>   0.0800 
@<TRIPOS>BOND
  1   1   2  1   
  2   1   3  1   
  3   2   4  ar  
  4   2   5  ar  
  5   3  16  1   
  6   3  17  1   
  7   3  18  1   
  8   4   6  ar  
  9   4  19  1   
 10   5   7  ar  
 11   5  20  1   
 12   6   8  ar  
 13   6  21  1   
 14   7   8  ar  
 15   7  22  1   
 16   8   9  1   
 17   9  10  1   
 18   9  23  1   
 19   9  24  1   
 20  10  11  1   
 21  10  12  1   
 22  10  25  1   
 23  11  13  1   
 24  11  26  1   
 25  11  27  1   
 26  12  14  1   
 27  12  28  1   
 28  12  29  1   
 29  13  15  1   
 30  13  30  1   
 31  13  31  1   
 32  14  15  1   
 33  14  32  1   
 34  14  33  1   
 35  15  34  1   
 36  15  35  1   
@<TRIPOS>SUBSTRUCTURE
  1 ****   8 GROUP 4 **** **** 0

# MOE 2024.06 (io_trps.svl 2023.06)
