@<TRIPOS>MOLECULE
NONAME
27 27 1 0 0 
SMALL
USER_CHARGES


@<TRIPOS>ATOM
  1 CL      -0.0050     0.1490    -0.2080 Cl    1 <1>  -0.1770 
  2 C        1.4450    -0.8250    -0.2350 C.ar  1 <1>   0.1770 
  3 C        1.4880    -2.0130    -0.9440 C.ar  1 <1>   0.1770 
  4 C        2.5540    -0.3860     0.4660 C.ar  1 <1>  -0.1500 
  5 CL       0.0970    -2.5810    -1.8350 Cl    1 <1>  -0.1770 
  6 C        2.6450    -2.7680    -0.9540 C.ar  1 <1>  -0.1500 
  7 C        3.7300    -1.1290     0.4690 C.ar  1 <1>  -0.0090 
  8 C        3.7550    -2.3230    -0.2510 C.ar  1 <1>  -0.1500 
  9 S        5.1950    -0.5440     1.3580 S.o2  1 <1>   1.2040 
 10 O        4.7800     0.3210     2.4390 O.2   1 <1>  -0.6500 
 11 O        6.0720    -1.6610     1.6240 O.2   1 <1>  -0.6500 
 12 C        5.9980     0.4840     0.1320 C.3   1 <1>  -0.0550 
 13 C        7.2970     1.1240     0.6530 C.3   1 <1>  -0.0990 
 14 C        7.9680     1.9950    -0.3870 C.2   1 <1>   0.6590 
 15 O        7.5120     2.1300    -1.4930 O.2   1 <1>  -0.5700 
 16 O        9.0850     2.5940     0.0000 O.3   1 <1>  -0.4300 
 17 C        9.8160     3.4360    -0.8680 C.3   1 <1>   0.0400 
 18 H        2.4930     0.5390     1.0160 H     1 <1>   0.1500 
 19 H        2.6750    -3.6930    -1.5040 H     1 <1>   0.1500 
 20 H        4.6550    -2.9180    -0.2570 H     1 <1>   0.1500 
 21 H        5.3280     1.2660    -0.1730 H     1 <1>   0.0800 
 22 H        6.2280    -0.1070    -0.7340 H     1 <1>   0.0800 
 23 H        7.9880     0.3550     0.9480 H     1 <1>   0.0800 
 24 H        7.0820     1.7300     1.5150 H     1 <1>   0.0800 
 25 H       10.6770     3.8050    -0.3410 H     1 <1>   0.0800 
 26 H        9.1860     4.2550    -1.1710 H     1 <1>   0.0800 
 27 H       10.1230     2.8660    -1.7280 H     1 <1>   0.0800 
@<TRIPOS>BOND
  1   1   2  1   
  2   2   3  ar  
  3   2   4  ar  
  4   3   5  1   
  5   3   6  ar  
  6   4   7  ar  
  7   4  18  1   
  8   6   8  ar  
  9   6  19  1   
 10   7   8  ar  
 11   7   9  1   
 12   8  20  1   
 13   9  10  2   
 14   9  11  2   
 15   9  12  1   
 16  12  13  1   
 17  12  21  1   
 18  12  22  1   
 19  13  14  1   
 20  13  23  1   
 21  13  24  1   
 22  14  15  2   
 23  14  16  1   
 24  16  17  1   
 25  17  25  1   
 26  17  26  1   
 27  17  27  1   
@<TRIPOS>SUBSTRUCTURE
  1 ****   7 GROUP 4 **** **** 0

# MOE 2024.06 (io_trps.svl 2023.06)
