@<TRIPOS>MOLECULE
NONAME
49 52 1 0 0 
SMALL
USER_CHARGES


@<TRIPOS>ATOM
  1 O        1.1730    -1.6150    -0.1000 O.3   1 <1>  -0.3630 
  2 C        2.3820    -1.2340    -0.5240 C.ar  1 <1>   0.0830 
  3 C        0.6280    -2.4490    -1.1210 C.3   1 <1>   0.4000 
  4 C        2.6450    -1.7780    -1.7460 C.ar  1 <1>   0.0830 
  5 C        3.2930    -0.4180     0.1160 C.ar  1 <1>  -0.1500 
  6 O        1.6130    -2.5270    -2.1490 O.3   1 <1>  -0.3630 
  7 C        3.8360    -1.5380    -2.4000 C.ar  1 <1>  -0.1500 
  8 C        4.5060    -0.1660    -0.5170 C.ar  1 <1>  -0.1440 
  9 C        4.7680    -0.7230    -1.7690 C.ar  1 <1>  -0.1500 
 10 C        5.5560     0.7030     0.1580 C.3   1 <1>   0.2540 
 11 N        6.7190    -0.1180     0.5450 N.3   1 <1>  -0.8100 
 12 C        7.8360     0.7090     1.0560 C.3   1 <1>   0.1100 
 13 C        6.3610    -1.1810     1.5220 C.3   1 <1>   0.1100 
 14 C        9.0760    -0.1460     1.4220 C.3   1 <1>   0.3430 
 15 C        7.5770    -2.0510     1.9190 C.3   1 <1>   0.3430 
 16 N        8.8090    -1.6070     1.1950 N.4   1 <1>  -0.9590 
 17 C        9.9910    -2.4830     1.3920 C.3   1 <1>   0.4860 
 18 C       11.1070    -2.0010     0.4880 C.ar  1 <1>  -0.1430 
 19 C       12.2220    -1.3760     1.0280 C.ar  1 <1>  -0.1500 
 20 C       11.0200    -2.1690    -0.8870 C.ar  1 <1>  -0.1500 
 21 C       13.2310    -0.9150     0.2010 C.ar  1 <1>  -0.1500 
 22 C       12.0310    -1.7060    -1.7100 C.ar  1 <1>  -0.1500 
 23 C       13.1400    -1.0760    -1.1710 C.ar  1 <1>  -0.1430 
 24 C       14.2500    -0.5680    -2.0740 C.3   1 <1>  -0.0970 
 25 H       -0.2670    -2.0010    -1.5130 H     1 <1>   0.0800 
 26 H        0.4420    -3.4320    -0.7240 H     1 <1>   0.0800 
 27 H        3.0500    -0.0040     1.0770 H     1 <1>   0.1500 
 28 H        4.0230    -1.9730    -3.3650 H     1 <1>   0.1500 
 29 H        5.7080    -0.5240    -2.2540 H     1 <1>   0.1500 
 30 H        5.1380     1.1880     1.0240 H     1 <1>   0.0800 
 31 H        5.8670     1.4660    -0.5360 H     1 <1>   0.0800 
 32 H        7.5180     1.2600     1.9250 H     1 <1>   0.0800 
 33 H        8.1240     1.4250     0.3050 H     1 <1>   0.0800 
 34 H        5.6130    -1.8290     1.0960 H     1 <1>   0.0800 
 35 H        5.9350    -0.7390     2.4060 H     1 <1>   0.0800 
 36 H        9.3390     0.0280     2.4520 H     1 <1>   0.0800 
 37 H        9.9070     0.1730     0.8140 H     1 <1>   0.0800 
 38 H        7.3590    -3.0790     1.6800 H     1 <1>   0.0800 
 39 H        7.7280    -1.9850     2.9840 H     1 <1>   0.0800 
 40 H        8.5430    -1.6360     0.1990 H     1 <1>   0.4500 
 41 H        9.7440    -3.5020     1.1420 H     1 <1>   0.0800 
 42 H       10.3120    -2.4500     2.4200 H     1 <1>   0.0800 
 43 H       12.3230    -1.2410     2.0920 H     1 <1>   0.1500 
 44 H       10.1730    -2.6590    -1.3350 H     1 <1>   0.1500 
 45 H       14.0930    -0.4310     0.6280 H     1 <1>   0.1500 
 46 H       11.9540    -1.8380    -2.7760 H     1 <1>   0.1500 
 47 H       14.0830     0.4670    -2.3120 H     1 <1>   0.0800 
 48 H       14.2820    -1.1330    -2.9890 H     1 <1>   0.0800 
 49 H       15.2040    -0.6630    -1.5860 H     1 <1>   0.0800 
@<TRIPOS>BOND
  1   1   2  1   
  2   1   3  1   
  3   2   4  ar  
  4   2   5  ar  
  5   3   6  1   
  6   3  25  1   
  7   3  26  1   
  8   4   6  1   
  9   4   7  ar  
 10   5   8  ar  
 11   5  27  1   
 12   7   9  ar  
 13   7  28  1   
 14   8   9  ar  
 15   8  10  1   
 16   9  29  1   
 17  10  11  1   
 18  10  30  1   
 19  10  31  1   
 20  11  12  1   
 21  11  13  1   
 22  12  14  1   
 23  12  32  1   
 24  12  33  1   
 25  13  15  1   
 26  13  34  1   
 27  13  35  1   
 28  14  16  1   
 29  14  36  1   
 30  14  37  1   
 31  15  16  1   
 32  15  38  1   
 33  15  39  1   
 34  16  17  1   
 35  16  40  1   
 36  17  18  1   
 37  17  41  1   
 38  17  42  1   
 39  18  19  ar  
 40  18  20  ar  
 41  19  21  ar  
 42  19  43  1   
 43  20  22  ar  
 44  20  44  1   
 45  21  23  ar  
 46  21  45  1   
 47  22  23  ar  
 48  22  46  1   
 49  23  24  1   
 50  24  47  1   
 51  24  48  1   
 52  24  49  1   
@<TRIPOS>SUBSTRUCTURE
  1 ****  11 GROUP 4 **** **** 0

# MOE 2024.06 (io_trps.svl 2023.06)
