@<TRIPOS>MOLECULE
NONAME
39 42 1 0 0 
SMALL
USER_CHARGES


@<TRIPOS>ATOM
  1 O       -1.1690     0.3590    -0.4640 O.2   1 <1>  -0.5700 
  2 C       -1.7570    -0.2890     0.3660 C.2   1 <1>   0.6300 
  3 N       -1.4240    -1.5680     0.7070 N.am  1 <1>  -0.5470 
  4 C       -2.9080     0.3400     1.1350 C.3   1 <1>  -0.1000 
  5 C       -0.4150    -2.4050     0.2170 C.ar  1 <1>   0.1170 
  6 C       -4.2610    -0.2880     1.3240 C.3   1 <1>  -0.1950 
  7 C       -4.1180     1.0070     0.5500 C.3   1 <1>  -0.1950 
  8 C        0.8100    -1.9210    -0.2260 C.ar  1 <1>  -0.1500 
  9 C       -0.6390    -3.7740     0.1840 C.ar  1 <1>  -0.1500 
 10 C       -5.1850    -1.1380     0.4210 C.3   1 <1>   0.0150 
 11 C       -4.9620     0.7700    -0.7180 C.3   1 <1>   0.0150 
 12 C        1.8160    -2.7580    -0.7070 C.ar  1 <1>   0.0860 
 13 C        0.3360    -4.6320    -0.2850 C.ar  1 <1>  -0.1500 
 14 C       -6.0970    -0.0550    -0.1340 C.3   1 <1>  -0.1600 
 15 C       -4.4700    -1.5830    -0.8660 C.3   1 <1>  -0.1600 
 16 C       -4.2990    -0.2630    -1.6430 C.3   1 <1>  -0.1600 
 17 C        3.0800    -2.2040    -1.1550 C.2   1 <1>   0.4230 
 18 C        1.5460    -4.1300    -0.7250 C.ar  1 <1>  -0.1500 
 19 O        3.4620    -1.1030    -0.8600 O.2   1 <1>  -0.5700 
 20 C        3.9970    -3.0230    -2.0430 C.3   1 <1>  -0.1790 
 21 H       -2.0760    -1.9950     1.3610 H     1 <1>   0.3700 
 22 H       -2.4950     0.8400     1.9920 H     1 <1>   0.1000 
 23 H       -4.6710    -0.2130     2.3170 H     1 <1>   0.1000 
 24 H       -4.4240     1.9140     1.0440 H     1 <1>   0.1000 
 25 H        0.9960    -0.8610    -0.1970 H     1 <1>   0.1500 
 26 H       -1.5790    -4.1710     0.5220 H     1 <1>   0.1500 
 27 H       -5.6980    -1.9300     0.9390 H     1 <1>   0.0800 
 28 H       -5.2690     1.6750    -1.2140 H     1 <1>   0.0800 
 29 H        0.1520    -5.6930    -0.3080 H     1 <1>   0.1500 
 30 H       -6.6390     0.4690     0.6360 H     1 <1>   0.0800 
 31 H       -6.7780    -0.4210    -0.8830 H     1 <1>   0.0800 
 32 H       -5.1050    -2.2500    -1.4230 H     1 <1>   0.0800 
 33 H       -3.5410    -2.0830    -0.6810 H     1 <1>   0.0800 
 34 H       -3.2730    -0.0210    -1.8480 H     1 <1>   0.0800 
 35 H       -4.8300    -0.3140    -2.5780 H     1 <1>   0.0800 
 36 H        2.2880    -4.8220    -1.0790 H     1 <1>   0.1500 
 37 H        3.4340    -3.4910    -2.8290 H     1 <1>   0.0800 
 38 H        4.4990    -3.7710    -1.4580 H     1 <1>   0.0800 
 39 H        4.7360    -2.3820    -2.4890 H     1 <1>   0.0800 
@<TRIPOS>BOND
  1   1   2  2   
  2   2   3  am  
  3   2   4  1   
  4   3   5  1   
  5   3  21  1   
  6   4   6  1   
  7   4   7  1   
  8   4  22  1   
  9   5   8  ar  
 10   5   9  ar  
 11   6   7  1   
 12   6  10  1   
 13   6  23  1   
 14   7  11  1   
 15   7  24  1   
 16   8  12  ar  
 17   8  25  1   
 18   9  13  ar  
 19   9  26  1   
 20  10  14  1   
 21  10  15  1   
 22  10  27  1   
 23  11  14  1   
 24  11  16  1   
 25  11  28  1   
 26  12  17  1   
 27  12  18  ar  
 28  13  18  ar  
 29  13  29  1   
 30  14  30  1   
 31  14  31  1   
 32  15  16  1   
 33  15  32  1   
 34  15  33  1   
 35  16  34  1   
 36  16  35  1   
 37  17  19  2   
 38  17  20  1   
 39  18  36  1   
 40  20  37  1   
 41  20  38  1   
 42  20  39  1   
@<TRIPOS>SUBSTRUCTURE
  1 ****   3 GROUP 4 **** **** 0

# MOE 2024.06 (io_trps.svl 2023.06)
