@<TRIPOS>MOLECULE
NONAME
32 33 1 0 0 
SMALL
USER_CHARGES


@<TRIPOS>ATOM
  1 F       -0.0630    -1.1040     1.1070 F     1 <1>  -0.3400 
  2 C        0.2060    -1.6130    -0.0870 C.3   1 <1>   1.1640 
  3 F        0.1530    -0.6010    -0.9450 F     1 <1>  -0.3400 
  4 F       -0.8100    -2.4110    -0.3880 F     1 <1>  -0.3400 
  5 C        1.5390    -2.3500    -0.1070 C.ar  1 <1>  -0.1440 
  6 C        1.6970    -3.4490     0.7210 C.ar  1 <1>   0.1600 
  7 C        2.6040    -1.9750    -0.9130 C.ar  1 <1>  -0.1500 
  8 N        2.7910    -4.1840     0.8130 N.ar  1 <1>  -0.6200 
  9 C        3.7480    -2.7320    -0.8270 C.ar  1 <1>  -0.1500 
 10 C        3.8080    -3.8200     0.0400 C.ar  1 <1>   0.4100 
 11 N        4.9700    -4.5580     0.1230 N.pl3 1 <1>  -0.8380 
 12 C        4.8590    -6.0260     0.3140 C.3   1 <1>   0.2090 
 13 C        6.1460    -3.9030     0.7470 C.3   1 <1>   0.2090 
 14 C        6.0130    -6.7720    -0.3670 C.3   1 <1>  -0.1600 
 15 C        7.3470    -4.0280    -0.1930 C.3   1 <1>  -0.1600 
 16 C        7.3630    -6.5940     0.3470 C.3   1 <1>  -0.1600 
 17 C        8.1480    -5.3370    -0.0640 C.3   1 <1>  -0.1600 
 18 H        0.8760    -3.7500     1.3510 H     1 <1>   0.1500 
 19 H        2.5510    -1.1320    -1.5830 H     1 <1>   0.1500 
 20 H        4.6100    -2.5070    -1.4250 H     1 <1>   0.1500 
 21 H        3.9310    -6.3620    -0.1180 H     1 <1>   0.0800 
 22 H        4.8310    -6.2500     1.3660 H     1 <1>   0.0800 
 23 H        6.3560    -4.3400     1.7070 H     1 <1>   0.0800 
 24 H        5.9270    -2.8600     0.9020 H     1 <1>   0.0800 
 25 H        6.0800    -6.4800    -1.4000 H     1 <1>   0.0800 
 26 H        5.7650    -7.8180    -0.3460 H     1 <1>   0.0800 
 27 H        8.0160    -3.2090     0.0000 H     1 <1>   0.0800 
 28 H        6.9990    -3.9160    -1.2050 H     1 <1>   0.0800 
 29 H        7.9790    -7.4490     0.1320 H     1 <1>   0.0800 
 30 H        7.2030    -6.5870     1.4120 H     1 <1>   0.0800 
 31 H        8.9310    -5.1900     0.6600 H     1 <1>   0.0800 
 32 H        8.6290    -5.5240    -1.0090 H     1 <1>   0.0800 
@<TRIPOS>BOND
  1   1   2  1   
  2   2   3  1   
  3   2   4  1   
  4   2   5  1   
  5   5   6  ar  
  6   5   7  ar  
  7   6   8  ar  
  8   6  18  1   
  9   7   9  ar  
 10   7  19  1   
 11   8  10  ar  
 12   9  10  ar  
 13   9  20  1   
 14  10  11  1   
 15  11  12  1   
 16  11  13  1   
 17  12  14  1   
 18  12  21  1   
 19  12  22  1   
 20  13  15  1   
 21  13  23  1   
 22  13  24  1   
 23  14  16  1   
 24  14  25  1   
 25  14  26  1   
 26  15  17  1   
 27  15  27  1   
 28  15  28  1   
 29  16  17  1   
 30  16  29  1   
 31  16  30  1   
 32  17  31  1   
 33  17  32  1   
@<TRIPOS>SUBSTRUCTURE
  1 ****  10 GROUP 4 **** **** 0

# MOE 2024.06 (io_trps.svl 2023.06)
