@<TRIPOS>MOLECULE
NONAME
44 47 1 0 0 
SMALL
USER_CHARGES


@<TRIPOS>ATOM
  1 O        0.6540     0.2540     0.8470 O.2   1 <1>  -0.5700 
  2 C        1.5350    -0.4160     0.3720 C.2   1 <1>   0.6590 
  3 O        1.3770    -1.6920     0.0150 O.3   1 <1>  -0.2330 
  4 C        2.9380     0.1520     0.1450 C.3   1 <1>   0.0610 
  5 C        0.2410    -2.4430     0.0450 C.ar  1 <1>   0.0830 
  6 C        4.2310    -0.9110     0.6850 C.3   1 <1>  -0.1600 
  7 C        3.0550     1.9450     0.3830 C.3   1 <1>  -0.1600 
  8 C        3.3130     0.2010    -1.2760 C.3   1 <1>  -0.1600 
  9 C        0.3350    -3.8120     0.3030 C.ar  1 <1>   0.1660 
 10 C       -1.0080    -1.8930    -0.1900 C.ar  1 <1>  -0.1500 
 11 C        5.8370    -0.2680     0.4010 C.3   1 <1>  -0.0800 
 12 C        4.7570     2.5180     0.4190 C.3   1 <1>  -0.0800 
 13 C        4.6320     0.8670    -0.9220 C.3   1 <1>  -0.0800 
 14 N       -0.7040    -4.6310     0.3560 N.ar  1 <1>  -0.6200 
 15 C        1.6790    -4.4720     0.5570 C.3   1 <1>  -0.0970 
 16 C       -2.0890    -2.7450    -0.1350 C.ar  1 <1>  -0.1500 
 17 C        6.2010     1.4800     0.6660 C.3   1 <1>  -0.1600 
 18 C        5.7480    -0.1570    -1.0550 C.3   1 <1>  -0.1600 
 19 C        4.5650     1.5670     0.9340 C.3   1 <1>  -0.1600 
 20 C       -1.8900    -4.0880     0.1400 C.ar  1 <1>   0.1670 
 21 C       -3.0690    -5.0350     0.2060 C.3   1 <1>  -0.0970 
 22 H        4.1410    -1.8670     0.1970 H     1 <1>   0.0800 
 23 H        4.1090    -1.1180     1.7350 H     1 <1>   0.0800 
 24 H        2.4670     2.2260     1.2610 H     1 <1>   0.0800 
 25 H        2.5360     2.4640    -0.4090 H     1 <1>   0.0800 
 26 H        2.6620     0.8340    -1.8540 H     1 <1>   0.0800 
 27 H        3.3780    -0.7660    -1.7430 H     1 <1>   0.0800 
 28 H       -1.1430    -0.8490    -0.4070 H     1 <1>   0.1500 
 29 H        6.6330    -0.9270     0.7030 H     1 <1>   0.0800 
 30 H        4.9190     3.0740    -0.4940 H     1 <1>   0.0800 
 31 H        4.8080     1.5540    -1.7410 H     1 <1>   0.0800 
 32 H        2.4720    -3.9580     0.0490 H     1 <1>   0.0800 
 33 H        1.6580    -5.4870     0.2040 H     1 <1>   0.0800 
 34 H        1.8780    -4.4790     1.6120 H     1 <1>   0.0800 
 35 H       -3.0790    -2.3640    -0.3050 H     1 <1>   0.1500 
 36 H        6.9760     1.8120    -0.0090 H     1 <1>   0.0800 
 37 H        6.6780     1.5990     1.6420 H     1 <1>   0.0800 
 38 H        5.4970    -1.0820    -1.5450 H     1 <1>   0.0800 
 39 H        6.6430     0.2480    -1.4940 H     1 <1>   0.0800 
 40 H        4.4020     0.9710     1.8630 H     1 <1>   0.0800 
 41 H        4.6040     2.3290     1.7740 H     1 <1>   0.0800 
 42 H       -3.1100    -5.4860     1.1810 H     1 <1>   0.0800 
 43 H       -2.9460    -5.8100    -0.5280 H     1 <1>   0.0800 
 44 H       -3.9930    -4.5200     0.0200 H     1 <1>   0.0800 
@<TRIPOS>BOND
  1   1   2  2   
  2   2   3  1   
  3   2   4  1   
  4   3   5  1   
  5   4   6  1   
  6   4   7  1   
  7   4   8  1   
  8   5   9  ar  
  9   5  10  ar  
 10   6  11  1   
 11   6  22  1   
 12   6  23  1   
 13   7  12  1   
 14   7  24  1   
 15   7  25  1   
 16   8  13  1   
 17   8  26  1   
 18   8  27  1   
 19   9  14  ar  
 20   9  15  1   
 21  10  16  ar  
 22  10  28  1   
 23  11  17  1   
 24  11  18  1   
 25  11  29  1   
 26  12  17  1   
 27  12  19  1   
 28  12  30  1   
 29  13  18  1   
 30  13  19  1   
 31  13  31  1   
 32  14  20  ar  
 33  15  32  1   
 34  15  33  1   
 35  15  34  1   
 36  16  20  ar  
 37  16  35  1   
 38  17  36  1   
 39  17  37  1   
 40  18  38  1   
 41  18  39  1   
 42  19  40  1   
 43  19  41  1   
 44  20  21  1   
 45  21  42  1   
 46  21  43  1   
 47  21  44  1   
@<TRIPOS>SUBSTRUCTURE
  1 ****   3 GROUP 4 **** **** 0

# MOE 2024.06 (io_trps.svl 2023.06)
