@<TRIPOS>MOLECULE
NONAME
32 34 1 0 0 
SMALL
USER_CHARGES


@<TRIPOS>ATOM
  1 S       -0.3200    -0.0750    -0.2740 S.3   1 <1>  -0.3320 
  2 C       -2.0960    -0.3100    -0.2490 C.ar  1 <1>   0.7220 
  3 C        0.4250    -1.5570     0.5560 C.3   1 <1>   0.0700 
  4 N       -2.7960     0.6560    -0.8910 N.ar  1 <1>  -0.3100 
  5 N       -2.5600    -1.3680     0.3730 N.ar  1 <1>  -0.5670 
  6 C        0.9260    -2.5550    -0.5020 C.3   1 <1>  -0.0800 
  7 N       -4.0960     0.5930    -0.9430 N.ar  1 <1>  -0.2560 
  8 C       -3.8890    -1.4150     0.3080 C.ar  1 <1>   0.1050 
  9 C       -0.2230    -3.1860    -1.3010 C.3   1 <1>  -0.2400 
 10 C        1.7420    -3.6620     0.1770 C.3   1 <1>  -0.2400 
 11 C       -4.6540    -0.4590    -0.3350 C.ar  1 <1>   0.2560 
 12 N       -4.7120    -2.3670     0.8360 N.pl3 1 <1>   0.0330 
 13 C       -6.0150    -0.8470    -0.1910 C.ar  1 <1>   0.0000 
 14 C       -6.0180    -2.0330     0.5390 C.ar  1 <1>  -0.1520 
 15 C       -7.2230    -0.2940    -0.6160 C.ar  1 <1>  -0.1500 
 16 C       -7.2130    -2.6780     0.8530 C.ar  1 <1>  -0.1500 
 17 C       -8.4060    -0.9310    -0.3060 C.ar  1 <1>  -0.1500 
 18 C       -8.4000    -2.1210     0.4280 C.ar  1 <1>  -0.1500 
 19 H       -0.3020    -1.9950     1.2140 H     1 <1>   0.0800 
 20 H        1.2470    -1.1840     1.1410 H     1 <1>   0.0800 
 21 H        1.5750    -2.0300    -1.1830 H     1 <1>   0.0800 
 22 H       -0.9180    -3.6780    -0.6430 H     1 <1>   0.0800 
 23 H        0.1600    -3.9080    -1.9990 H     1 <1>   0.0800 
 24 H       -0.7530    -2.4370    -1.8610 H     1 <1>   0.0800 
 25 H        1.1310    -4.2150     0.8690 H     1 <1>   0.0800 
 26 H        2.5740    -3.2400     0.7130 H     1 <1>   0.0800 
 27 H        2.1300    -4.3450    -0.5590 H     1 <1>   0.0800 
 28 H       -4.3950    -3.1840     1.3630 H     1 <1>   0.2700 
 29 H       -7.2130     0.6230    -1.1790 H     1 <1>   0.1500 
 30 H       -7.2070    -3.5940     1.4180 H     1 <1>   0.1500 
 31 H       -9.3450    -0.5150    -0.6270 H     1 <1>   0.1500 
 32 H       -9.3360    -2.6000     0.6570 H     1 <1>   0.1500 
@<TRIPOS>BOND
  1   1   2  1   
  2   1   3  1   
  3   2   4  ar  
  4   2   5  ar  
  5   3   6  1   
  6   3  19  1   
  7   3  20  1   
  8   4   7  ar  
  9   5   8  ar  
 10   6   9  1   
 11   6  10  1   
 12   6  21  1   
 13   7  11  ar  
 14   8  11  ar  
 15   8  12  1   
 16   9  22  1   
 17   9  23  1   
 18   9  24  1   
 19  10  25  1   
 20  10  26  1   
 21  10  27  1   
 22  11  13  1   
 23  12  14  1   
 24  12  28  1   
 25  13  14  ar  
 26  13  15  ar  
 27  14  16  ar  
 28  15  17  ar  
 29  15  29  1   
 30  16  18  ar  
 31  16  30  1   
 32  17  18  ar  
 33  17  31  1   
 34  18  32  1   
@<TRIPOS>SUBSTRUCTURE
  1 ****   8 GROUP 4 **** **** 0

# MOE 2024.06 (io_trps.svl 2023.06)
