@<TRIPOS>MOLECULE
NONAME
41 42 1 0 0 
SMALL
USER_CHARGES


@<TRIPOS>ATOM
  1 P       -0.6510     0.7270    -0.7630 P.3   1 <1>   0.9780 
  2 O       -1.3310     0.4790    -2.0330 O.2   1 <1>  -0.7000 
  3 C        0.9150    -0.1270    -0.5920 C.ar  1 <1>  -0.1390 
  4 C       -0.2440     2.4520    -0.5300 C.ar  1 <1>  -0.1390 
  5 C       -1.6580     0.3760     0.6810 C.3   1 <1>   0.1200 
  6 C        1.0700    -1.3020     0.1390 C.ar  1 <1>  -0.1500 
  7 C        2.0550     0.3650    -1.2230 C.ar  1 <1>  -0.1500 
  8 C       -0.7770     3.4300    -1.3620 C.ar  1 <1>  -0.1500 
  9 C        0.5970     2.8830     0.4910 C.ar  1 <1>  -0.1500 
 10 O       -2.0840    -0.9530     0.8700 O.3   1 <1>  -0.5600 
 11 C        2.2930    -1.9380     0.2570 C.ar  1 <1>  -0.1500 
 12 C        3.2850    -0.2600    -1.1150 C.ar  1 <1>  -0.1500 
 13 C       -0.4910     4.7730    -1.1870 C.ar  1 <1>  -0.1500 
 14 C        0.8920     4.2220     0.6770 C.ar  1 <1>  -0.1500 
 15 C       -2.9730    -1.4340    -0.0890 C.3   1 <1>   0.1200 
 16 C        3.4080    -1.4150    -0.3690 C.ar  1 <1>  -0.1500 
 17 C        0.3460     5.1720    -0.1640 C.ar  1 <1>  -0.1500 
 18 C       -3.4830    -2.7920     0.3890 C.3   1 <1>  -0.1600 
 19 C       -4.4700    -3.3990    -0.6160 C.3   1 <1>  -0.1600 
 20 C       -4.9780    -4.7600    -0.1350 C.3   1 <1>  -0.2400 
 21 H       -2.5440     0.9840     0.6830 H     1 <1>   0.0800 
 22 H       -1.1170     0.6270     1.5740 H     1 <1>   0.0800 
 23 H        0.2240    -1.7490     0.6320 H     1 <1>   0.1500 
 24 H        1.9840     1.2600    -1.8180 H     1 <1>   0.1500 
 25 H       -1.4310     3.1370    -2.1680 H     1 <1>   0.1500 
 26 H        1.0420     2.1630     1.1590 H     1 <1>   0.1500 
 27 H        2.3760    -2.8420     0.8340 H     1 <1>   0.1500 
 28 H        4.1440     0.1530    -1.6140 H     1 <1>   0.1500 
 29 H       -0.9200     5.5050    -1.8500 H     1 <1>   0.1500 
 30 H        1.5480     4.5250     1.4750 H     1 <1>   0.1500 
 31 H       -2.4570    -1.5420    -1.0280 H     1 <1>   0.0800 
 32 H       -3.7890    -0.7400    -0.1960 H     1 <1>   0.0800 
 33 H        4.3610    -1.9060    -0.2800 H     1 <1>   0.1500 
 34 H        0.5730     6.2150    -0.0240 H     1 <1>   0.1500 
 35 H       -3.9700    -2.6670     1.3410 H     1 <1>   0.0800 
 36 H       -2.6450    -3.4550     0.5130 H     1 <1>   0.0800 
 37 H       -3.9850    -3.5180    -1.5710 H     1 <1>   0.0800 
 38 H       -5.3070    -2.7340    -0.7480 H     1 <1>   0.0800 
 39 H       -4.1590    -5.4470    -0.0180 H     1 <1>   0.0800 
 40 H       -5.6680    -5.1700    -0.8520 H     1 <1>   0.0800 
 41 H       -5.4850    -4.6610     0.8090 H     1 <1>   0.0800 
@<TRIPOS>BOND
  1   1   2  2   
  2   1   3  1   
  3   1   4  1   
  4   1   5  1   
  5   3   6  ar  
  6   3   7  ar  
  7   4   8  ar  
  8   4   9  ar  
  9   5  10  1   
 10   5  21  1   
 11   5  22  1   
 12   6  11  ar  
 13   6  23  1   
 14   7  12  ar  
 15   7  24  1   
 16   8  13  ar  
 17   8  25  1   
 18   9  14  ar  
 19   9  26  1   
 20  10  15  1   
 21  11  16  ar  
 22  11  27  1   
 23  12  16  ar  
 24  12  28  1   
 25  13  17  ar  
 26  13  29  1   
 27  14  17  ar  
 28  14  30  1   
 29  15  18  1   
 30  15  31  1   
 31  15  32  1   
 32  16  33  1   
 33  17  34  1   
 34  18  19  1   
 35  18  35  1   
 36  18  36  1   
 37  19  20  1   
 38  19  37  1   
 39  19  38  1   
 40  20  39  1   
 41  20  40  1   
 42  20  41  1   
@<TRIPOS>SUBSTRUCTURE
  1 ****   1 GROUP 4 **** **** 0

# MOE 2024.06 (io_trps.svl 2023.06)
