@<TRIPOS>MOLECULE
NONAME
38 39 1 0 0 
SMALL
USER_CHARGES


@<TRIPOS>ATOM
  1 CL       2.7020     2.7210    -3.6530 Cl    1 <1>  -0.1770 
  2 C        2.2300     3.2230    -2.0500 C.ar  1 <1>   0.1770 
  3 C        0.9230     3.6010    -1.8170 C.ar  1 <1>  -0.1500 
  4 C        3.1710     3.2340    -1.0400 C.ar  1 <1>  -0.1500 
  5 C        0.5200     4.0030    -0.5460 C.ar  1 <1>  -0.0090 
  6 C        2.7900     3.6350     0.2260 C.ar  1 <1>  -0.1500 
  7 S       -1.1840     4.5110    -0.1890 S.o2  1 <1>   1.4470 
  8 C        1.4710     4.0200     0.4720 C.ar  1 <1>   0.0830 
  9 O       -1.8210     3.6230     0.7510 O.2   1 <1>  -0.6500 
 10 O       -1.2670     5.9450     0.0040 O.2   1 <1>  -0.6500 
 11 N       -2.0260     4.1810    -1.6020 N.am  1 <1>  -0.9140 
 12 O        1.0540     4.4290     1.6960 O.3   1 <1>  -0.3620 
 13 C       -3.0840     5.1480    -1.9190 C.3   1 <1>   0.3370 
 14 C        1.9040     4.4420     2.8230 C.3   1 <1>   0.0400 
 15 C       -4.2330     5.2150    -0.8750 C.2   1 <1>   0.5690 
 16 C       -3.5820     4.7870    -3.3210 C.3   1 <1>  -0.2400 
 17 O       -5.2210     4.5320    -1.0300 O.2   1 <1>  -0.5700 
 18 N       -4.0880     6.0350     0.2020 N.am  1 <1>  -0.5790 
 19 C       -5.0180     6.1440     1.3310 C.3   1 <1>   0.0490 
 20 C       -4.9220     7.3510     2.2040 C.3   1 <1>  -0.2000 
 21 C       -4.4490     6.0190     2.7040 C.3   1 <1>  -0.2000 
 22 H        0.2290     3.5790    -2.6380 H     1 <1>   0.1500 
 23 H        4.1830     2.9340    -1.2480 H     1 <1>   0.1500 
 24 H        3.5310     3.6430     1.0040 H     1 <1>   0.1500 
 25 H       -2.5130     3.3130    -1.3720 H     1 <1>   0.4200 
 26 H       -2.6490     6.1310    -1.9890 H     1 <1>   0.0800 
 27 H        1.3310     4.7810     3.6670 H     1 <1>   0.0800 
 28 H        2.7190     5.1190     2.6390 H     1 <1>   0.0800 
 29 H        2.2610     3.4430     3.0040 H     1 <1>   0.0800 
 30 H       -4.0180     3.8040    -3.3260 H     1 <1>   0.0800 
 31 H       -2.7720     4.8240    -4.0270 H     1 <1>   0.0800 
 32 H       -4.3350     5.4900    -3.6290 H     1 <1>   0.0800 
 33 H       -3.1610     6.4510     0.3720 H     1 <1>   0.3700 
 34 H       -5.9870     5.7110     1.1330 H     1 <1>   0.1000 
 35 H       -5.8260     7.7580     2.6220 H     1 <1>   0.1000 
 36 H       -4.1950     8.1070     1.9700 H     1 <1>   0.1000 
 37 H       -3.3930     5.8300     2.8020 H     1 <1>   0.1000 
 38 H       -5.0310     5.5160     3.4550 H     1 <1>   0.1000 
@<TRIPOS>BOND
  1   1   2  1   
  2   2   3  ar  
  3   2   4  ar  
  4   3   5  ar  
  5   3  22  1   
  6   4   6  ar  
  7   4  23  1   
  8   5   7  1   
  9   5   8  ar  
 10   6   8  ar  
 11   6  24  1   
 12   7   9  2   
 13   7  10  2   
 14   7  11  am  
 15   8  12  1   
 16  11  13  1   
 17  11  25  1   
 18  12  14  1   
 19  13  15  1   
 20  13  16  1   
 21  13  26  1   
 22  14  27  1   
 23  14  28  1   
 24  14  29  1   
 25  15  17  2   
 26  15  18  am  
 27  16  30  1   
 28  16  31  1   
 29  16  32  1   
 30  18  19  1   
 31  18  33  1   
 32  19  20  1   
 33  19  21  1   
 34  19  34  1   
 35  20  21  1   
 36  20  35  1   
 37  20  36  1   
 38  21  37  1   
 39  21  38  1   
@<TRIPOS>SUBSTRUCTURE
  1 ****   7 GROUP 4 **** **** 0

# MOE 2024.06 (io_trps.svl 2023.06)
