@<TRIPOS>MOLECULE
NONAME
39 41 1 0 0 
SMALL
USER_CHARGES


@<TRIPOS>ATOM
  1 CL      -2.9170     0.5830    -3.4320 Cl    1 <1>  -0.1770 
  2 C       -2.7760     1.7740    -2.1650 C.ar  1 <1>   0.1770 
  3 C       -1.8370     2.7760    -2.2810 C.ar  1 <1>  -0.1500 
  4 C       -3.6110     1.6900    -1.0640 C.ar  1 <1>  -0.1500 
  5 C       -1.7520     3.7020    -1.2620 C.ar  1 <1>   0.1770 
  6 C       -3.5290     2.6250    -0.0340 C.ar  1 <1>  -0.1440 
  7 CL      -0.5730     4.9820    -1.3720 Cl    1 <1>  -0.1770 
  8 C       -2.5780     3.6390    -0.1530 C.ar  1 <1>  -0.1500 
  9 C       -4.4850     2.4980     1.1710 C.3   1 <1>   0.4440 
 10 N       -5.8870     2.4370     0.6630 N.am  1 <1>  -0.4200 
 11 C       -4.0600     1.2400     1.9460 C.3   1 <1>  -0.2400 
 12 C       -4.4010     3.6730     2.1610 C.3   1 <1>  -0.2400 
 13 C       -6.8550     1.4690     0.8470 C.2   1 <1>   0.6160 
 14 C       -6.4270     3.4030    -0.1640 C.2   1 <1>   0.6160 
 15 O       -6.7600     0.4660     1.5240 O.2   1 <1>  -0.5700 
 16 C       -8.0110     1.8450     0.0990 C.2   1 <1>  -0.1240 
 17 O       -5.8730     4.4200    -0.5280 O.2   1 <1>  -0.5700 
 18 C       -7.7550     3.0110    -0.5050 C.2   1 <1>  -0.1240 
 19 C       -9.3190     1.0830    -0.0130 C.3   1 <1>  -0.0220 
 20 C       -8.7310     3.7580    -1.3940 C.3   1 <1>  -0.0220 
 21 C      -10.1570     1.6410    -1.1800 C.3   1 <1>  -0.1600 
 22 C      -10.1510     3.1840    -1.2190 C.3   1 <1>  -0.1600 
 23 H       -1.1930     2.8360    -3.1380 H     1 <1>   0.1500 
 24 H       -4.3260     0.8870    -1.0250 H     1 <1>   0.1500 
 25 H       -2.4590     4.3990     0.5960 H     1 <1>   0.1500 
 26 H       -3.0290     1.3220     2.2390 H     1 <1>   0.0800 
 27 H       -4.1590     0.3580     1.3400 H     1 <1>   0.0800 
 28 H       -4.6490     1.1200     2.8380 H     1 <1>   0.0800 
 29 H       -3.4260     3.7170     2.6110 H     1 <1>   0.0800 
 30 H       -5.1240     3.5480     2.9470 H     1 <1>   0.0800 
 31 H       -4.5850     4.6100     1.6690 H     1 <1>   0.0800 
 32 H       -9.8600     1.1860     0.9120 H     1 <1>   0.0800 
 33 H       -9.1230     0.0370    -0.1710 H     1 <1>   0.0800 
 34 H       -8.4160     3.6550    -2.4180 H     1 <1>   0.0800 
 35 H       -8.7270     4.8060    -1.1460 H     1 <1>   0.0800 
 36 H      -11.1680     1.2820    -1.0960 H     1 <1>   0.0800 
 37 H       -9.7540     1.2700    -2.1080 H     1 <1>   0.0800 
 38 H      -10.7780     3.5320    -2.0220 H     1 <1>   0.0800 
 39 H      -10.5660     3.5550    -0.2970 H     1 <1>   0.0800 
@<TRIPOS>BOND
  1   1   2  1   
  2   2   3  ar  
  3   2   4  ar  
  4   3   5  ar  
  5   3  23  1   
  6   4   6  ar  
  7   4  24  1   
  8   5   7  1   
  9   5   8  ar  
 10   6   8  ar  
 11   6   9  1   
 12   8  25  1   
 13   9  10  1   
 14   9  11  1   
 15   9  12  1   
 16  10  13  am  
 17  10  14  am  
 18  11  26  1   
 19  11  27  1   
 20  11  28  1   
 21  12  29  1   
 22  12  30  1   
 23  12  31  1   
 24  13  15  2   
 25  13  16  1   
 26  14  17  2   
 27  14  18  1   
 28  16  18  2   
 29  16  19  1   
 30  18  20  1   
 31  19  21  1   
 32  19  32  1   
 33  19  33  1   
 34  20  22  1   
 35  20  34  1   
 36  20  35  1   
 37  21  22  1   
 38  21  36  1   
 39  21  37  1   
 40  22  38  1   
 41  22  39  1   
@<TRIPOS>SUBSTRUCTURE
  1 ****  10 GROUP 4 **** **** 0

# MOE 2024.06 (io_trps.svl 2023.06)
