@<TRIPOS>MOLECULE
NONAME
38 40 1 0 0 
SMALL
USER_CHARGES


@<TRIPOS>ATOM
  1 S        0.1170    -0.4790     0.0640 S.3   1 <1>  -0.3710 
  2 C        1.5000     0.6430     0.0560 C.2   1 <1>   0.6410 
  3 C       -1.4130     0.5560     0.0170 C.3   1 <1>   0.0700 
  4 N        2.6760     0.1440     0.0860 N.2   1 <1>  -0.6610 
  5 N        1.2050     1.9710     0.0190 N.pl3 1 <1>  -0.5500 
  6 C       -2.6180    -0.3770     0.0220 C.3   1 <1>   0.1200 
  7 C        3.7070     1.0420     0.0780 C.2   1 <1>   0.7670 
  8 C        2.1920     2.8930     0.0100 C.2   1 <1>   0.2000 
  9 O       -3.7790     0.4200    -0.0140 O.3   1 <1>  -0.3630 
 10 O        4.8530     0.6070     0.1060 O.2   1 <1>  -0.5700 
 11 C        3.4690     2.4270     0.0400 C.2   1 <1>  -0.1360 
 12 N        1.8230     4.1980    -0.0270 N.pl3 1 <1>  -0.9000 
 13 C       -5.0150    -0.1390    -0.0190 C.ar  1 <1>   0.0830 
 14 C       -6.0920     0.7360    -0.0550 C.ar  1 <1>  -0.1500 
 15 C       -5.2440    -1.5160     0.0110 C.ar  1 <1>  -0.1500 
 16 C       -7.3780     0.2310    -0.0610 C.ar  1 <1>  -0.1430 
 17 C       -6.5390    -2.0110     0.0050 C.ar  1 <1>  -0.1500 
 18 C       -7.5980    -1.1230    -0.0310 C.ar  1 <1>  -0.1430 
 19 C       -8.6760     0.9980    -0.0980 C.3   1 <1>  -0.0170 
 20 C       -9.0730    -1.4390    -0.0450 C.3   1 <1>  -0.0170 
 21 C       -9.7330    -0.0740     0.2220 C.3   1 <1>  -0.1600 
 22 H       -1.3840     1.1380    -0.8870 H     1 <1>   0.0800 
 23 H       -1.4090     1.1810     0.8920 H     1 <1>   0.0800 
 24 H        0.2360     2.2640    -0.0020 H     1 <1>   0.4000 
 25 H       -2.6360    -0.9680     0.9220 H     1 <1>   0.0800 
 26 H       -2.6100    -1.0110    -0.8480 H     1 <1>   0.0800 
 27 H        4.3180     3.0780     0.0370 H     1 <1>   0.1500 
 28 H        2.5160     4.9550    -0.0360 H     1 <1>   0.4000 
 29 H        0.8530     4.5230    -0.0490 H     1 <1>   0.4000 
 30 H       -5.9170     1.7950    -0.0780 H     1 <1>   0.1500 
 31 H       -4.4330    -2.2180     0.0390 H     1 <1>   0.1500 
 32 H       -6.7200    -3.0700     0.0270 H     1 <1>   0.1500 
 33 H       -8.8270     1.3980    -1.0850 H     1 <1>   0.0800 
 34 H       -8.6870     1.7930     0.6270 H     1 <1>   0.0800 
 35 H       -9.3310    -2.1580     0.7120 H     1 <1>   0.0800 
 36 H       -9.3500    -1.8120    -1.0150 H     1 <1>   0.0800 
 37 H      -10.6270     0.0590    -0.3610 H     1 <1>   0.0800 
 38 H       -9.9830    -0.0110     1.2670 H     1 <1>   0.0800 
@<TRIPOS>BOND
  1   1   2  1   
  2   1   3  1   
  3   2   4  2   
  4   2   5  1   
  5   3   6  1   
  6   3  22  1   
  7   3  23  1   
  8   4   7  1   
  9   5   8  1   
 10   5  24  1   
 11   6   9  1   
 12   6  25  1   
 13   6  26  1   
 14   7  10  2   
 15   7  11  1   
 16   8  11  2   
 17   8  12  1   
 18   9  13  1   
 19  11  27  1   
 20  12  28  1   
 21  12  29  1   
 22  13  14  ar  
 23  13  15  ar  
 24  14  16  ar  
 25  14  30  1   
 26  15  17  ar  
 27  15  31  1   
 28  16  18  ar  
 29  16  19  1   
 30  17  18  ar  
 31  17  32  1   
 32  18  20  1   
 33  19  21  1   
 34  19  33  1   
 35  19  34  1   
 36  20  21  1   
 37  20  35  1   
 38  20  36  1   
 39  21  37  1   
 40  21  38  1   
@<TRIPOS>SUBSTRUCTURE
  1 ****   6 GROUP 4 **** **** 0

# MOE 2024.06 (io_trps.svl 2023.06)
