@<TRIPOS>MOLECULE
NONAME
25 24 1 0 0 
SMALL
USER_CHARGES


@<TRIPOS>ATOM
  1 O       -1.4450     0.7900    -1.3730 O.2   1 <1>  -0.5700 
  2 C       -1.9050     1.1340    -0.3150 C.2   1 <1>   0.6590 
  3 O       -2.6740     0.3310     0.4100 O.3   1 <1>  -0.4300 
  4 C       -1.6530     2.5090     0.2680 C.3   1 <1>   0.0420 
  5 C       -2.9530    -0.9940     0.0040 C.3   1 <1>   0.0400 
  6 C       -2.7110     3.4590    -0.2660 C.2   1 <1>   0.4480 
  7 C       -0.2140     3.0010    -0.0170 C.3   1 <1>  -0.0990 
  8 O       -2.4270     4.4650    -0.8440 O.2   1 <1>  -0.5700 
  9 C       -4.1660     3.1220    -0.0100 C.3   1 <1>  -0.1790 
 10 C        0.8340     2.0570     0.5290 C.2   1 <1>   0.6590 
 11 O        0.6110     1.3430     1.4740 O.2   1 <1>  -0.5700 
 12 O        2.0090     2.0760    -0.0850 O.3   1 <1>  -0.4300 
 13 C        3.0680     1.2320     0.3150 C.3   1 <1>   0.0400 
 14 H       -1.7800     2.4470     1.3330 H     1 <1>   0.0800 
 15 H       -3.4480    -0.9700    -0.9510 H     1 <1>   0.0800 
 16 H       -3.5880    -1.4510     0.7420 H     1 <1>   0.0800 
 17 H       -2.0250    -1.5350    -0.0720 H     1 <1>   0.0800 
 18 H       -0.0620     3.9670     0.4280 H     1 <1>   0.0800 
 19 H       -0.0690     3.0970    -1.0780 H     1 <1>   0.0800 
 20 H       -4.7800     3.9710    -0.2510 H     1 <1>   0.0800 
 21 H       -4.4700     2.2970    -0.6260 H     1 <1>   0.0800 
 22 H       -4.3150     2.8710     1.0240 H     1 <1>   0.0800 
 23 H        3.9130     1.4210    -0.3220 H     1 <1>   0.0800 
 24 H        2.7520     0.2080     0.2190 H     1 <1>   0.0800 
 25 H        3.3190     1.4500     1.3390 H     1 <1>   0.0800 
@<TRIPOS>BOND
  1   1   2  2   
  2   2   3  1   
  3   2   4  1   
  4   3   5  1   
  5   4   6  1   
  6   4   7  1   
  7   4  14  1   
  8   5  15  1   
  9   5  16  1   
 10   5  17  1   
 11   6   8  2   
 12   6   9  1   
 13   7  10  1   
 14   7  18  1   
 15   7  19  1   
 16   9  20  1   
 17   9  21  1   
 18   9  22  1   
 19  10  11  2   
 20  10  12  1   
 21  12  13  1   
 22  13  23  1   
 23  13  24  1   
 24  13  25  1   
@<TRIPOS>SUBSTRUCTURE
  1 ****   4 GROUP 4 **** **** 0

# MOE 2024.06 (io_trps.svl 2023.06)
