@<TRIPOS>MOLECULE
NONAME
55 56 1 0 0 
SMALL
USER_CHARGES


@<TRIPOS>ATOM
  1 O        0.4740     0.4290     0.1580 O.2   1 <1>  -0.5700 
  2 C        0.6880    -0.7620     0.1920 C.2   1 <1>   0.6900 
  3 N        1.8820    -1.1970    -0.2750 N.am  1 <1>  -0.4900 
  4 N       -0.2210    -1.6270     0.6710 N.am  1 <1>  -0.7300 
  5 C        2.3860    -2.4640    -0.3760 C.2   1 <1>   0.5690 
  6 C       -1.6100    -1.2930     0.9950 C.3   1 <1>   0.5070 
  7 O        1.7480    -3.4400    -0.0520 O.2   1 <1>  -0.5700 
  8 C        3.8080    -2.6340    -0.9480 C.3   1 <1>   0.2810 
  9 C       -2.0860    -2.0130     2.2660 C.ar  1 <1>  -0.1440 
 10 C       -2.4470    -1.6530    -0.2310 C.ar  1 <1>  -0.1440 
 11 N        3.7280    -2.9430    -2.4050 N.am  1 <1>  -0.7300 
 12 C        4.6480    -3.7120    -0.2070 C.3   1 <1>  -0.0800 
 13 C       -3.4350    -1.9570     2.5980 C.ar  1 <1>  -0.1500 
 14 C       -1.2270    -2.7100     3.1110 C.ar  1 <1>  -0.1500 
 15 C       -2.8460    -2.9610    -0.4750 C.ar  1 <1>  -0.1500 
 16 C       -2.8080    -0.6600    -1.1310 C.ar  1 <1>  -0.1500 
 17 C        4.2420    -2.2770    -3.4610 C.2   1 <1>   0.5690 
 18 C        4.7860    -3.3610     1.2950 C.3   1 <1>  -0.1600 
 19 C        6.0420    -3.8950    -0.8470 C.3   1 <1>  -0.2400 
 20 C       -3.9160    -2.5860     3.7330 C.ar  1 <1>  -0.1500 
 21 C       -1.7060    -3.3400     4.2460 C.ar  1 <1>  -0.1500 
 22 C       -3.6000    -3.2690    -1.5950 C.ar  1 <1>  -0.1500 
 23 C       -3.5620    -0.9660    -2.2510 C.ar  1 <1>  -0.1500 
 24 O        4.0210    -2.6640    -4.5770 O.2   1 <1>  -0.5700 
 25 C        5.0910    -1.0450    -3.2680 C.3   1 <1>  -0.1790 
 26 C        5.4650    -4.4570     2.1270 C.3   1 <1>  -0.2400 
 27 C       -3.0520    -3.2800     4.5590 C.ar  1 <1>  -0.1500 
 28 C       -3.9590    -2.2710    -2.4830 C.ar  1 <1>  -0.1500 
 29 H        2.4310    -0.4250    -0.6360 H     1 <1>   0.3700 
 30 H       -0.0390    -2.6240     0.5300 H     1 <1>   0.3700 
 31 H       -1.6840    -0.2330     1.1740 H     1 <1>   0.0800 
 32 H        4.3180    -1.6970    -0.8240 H     1 <1>   0.0800 
 33 H        3.1750    -3.7730    -2.6380 H     1 <1>   0.3700 
 34 H        4.1180    -4.6470    -0.2820 H     1 <1>   0.0800 
 35 H       -4.1240    -1.4230     1.9660 H     1 <1>   0.1500 
 36 H       -0.1730    -2.7730     2.9030 H     1 <1>   0.1500 
 37 H       -2.5710    -3.7480     0.2070 H     1 <1>   0.1500 
 38 H       -2.4960     0.3580    -0.9660 H     1 <1>   0.1500 
 39 H        3.8100    -3.2050     1.7210 H     1 <1>   0.0800 
 40 H        5.3380    -2.4430     1.4080 H     1 <1>   0.0800 
 41 H        6.6250    -2.9960    -0.7570 H     1 <1>   0.0800 
 42 H        5.9620    -4.1500    -1.8890 H     1 <1>   0.0800 
 43 H        6.5770    -4.6990    -0.3750 H     1 <1>   0.0800 
 44 H       -4.9640    -2.5340     3.9720 H     1 <1>   0.1500 
 45 H       -1.0300    -3.8780     4.8880 H     1 <1>   0.1500 
 46 H       -3.9050    -4.2850    -1.7740 H     1 <1>   0.1500 
 47 H       -3.8370    -0.1890    -2.9420 H     1 <1>   0.1500 
 48 H        5.9290    -1.2720    -2.6370 H     1 <1>   0.0800 
 49 H        4.5040    -0.2600    -2.8340 H     1 <1>   0.0800 
 50 H        5.4610    -0.7130    -4.2210 H     1 <1>   0.0800 
 51 H        4.9760    -5.4030     1.9740 H     1 <1>   0.0800 
 52 H        5.4040    -4.2100     3.1720 H     1 <1>   0.0800 
 53 H        6.5050    -4.5550     1.8720 H     1 <1>   0.0800 
 54 H       -3.4240    -3.7700     5.4410 H     1 <1>   0.1500 
 55 H       -4.5450    -2.5090    -3.3530 H     1 <1>   0.1500 
@<TRIPOS>BOND
  1   1   2  2   
  2   2   3  am  
  3   2   4  am  
  4   3   5  am  
  5   3  29  1   
  6   4   6  1   
  7   4  30  1   
  8   5   7  2   
  9   5   8  1   
 10   6   9  1   
 11   6  10  1   
 12   6  31  1   
 13   8  11  1   
 14   8  12  1   
 15   8  32  1   
 16   9  13  ar  
 17   9  14  ar  
 18  10  15  ar  
 19  10  16  ar  
 20  11  17  am  
 21  11  33  1   
 22  12  18  1   
 23  12  19  1   
 24  12  34  1   
 25  13  20  ar  
 26  13  35  1   
 27  14  21  ar  
 28  14  36  1   
 29  15  22  ar  
 30  15  37  1   
 31  16  23  ar  
 32  16  38  1   
 33  17  24  2   
 34  17  25  1   
 35  18  26  1   
 36  18  39  1   
 37  18  40  1   
 38  19  41  1   
 39  19  42  1   
 40  19  43  1   
 41  20  27  ar  
 42  20  44  1   
 43  21  27  ar  
 44  21  45  1   
 45  22  28  ar  
 46  22  46  1   
 47  23  28  ar  
 48  23  47  1   
 49  25  48  1   
 50  25  49  1   
 51  25  50  1   
 52  26  51  1   
 53  26  52  1   
 54  26  53  1   
 55  27  54  1   
 56  28  55  1   
@<TRIPOS>SUBSTRUCTURE
  1 ****   4 GROUP 4 **** **** 0

# MOE 2024.06 (io_trps.svl 2023.06)
