@<TRIPOS>MOLECULE
NONAME
41 42 1 0 0 
SMALL
USER_CHARGES


@<TRIPOS>ATOM
  1 S       -0.2860    -1.0050     1.4220 S.o2  1 <1>   1.4470 
  2 O       -0.3520     0.4080     1.7370 O.2   1 <1>  -0.6500 
  3 O       -0.6140    -1.9410     2.4780 O.2   1 <1>  -0.6500 
  4 N       -1.4160    -1.2540     0.1790 N.am  1 <1>  -0.8490 
  5 C        1.3180    -1.3170     0.6280 C.ar  1 <1>  -0.0090 
  6 C       -2.7260    -0.6870     0.5370 C.3   1 <1>   0.1960 
  7 C       -1.5500    -2.6740    -0.1660 C.3   1 <1>   0.1960 
  8 C        1.9200    -2.5750     0.6060 C.ar  1 <1>   0.0820 
  9 C        1.9760    -0.2710    -0.0120 C.ar  1 <1>  -0.1500 
 10 C       -3.6860    -0.7600    -0.6570 C.3   1 <1>  -0.0190 
 11 C       -2.4720    -2.8440    -1.3780 C.3   1 <1>  -0.1600 
 12 O        1.2770    -3.6080     1.2030 O.3   1 <1>  -0.3630 
 13 C        3.1470    -2.7580    -0.0280 C.ar  1 <1>  -0.1500 
 14 C        3.1940    -0.4450    -0.6450 C.ar  1 <1>  -0.1440 
 15 C       -5.0210    -0.1370    -0.2830 C.2   1 <1>   0.5690 
 16 C       -3.8500    -2.2150    -1.1310 C.3   1 <1>  -0.1600 
 17 C        1.9550    -4.7770     1.6070 C.3   1 <1>   0.0400 
 18 C        3.7800    -1.6970    -0.6470 C.ar  1 <1>  -0.1500 
 19 C        3.8800     0.7260    -1.3250 C.3   1 <1>  -0.0970 
 20 O       -5.6240    -0.5240     0.6840 O.2   1 <1>  -0.5700 
 21 N       -5.5340     0.8510    -1.0400 N.am  1 <1>  -0.8000 
 22 H       -2.6140     0.3460     0.8200 H     1 <1>   0.0800 
 23 H       -3.1380    -1.2190     1.3800 H     1 <1>   0.0800 
 24 H       -1.9410    -3.2240     0.6760 H     1 <1>   0.0800 
 25 H       -0.5860    -3.0820    -0.4150 H     1 <1>   0.0800 
 26 H        1.5190     0.7050    -0.0090 H     1 <1>   0.1500 
 27 H       -3.2540    -0.1820    -1.4530 H     1 <1>   0.0800 
 28 H       -2.5860    -3.8910    -1.5930 H     1 <1>   0.0800 
 29 H       -2.0070    -2.3820    -2.2320 H     1 <1>   0.0800 
 30 H        3.6230    -3.7190    -0.0550 H     1 <1>   0.1500 
 31 H       -4.4380    -2.2470    -2.0310 H     1 <1>   0.0800 
 32 H       -4.3670    -2.7800    -0.3730 H     1 <1>   0.0800 
 33 H        1.2820    -5.3590     2.2110 H     1 <1>   0.0800 
 34 H        2.8170    -4.4990     2.1880 H     1 <1>   0.0800 
 35 H        2.2400    -5.3380     0.7350 H     1 <1>   0.0800 
 36 H        4.7290    -1.8500    -1.1320 H     1 <1>   0.1500 
 37 H        3.1520     1.4310    -1.6860 H     1 <1>   0.0800 
 38 H        4.4650     0.3870    -2.1600 H     1 <1>   0.0800 
 39 H        4.5280     1.2240    -0.6260 H     1 <1>   0.0800 
 40 H       -6.4320     1.2600    -0.7780 H     1 <1>   0.3700 
 41 H       -5.0820     1.2330    -1.8690 H     1 <1>   0.3700 
@<TRIPOS>BOND
  1   1   2  2   
  2   1   3  2   
  3   1   4  am  
  4   1   5  1   
  5   4   6  1   
  6   4   7  1   
  7   5   8  ar  
  8   5   9  ar  
  9   6  10  1   
 10   6  22  1   
 11   6  23  1   
 12   7  11  1   
 13   7  24  1   
 14   7  25  1   
 15   8  12  1   
 16   8  13  ar  
 17   9  14  ar  
 18   9  26  1   
 19  10  15  1   
 20  10  16  1   
 21  10  27  1   
 22  11  16  1   
 23  11  28  1   
 24  11  29  1   
 25  12  17  1   
 26  13  18  ar  
 27  13  30  1   
 28  14  18  ar  
 29  14  19  1   
 30  15  20  2   
 31  15  21  am  
 32  16  31  1   
 33  16  32  1   
 34  17  33  1   
 35  17  34  1   
 36  17  35  1   
 37  18  36  1   
 38  19  37  1   
 39  19  38  1   
 40  19  39  1   
 41  21  40  1   
 42  21  41  1   
@<TRIPOS>SUBSTRUCTURE
  1 ****   4 GROUP 4 **** **** 0

# MOE 2024.06 (io_trps.svl 2023.06)
