@<TRIPOS>MOLECULE
NONAME
51 52 1 0 0 
SMALL
USER_CHARGES


@<TRIPOS>ATOM
  1 O       -3.2450    -6.7070    -0.8080 O.3   1 <1>  -0.5600 
  2 C       -2.6950    -5.7220     0.0260 C.3   1 <1>   0.2000 
  3 C       -3.2850    -8.0260    -0.3240 C.3   1 <1>   0.2000 
  4 C       -1.2210    -6.0650     0.3750 C.3   1 <1>   0.3430 
  5 C       -3.5880    -5.5320     1.2580 C.3   1 <1>  -0.2400 
  6 C       -1.9850    -8.3950     0.4390 C.3   1 <1>   0.3430 
  7 C       -3.4960    -8.9160    -1.5470 C.3   1 <1>  -0.2400 
  8 N       -0.8570    -7.4910     0.0400 N.4   1 <1>  -0.9590 
  9 C        0.4540    -7.9350     0.6130 C.3   1 <1>   0.3430 
 10 C        1.6450    -7.1850     0.0110 C.3   1 <1>   0.1200 
 11 O        2.8010    -7.6670     0.6480 O.3   1 <1>  -0.3630 
 12 C        4.0280    -7.1710     0.3500 C.ar  1 <1>   0.0820 
 13 C        4.2650    -6.2140    -0.6330 C.ar  1 <1>  -0.1500 
 14 C        5.0910    -7.6610     1.0820 C.ar  1 <1>  -0.1500 
 15 C        5.5500    -5.7500    -0.8790 C.ar  1 <1>  -0.1430 
 16 C        6.3710    -7.2020     0.8420 C.ar  1 <1>  -0.1500 
 17 C        6.6220    -6.2460    -0.1350 C.ar  1 <1>  -0.1430 
 18 C        5.7320    -4.7030    -1.9700 C.3   1 <1>  -0.0970 
 19 C        8.0710    -5.7810    -0.3490 C.3   1 <1>   0.0630 
 20 C        8.9620    -6.9470    -0.7910 C.3   1 <1>  -0.2400 
 21 C        8.6290    -5.1210     0.9170 C.3   1 <1>  -0.2400 
 22 H       -2.7080    -4.8030    -0.5360 H     1 <1>   0.0800 
 23 H       -4.1360    -8.1220     0.3310 H     1 <1>   0.0800 
 24 H       -1.0680    -5.8820     1.4250 H     1 <1>   0.0800 
 25 H       -0.5770    -5.3910    -0.1640 H     1 <1>   0.0800 
 26 H       -3.5650    -6.3840     1.9120 H     1 <1>   0.0800 
 27 H       -4.6020    -5.3500     0.9470 H     1 <1>   0.0800 
 28 H       -3.2580    -4.6750     1.8180 H     1 <1>   0.0800 
 29 H       -1.7370    -9.4240     0.2360 H     1 <1>   0.0800 
 30 H       -2.1650    -8.3060     1.4970 H     1 <1>   0.0800 
 31 H       -2.6800    -8.8190    -2.2400 H     1 <1>   0.0800 
 32 H       -4.4100    -8.6390    -2.0430 H     1 <1>   0.0800 
 33 H       -3.5790    -9.9470    -1.2510 H     1 <1>   0.0800 
 34 H       -0.8330    -7.5430    -0.9900 H     1 <1>   0.4500 
 35 H        0.5910    -8.9870     0.4190 H     1 <1>   0.0800 
 36 H        0.4520    -7.7850     1.6800 H     1 <1>   0.0800 
 37 H        1.5820    -6.1280     0.2030 H     1 <1>   0.0800 
 38 H        1.7350    -7.3850    -1.0420 H     1 <1>   0.0800 
 39 H        3.4600    -5.8210    -1.2190 H     1 <1>   0.1500 
 40 H        4.9180    -8.4010     1.8420 H     1 <1>   0.1500 
 41 H        7.1790    -7.6020     1.4280 H     1 <1>   0.1500 
 42 H        4.7960    -4.4470    -2.4320 H     1 <1>   0.0800 
 43 H        6.3890    -5.0790    -2.7340 H     1 <1>   0.0800 
 44 H        6.1540    -3.8060    -1.5520 H     1 <1>   0.0800 
 45 H        8.1150    -5.0440    -1.1280 H     1 <1>   0.0800 
 46 H        9.0330    -7.6930    -0.0210 H     1 <1>   0.0800 
 47 H        9.9510    -6.5940    -1.0190 H     1 <1>   0.0800 
 48 H        8.5500    -7.4040    -1.6740 H     1 <1>   0.0800 
 49 H        8.6940    -5.8270     1.7250 H     1 <1>   0.0800 
 50 H        7.9860    -4.3140     1.2200 H     1 <1>   0.0800 
 51 H        9.6100    -4.7260     0.7280 H     1 <1>   0.0800 
@<TRIPOS>BOND
  1   1   2  1   
  2   1   3  1   
  3   2   4  1   
  4   2   5  1   
  5   2  22  1   
  6   3   6  1   
  7   3   7  1   
  8   3  23  1   
  9   4   8  1   
 10   4  24  1   
 11   4  25  1   
 12   5  26  1   
 13   5  27  1   
 14   5  28  1   
 15   6   8  1   
 16   6  29  1   
 17   6  30  1   
 18   7  31  1   
 19   7  32  1   
 20   7  33  1   
 21   8   9  1   
 22   8  34  1   
 23   9  10  1   
 24   9  35  1   
 25   9  36  1   
 26  10  11  1   
 27  10  37  1   
 28  10  38  1   
 29  11  12  1   
 30  12  13  ar  
 31  12  14  ar  
 32  13  15  ar  
 33  13  39  1   
 34  14  16  ar  
 35  14  40  1   
 36  15  17  ar  
 37  15  18  1   
 38  16  17  ar  
 39  16  41  1   
 40  17  19  1   
 41  18  42  1   
 42  18  43  1   
 43  18  44  1   
 44  19  20  1   
 45  19  21  1   
 46  19  45  1   
 47  20  46  1   
 48  20  47  1   
 49  20  48  1   
 50  21  49  1   
 51  21  50  1   
 52  21  51  1   
@<TRIPOS>SUBSTRUCTURE
  1 ****  10 GROUP 4 **** **** 0

# MOE 2024.06 (io_trps.svl 2023.06)
