@<TRIPOS>MOLECULE
NONAME
41 42 1 0 0 
SMALL
USER_CHARGES


@<TRIPOS>ATOM
  1 O       -0.6010     0.2990    -0.1380 O.2   1 <1>  -0.5700 
  2 C       -1.7180    -0.1790    -0.0270 C.2   1 <1>   0.6340 
  3 O       -1.8260    -1.3970     0.5150 O.3   1 <1>  -0.4300 
  4 C       -2.9390     0.4940    -0.4480 C.ar  1 <1>   0.0860 
  5 C       -0.7030    -2.1400     0.9470 C.3   1 <1>   0.0400 
  6 C       -2.9420     1.8090    -0.9660 C.ar  1 <1>   0.1170 
  7 C       -4.1710    -0.1640    -0.3460 C.ar  1 <1>  -0.1500 
  8 N       -1.7340     2.5150    -1.0890 N.am  1 <1>  -0.5470 
  9 C       -4.1460     2.3870    -1.3630 C.ar  1 <1>  -0.1500 
 10 C       -5.3540     0.4280    -0.7350 C.ar  1 <1>  -0.1500 
 11 C       -1.4350     3.8500    -1.1590 C.2   1 <1>   0.5690 
 12 C       -5.3420     1.7100    -1.2480 C.ar  1 <1>  -0.1500 
 13 O       -2.2610     4.7300    -1.1750 O.2   1 <1>  -0.5700 
 14 C        0.0410     4.2780    -1.1520 C.3   1 <1>   0.4040 
 15 N        0.2830     5.5460    -0.3680 N.4   1 <1>  -0.9590 
 16 C        1.6380     6.1160    -0.6110 C.3   1 <1>   0.3430 
 17 C       -0.0140     5.3610     1.0840 C.3   1 <1>   0.3430 
 18 C        1.7580     7.4730     0.0850 C.3   1 <1>  -0.1600 
 19 C        0.0820     6.7060     1.8050 C.3   1 <1>  -0.1600 
 20 C        1.4450     7.3760     1.5830 C.3   1 <1>  -0.1600 
 21 H       -0.0520    -2.3100     0.1070 H     1 <1>   0.0800 
 22 H       -1.0470    -3.0790     1.3420 H     1 <1>   0.0800 
 23 H       -0.1880    -1.5840     1.7120 H     1 <1>   0.0800 
 24 H       -4.2120    -1.1660     0.0480 H     1 <1>   0.1500 
 25 H       -0.9280     1.8830    -0.9700 H     1 <1>   0.3700 
 26 H       -4.1650     3.3800    -1.7740 H     1 <1>   0.1500 
 27 H       -6.2860    -0.1040    -0.6430 H     1 <1>   0.1500 
 28 H       -6.2620     2.1770    -1.5570 H     1 <1>   0.1500 
 29 H        0.3380     4.4290    -2.1760 H     1 <1>   0.0800 
 30 H        0.6360     3.4790    -0.7450 H     1 <1>   0.0800 
 31 H       -0.4230     6.2200    -0.7100 H     1 <1>   0.4500 
 32 H        1.8040     6.2410    -1.6690 H     1 <1>   0.0800 
 33 H        2.3900     5.4470    -0.2240 H     1 <1>   0.0800 
 34 H        0.6900     4.6690     1.5180 H     1 <1>   0.0800 
 35 H       -1.0090     4.9620     1.2120 H     1 <1>   0.0800 
 36 H        1.0890     8.1750    -0.3840 H     1 <1>   0.0800 
 37 H        2.7580     7.8480    -0.0460 H     1 <1>   0.0800 
 38 H       -0.0730     6.5520     2.8590 H     1 <1>   0.0800 
 39 H       -0.7060     7.3520     1.4570 H     1 <1>   0.0800 
 40 H        1.4430     8.3600     2.0210 H     1 <1>   0.0800 
 41 H        2.2130     6.8010     2.0750 H     1 <1>   0.0800 
@<TRIPOS>BOND
  1   1   2  2   
  2   2   3  1   
  3   2   4  1   
  4   3   5  1   
  5   4   6  ar  
  6   4   7  ar  
  7   5  21  1   
  8   5  22  1   
  9   5  23  1   
 10   6   8  1   
 11   6   9  ar  
 12   7  10  ar  
 13   7  24  1   
 14   8  11  am  
 15   8  25  1   
 16   9  12  ar  
 17   9  26  1   
 18  10  12  ar  
 19  10  27  1   
 20  11  13  2   
 21  11  14  1   
 22  12  28  1   
 23  14  15  1   
 24  14  29  1   
 25  14  30  1   
 26  15  16  1   
 27  15  17  1   
 28  15  31  1   
 29  16  18  1   
 30  16  32  1   
 31  16  33  1   
 32  17  19  1   
 33  17  34  1   
 34  17  35  1   
 35  18  20  1   
 36  18  36  1   
 37  18  37  1   
 38  19  20  1   
 39  19  38  1   
 40  19  39  1   
 41  20  40  1   
 42  20  41  1   
@<TRIPOS>SUBSTRUCTURE
  1 ****   8 GROUP 4 **** **** 0

# MOE 2024.06 (io_trps.svl 2023.06)
