@<TRIPOS>MOLECULE
NONAME
47 50 1 0 0 
SMALL
USER_CHARGES


@<TRIPOS>ATOM
  1 S        0.1320     0.6280     1.5050 S.3   1 <1>  -0.0800 
  2 C        1.0640     1.8450     0.6270 C.ar  1 <1>   0.2970 
  3 C       -1.3750     1.4510     1.1130 C.2   1 <1>  -0.1400 
  4 N        2.3730     1.7990     0.5240 N.ar  1 <1>  -0.5670 
  5 C        0.2340     2.8070     0.0940 C.ar  1 <1>   0.0000 
  6 C       -1.1570     2.5440     0.3730 C.2   1 <1>  -0.1810 
  7 C       -2.7160     0.9210     1.5760 C.3   1 <1>   0.3000 
  8 C        2.8420     2.8170    -0.1740 C.ar  1 <1>   0.7220 
  9 C        0.9000     3.8210    -0.5980 C.ar  1 <1>   0.4100 
 10 C       -2.3540     3.3600    -0.0820 C.3   1 <1>   0.0210 
 11 O       -3.7100     1.8810     1.3010 O.3   1 <1>  -0.5600 
 12 S        4.6120     2.8560    -0.3890 S.3   1 <1>  -0.3320 
 13 N        2.2030     3.8280    -0.7430 N.ar  1 <1>  -0.6200 
 14 N        0.2730     4.8840    -1.1560 N.pl3 1 <1>  -0.9000 
 15 C       -3.6750     2.5530     0.0670 C.3   1 <1>   0.2800 
 16 C        5.2060     1.3490     0.4970 C.3   1 <1>   0.2130 
 17 C       -3.8620     1.5320    -1.0670 C.3   1 <1>  -0.2400 
 18 C       -4.8750     3.5010     0.0850 C.3   1 <1>  -0.2400 
 19 C        6.7210     1.2920     0.3860 C.ar  1 <1>  -0.1430 
 20 C        7.3210     0.9010    -0.8010 C.ar  1 <1>  -0.1500 
 21 C        7.5170     1.6270     1.4710 C.ar  1 <1>  -0.1500 
 22 C        8.7010     0.8390    -0.9060 C.ar  1 <1>  -0.1500 
 23 C        8.8960     1.5650     1.3700 C.ar  1 <1>  -0.1500 
 24 C        9.4980     1.1710     0.1860 C.ar  1 <1>   0.0830 
 25 O       10.8540     1.1360     0.1710 O.3   1 <1>  -0.3620 
 26 C       11.5640     0.7680    -0.9900 C.3   1 <1>   0.0400 
 27 H       -2.7110     0.7500     2.6370 H     1 <1>   0.0800 
 28 H       -2.9660     0.0060     1.0690 H     1 <1>   0.0800 
 29 H       -2.2340     3.6490    -1.1100 H     1 <1>   0.0800 
 30 H       -2.4060     4.2540     0.5130 H     1 <1>   0.0800 
 31 H        0.8880     5.6010    -1.5470 H     1 <1>   0.4000 
 32 H       -0.5910     5.2400    -0.7500 H     1 <1>   0.4000 
 33 H        4.7460     0.4970     0.0290 H     1 <1>   0.0800 
 34 H        4.8830     1.4280     1.5190 H     1 <1>   0.0800 
 35 H       -3.0040     0.8930    -1.1640 H     1 <1>   0.0800 
 36 H       -3.9920     2.0430    -2.0030 H     1 <1>   0.0800 
 37 H       -4.7360     0.9320    -0.8860 H     1 <1>   0.0800 
 38 H       -4.7950     4.1880     0.9080 H     1 <1>   0.0800 
 39 H       -5.7870     2.9420     0.1880 H     1 <1>   0.0800 
 40 H       -4.9230     4.0650    -0.8290 H     1 <1>   0.0800 
 41 H        6.7120     0.6480    -1.6510 H     1 <1>   0.1500 
 42 H        7.0690     1.9390     2.3980 H     1 <1>   0.1500 
 43 H        9.1320     0.5330    -1.8390 H     1 <1>   0.1500 
 44 H        9.5150     1.8240     2.2090 H     1 <1>   0.1500 
 45 H       12.6150     0.8190    -0.7690 H     1 <1>   0.0800 
 46 H       11.3230     1.4580    -1.7800 H     1 <1>   0.0800 
 47 H       11.2950    -0.2380    -1.2600 H     1 <1>   0.0800 
@<TRIPOS>BOND
  1   1   2  1   
  2   1   3  1   
  3   2   4  ar  
  4   2   5  ar  
  5   3   6  2   
  6   3   7  1   
  7   4   8  ar  
  8   5   6  1   
  9   5   9  ar  
 10   6  10  1   
 11   7  11  1   
 12   7  27  1   
 13   7  28  1   
 14   8  12  1   
 15   8  13  ar  
 16   9  13  ar  
 17   9  14  1   
 18  10  15  1   
 19  10  29  1   
 20  10  30  1   
 21  11  15  1   
 22  12  16  1   
 23  14  31  1   
 24  14  32  1   
 25  15  17  1   
 26  15  18  1   
 27  16  19  1   
 28  16  33  1   
 29  16  34  1   
 30  17  35  1   
 31  17  36  1   
 32  17  37  1   
 33  18  38  1   
 34  18  39  1   
 35  18  40  1   
 36  19  20  ar  
 37  19  21  ar  
 38  20  22  ar  
 39  20  41  1   
 40  21  23  ar  
 41  21  42  1   
 42  22  24  ar  
 43  22  43  1   
 44  23  24  ar  
 45  23  44  1   
 46  24  25  1   
 47  25  26  1   
 48  26  45  1   
 49  26  46  1   
 50  26  47  1   
@<TRIPOS>SUBSTRUCTURE
  1 ****   4 GROUP 4 **** **** 0

# MOE 2024.06 (io_trps.svl 2023.06)
