@<TRIPOS>MOLECULE
NONAME
44 47 1 0 0 
SMALL
USER_CHARGES


@<TRIPOS>ATOM
  1 S       -0.8640    -0.3380     0.9390 S.o2  1 <1>   1.4470 
  2 O       -1.3020     1.0370     0.9960 O.2   1 <1>  -0.6500 
  3 O       -1.1580    -1.2520     2.0210 O.2   1 <1>  -0.6500 
  4 N       -1.6150    -0.9500    -0.5110 N.am  1 <1>  -0.5780 
  5 C        0.9070    -0.3830     0.5500 C.ar  1 <1>  -0.0090 
  6 N       -2.2890    -2.1550    -0.7050 N.2   1 <1>  -0.4300 
  7 C        1.8150    -0.9800     1.4170 C.ar  1 <1>  -0.1500 
  8 C        1.4040     0.1730    -0.6230 C.ar  1 <1>  -0.1500 
  9 C       -1.7840    -3.3110    -0.5350 C.2   1 <1>   0.3280 
 10 C        3.1660    -1.0330     1.1210 C.ar  1 <1>  -0.1500 
 11 C        2.7540     0.1240    -0.9260 C.ar  1 <1>  -0.1500 
 12 C       -0.3260    -3.6510    -0.2070 C.3   1 <1>  -0.0190 
 13 C       -2.6730    -4.5440    -0.6740 C.3   1 <1>  -0.0990 
 14 C        3.6430    -0.4800    -0.0550 C.ar  1 <1>  -0.1430 
 15 C        0.3100    -4.6470    -1.2210 C.3   1 <1>  -0.0800 
 16 C       -0.2670    -4.3660     1.1560 C.3   1 <1>  -0.1600 
 17 C       -1.8840    -5.8220    -1.0260 C.3   1 <1>  -0.0800 
 18 C        5.1240    -0.5380    -0.3850 C.3   1 <1>  -0.0970 
 19 C       -0.7690    -5.4210    -2.0070 C.3   1 <1>  -0.1600 
 20 C        1.0120    -5.6680    -0.3260 C.3   1 <1>  -0.1600 
 21 C       -0.0060    -5.8260     0.7960 C.3   1 <1>  -0.0800 
 22 C       -1.2800    -6.5100     0.2330 C.3   1 <1>  -0.1600 
 23 H       -2.0430    -0.1440    -0.9680 H     1 <1>   0.4200 
 24 H        1.4610    -1.4150     2.3370 H     1 <1>   0.1500 
 25 H        0.7300     0.6500    -1.3130 H     1 <1>   0.1500 
 26 H        3.8440    -1.5060     1.8100 H     1 <1>   0.1500 
 27 H        3.1100     0.5590    -1.8440 H     1 <1>   0.1500 
 28 H        0.2800    -2.7720    -0.1790 H     1 <1>   0.0800 
 29 H       -3.2250    -4.6850     0.2380 H     1 <1>   0.0800 
 30 H       -3.3880    -4.3490    -1.4530 H     1 <1>   0.0800 
 31 H        1.0010    -4.1650    -1.8920 H     1 <1>   0.0800 
 32 H        0.5620    -3.9810     1.7240 H     1 <1>   0.0800 
 33 H       -1.1620    -4.2370     1.7410 H     1 <1>   0.0800 
 34 H       -2.5580    -6.5120    -1.5050 H     1 <1>   0.0800 
 35 H        5.3360    -1.4290    -0.9480 H     1 <1>   0.0800 
 36 H        5.7110    -0.5480     0.5150 H     1 <1>   0.0800 
 37 H        5.4130     0.3180    -0.9680 H     1 <1>   0.0800 
 38 H       -0.3450    -6.2950    -2.4690 H     1 <1>   0.0800 
 39 H       -1.1690    -4.8040    -2.7940 H     1 <1>   0.0800 
 40 H        1.2260    -6.5980    -0.8250 H     1 <1>   0.0800 
 41 H        1.9330    -5.2600     0.0560 H     1 <1>   0.0800 
 42 H        0.3940    -6.3770     1.6300 H     1 <1>   0.0800 
 43 H       -2.0250    -6.5760     1.0070 H     1 <1>   0.0800 
 44 H       -1.0190    -7.5200    -0.0320 H     1 <1>   0.0800 
@<TRIPOS>BOND
  1   1   2  2   
  2   1   3  2   
  3   1   4  am  
  4   1   5  1   
  5   4   6  1   
  6   4  23  1   
  7   5   7  ar  
  8   5   8  ar  
  9   6   9  2   
 10   7  10  ar  
 11   7  24  1   
 12   8  11  ar  
 13   8  25  1   
 14   9  12  1   
 15   9  13  1   
 16  10  14  ar  
 17  10  26  1   
 18  11  14  ar  
 19  11  27  1   
 20  12  15  1   
 21  12  16  1   
 22  12  28  1   
 23  13  17  1   
 24  13  29  1   
 25  13  30  1   
 26  14  18  1   
 27  15  19  1   
 28  15  20  1   
 29  15  31  1   
 30  16  21  1   
 31  16  32  1   
 32  16  33  1   
 33  17  19  1   
 34  17  22  1   
 35  17  34  1   
 36  18  35  1   
 37  18  36  1   
 38  18  37  1   
 39  19  38  1   
 40  19  39  1   
 41  20  21  1   
 42  20  40  1   
 43  20  41  1   
 44  21  22  1   
 45  21  42  1   
 46  22  43  1   
 47  22  44  1   
@<TRIPOS>SUBSTRUCTURE
  1 ****  12 GROUP 4 **** **** 0

# MOE 2024.06 (io_trps.svl 2023.06)
