@<TRIPOS>MOLECULE
NONAME
30 30 1 0 0 
SMALL
USER_CHARGES


@<TRIPOS>ATOM
  1 BR      -0.1510    -0.3480     0.7760 Br    1 <1>  -0.1110 
  2 C        1.3450     0.5580    -0.0390 C.ar  1 <1>   0.1110 
  3 C        1.1930     1.8470    -0.5330 C.ar  1 <1>   0.0830 
  4 C        2.5490    -0.1150    -0.1110 C.ar  1 <1>  -0.1500 
  5 O        0.0160     2.5030    -0.4700 O.3   1 <1>  -0.3630 
  6 C        2.2830     2.4580    -1.1260 C.ar  1 <1>  -0.1500 
  7 C        3.6520     0.4980    -0.6970 C.ar  1 <1>  -0.0090 
  8 C       -0.2350     3.2190     0.7180 C.3   1 <1>   0.0400 
  9 C        3.4950     1.7880    -1.2020 C.ar  1 <1>  -0.1500 
 10 S        5.2510    -0.3510    -0.8060 S.o2  1 <1>   1.4470 
 11 O        5.2340    -1.5650    -0.0240 O.2   1 <1>  -0.6500 
 12 O        5.7140    -0.3650    -2.1740 O.2   1 <1>  -0.6500 
 13 N        6.2750     0.6560     0.0580 N.am  1 <1>  -0.9140 
 14 C        7.6690     0.4850    -0.3030 C.3   1 <1>   0.1960 
 15 C        8.5250     1.3320     0.6370 C.3   1 <1>  -0.1600 
 16 C       10.0150     1.2060     0.3010 C.3   1 <1>  -0.2400 
 17 H        2.6250    -1.1130     0.2850 H     1 <1>   0.1500 
 18 H        2.1800     3.4510    -1.5280 H     1 <1>   0.1500 
 19 H       -1.1970     3.6910     0.6280 H     1 <1>   0.0800 
 20 H        0.5310     3.9630     0.8460 H     1 <1>   0.0800 
 21 H       -0.2380     2.5340     1.5470 H     1 <1>   0.0800 
 22 H        4.3390     2.2730    -1.6640 H     1 <1>   0.1500 
 23 H        6.1780     0.3220     1.0150 H     1 <1>   0.4200 
 24 H        7.8220     0.8040    -1.3220 H     1 <1>   0.0800 
 25 H        7.9470    -0.5540    -0.2230 H     1 <1>   0.0800 
 26 H        8.3680     1.0150     1.6530 H     1 <1>   0.0800 
 27 H        8.2310     2.3640     0.5490 H     1 <1>   0.0800 
 28 H       10.3400     0.1840     0.3970 H     1 <1>   0.0800 
 29 H       10.5960     1.8130     0.9730 H     1 <1>   0.0800 
 30 H       10.2030     1.5370    -0.7060 H     1 <1>   0.0800 
@<TRIPOS>BOND
  1   1   2  1   
  2   2   3  ar  
  3   2   4  ar  
  4   3   5  1   
  5   3   6  ar  
  6   4   7  ar  
  7   4  17  1   
  8   5   8  1   
  9   6   9  ar  
 10   6  18  1   
 11   7   9  ar  
 12   7  10  1   
 13   8  19  1   
 14   8  20  1   
 15   8  21  1   
 16   9  22  1   
 17  10  11  2   
 18  10  12  2   
 19  10  13  am  
 20  13  14  1   
 21  13  23  1   
 22  14  15  1   
 23  14  24  1   
 24  14  25  1   
 25  15  16  1   
 26  15  26  1   
 27  15  27  1   
 28  16  28  1   
 29  16  29  1   
 30  16  30  1   
@<TRIPOS>SUBSTRUCTURE
  1 ****   7 GROUP 4 **** **** 0

# MOE 2024.06 (io_trps.svl 2023.06)
