@<TRIPOS>MOLECULE
NONAME
43 45 1 0 0 
SMALL
USER_CHARGES


@<TRIPOS>ATOM
  1 CL      -2.2810     1.1740     1.9620 Cl    1 <1>  -0.1770 
  2 C       -1.2550     2.2080     0.9990 C.ar  1 <1>   0.1770 
  3 C       -1.5730     2.4290    -0.3300 C.ar  1 <1>  -0.1440 
  4 C       -0.1480     2.7950     1.5900 C.ar  1 <1>  -0.1500 
  5 C       -0.7410     3.2700    -1.0460 C.ar  1 <1>   0.1900 
  6 C       -2.7730     1.7750    -0.9770 C.3   1 <1>   0.4860 
  7 C        0.6700     3.6300     0.8420 C.ar  1 <1>  -0.1500 
  8 F       -1.0260     3.5150    -2.2960 F     1 <1>  -0.1900 
  9 C        0.3730     3.8740    -0.4890 C.ar  1 <1>  -0.1500 
 10 N       -4.0170     2.4270    -0.4920 N.4   1 <1>  -0.9590 
 11 C       -5.2280     1.6700    -0.9080 C.3   1 <1>   0.4860 
 12 C       -4.1290     3.8570    -0.9120 C.3   1 <1>   0.3430 
 13 C       -6.4780     2.3450    -0.3690 C.ar  1 <1>  -0.1430 
 14 C       -5.2470     4.5480    -0.1270 C.3   1 <1>  -0.0170 
 15 C       -6.4990     3.6880    -0.0160 C.ar  1 <1>  -0.1430 
 16 C       -7.6340     1.5940    -0.2380 C.ar  1 <1>  -0.1500 
 17 C       -7.6700     4.2550     0.4590 C.ar  1 <1>  -0.1500 
 18 C       -8.8110     2.1460     0.2360 C.ar  1 <1>   0.0830 
 19 C       -8.8380     3.5060     0.5930 C.ar  1 <1>   0.0830 
 20 O       -9.8430     1.2540     0.2960 O.3   1 <1>  -0.3620 
 21 O       -9.9870     4.0760     1.0610 O.3   1 <1>  -0.3620 
 22 C      -11.1370     1.5820     0.7510 C.3   1 <1>   0.0400 
 23 C      -10.0760     5.4350     1.4290 C.3   1 <1>   0.0400 
 24 H        0.0750     2.6000     2.6260 H     1 <1>   0.1500 
 25 H       -2.7820     0.7280    -0.7160 H     1 <1>   0.0800 
 26 H       -2.7050     1.8550    -2.0500 H     1 <1>   0.0800 
 27 H        1.5350     4.0880     1.2960 H     1 <1>   0.1500 
 28 H        0.9950     4.5200    -1.0850 H     1 <1>   0.1500 
 29 H       -4.0050     2.4020     0.5380 H     1 <1>   0.4500 
 30 H       -5.1810     0.6620    -0.5300 H     1 <1>   0.0800 
 31 H       -5.2880     1.6290    -1.9830 H     1 <1>   0.0800 
 32 H       -4.3500     3.9070    -1.9660 H     1 <1>   0.0800 
 33 H       -3.2010     4.3780    -0.7370 H     1 <1>   0.0800 
 34 H       -5.4860     5.4780    -0.6110 H     1 <1>   0.0800 
 35 H       -4.8920     4.7790     0.8610 H     1 <1>   0.0800 
 36 H       -7.6470     0.5520    -0.5040 H     1 <1>   0.1500 
 37 H       -7.6560     5.2940     0.7270 H     1 <1>   0.1500 
 38 H      -11.7450     0.6970     0.6970 H     1 <1>   0.0800 
 39 H      -11.5470     2.3460     0.1160 H     1 <1>   0.0800 
 40 H      -11.0730     1.9200     1.7700 H     1 <1>   0.0800 
 41 H      -11.0820     5.6260     1.7580 H     1 <1>   0.0800 
 42 H       -9.8520     6.0460     0.5730 H     1 <1>   0.0800 
 43 H       -9.3890     5.6260     2.2350 H     1 <1>   0.0800 
@<TRIPOS>BOND
  1   1   2  1   
  2   2   3  ar  
  3   2   4  ar  
  4   3   5  ar  
  5   3   6  1   
  6   4   7  ar  
  7   4  24  1   
  8   5   8  1   
  9   5   9  ar  
 10   6  10  1   
 11   6  25  1   
 12   6  26  1   
 13   7   9  ar  
 14   7  27  1   
 15   9  28  1   
 16  10  11  1   
 17  10  12  1   
 18  10  29  1   
 19  11  13  1   
 20  11  30  1   
 21  11  31  1   
 22  12  14  1   
 23  12  32  1   
 24  12  33  1   
 25  13  15  ar  
 26  13  16  ar  
 27  14  15  1   
 28  14  34  1   
 29  14  35  1   
 30  15  17  ar  
 31  16  18  ar  
 32  16  36  1   
 33  17  19  ar  
 34  17  37  1   
 35  18  19  ar  
 36  18  20  1   
 37  19  21  1   
 38  20  22  1   
 39  21  23  1   
 40  22  38  1   
 41  22  39  1   
 42  22  40  1   
 43  23  41  1   
 44  23  42  1   
 45  23  43  1   
@<TRIPOS>SUBSTRUCTURE
  1 ****  10 GROUP 4 **** **** 0

# MOE 2024.06 (io_trps.svl 2023.06)
