@<TRIPOS>MOLECULE
NONAME
29 29 1 0 0 
SMALL
USER_CHARGES


@<TRIPOS>ATOM
  1 O       -0.0850     0.4200     0.0610 O.3   1 <1>  -0.3620 
  2 C       -0.0500     1.7640     0.0380 C.ar  1 <1>   0.7020 
  3 C        1.0910    -0.3640     0.0410 C.3   1 <1>   0.0400 
  4 N        1.1150     2.3520     0.0040 N.ar  1 <1>  -0.6200 
  5 N       -1.2160     2.3390     0.0500 N.ar  1 <1>  -0.6200 
  6 C        1.0420     3.6600    -0.0230 C.ar  1 <1>   0.7200 
  7 C       -1.1610     3.6470     0.0260 C.ar  1 <1>   0.7200 
  8 N       -0.0640     4.3570    -0.0130 N.ar  1 <1>  -0.6200 
  9 N        2.2330     4.3570    -0.0650 N.pl3 1 <1>  -0.8380 
 10 N       -2.3610     4.3300     0.0410 N.pl3 1 <1>  -0.8380 
 11 C        2.2930     5.8010    -0.4280 C.3   1 <1>   0.1290 
 12 C        3.5440     3.7230     0.2490 C.3   1 <1>   0.1290 
 13 C       -3.6650     3.6480    -0.1950 C.3   1 <1>   0.1290 
 14 C       -2.4430     5.7890     0.3300 C.3   1 <1>   0.1290 
 15 H        0.8070    -1.4000     0.0610 H     1 <1>   0.0800 
 16 H        1.6830    -0.1250     0.9070 H     1 <1>   0.0800 
 17 H        1.6380    -0.1480    -0.8610 H     1 <1>   0.0800 
 18 H        1.4610     6.0690    -1.0570 H     1 <1>   0.0800 
 19 H        3.2010     6.0110    -0.9640 H     1 <1>   0.0800 
 20 H        2.2600     6.3980     0.4660 H     1 <1>   0.0800 
 21 H        3.4120     2.8790     0.9040 H     1 <1>   0.0800 
 22 H        4.1890     4.4310     0.7390 H     1 <1>   0.0800 
 23 H        4.0100     3.3890    -0.6620 H     1 <1>   0.0800 
 24 H       -3.5350     2.7890    -0.8300 H     1 <1>   0.0800 
 25 H       -4.3530     4.3210    -0.6770 H     1 <1>   0.0800 
 26 H       -4.0790     3.3270     0.7450 H     1 <1>   0.0800 
 27 H       -1.6040     6.1070     0.9250 H     1 <1>   0.0800 
 28 H       -3.3440     6.0070     0.8760 H     1 <1>   0.0800 
 29 H       -2.4440     6.3390    -0.5940 H     1 <1>   0.0800 
@<TRIPOS>BOND
  1   1   2  1   
  2   1   3  1   
  3   2   4  ar  
  4   2   5  ar  
  5   3  15  1   
  6   3  16  1   
  7   3  17  1   
  8   4   6  ar  
  9   5   7  ar  
 10   6   8  ar  
 11   6   9  1   
 12   7   8  ar  
 13   7  10  1   
 14   9  11  1   
 15   9  12  1   
 16  10  13  1   
 17  10  14  1   
 18  11  18  1   
 19  11  19  1   
 20  11  20  1   
 21  12  21  1   
 22  12  22  1   
 23  12  23  1   
 24  13  24  1   
 25  13  25  1   
 26  13  26  1   
 27  14  27  1   
 28  14  28  1   
 29  14  29  1   
@<TRIPOS>SUBSTRUCTURE
  1 ****   8 GROUP 4 **** **** 0

# MOE 2024.06 (io_trps.svl 2023.06)
