@<TRIPOS>MOLECULE
NONAME
46 47 1 0 0 
SMALL
USER_CHARGES


@<TRIPOS>ATOM
  1 O       -0.2910     0.5820    -2.3610 O.2   1 <1>  -0.5700 
  2 C       -0.8930     1.6310    -2.3610 C.2   1 <1>   0.5690 
  3 N       -2.2730     1.6300    -2.4500 N.am  1 <1>  -0.6600 
  4 C       -0.0560     2.9110    -2.1710 C.3   1 <1>   0.2610 
  5 C       -3.0270     0.3520    -2.2980 C.3   1 <1>   0.1400 
  6 C       -3.1490     2.8140    -2.2100 C.3   1 <1>   0.1400 
  7 O       -0.5990     3.6900    -1.1120 O.3   1 <1>  -0.3630 
  8 C        0.0390     3.7880    -3.4270 C.3   1 <1>  -0.2400 
  9 C       -3.5500     0.2510    -0.8510 C.3   1 <1>   0.3430 
 10 C       -3.6600     2.7670    -0.7570 C.3   1 <1>   0.3430 
 11 C        0.2360     4.1110    -0.1400 C.ar  1 <1>   0.0820 
 12 N       -4.3590     1.4610    -0.4410 N.4   1 <1>  -0.9590 
 13 C        0.7820     3.2340     0.7980 C.ar  1 <1>  -0.1440 
 14 C        0.5200     5.4660    -0.0850 C.ar  1 <1>  -0.1500 
 15 C       -4.7140     1.4000     0.9950 C.3   1 <1>   0.4810 
 16 C        1.6300     3.7420     1.7690 C.ar  1 <1>  -0.1500 
 17 C        0.4780     1.7420     0.8020 C.3   1 <1>  -0.0970 
 18 C        1.3640     5.9600     0.8920 C.ar  1 <1>  -0.1500 
 19 C       -5.7200     2.4950     1.2680 C.2   1 <1>  -0.2880 
 20 C        1.9200     5.0950     1.8180 C.ar  1 <1>  -0.1500 
 21 C       -5.4900     3.5890     2.0030 C.2   1 <1>  -0.3000 
 22 H        0.9400     2.6150    -1.8910 H     1 <1>   0.0800 
 23 H       -2.3970    -0.4950    -2.5130 H     1 <1>   0.0800 
 24 H       -3.8470     0.3270    -2.9950 H     1 <1>   0.0800 
 25 H       -3.9810     2.7920    -2.8920 H     1 <1>   0.0800 
 26 H       -2.6270     3.7360    -2.3820 H     1 <1>   0.0800 
 27 H       -0.9290     4.1160    -3.7530 H     1 <1>   0.0800 
 28 H        0.6610     4.6430    -3.2300 H     1 <1>   0.0800 
 29 H        0.4890     3.2210    -4.2230 H     1 <1>   0.0800 
 30 H       -2.6960     0.1510    -0.2010 H     1 <1>   0.0800 
 31 H       -4.1450    -0.6420    -0.7520 H     1 <1>   0.0800 
 32 H       -4.3310     3.5940    -0.5900 H     1 <1>   0.0800 
 33 H       -2.8140     2.8970    -0.1010 H     1 <1>   0.0800 
 34 H       -5.2390     1.4530    -0.9690 H     1 <1>   0.4500 
 35 H        0.0840     6.1320    -0.8080 H     1 <1>   0.1500 
 36 H       -3.8330     1.5490     1.6000 H     1 <1>   0.0800 
 37 H       -5.1440     0.4420     1.2420 H     1 <1>   0.0800 
 38 H        2.0730     3.0880     2.5000 H     1 <1>   0.1500 
 39 H       -0.5500     1.5660     0.5500 H     1 <1>   0.0800 
 40 H        0.6620     1.3200     1.7740 H     1 <1>   0.0800 
 41 H        1.1060     1.2360     0.0900 H     1 <1>   0.0800 
 42 H        1.5890     7.0120     0.9340 H     1 <1>   0.1500 
 43 H       -6.6760     2.3090     0.8090 H     1 <1>   0.1500 
 44 H        2.5800     5.4760     2.5790 H     1 <1>   0.1500 
 45 H       -6.2300     4.3530     2.1880 H     1 <1>   0.1500 
 46 H       -4.5590     3.8250     2.4930 H     1 <1>   0.1500 
@<TRIPOS>BOND
  1   1   2  2   
  2   2   3  am  
  3   2   4  1   
  4   3   5  1   
  5   3   6  1   
  6   4   7  1   
  7   4   8  1   
  8   4  22  1   
  9   5   9  1   
 10   5  23  1   
 11   5  24  1   
 12   6  10  1   
 13   6  25  1   
 14   6  26  1   
 15   7  11  1   
 16   8  27  1   
 17   8  28  1   
 18   8  29  1   
 19   9  12  1   
 20   9  30  1   
 21   9  31  1   
 22  10  12  1   
 23  10  32  1   
 24  10  33  1   
 25  11  13  ar  
 26  11  14  ar  
 27  12  15  1   
 28  12  34  1   
 29  13  16  ar  
 30  13  17  1   
 31  14  18  ar  
 32  14  35  1   
 33  15  19  1   
 34  15  36  1   
 35  15  37  1   
 36  16  20  ar  
 37  16  38  1   
 38  17  39  1   
 39  17  40  1   
 40  17  41  1   
 41  18  20  ar  
 42  18  42  1   
 43  19  21  2   
 44  19  43  1   
 45  20  44  1   
 46  21  45  1   
 47  21  46  1   
@<TRIPOS>SUBSTRUCTURE
  1 ****   7 GROUP 4 **** **** 0

# MOE 2024.06 (io_trps.svl 2023.06)
