@<TRIPOS>MOLECULE
NONAME
38 39 1 0 0 
SMALL
USER_CHARGES


@<TRIPOS>ATOM
  1 O       -0.6150    -0.9460     1.5950 O.2   1 <1>  -0.5700 
  2 C       -1.0350    -1.2790     0.5050 C.2   1 <1>   0.7160 
  3 N       -2.0330    -0.5550    -0.0640 N.am  1 <1>  -0.7300 
  4 C       -0.4950    -2.4160    -0.1910 C.2   1 <1>  -0.0860 
  5 C       -2.9040     0.3840     0.6420 C.3   1 <1>   0.3640 
  6 C        0.7730    -2.8650    -0.3010 C.2   1 <1>  -0.0400 
  7 C       -1.1790    -3.3660    -0.9400 C.2   1 <1>   0.1080 
  8 C       -4.3410     0.0060     0.3040 C.ar  1 <1>  -0.1440 
  9 C       -2.5490     1.8050     0.2140 C.3   1 <1>  -0.2400 
 10 O        0.8590    -3.9420    -1.0430 O.3   1 <1>  -0.0190 
 11 C        2.0550    -2.3070     0.2900 C.3   1 <1>  -0.0600 
 12 N       -0.3660    -4.2270    -1.4230 N.2   1 <1>  -0.4100 
 13 C       -2.6770    -3.4380    -1.1660 C.3   1 <1>  -0.0590 
 14 C       -4.8450     0.1360    -0.9840 C.ar  1 <1>  -0.1500 
 15 C       -5.1660    -0.5010     1.2990 C.ar  1 <1>  -0.1500 
 16 C       -6.1480    -0.2320    -1.2680 C.ar  1 <1>  -0.1500 
 17 C       -6.4700    -0.8700     1.0180 C.ar  1 <1>  -0.1500 
 18 C       -6.9690    -0.7370    -0.2740 C.ar  1 <1>   0.0820 
 19 O       -8.2320    -1.0730    -0.6360 O.3   1 <1>  -0.3620 
 20 C       -9.1650    -1.5450     0.3100 C.3   1 <1>   0.0400 
 21 H       -2.3810    -0.8340    -0.9780 H     1 <1>   0.3700 
 22 H       -2.7480     0.2940     1.7060 H     1 <1>   0.0800 
 23 H       -2.6160     1.9220    -0.8510 H     1 <1>   0.0800 
 24 H       -1.5500     2.0390     0.5340 H     1 <1>   0.0800 
 25 H       -3.2250     2.4980     0.6810 H     1 <1>   0.0800 
 26 H        1.8610    -1.4140     0.8550 H     1 <1>   0.0800 
 27 H        2.7480    -2.0760    -0.4980 H     1 <1>   0.0800 
 28 H        2.4990    -3.0370     0.9410 H     1 <1>   0.0800 
 29 H       -2.9690    -2.7460    -1.9340 H     1 <1>   0.0800 
 30 H       -3.2060    -3.2090    -0.2580 H     1 <1>   0.0800 
 31 H       -2.9510    -4.4300    -1.4780 H     1 <1>   0.0800 
 32 H       -4.2320     0.5260    -1.7770 H     1 <1>   0.1500 
 33 H       -4.7940    -0.6150     2.3030 H     1 <1>   0.1500 
 34 H       -6.5400    -0.1290    -2.2640 H     1 <1>   0.1500 
 35 H       -7.0790    -1.2580     1.8130 H     1 <1>   0.1500 
 36 H      -10.0940    -1.7260    -0.2000 H     1 <1>   0.0800 
 37 H       -9.3050    -0.7940     1.0670 H     1 <1>   0.0800 
 38 H       -8.7980    -2.4620     0.7360 H     1 <1>   0.0800 
@<TRIPOS>BOND
  1   1   2  2   
  2   2   3  am  
  3   2   4  1   
  4   3   5  1   
  5   3  21  1   
  6   4   6  2   
  7   4   7  1   
  8   5   8  1   
  9   5   9  1   
 10   5  22  1   
 11   6  10  1   
 12   6  11  1   
 13   7  12  2   
 14   7  13  1   
 15   8  14  ar  
 16   8  15  ar  
 17   9  23  1   
 18   9  24  1   
 19   9  25  1   
 20  10  12  1   
 21  11  26  1   
 22  11  27  1   
 23  11  28  1   
 24  13  29  1   
 25  13  30  1   
 26  13  31  1   
 27  14  16  ar  
 28  14  32  1   
 29  15  17  ar  
 30  15  33  1   
 31  16  18  ar  
 32  16  34  1   
 33  17  18  ar  
 34  17  35  1   
 35  18  19  1   
 36  19  20  1   
 37  20  36  1   
 38  20  37  1   
 39  20  38  1   
@<TRIPOS>SUBSTRUCTURE
  1 ****   3 GROUP 4 **** **** 0

# MOE 2024.06 (io_trps.svl 2023.06)
