@<TRIPOS>MOLECULE
NONAME
38 40 1 0 0 
SMALL
USER_CHARGES


@<TRIPOS>ATOM
  1 O       -0.5880     0.0480    -0.6190 O.3   1 <1>  -0.5600 
  2 C       -1.1430    -1.1220    -1.1580 C.3   1 <1>   0.1200 
  3 C       -1.0710     0.3710     0.6580 C.3   1 <1>   0.1200 
  4 C       -2.6830    -1.0180    -1.2540 C.3   1 <1>   0.3430 
  5 C       -2.6100     0.5190     0.6560 C.3   1 <1>   0.3430 
  6 N       -3.1810     0.2970    -0.7180 N.4   1 <1>  -0.9590 
  7 C       -4.6820     0.4300    -0.7940 C.3   1 <1>   0.3430 
  8 C       -5.4690    -0.3070     0.3160 C.3   1 <1>   0.2000 
  9 O       -4.9390    -1.5660     0.5620 O.3   1 <1>  -0.5600 
 10 C       -6.9210    -0.5720    -0.0390 C.3   1 <1>   0.1200 
 11 C       -5.9550    -2.5170     0.5040 C.3   1 <1>   0.5600 
 12 O       -7.1480    -1.8200     0.4900 O.3   1 <1>  -0.5600 
 13 C       -5.8540    -3.4640     1.6850 C.3   1 <1>  -0.1600 
 14 C       -5.7830    -3.3990    -0.7240 C.3   1 <1>  -0.1600 
 15 C       -4.8350    -4.5260     1.2510 C.3   1 <1>  -0.1600 
 16 C       -4.8240    -4.5170    -0.2870 C.3   1 <1>  -0.1600 
 17 H       -0.8570    -1.9560    -0.5410 H     1 <1>   0.0800 
 18 H       -0.7190    -1.2660    -2.1370 H     1 <1>   0.0800 
 19 H       -0.6090     1.2960     0.9590 H     1 <1>   0.0800 
 20 H       -0.7640    -0.3970     1.3480 H     1 <1>   0.0800 
 21 H       -3.1150    -1.8350    -0.7000 H     1 <1>   0.0800 
 22 H       -2.9800    -1.1350    -2.2830 H     1 <1>   0.0800 
 23 H       -2.8710     1.5010     1.0150 H     1 <1>   0.0800 
 24 H       -3.0260    -0.2010     1.3440 H     1 <1>   0.0800 
 25 H       -2.7280     1.0060    -1.3150 H     1 <1>   0.4500 
 26 H       -5.0170     0.0630    -1.7500 H     1 <1>   0.0800 
 27 H       -4.9470     1.4740    -0.7490 H     1 <1>   0.0800 
 28 H       -5.4270     0.2480     1.2360 H     1 <1>   0.0800 
 29 H       -7.0820    -0.6210    -1.1020 H     1 <1>   0.0800 
 30 H       -7.5970     0.1350     0.4100 H     1 <1>   0.0800 
 31 H       -6.8090    -3.9360     1.8300 H     1 <1>   0.0800 
 32 H       -5.5620    -2.9560     2.5850 H     1 <1>   0.0800 
 33 H       -5.4180    -2.8560    -1.5750 H     1 <1>   0.0800 
 34 H       -6.7360    -3.8410    -0.9600 H     1 <1>   0.0800 
 35 H       -5.1010    -5.4950     1.6390 H     1 <1>   0.0800 
 36 H       -3.8590    -4.2620     1.6200 H     1 <1>   0.0800 
 37 H       -3.8280    -4.3160    -0.6400 H     1 <1>   0.0800 
 38 H       -5.1460    -5.4670    -0.6810 H     1 <1>   0.0800 
@<TRIPOS>BOND
  1   1   2  1   
  2   1   3  1   
  3   2   4  1   
  4   2  17  1   
  5   2  18  1   
  6   3   5  1   
  7   3  19  1   
  8   3  20  1   
  9   4   6  1   
 10   4  21  1   
 11   4  22  1   
 12   5   6  1   
 13   5  23  1   
 14   5  24  1   
 15   6   7  1   
 16   6  25  1   
 17   7   8  1   
 18   7  26  1   
 19   7  27  1   
 20   8   9  1   
 21   8  10  1   
 22   8  28  1   
 23   9  11  1   
 24  10  12  1   
 25  10  29  1   
 26  10  30  1   
 27  11  12  1   
 28  11  13  1   
 29  11  14  1   
 30  13  15  1   
 31  13  31  1   
 32  13  32  1   
 33  14  16  1   
 34  14  33  1   
 35  14  34  1   
 36  15  16  1   
 37  15  35  1   
 38  15  36  1   
 39  16  37  1   
 40  16  38  1   
@<TRIPOS>SUBSTRUCTURE
  1 ****   9 GROUP 4 **** **** 0

# MOE 2024.06 (io_trps.svl 2023.06)
