@<TRIPOS>MOLECULE
NONAME
35 37 1 0 0 
SMALL
USER_CHARGES


@<TRIPOS>ATOM
  1 CL      -1.1600    -1.2340     3.1290 Cl    1 <1>  -0.1770 
  2 C       -1.8400    -1.3790     1.5270 C.ar  1 <1>   0.1770 
  3 C       -1.1250    -2.0260     0.5160 C.ar  1 <1>   0.0860 
  4 C       -3.0900    -0.8320     1.3110 C.ar  1 <1>  -0.1500 
  5 C        0.1850    -2.5880     0.7420 C.2   1 <1>   0.5440 
  6 C       -1.7250    -2.1210    -0.7440 C.ar  1 <1>  -0.1500 
  7 C       -3.6360    -0.9430     0.0480 C.ar  1 <1>   0.1900 
  8 O        0.3080    -3.7980     0.7270 O.2   1 <1>  -0.5700 
  9 N        1.3010    -1.7970     0.9260 N.am  1 <1>  -0.6600 
 10 C       -2.9760    -1.5810    -0.9860 C.ar  1 <1>  -0.1500 
 11 F       -4.8120    -0.4290    -0.1770 F     1 <1>  -0.1900 
 12 C        1.3050    -0.3100     0.8170 C.3   1 <1>   0.1400 
 13 C        2.6400    -2.3780     1.2280 C.3   1 <1>   0.1400 
 14 C        2.2560     0.1070    -0.3030 C.3   1 <1>  -0.1600 
 15 C        3.6180    -1.9940     0.1180 C.3   1 <1>  -0.1600 
 16 C        3.6460    -0.4750    -0.0720 C.3   1 <1>   0.5600 
 17 O        4.2140     0.1410     1.0360 O.3   1 <1>  -0.5600 
 18 O        4.4610    -0.1320    -1.1390 O.3   1 <1>  -0.5600 
 19 C        5.5670     0.3180     0.8150 C.3   1 <1>   0.1200 
 20 C        5.7420     0.0900    -0.6750 C.3   1 <1>   0.1200 
 21 H       -3.6230    -0.3360     2.1000 H     1 <1>   0.1500 
 22 H       -1.1950    -2.6300    -1.5320 H     1 <1>   0.1500 
 23 H       -3.4370    -1.6520    -1.9560 H     1 <1>   0.1500 
 24 H        1.6360     0.1090     1.7530 H     1 <1>   0.0800 
 25 H        0.3220     0.0710     0.6100 H     1 <1>   0.0800 
 26 H        2.5860    -3.4500     1.3100 H     1 <1>   0.0800 
 27 H        2.9850    -1.9900     2.1720 H     1 <1>   0.0800 
 28 H        2.3220     1.1770    -0.3510 H     1 <1>   0.0800 
 29 H        1.8720    -0.2550    -1.2390 H     1 <1>   0.0800 
 30 H        3.2950    -2.4580    -0.7960 H     1 <1>   0.0800 
 31 H        4.5970    -2.3620     0.3560 H     1 <1>   0.0800 
 32 H        6.1170    -0.4020     1.3940 H     1 <1>   0.0800 
 33 H        5.8400     1.3170     1.1040 H     1 <1>   0.0800 
 34 H        6.1530     0.9510    -1.1720 H     1 <1>   0.0800 
 35 H        6.3430    -0.7790    -0.8740 H     1 <1>   0.0800 
@<TRIPOS>BOND
  1   1   2  1   
  2   2   3  ar  
  3   2   4  ar  
  4   3   5  1   
  5   3   6  ar  
  6   4   7  ar  
  7   4  21  1   
  8   5   8  2   
  9   5   9  am  
 10   6  10  ar  
 11   6  22  1   
 12   7  10  ar  
 13   7  11  1   
 14   9  12  1   
 15   9  13  1   
 16  10  23  1   
 17  12  14  1   
 18  12  24  1   
 19  12  25  1   
 20  13  15  1   
 21  13  26  1   
 22  13  27  1   
 23  14  16  1   
 24  14  28  1   
 25  14  29  1   
 26  15  16  1   
 27  15  30  1   
 28  15  31  1   
 29  16  17  1   
 30  16  18  1   
 31  17  19  1   
 32  18  20  1   
 33  19  20  1   
 34  19  32  1   
 35  19  33  1   
 36  20  34  1   
 37  20  35  1   
@<TRIPOS>SUBSTRUCTURE
  1 ****   9 GROUP 4 **** **** 0

# MOE 2024.06 (io_trps.svl 2023.06)
