@<TRIPOS>MOLECULE
NONAME
31 31 1 0 0 
SMALL
USER_CHARGES


@<TRIPOS>ATOM
  1 S        0.5860     0.2920    -1.0200 S.3   1 <1>  -0.0800 
  2 C       -0.9510    -0.5440    -0.9420 C.2   1 <1>   0.5040 
  3 C       -0.0480     1.5800    -0.0180 C.2   1 <1>  -0.0450 
  4 N       -1.8350     0.0860    -0.2560 N.2   1 <1>  -0.5650 
  5 N       -1.1020    -1.7100    -1.6200 N.2   1 <1>  -0.5760 
  6 C       -1.3380     1.2540     0.2580 C.2   1 <1>   0.0460 
  7 C        0.8130     2.6780     0.3230 C.2   1 <1>   0.8050 
  8 C       -0.3840    -2.7360    -1.3570 C.2   1 <1>   0.4400 
  9 C       -2.3240     2.0560     1.0870 C.3   1 <1>  -0.0590 
 10 O        0.4610     3.6110     1.0180 O.2   1 <1>  -0.5700 
 11 O        2.0660     2.6630    -0.1480 O.3   1 <1>  -0.4300 
 12 N        0.4810    -2.9700    -0.3140 N.pl3 1 <1>  -0.7880 
 13 C        2.9940     3.7020     0.0860 C.3   1 <1>   0.1200 
 14 C        0.3290    -2.3840     1.0500 C.3   1 <1>   0.1290 
 15 C        1.4780    -4.0670    -0.4090 C.3   1 <1>   0.1290 
 16 C        2.7860     4.7960    -0.9600 C.3   1 <1>  -0.2400 
 17 H       -0.4670    -3.5570    -2.0480 H     1 <1>   0.0600 
 18 H       -1.8920     2.9630     1.4630 H     1 <1>   0.0800 
 19 H       -2.6580     1.4640     1.9190 H     1 <1>   0.0800 
 20 H       -3.1760     2.3080     0.4820 H     1 <1>   0.0800 
 21 H        2.8670     4.0800     1.0870 H     1 <1>   0.0800 
 22 H        3.9800     3.2810    -0.0060 H     1 <1>   0.0800 
 23 H        0.4980    -3.1380     1.7990 H     1 <1>   0.0800 
 24 H       -0.6670    -1.9990     1.1870 H     1 <1>   0.0800 
 25 H        1.0400    -1.5880     1.1880 H     1 <1>   0.0800 
 26 H        2.4450    -3.7060    -0.1020 H     1 <1>   0.0800 
 27 H        1.5500    -4.4210    -1.4220 H     1 <1>   0.0800 
 28 H        1.1860    -4.8850     0.2270 H     1 <1>   0.0800 
 29 H        1.8070     5.2300    -0.8580 H     1 <1>   0.0800 
 30 H        2.9010     4.3920    -1.9500 H     1 <1>   0.0800 
 31 H        3.5160     5.5720    -0.8210 H     1 <1>   0.0800 
@<TRIPOS>BOND
  1   1   2  1   
  2   1   3  1   
  3   2   4  2   
  4   2   5  1   
  5   3   6  2   
  6   3   7  1   
  7   4   6  1   
  8   5   8  2   
  9   6   9  1   
 10   7  10  2   
 11   7  11  1   
 12   8  12  1   
 13   8  17  1   
 14   9  18  1   
 15   9  19  1   
 16   9  20  1   
 17  11  13  1   
 18  12  14  1   
 19  12  15  1   
 20  13  16  1   
 21  13  21  1   
 22  13  22  1   
 23  14  23  1   
 24  14  24  1   
 25  14  25  1   
 26  15  26  1   
 27  15  27  1   
 28  15  28  1   
 29  16  29  1   
 30  16  30  1   
 31  16  31  1   
@<TRIPOS>SUBSTRUCTURE
  1 ****   1 GROUP 4 **** **** 0

# MOE 2024.06 (io_trps.svl 2023.06)
