@<TRIPOS>MOLECULE
NONAME
54 57 1 0 0 
SMALL
USER_CHARGES


@<TRIPOS>ATOM
  1 S        0.1020     0.2140     1.4650 S.3   1 <1>  -0.3320 
  2 C        1.1200     1.6550     1.1670 C.ar  1 <1>   0.7220 
  3 C       -1.6470     0.8180     1.4900 C.3   1 <1>   0.0700 
  4 N        0.4970     2.8280     1.0950 N.ar  1 <1>  -0.3100 
  5 N        2.3980     1.4160     1.0520 N.ar  1 <1>  -0.6200 
  6 C       -2.1400     0.9430     0.0460 C.3   1 <1>  -0.1600 
  7 N        1.2020     3.9000     0.8740 N.ar  1 <1>  -0.3100 
  8 C        3.1090     2.5050     0.8250 C.ar  1 <1>   0.3930 
  9 C       -3.5940     1.4270     0.0000 C.3   1 <1>  -0.1600 
 10 C        2.5310     3.7920     0.7280 C.ar  1 <1>   0.3100 
 11 O        4.4130     2.1990     0.7160 O.3   1 <1>  -0.3620 
 12 C       -4.0850     1.5510    -1.4450 C.3   1 <1>  -0.2400 
 13 C        3.2220     5.0540     0.4720 C.ar  1 <1>   0.0000 
 14 C        5.4290     3.1420     0.6370 C.3   1 <1>   0.7130 
 15 C        4.4490     5.1200    -0.2070 C.ar  1 <1>   0.1000 
 16 C        2.6600     6.2750     0.8650 C.ar  1 <1>  -0.1500 
 17 N        5.1340     3.9710    -0.5180 N.pl3 1 <1>  -0.8690 
 18 C        6.7750     2.4610     0.4230 C.ar  1 <1>  -0.1440 
 19 C        5.0240     6.3420    -0.5320 C.ar  1 <1>  -0.1500 
 20 C        3.2460     7.4890     0.5620 C.ar  1 <1>  -0.1500 
 21 C        6.9020     1.3830    -0.4430 C.ar  1 <1>  -0.1500 
 22 C        7.8990     2.9310     1.0840 C.ar  1 <1>  -0.1500 
 23 C        4.4300     7.5260    -0.1500 C.ar  1 <1>  -0.1500 
 24 C        8.1310     0.7620    -0.6560 C.ar  1 <1>   0.0820 
 25 C        9.1250     2.3250     0.8840 C.ar  1 <1>  -0.1500 
 26 O        8.2520    -0.2830    -1.5270 O.3   1 <1>  -0.3620 
 27 C        9.2600     1.2430     0.0300 C.ar  1 <1>   0.0820 
 28 C        7.1380    -0.8480    -2.1860 C.3   1 <1>   0.0400 
 29 O       10.5270     0.7460    -0.0550 O.3   1 <1>  -0.3630 
 30 C       10.7780    -0.6040    -0.3760 C.3   1 <1>   0.0400 
 31 H       -1.6710     1.7580     2.0130 H     1 <1>   0.0800 
 32 H       -2.2190     0.0870     2.0330 H     1 <1>   0.0800 
 33 H       -2.0630    -0.0170    -0.4360 H     1 <1>   0.0800 
 34 H       -1.5160     1.6390    -0.4870 H     1 <1>   0.0800 
 35 H       -3.6700     2.3870     0.4820 H     1 <1>   0.0800 
 36 H       -4.2250     0.7340     0.5300 H     1 <1>   0.0800 
 37 H       -3.4800     2.2560    -1.9880 H     1 <1>   0.0800 
 38 H       -5.1050     1.8930    -1.4590 H     1 <1>   0.0800 
 39 H       -4.0380     0.5980    -1.9420 H     1 <1>   0.0800 
 40 H        5.4290     3.7170     1.5490 H     1 <1>   0.0800 
 41 H        1.7330     6.2900     1.4130 H     1 <1>   0.1500 
 42 H        5.9950     4.0890    -1.0600 H     1 <1>   0.4000 
 43 H        5.9480     6.3670    -1.0800 H     1 <1>   0.1500 
 44 H        2.7790     8.4080     0.8740 H     1 <1>   0.1500 
 45 H        6.0170     1.0440    -0.9500 H     1 <1>   0.1500 
 46 H        7.8320     3.7690     1.7570 H     1 <1>   0.1500 
 47 H        4.8810     8.4710    -0.4000 H     1 <1>   0.1500 
 48 H        9.9970     2.6900     1.3970 H     1 <1>   0.1500 
 49 H        7.4850    -1.6740    -2.7800 H     1 <1>   0.0800 
 50 H        6.6940    -0.1030    -2.8220 H     1 <1>   0.0800 
 51 H        6.4360    -1.1970    -1.4490 H     1 <1>   0.0800 
 52 H       11.7840    -0.8370    -0.0800 H     1 <1>   0.0800 
 53 H       10.6730    -0.7330    -1.4380 H     1 <1>   0.0800 
 54 H       10.0820    -1.2270     0.1570 H     1 <1>   0.0800 
@<TRIPOS>BOND
  1   1   2  1   
  2   1   3  1   
  3   2   4  ar  
  4   2   5  ar  
  5   3   6  1   
  6   3  31  1   
  7   3  32  1   
  8   4   7  ar  
  9   5   8  ar  
 10   6   9  1   
 11   6  33  1   
 12   6  34  1   
 13   7  10  ar  
 14   8  10  ar  
 15   8  11  1   
 16   9  12  1   
 17   9  35  1   
 18   9  36  1   
 19  10  13  1   
 20  11  14  1   
 21  12  37  1   
 22  12  38  1   
 23  12  39  1   
 24  13  15  ar  
 25  13  16  ar  
 26  14  17  1   
 27  14  18  1   
 28  14  40  1   
 29  15  17  1   
 30  15  19  ar  
 31  16  20  ar  
 32  16  41  1   
 33  17  42  1   
 34  18  21  ar  
 35  18  22  ar  
 36  19  23  ar  
 37  19  43  1   
 38  20  23  ar  
 39  20  44  1   
 40  21  24  ar  
 41  21  45  1   
 42  22  25  ar  
 43  22  46  1   
 44  23  47  1   
 45  24  26  1   
 46  24  27  ar  
 47  25  27  ar  
 48  25  48  1   
 49  26  28  1   
 50  27  29  1   
 51  28  49  1   
 52  28  50  1   
 53  28  51  1   
 54  29  30  1   
 55  30  52  1   
 56  30  53  1   
 57  30  54  1   
@<TRIPOS>SUBSTRUCTURE
  1 ****  11 GROUP 4 **** **** 0

# MOE 2024.06 (io_trps.svl 2023.06)
