@<TRIPOS>MOLECULE
NONAME
42 44 1 0 0 
SMALL
USER_CHARGES


@<TRIPOS>ATOM
  1 S       -0.7660     0.5070     1.6940 S.o2  1 <1>   1.5010 
  2 O       -1.6510     0.9620     2.7460 O.2   1 <1>  -0.6500 
  3 O        0.0830    -0.6420     1.9260 O.2   1 <1>  -0.6500 
  4 N       -1.7590     0.1180     0.3780 N.am  1 <1>  -0.8490 
  5 C        0.2160     1.8840     1.0740 C.2   1 <1>  -0.0630 
  6 C       -2.4810    -1.1460     0.6170 C.3   1 <1>   0.1960 
  7 C       -2.7260     1.1900     0.0700 C.3   1 <1>   0.1960 
  8 C        1.0570     1.8520    -0.0340 C.2   1 <1>   0.1080 
  9 C        0.3210     3.1630     1.5170 C.2   1 <1>  -0.3020 
 10 C       -3.3680    -1.5630    -0.5740 C.3   1 <1>   0.2090 
 11 C       -3.6000     0.8630    -1.1570 C.3   1 <1>   0.2090 
 12 N        1.6220     2.9960    -0.2650 N.2   1 <1>  -0.7070 
 13 C        1.3190     0.6440    -0.9100 C.3   1 <1>  -0.0590 
 14 N        1.1720     3.8070     0.7000 N.pl3 1 <1>   0.3140 
 15 N       -4.2710    -0.4650    -1.0320 N.pl3 1 <1>  -0.8380 
 16 C        1.6050     5.2050     0.7900 C.3   1 <1>   0.0160 
 17 C       -5.5990    -0.4860    -0.6190 C.ar  1 <1>   0.1000 
 18 C       -6.5980    -0.7380    -1.5490 C.ar  1 <1>  -0.1500 
 19 C       -5.9620    -0.2570     0.7050 C.ar  1 <1>  -0.1500 
 20 C       -7.9290    -0.7630    -1.1720 C.ar  1 <1>  -0.1500 
 21 C       -7.2910    -0.2810     1.0870 C.ar  1 <1>  -0.1500 
 22 C       -8.2770    -0.5350     0.1480 C.ar  1 <1>  -0.1500 
 23 H       -3.0960    -1.0530     1.4960 H     1 <1>   0.0800 
 24 H       -1.7720    -1.9350     0.7990 H     1 <1>   0.0800 
 25 H       -2.1980     2.1070    -0.1300 H     1 <1>   0.0800 
 26 H       -3.3710     1.3610     0.9150 H     1 <1>   0.0800 
 27 H       -0.1610     3.6270     2.3580 H     1 <1>   0.1500 
 28 H       -3.9590    -2.4180    -0.2950 H     1 <1>   0.0800 
 29 H       -2.7370    -1.8550    -1.3940 H     1 <1>   0.0800 
 30 H       -2.9830     0.8590    -2.0380 H     1 <1>   0.0800 
 31 H       -4.3450     1.6300    -1.2790 H     1 <1>   0.0800 
 32 H        1.6440    -0.1850    -0.3080 H     1 <1>   0.0800 
 33 H        2.0870     0.8720    -1.6260 H     1 <1>   0.0800 
 34 H        0.4240     0.3710    -1.4370 H     1 <1>   0.0800 
 35 H        1.0500     5.7090     1.5580 H     1 <1>   0.0800 
 36 H        1.4360     5.6830    -0.1570 H     1 <1>   0.0800 
 37 H        2.6540     5.2290     1.0210 H     1 <1>   0.0800 
 38 H       -6.3160    -0.9140    -2.5700 H     1 <1>   0.1500 
 39 H       -5.2020    -0.0590     1.4350 H     1 <1>   0.1500 
 40 H       -8.6910    -0.9600    -1.9050 H     1 <1>   0.1500 
 41 H       -7.5590    -0.1040     2.1130 H     1 <1>   0.1500 
 42 H       -9.3120    -0.5540     0.4440 H     1 <1>   0.1500 
@<TRIPOS>BOND
  1   1   2  2   
  2   1   3  2   
  3   1   4  am  
  4   1   5  1   
  5   4   6  1   
  6   4   7  1   
  7   5   8  1   
  8   5   9  2   
  9   6  10  1   
 10   6  23  1   
 11   6  24  1   
 12   7  11  1   
 13   7  25  1   
 14   7  26  1   
 15   8  12  2   
 16   8  13  1   
 17   9  14  1   
 18   9  27  1   
 19  10  15  1   
 20  10  28  1   
 21  10  29  1   
 22  11  15  1   
 23  11  30  1   
 24  11  31  1   
 25  12  14  1   
 26  13  32  1   
 27  13  33  1   
 28  13  34  1   
 29  14  16  1   
 30  15  17  1   
 31  16  35  1   
 32  16  36  1   
 33  16  37  1   
 34  17  18  ar  
 35  17  19  ar  
 36  18  20  ar  
 37  18  38  1   
 38  19  21  ar  
 39  19  39  1   
 40  20  22  ar  
 41  20  40  1   
 42  21  22  ar  
 43  21  41  1   
 44  22  42  1   
@<TRIPOS>SUBSTRUCTURE
  1 ****   7 GROUP 4 **** **** 0

# MOE 2024.06 (io_trps.svl 2023.06)
