@<TRIPOS>MOLECULE
NONAME
41 42 1 0 0 
SMALL
USER_CHARGES


@<TRIPOS>ATOM
  1 S       -0.3030    -0.0600    -1.4710 S.3   1 <1>  -0.3710 
  2 C       -0.2850    -1.6540    -0.6370 C.2   1 <1>   0.5050 
  3 C        1.4780     0.3910    -1.6720 C.3   1 <1>  -0.0100 
  4 N        0.8760    -2.1190    -0.3980 N.2   1 <1>  -0.6960 
  5 C       -1.5480    -2.3190    -0.3380 C.ar  1 <1>   0.0860 
  6 C        1.0160    -3.4570     0.1570 C.3   1 <1>   0.2460 
  7 C       -2.8000    -1.7120    -0.1470 C.ar  1 <1>   0.0820 
  8 C       -1.4890    -3.7090    -0.1840 C.ar  1 <1>  -0.1440 
  9 C       -0.1280    -4.3800    -0.3230 C.3   1 <1>  -0.0170 
 10 C        2.3600    -4.0010    -0.3290 C.3   1 <1>  -0.2400 
 11 C        1.0380    -3.3280     1.6830 C.3   1 <1>  -0.2400 
 12 O       -2.9260    -0.3650    -0.1960 O.3   1 <1>  -0.3630 
 13 C       -3.9380    -2.4770     0.1130 C.ar  1 <1>   0.0830 
 14 C       -2.6120    -4.4690     0.0870 C.ar  1 <1>  -0.1500 
 15 C       -2.9910     0.3070     1.0400 C.3   1 <1>   0.0400 
 16 O       -5.1470    -1.8710     0.2760 O.3   1 <1>  -0.3630 
 17 C       -3.8540    -3.8620     0.2290 C.ar  1 <1>   0.0830 
 18 C       -5.8260    -1.5640    -0.9180 C.3   1 <1>   0.0400 
 19 O       -4.9940    -4.5630     0.4780 O.3   1 <1>  -0.3630 
 20 C       -4.9850    -5.9590     0.6790 C.3   1 <1>   0.0400 
 21 H        1.5240     1.3460    -2.1620 H     1 <1>   0.0800 
 22 H        1.9450    -0.3740    -2.2650 H     1 <1>   0.0800 
 23 H        1.9180     0.4360    -0.6910 H     1 <1>   0.0800 
 24 H       -0.1020    -5.3000     0.2330 H     1 <1>   0.0800 
 25 H        0.0240    -4.6220    -1.3600 H     1 <1>   0.0800 
 26 H        2.3790    -4.0460    -1.4030 H     1 <1>   0.0800 
 27 H        2.5290    -4.9880     0.0610 H     1 <1>   0.0800 
 28 H        3.1590    -3.3620     0.0020 H     1 <1>   0.0800 
 29 H        0.1060    -2.9360     2.0470 H     1 <1>   0.0800 
 30 H        1.8320    -2.6700     1.9880 H     1 <1>   0.0800 
 31 H        1.2000    -4.2880     2.1380 H     1 <1>   0.0800 
 32 H       -2.5080    -5.5330     0.1820 H     1 <1>   0.1500 
 33 H       -3.0660     1.3610     0.8440 H     1 <1>   0.0800 
 34 H       -2.0950     0.0980     1.5960 H     1 <1>   0.0800 
 35 H       -3.8580    -0.0310     1.5800 H     1 <1>   0.0800 
 36 H       -6.7630    -1.1040    -0.6630 H     1 <1>   0.0800 
 37 H       -5.9970    -2.4770    -1.4620 H     1 <1>   0.0800 
 38 H       -5.2250    -0.8860    -1.4970 H     1 <1>   0.0800 
 39 H       -5.9940    -6.2710     0.8820 H     1 <1>   0.0800 
 40 H       -4.3560    -6.1860     1.5200 H     1 <1>   0.0800 
 41 H       -4.6280    -6.4380    -0.2150 H     1 <1>   0.0800 
@<TRIPOS>BOND
  1   1   2  1   
  2   1   3  1   
  3   2   4  2   
  4   2   5  1   
  5   3  21  1   
  6   3  22  1   
  7   3  23  1   
  8   4   6  1   
  9   5   7  ar  
 10   5   8  ar  
 11   6   9  1   
 12   6  10  1   
 13   6  11  1   
 14   7  12  1   
 15   7  13  ar  
 16   8   9  1   
 17   8  14  ar  
 18   9  24  1   
 19   9  25  1   
 20  10  26  1   
 21  10  27  1   
 22  10  28  1   
 23  11  29  1   
 24  11  30  1   
 25  11  31  1   
 26  12  15  1   
 27  13  16  1   
 28  13  17  ar  
 29  14  17  ar  
 30  14  32  1   
 31  15  33  1   
 32  15  34  1   
 33  15  35  1   
 34  16  18  1   
 35  17  19  1   
 36  18  36  1   
 37  18  37  1   
 38  18  38  1   
 39  19  20  1   
 40  20  39  1   
 41  20  40  1   
 42  20  41  1   
@<TRIPOS>SUBSTRUCTURE
  1 ****   5 GROUP 4 **** **** 0

# MOE 2024.06 (io_trps.svl 2023.06)
