@<TRIPOS>MOLECULE
NONAME
47 48 1 0 0 
SMALL
USER_CHARGES


@<TRIPOS>ATOM
  1 CL      -1.0130     0.4610    -0.3140 Cl    1 <1>  -0.1770 
  2 C       -0.5740     2.1460    -0.4570 C.ar  1 <1>   0.1770 
  3 C       -1.4490     3.0260    -1.0710 C.ar  1 <1>  -0.1440 
  4 C        0.6380     2.5680     0.0620 C.ar  1 <1>  -0.1500 
  5 C       -1.0770     4.3580    -1.1440 C.ar  1 <1>   0.1770 
  6 C       -2.7620     2.5420    -1.6490 C.3   1 <1>   0.4870 
  7 C        0.9920     3.9040    -0.0280 C.ar  1 <1>  -0.1500 
  8 CL      -2.1570     5.5150    -1.8810 Cl    1 <1>  -0.1770 
  9 C        0.1290     4.8050    -0.6320 C.ar  1 <1>  -0.1500 
 10 N       -3.7090     2.2380    -0.5420 N.4   1 <1>  -0.9590 
 11 C       -4.8980     1.4930    -1.0660 C.3   1 <1>   0.3430 
 12 C       -4.1110     3.4720     0.1960 C.3   1 <1>   0.3430 
 13 C       -5.8490     1.0850     0.0660 C.3   1 <1>  -0.0190 
 14 C       -5.0220     3.0990     1.3670 C.3   1 <1>  -0.1600 
 15 C       -7.0660     0.4100    -0.5580 C.2   1 <1>   0.5690 
 16 C       -6.2580     2.3150     0.9000 C.3   1 <1>  -0.1600 
 17 O       -7.3770     0.7840    -1.6640 O.2   1 <1>  -0.5700 
 18 N       -7.7640    -0.5720     0.1000 N.am  1 <1>  -0.6600 
 19 C       -7.4690    -1.0730     1.4700 C.3   1 <1>   0.1400 
 20 C       -8.9500    -1.2030    -0.5460 C.3   1 <1>   0.1400 
 21 C       -6.5580    -2.2950     1.3830 C.3   1 <1>  -0.2400 
 22 C      -10.2140    -0.4460    -0.1430 C.3   1 <1>  -0.2400 
 23 H        1.3000     1.8590     0.5300 H     1 <1>   0.1500 
 24 H       -2.5780     1.6510    -2.2280 H     1 <1>   0.0800 
 25 H       -3.1840     3.2850    -2.3060 H     1 <1>   0.0800 
 26 H        1.9350     4.2430     0.3720 H     1 <1>   0.1500 
 27 H        0.3920     5.8470    -0.7060 H     1 <1>   0.1500 
 28 H       -3.2090     1.6210     0.1130 H     1 <1>   0.4500 
 29 H       -4.5820     0.6070    -1.5940 H     1 <1>   0.0800 
 30 H       -5.4370     2.1170    -1.7630 H     1 <1>   0.0800 
 31 H       -4.6350     4.1410    -0.4680 H     1 <1>   0.0800 
 32 H       -3.2390     3.9850     0.5710 H     1 <1>   0.0800 
 33 H       -5.3320     0.3780     0.6850 H     1 <1>   0.0800 
 34 H       -5.3410     4.0010     1.8610 H     1 <1>   0.0800 
 35 H       -4.4660     2.5210     2.0850 H     1 <1>   0.0800 
 36 H       -6.8400     2.0090     1.7520 H     1 <1>   0.0800 
 37 H       -6.8810     2.9590     0.2990 H     1 <1>   0.0800 
 38 H       -8.3890    -1.3430     1.9620 H     1 <1>   0.0800 
 39 H       -7.0030    -0.3060     2.0620 H     1 <1>   0.0800 
 40 H       -9.0260    -2.2350    -0.2490 H     1 <1>   0.0800 
 41 H       -8.8430    -1.1780    -1.6180 H     1 <1>   0.0800 
 42 H       -7.0430    -3.0880     0.8420 H     1 <1>   0.0800 
 43 H       -6.3370    -2.6520     2.3730 H     1 <1>   0.0800 
 44 H       -5.6330    -2.0510     0.8950 H     1 <1>   0.0800 
 45 H      -10.3610    -0.4840     0.9200 H     1 <1>   0.0800 
 46 H      -11.0670    -0.8910    -0.6210 H     1 <1>   0.0800 
 47 H      -10.1450     0.5790    -0.4610 H     1 <1>   0.0800 
@<TRIPOS>BOND
  1   1   2  1   
  2   2   3  ar  
  3   2   4  ar  
  4   3   5  ar  
  5   3   6  1   
  6   4   7  ar  
  7   4  23  1   
  8   5   8  1   
  9   5   9  ar  
 10   6  10  1   
 11   6  24  1   
 12   6  25  1   
 13   7   9  ar  
 14   7  26  1   
 15   9  27  1   
 16  10  11  1   
 17  10  12  1   
 18  10  28  1   
 19  11  13  1   
 20  11  29  1   
 21  11  30  1   
 22  12  14  1   
 23  12  31  1   
 24  12  32  1   
 25  13  15  1   
 26  13  16  1   
 27  13  33  1   
 28  14  16  1   
 29  14  34  1   
 30  14  35  1   
 31  15  17  2   
 32  15  18  am  
 33  16  36  1   
 34  16  37  1   
 35  18  19  1   
 36  18  20  1   
 37  19  21  1   
 38  19  38  1   
 39  19  39  1   
 40  20  22  1   
 41  20  40  1   
 42  20  41  1   
 43  21  42  1   
 44  21  43  1   
 45  21  44  1   
 46  22  45  1   
 47  22  46  1   
 48  22  47  1   
@<TRIPOS>SUBSTRUCTURE
  1 ****  10 GROUP 4 **** **** 0

# MOE 2024.06 (io_trps.svl 2023.06)
