@<TRIPOS>MOLECULE
NONAME
47 49 1 0 0 
SMALL
USER_CHARGES


@<TRIPOS>ATOM
  1 S       -0.0600     0.1830     0.6560 S.o2  1 <1>   1.4470 
  2 O       -0.4130     0.3480     2.0510 O.2   1 <1>  -0.6500 
  3 O       -0.2780    -1.0970     0.0180 O.2   1 <1>  -0.6500 
  4 N       -0.9510     1.3350    -0.2120 N.am  1 <1>  -0.8490 
  5 C        1.6570     0.6950     0.3740 C.ar  1 <1>  -0.0090 
  6 C       -0.9010     2.6580     0.4200 C.3   1 <1>   0.1960 
  7 C       -2.3370     0.8980    -0.4020 C.3   1 <1>   0.1960 
  8 C        2.1730     0.7830    -0.9140 C.ar  1 <1>  -0.1500 
  9 C        2.5030     1.0210     1.4270 C.ar  1 <1>  -0.1500 
 10 C       -1.5860     3.6980    -0.4710 C.3   1 <1>  -0.1600 
 11 C       -3.0860     1.8760    -1.3140 C.3   1 <1>  -0.1600 
 12 C        3.4770     1.1830    -1.1420 C.ar  1 <1>  -0.1500 
 13 C        3.8080     1.4210     1.2040 C.ar  1 <1>  -0.1500 
 14 C       -3.0380     3.3070    -0.7660 C.3   1 <1>  -0.1600 
 15 C        4.3170     1.5130    -0.0860 C.ar  1 <1>   0.1170 
 16 N        5.6350     1.9040    -0.3640 N.am  1 <1>  -0.5470 
 17 C        6.5120     2.6640     0.3620 C.2   1 <1>   0.5690 
 18 O        6.2260     3.1780     1.4170 O.2   1 <1>  -0.5700 
 19 C        7.9120     2.8740    -0.2170 C.3   1 <1>  -0.0190 
 20 C        9.0480     2.4450     0.7140 C.3   1 <1>  -0.1600 
 21 C        8.2460     4.3340    -0.5270 C.3   1 <1>  -0.1600 
 22 C       10.2870     3.1730     0.1880 C.3   1 <1>  -0.1600 
 23 C        9.7740     4.3880    -0.5970 C.3   1 <1>  -0.1600 
 24 H        0.1250     2.9520     0.5720 H     1 <1>   0.0800 
 25 H       -1.3870     2.6260     1.3820 H     1 <1>   0.0800 
 26 H       -2.8320     0.8270     0.5530 H     1 <1>   0.0800 
 27 H       -2.3530    -0.0780    -0.8610 H     1 <1>   0.0800 
 28 H        1.5350     0.5340    -1.7470 H     1 <1>   0.1500 
 29 H        2.1370     0.9600     2.4390 H     1 <1>   0.1500 
 30 H       -1.0360     3.7810    -1.3920 H     1 <1>   0.0800 
 31 H       -1.5610     4.6570     0.0150 H     1 <1>   0.0800 
 32 H       -4.1090     1.5600    -1.4130 H     1 <1>   0.0800 
 33 H       -2.6360     1.8460    -2.2920 H     1 <1>   0.0800 
 34 H        3.8400     1.2410    -2.1520 H     1 <1>   0.1500 
 35 H        4.4340     1.6600     2.0460 H     1 <1>   0.1500 
 36 H       -3.4680     3.9900    -1.4780 H     1 <1>   0.0800 
 37 H       -3.6150     3.3610     0.1420 H     1 <1>   0.0800 
 38 H        5.9820     1.6030    -1.2710 H     1 <1>   0.3700 
 39 H        8.0070     2.3130    -1.1290 H     1 <1>   0.0800 
 40 H        9.1800     1.3770     0.7270 H     1 <1>   0.0800 
 41 H        8.8390     2.7840     1.7150 H     1 <1>   0.0800 
 42 H        7.9090     4.9580     0.2850 H     1 <1>   0.0800 
 43 H        7.7860     4.6710    -1.4390 H     1 <1>   0.0800 
 44 H       10.8410     2.5260    -0.4700 H     1 <1>   0.0800 
 45 H       10.9270     3.4730     1.0010 H     1 <1>   0.0800 
 46 H       10.1420     5.3090    -0.1780 H     1 <1>   0.0800 
 47 H       10.0990     4.3190    -1.6210 H     1 <1>   0.0800 
@<TRIPOS>BOND
  1   1   2  2   
  2   1   3  2   
  3   1   4  am  
  4   1   5  1   
  5   4   6  1   
  6   4   7  1   
  7   5   8  ar  
  8   5   9  ar  
  9   6  10  1   
 10   6  24  1   
 11   6  25  1   
 12   7  11  1   
 13   7  26  1   
 14   7  27  1   
 15   8  12  ar  
 16   8  28  1   
 17   9  13  ar  
 18   9  29  1   
 19  10  14  1   
 20  10  30  1   
 21  10  31  1   
 22  11  14  1   
 23  11  32  1   
 24  11  33  1   
 25  12  15  ar  
 26  12  34  1   
 27  13  15  ar  
 28  13  35  1   
 29  14  36  1   
 30  14  37  1   
 31  15  16  1   
 32  16  17  am  
 33  16  38  1   
 34  17  18  2   
 35  17  19  1   
 36  19  20  1   
 37  19  21  1   
 38  19  39  1   
 39  20  22  1   
 40  20  40  1   
 41  20  41  1   
 42  21  23  1   
 43  21  42  1   
 44  21  43  1   
 45  22  23  1   
 46  22  44  1   
 47  22  45  1   
 48  23  46  1   
 49  23  47  1   
@<TRIPOS>SUBSTRUCTURE
  1 ****  15 GROUP 4 **** **** 0

# MOE 2024.06 (io_trps.svl 2023.06)
