@<TRIPOS>MOLECULE
NONAME
48 50 1 0 0 
SMALL
USER_CHARGES


@<TRIPOS>ATOM
  1 F        0.9440    -0.8070     2.5490 F     1 <1>  -0.1900 
  2 C        1.9830    -1.3020     1.9260 C.ar  1 <1>   0.1900 
  3 C        2.1590    -1.0120     0.5870 C.ar  1 <1>  -0.1500 
  4 C        2.8660    -2.0970     2.6320 C.ar  1 <1>  -0.1500 
  5 C        3.2610    -1.5400    -0.0630 C.ar  1 <1>  -0.1500 
  6 C        3.9640    -2.6180     1.9680 C.ar  1 <1>  -0.1500 
  7 C        4.1700    -2.3440     0.6170 C.ar  1 <1>   0.1000 
  8 N        5.2660    -2.8590    -0.0670 N.pl3 1 <1>  -0.8380 
  9 C        5.2460    -4.3270    -0.3330 C.3   1 <1>   0.2090 
 10 C        6.6020    -2.3210     0.3230 C.3   1 <1>   0.2090 
 11 C        6.3240    -4.7080    -1.3710 C.3   1 <1>   0.3430 
 12 C        7.6730    -2.7150    -0.7160 C.3   1 <1>   0.3430 
 13 N        7.6950    -4.2020    -0.9940 N.4   1 <1>  -0.9590 
 14 C        8.7190    -4.5530    -2.0140 C.3   1 <1>   0.4860 
 15 C       10.0830    -4.1880    -1.4620 C.ar  1 <1>  -0.1430 
 16 C       10.5900    -4.8710    -0.3660 C.ar  1 <1>  -0.1500 
 17 C       10.8300    -3.1690    -2.0300 C.ar  1 <1>  -0.1500 
 18 C       11.8160    -4.5430     0.1860 C.ar  1 <1>   0.0830 
 19 C       12.0630    -2.8320    -1.4980 C.ar  1 <1>  -0.1500 
 20 O       12.1520    -5.3000     1.2690 O.3   1 <1>  -0.3630 
 21 C       12.5630    -3.5040    -0.3940 C.ar  1 <1>   0.0830 
 22 C       13.4190    -5.2460     1.8830 C.3   1 <1>   0.1200 
 23 O       13.7650    -3.1040     0.0710 O.3   1 <1>  -0.5330 
 24 C       13.4620    -6.3190     2.9680 C.3   1 <1>  -0.2400 
 25 H        1.4500    -0.3890     0.0720 H     1 <1>   0.1500 
 26 H        2.6920    -2.2980     3.6740 H     1 <1>   0.1500 
 27 H        3.4240    -1.3310    -1.1050 H     1 <1>   0.1500 
 28 H        4.6610    -3.2370     2.5000 H     1 <1>   0.1500 
 29 H        4.2750    -4.6040    -0.7070 H     1 <1>   0.0800 
 30 H        5.4130    -4.8640     0.5850 H     1 <1>   0.0800 
 31 H        6.8780    -2.6960     1.2930 H     1 <1>   0.0800 
 32 H        6.5460    -1.2470     0.3880 H     1 <1>   0.0800 
 33 H        6.0320    -4.2860    -2.3180 H     1 <1>   0.0800 
 34 H        6.3430    -5.7800    -1.4770 H     1 <1>   0.0800 
 35 H        8.6390    -2.3930    -0.3600 H     1 <1>   0.0800 
 36 H        7.4640    -2.1800    -1.6270 H     1 <1>   0.0800 
 37 H        7.9820    -4.6570    -0.1200 H     1 <1>   0.4500 
 38 H        8.5350    -4.0180    -2.9320 H     1 <1>   0.0800 
 39 H        8.6920    -5.6110    -2.2220 H     1 <1>   0.0800 
 40 H       10.0460    -5.6810     0.0870 H     1 <1>   0.1500 
 41 H       10.4690    -2.6280    -2.8900 H     1 <1>   0.1500 
 42 H       12.6330    -2.0400    -1.9520 H     1 <1>   0.1500 
 43 H       13.5500    -4.2680     2.3110 H     1 <1>   0.0800 
 44 H       14.1700    -5.4300     1.1350 H     1 <1>   0.0800 
 45 H       14.1690    -2.3920    -0.4570 H     1 <1>   0.4500 
 46 H       12.6990    -6.1340     3.7020 H     1 <1>   0.0800 
 47 H       14.4190    -6.3000     3.4560 H     1 <1>   0.0800 
 48 H       13.3190    -7.2910     2.5330 H     1 <1>   0.0800 
@<TRIPOS>BOND
  1   1   2  1   
  2   2   3  ar  
  3   2   4  ar  
  4   3   5  ar  
  5   3  25  1   
  6   4   6  ar  
  7   4  26  1   
  8   5   7  ar  
  9   5  27  1   
 10   6   7  ar  
 11   6  28  1   
 12   7   8  1   
 13   8   9  1   
 14   8  10  1   
 15   9  11  1   
 16   9  29  1   
 17   9  30  1   
 18  10  12  1   
 19  10  31  1   
 20  10  32  1   
 21  11  13  1   
 22  11  33  1   
 23  11  34  1   
 24  12  13  1   
 25  12  35  1   
 26  12  36  1   
 27  13  14  1   
 28  13  37  1   
 29  14  15  1   
 30  14  38  1   
 31  14  39  1   
 32  15  16  ar  
 33  15  17  ar  
 34  16  18  ar  
 35  16  40  1   
 36  17  19  ar  
 37  17  41  1   
 38  18  20  1   
 39  18  21  ar  
 40  19  21  ar  
 41  19  42  1   
 42  20  22  1   
 43  21  23  1   
 44  22  24  1   
 45  22  43  1   
 46  22  44  1   
 47  23  45  1   
 48  24  46  1   
 49  24  47  1   
 50  24  48  1   
@<TRIPOS>SUBSTRUCTURE
  1 ****  12 GROUP 4 **** **** 0

# MOE 2024.06 (io_trps.svl 2023.06)
