@<TRIPOS>MOLECULE
ka-06748
26 26 1 0 0 
SMALL
USER_CHARGES


@<TRIPOS>ATOM
  1 CL       0.3440    -0.0180    -0.3990 Cl    1 <1>  -0.1770 
  2 C        1.7940     0.9240    -0.1640 C.ar  1 <1>   0.1770 
  3 C        2.7820     0.9000    -1.1290 C.ar  1 <1>  -0.1500 
  4 C        1.9330     1.6810     0.9830 C.ar  1 <1>  -0.1500 
  5 C        3.9300     1.6500    -0.9420 C.ar  1 <1>  -0.1500 
  6 C        3.0840     2.4290     1.1650 C.ar  1 <1>  -0.1500 
  7 C        4.0880     2.4230     0.2040 C.ar  1 <1>  -0.1430 
  8 C        5.3440     3.2640     0.4100 C.3   1 <1>   0.0640 
  9 C        5.3980     4.3590    -0.6920 C.3   1 <1>   0.3430 
 10 C        6.5870     2.3460     0.5280 C.3   1 <1>  -0.2660 
 11 N        6.5600     5.2810    -0.5630 N.4   1 <1>  -0.8530 
 12 C        7.8150     3.1970     0.5820 C.2   1 <1>   0.9060 
 13 O        8.4260     3.3620    -0.4760 O.co2 1 <1>  -0.9000 
 14 O        7.8740     4.0500     1.4690 O.co2 1 <1>  -0.9000 
 15 H        2.6510     0.2980    -2.0110 H     1 <1>   0.1500 
 16 H        1.1520     1.6790     1.7210 H     1 <1>   0.1500 
 17 H        4.7000     1.6190    -1.6950 H     1 <1>   0.1500 
 18 H        3.1900     3.0120     2.0650 H     1 <1>   0.1500 
 19 H        5.2450     3.7800     1.3490 H     1 <1>   0.0800 
 20 H        4.4850     4.9290    -0.6370 H     1 <1>   0.0800 
 21 H        5.4320     3.8810    -1.6570 H     1 <1>   0.0800 
 22 H        6.6700     1.6840    -0.3120 H     1 <1>   0.0800 
 23 H        6.5350     1.7600     1.4260 H     1 <1>   0.0800 
 24 H        6.8450     5.3590     0.4370 H     1 <1>   0.4500 
 25 H        6.5210     6.1840    -1.0280 H     1 <1>   0.4500 
 26 H        7.4090     4.7540    -0.8870 H     1 <1>   0.4500 
@<TRIPOS>BOND
  1   1   2  1   
  2   2   3  ar  
  3   2   4  ar  
  4   3   5  ar  
  5   3  15  1   
  6   4   6  ar  
  7   4  16  1   
  8   5   7  ar  
  9   5  17  1   
 10   6   7  ar  
 11   6  18  1   
 12   7   8  1   
 13   8   9  1   
 14   8  10  1   
 15   8  19  1   
 16   9  11  1   
 17   9  20  1   
 18   9  21  1   
 19  10  12  1   
 20  10  22  1   
 21  10  23  1   
 22  11  24  1   
 23  11  25  1   
 24  11  26  1   
 25  12  13  ar  
 26  12  14  ar  
@<TRIPOS>SUBSTRUCTURE
  1 ****   7 GROUP 4 **** **** 0

# MOE 2024.06 (io_trps.svl 2023.06)
