@<TRIPOS>MOLECULE
NONAME
40 42 1 0 0 
SMALL
USER_CHARGES


@<TRIPOS>ATOM
  1 CL       1.5200     0.7680     3.2720 Cl    1 <1>  -0.1770 
  2 C        2.1880     1.0510     1.6840 C.ar  1 <1>   0.1770 
  3 C        3.4310     0.5370     1.3750 C.ar  1 <1>  -0.1500 
  4 C        1.4600     1.7840     0.7650 C.ar  1 <1>  -0.1500 
  5 C        3.9720     0.7560     0.1140 C.ar  1 <1>   0.1000 
  6 C        1.9940     2.0060    -0.4930 C.ar  1 <1>  -0.1500 
  7 N        5.2190     0.2560    -0.2380 N.pl3 1 <1>  -0.8380 
  8 C        3.2410     1.4930    -0.8110 C.ar  1 <1>  -0.1500 
  9 C        5.3090    -1.2210    -0.4260 C.3   1 <1>   0.2090 
 10 C        6.3950     0.8630     0.4510 C.3   1 <1>   0.2090 
 11 C        6.6260    -1.6010    -1.1370 C.3   1 <1>   0.3430 
 12 C        7.7060     0.4720    -0.2630 C.3   1 <1>   0.3430 
 13 N        7.8420    -1.0230    -0.4530 N.4   1 <1>  -0.9590 
 14 C        9.0970    -1.3860    -1.1630 C.3   1 <1>   0.4860 
 15 C       10.2860    -0.9670    -0.3210 C.ar  1 <1>  -0.1430 
 16 C       10.5250    -1.5620     0.9120 C.ar  1 <1>   0.1900 
 17 C       11.1700     0.0130    -0.7540 C.ar  1 <1>  -0.1500 
 18 F        9.6930    -2.4760     1.3370 F     1 <1>  -0.1900 
 19 C       11.5970    -1.2240     1.7210 C.ar  1 <1>  -0.1500 
 20 C       12.2400     0.3550     0.0580 C.ar  1 <1>   0.1900 
 21 C       12.4730    -0.2430     1.2850 C.ar  1 <1>  -0.1500 
 22 F       13.0600     1.2820    -0.3550 F     1 <1>  -0.1900 
 23 H        3.9670    -0.0280     2.1120 H     1 <1>   0.1500 
 24 H        0.4940     2.1730     1.0330 H     1 <1>   0.1500 
 25 H        1.4410     2.5750    -1.2210 H     1 <1>   0.1500 
 26 H        3.6580     1.6640    -1.7860 H     1 <1>   0.1500 
 27 H        4.4740    -1.5530    -1.0190 H     1 <1>   0.0800 
 28 H        5.2520    -1.7130     0.5300 H     1 <1>   0.0800 
 29 H        6.4250     0.5370     1.4770 H     1 <1>   0.0800 
 30 H        6.2920     1.9350     0.4480 H     1 <1>   0.0800 
 31 H        6.5720    -1.2320    -2.1480 H     1 <1>   0.0800 
 32 H        6.7020    -2.6750    -1.1790 H     1 <1>   0.0800 
 33 H        8.5390     0.8490     0.3070 H     1 <1>   0.0800 
 34 H        7.7170     0.9590    -1.2240 H     1 <1>   0.0800 
 35 H        7.9090    -1.4470     0.4840 H     1 <1>   0.4500 
 36 H        9.1350    -0.9000    -2.1250 H     1 <1>   0.0800 
 37 H        9.1360    -2.4520    -1.3190 H     1 <1>   0.0800 
 38 H       11.0550     0.5150    -1.7000 H     1 <1>   0.1500 
 39 H       11.7430    -1.7150     2.6680 H     1 <1>   0.1500 
 40 H       13.3210     0.0550     1.8780 H     1 <1>   0.1500 
@<TRIPOS>BOND
  1   1   2  1   
  2   2   3  ar  
  3   2   4  ar  
  4   3   5  ar  
  5   3  23  1   
  6   4   6  ar  
  7   4  24  1   
  8   5   7  1   
  9   5   8  ar  
 10   6   8  ar  
 11   6  25  1   
 12   7   9  1   
 13   7  10  1   
 14   8  26  1   
 15   9  11  1   
 16   9  27  1   
 17   9  28  1   
 18  10  12  1   
 19  10  29  1   
 20  10  30  1   
 21  11  13  1   
 22  11  31  1   
 23  11  32  1   
 24  12  13  1   
 25  12  33  1   
 26  12  34  1   
 27  13  14  1   
 28  13  35  1   
 29  14  15  1   
 30  14  36  1   
 31  14  37  1   
 32  15  16  ar  
 33  15  17  ar  
 34  16  18  1   
 35  16  19  ar  
 36  17  20  ar  
 37  17  38  1   
 38  19  21  ar  
 39  19  39  1   
 40  20  21  ar  
 41  20  22  1   
 42  21  40  1   
@<TRIPOS>SUBSTRUCTURE
  1 ****  12 GROUP 4 **** **** 0

# MOE 2024.06 (io_trps.svl 2023.06)
