@<TRIPOS>MOLECULE
NONAME
49 50 1 0 0 
SMALL
USER_CHARGES


@<TRIPOS>ATOM
  1 S       -0.1680     0.4340    -0.3420 S.o2  1 <1>   1.3330 
  2 O       -0.7330     0.6330     0.9740 O.2   1 <1>  -0.6500 
  3 O       -0.8490     0.9710    -1.4990 O.2   1 <1>  -0.6500 
  4 N        1.4080     1.0600    -0.3160 N.am  1 <1>  -0.8490 
  5 C        0.1100    -1.3210    -0.6220 C.3   1 <1>  -0.0550 
  6 C        2.0330     0.9380     1.0060 C.3   1 <1>   0.1960 
  7 C        1.4560     2.4390    -0.8120 C.3   1 <1>   0.1960 
  8 C       -1.1750    -2.1660    -0.6960 C.3   1 <1>  -0.2400 
  9 C        3.5030     1.3570     0.9430 C.3   1 <1>  -0.1600 
 10 C        2.9050     2.9230    -0.9170 C.3   1 <1>  -0.1600 
 11 C        3.6430     2.7990     0.4250 C.3   1 <1>  -0.0190 
 12 C        5.1060     3.2260     0.3000 C.2   1 <1>   0.5690 
 13 O        5.8760     2.5170    -0.2990 O.2   1 <1>  -0.5700 
 14 N        5.4710     4.4190     0.8680 N.am  1 <1>  -0.5470 
 15 C        6.7180     5.0480     0.9430 C.ar  1 <1>   0.1170 
 16 C        6.7670     6.4250     1.1270 C.ar  1 <1>  -0.1500 
 17 C        7.9250     4.3600     0.8600 C.ar  1 <1>  -0.1500 
 18 C        7.9760     7.0900     1.2040 C.ar  1 <1>  -0.1500 
 19 C        9.1310     5.0270     0.9390 C.ar  1 <1>  -0.1500 
 20 C        9.1910     6.4130     1.0960 C.ar  1 <1>   0.0860 
 21 C       10.4460     7.1290     1.1590 C.2   1 <1>   0.6340 
 22 O       10.6730     7.9670     2.0030 O.2   1 <1>  -0.5700 
 23 O       11.4040     6.9090     0.2530 O.3   1 <1>  -0.4300 
 24 C       11.1260     6.5160    -1.0710 C.3   1 <1>   0.1200 
 25 C       12.3900     6.7290    -1.8960 C.3   1 <1>  -0.2400 
 26 H        0.7250    -1.7080     0.1660 H     1 <1>   0.0800 
 27 H        0.6500    -1.4390    -1.5410 H     1 <1>   0.0800 
 28 H        1.9740    -0.0830     1.3430 H     1 <1>   0.0800 
 29 H        1.5070     1.5550     1.7180 H     1 <1>   0.0800 
 30 H        0.8900     3.0810    -0.1570 H     1 <1>   0.0800 
 31 H        1.0130     2.4890    -1.7940 H     1 <1>   0.0800 
 32 H       -1.7260    -2.0840     0.2250 H     1 <1>   0.0800 
 33 H       -0.9330    -3.2000    -0.8670 H     1 <1>   0.0800 
 34 H       -1.7990    -1.8170    -1.5010 H     1 <1>   0.0800 
 35 H        4.0290     0.6790     0.2930 H     1 <1>   0.0800 
 36 H        3.9390     1.2780     1.9220 H     1 <1>   0.0800 
 37 H        2.9140     3.9470    -1.2470 H     1 <1>   0.0800 
 38 H        3.4110     2.3360    -1.6650 H     1 <1>   0.0800 
 39 H        3.1600     3.4480     1.1330 H     1 <1>   0.0800 
 40 H        4.7030     4.9570     1.2630 H     1 <1>   0.3700 
 41 H        5.8530     6.9850     1.2080 H     1 <1>   0.1500 
 42 H        7.9250     3.2910     0.7400 H     1 <1>   0.1500 
 43 H        7.9920     8.1580     1.3510 H     1 <1>   0.1500 
 44 H       10.0480     4.4650     0.8840 H     1 <1>   0.1500 
 45 H       10.3180     7.1200    -1.4500 H     1 <1>   0.0800 
 46 H       10.8440     5.4780    -1.0780 H     1 <1>   0.0800 
 47 H       12.6720     7.7670    -1.8760 H     1 <1>   0.0800 
 48 H       12.2130     6.4410    -2.9170 H     1 <1>   0.0800 
 49 H       13.1930     6.1310    -1.5040 H     1 <1>   0.0800 
@<TRIPOS>BOND
  1   1   2  2   
  2   1   3  2   
  3   1   4  am  
  4   1   5  1   
  5   4   6  1   
  6   4   7  1   
  7   5   8  1   
  8   5  26  1   
  9   5  27  1   
 10   6   9  1   
 11   6  28  1   
 12   6  29  1   
 13   7  10  1   
 14   7  30  1   
 15   7  31  1   
 16   8  32  1   
 17   8  33  1   
 18   8  34  1   
 19   9  11  1   
 20   9  35  1   
 21   9  36  1   
 22  10  11  1   
 23  10  37  1   
 24  10  38  1   
 25  11  12  1   
 26  11  39  1   
 27  12  13  2   
 28  12  14  am  
 29  14  15  1   
 30  14  40  1   
 31  15  16  ar  
 32  15  17  ar  
 33  16  18  ar  
 34  16  41  1   
 35  17  19  ar  
 36  17  42  1   
 37  18  20  ar  
 38  18  43  1   
 39  19  20  ar  
 40  19  44  1   
 41  20  21  1   
 42  21  22  2   
 43  21  23  1   
 44  23  24  1   
 45  24  25  1   
 46  24  45  1   
 47  24  46  1   
 48  25  47  1   
 49  25  48  1   
 50  25  49  1   
@<TRIPOS>SUBSTRUCTURE
  1 ****  12 GROUP 4 **** **** 0

# MOE 2024.06 (io_trps.svl 2023.06)
