@<TRIPOS>MOLECULE
NONAME
44 48 1 0 0 
SMALL
USER_CHARGES


@<TRIPOS>ATOM
  1 O       -0.4930    -0.0070    -0.8210 O.3   1 <1>  -0.5600 
  2 C       -1.6370    -0.1790    -0.0570 C.3   1 <1>   0.5600 
  3 C        0.0380     1.2420    -0.5660 C.3   1 <1>   0.1200 
  4 O       -1.4500     0.6200     1.0660 O.3   1 <1>  -0.5600 
  5 C       -2.8740     0.2740    -0.8360 C.3   1 <1>  -0.1600 
  6 C       -1.7230    -1.6370     0.3810 C.3   1 <1>  -0.1600 
  7 C       -0.5950     1.6590     0.7480 C.3   1 <1>   0.1200 
  8 C       -4.1430    -0.0160    -0.0380 C.3   1 <1>   0.2090 
  9 C       -3.0100    -1.8750     1.1640 C.3   1 <1>   0.2090 
 10 N       -4.1630    -1.4580     0.3260 N.pl3 1 <1>  -0.8380 
 11 C       -5.3500    -2.1550     0.3680 C.ar  1 <1>   0.4100 
 12 N       -6.4430    -1.5060     0.6930 N.ar  1 <1>  -0.6200 
 13 C       -5.4010    -3.5250     0.0800 C.ar  1 <1>   0.0000 
 14 C       -7.5680    -2.2290     0.7580 C.ar  1 <1>   0.4700 
 15 C       -6.6040    -4.1600     0.1750 C.ar  1 <1>   0.1050 
 16 C       -4.5070    -4.5230    -0.3240 C.2   1 <1>   0.1390 
 17 N       -7.7290    -3.5090     0.5280 N.ar  1 <1>  -0.5670 
 18 N       -6.3910    -5.4830    -0.1470 N.pl3 1 <1>   0.5930 
 19 N       -5.0660    -5.6780    -0.4510 N.2   1 <1>  -0.7070 
 20 C       -7.3400    -6.5480    -0.1690 C.ar  1 <1>  -0.0230 
 21 C       -6.9620    -7.8350     0.2090 C.ar  1 <1>  -0.1500 
 22 C       -8.6590    -6.3430    -0.5710 C.ar  1 <1>  -0.1500 
 23 C       -7.8710    -8.8790     0.1950 C.ar  1 <1>  -0.1500 
 24 C       -9.5690    -7.3840    -0.5850 C.ar  1 <1>  -0.1500 
 25 C       -9.1770    -8.6540    -0.2010 C.ar  1 <1>  -0.1500 
 26 H       -0.2340     1.9090    -1.3650 H     1 <1>   0.0800 
 27 H        1.1080     1.1620    -0.4940 H     1 <1>   0.0800 
 28 H       -2.9250    -0.2680    -1.7610 H     1 <1>   0.0800 
 29 H       -2.8180     1.3220    -1.0570 H     1 <1>   0.0800 
 30 H       -0.8710    -1.8790     0.9880 H     1 <1>   0.0800 
 31 H       -1.7210    -2.2690    -0.4870 H     1 <1>   0.0800 
 32 H       -1.1630     2.5660     0.6460 H     1 <1>   0.0800 
 33 H        0.1350     1.7620     1.5310 H     1 <1>   0.0800 
 34 H       -5.0090     0.2280    -0.6300 H     1 <1>   0.0800 
 35 H       -4.1650     0.5780     0.8610 H     1 <1>   0.0800 
 36 H       -3.0010    -1.2900     2.0690 H     1 <1>   0.0800 
 37 H       -3.0930    -2.9120     1.4390 H     1 <1>   0.0800 
 38 H       -8.4490    -1.6760     1.0380 H     1 <1>   0.1500 
 39 H       -3.4630    -4.3340    -0.5090 H     1 <1>   0.1500 
 40 H       -5.9470    -8.0230     0.5150 H     1 <1>   0.1500 
 41 H       -8.9830    -5.3630    -0.8770 H     1 <1>   0.1500 
 42 H       -7.5610    -9.8660     0.4920 H     1 <1>   0.1500 
 43 H      -10.5840    -7.2060    -0.8950 H     1 <1>   0.1500 
 44 H       -9.8850    -9.4650    -0.2110 H     1 <1>   0.1500 
@<TRIPOS>BOND
  1   1   2  1   
  2   1   3  1   
  3   2   4  1   
  4   2   5  1   
  5   2   6  1   
  6   3   7  1   
  7   3  26  1   
  8   3  27  1   
  9   4   7  1   
 10   5   8  1   
 11   5  28  1   
 12   5  29  1   
 13   6   9  1   
 14   6  30  1   
 15   6  31  1   
 16   7  32  1   
 17   7  33  1   
 18   8  10  1   
 19   8  34  1   
 20   8  35  1   
 21   9  10  1   
 22   9  36  1   
 23   9  37  1   
 24  10  11  1   
 25  11  12  ar  
 26  11  13  ar  
 27  12  14  ar  
 28  13  15  ar  
 29  13  16  1   
 30  14  17  ar  
 31  14  38  1   
 32  15  17  ar  
 33  15  18  1   
 34  16  19  2   
 35  16  39  1   
 36  18  19  1   
 37  18  20  1   
 38  20  21  ar  
 39  20  22  ar  
 40  21  23  ar  
 41  21  40  1   
 42  22  24  ar  
 43  22  41  1   
 44  23  25  ar  
 45  23  42  1   
 46  24  25  ar  
 47  24  43  1   
 48  25  44  1   
@<TRIPOS>SUBSTRUCTURE
  1 ****  13 GROUP 4 **** **** 0

# MOE 2024.06 (io_trps.svl 2023.06)
