@<TRIPOS>MOLECULE
NONAME
53 56 1 0 0 
SMALL
USER_CHARGES


@<TRIPOS>ATOM
  1 O        0.0000     0.3310     0.5980 O.2   1 <1>  -0.5700 
  2 C        0.0690     1.4150     0.0490 C.2   1 <1>   0.5440 
  3 N       -1.0810     2.0530    -0.3920 N.am  1 <1>  -0.2370 
  4 C        1.3510     2.0410    -0.1660 C.ar  1 <1>   0.0860 
  5 C       -1.0240     3.3960    -0.7500 C.2   1 <1>   0.6160 
  6 C       -2.3090     1.3530    -0.4430 C.ar  1 <1>   0.1170 
  7 C        1.3880     3.4070    -0.4810 C.ar  1 <1>   0.0280 
  8 C        2.5440     1.3200    -0.1070 C.ar  1 <1>  -0.1500 
  9 O       -1.9910     3.9200    -1.2800 O.2   1 <1>  -0.5700 
 10 C        0.1580     4.1600    -0.4640 C.2   1 <1>  -0.0140 
 11 C       -3.1990     1.3560     0.6320 C.ar  1 <1>  -0.1440 
 12 C       -2.6410     0.6450    -1.5910 C.ar  1 <1>  -0.1500 
 13 C        2.6120     3.9730    -0.8400 C.ar  1 <1>  -0.1500 
 14 C        3.7590     1.9150    -0.4120 C.ar  1 <1>   0.0830 
 15 C        0.0570     5.5040    -0.1950 C.2   1 <1>  -0.0500 
 16 C       -4.3910     0.6550     0.5370 C.ar  1 <1>  -0.1500 
 17 C       -2.8830     2.1170     1.9130 C.3   1 <1>  -0.0960 
 18 C       -3.8310    -0.0520    -1.6770 C.ar  1 <1>  -0.1500 
 19 C        3.7810     3.2450    -0.7980 C.ar  1 <1>  -0.1500 
 20 O        4.9520     1.2720    -0.3710 O.3   1 <1>  -0.3630 
 21 N        0.9580     6.3750     0.3670 N.pl3 1 <1>  -0.8380 
 22 C       -4.7140    -0.0510    -0.6110 C.ar  1 <1>  -0.1430 
 23 C        5.0420    -0.0820     0.0160 C.3   1 <1>   0.0400 
 24 C        0.8120     7.8510     0.2010 C.3   1 <1>   0.2090 
 25 C        1.9260     6.0310     1.4590 C.3   1 <1>   0.2090 
 26 C       -6.0250    -0.8120    -0.6970 C.3   1 <1>  -0.0970 
 27 C        2.1940     8.5190     0.0780 C.3   1 <1>   0.1200 
 28 C        3.2500     6.7960     1.2770 C.3   1 <1>   0.1200 
 29 O        3.0220     8.1750     1.1560 O.3   1 <1>  -0.5600 
 30 H        2.4930     0.2830     0.1710 H     1 <1>   0.1500 
 31 H       -1.9620     0.6400    -2.4240 H     1 <1>   0.1500 
 32 H        2.6390     5.0030    -1.1550 H     1 <1>   0.1500 
 33 H       -0.8900     5.9650    -0.4410 H     1 <1>   0.1500 
 34 H       -5.0800     0.6570     1.3620 H     1 <1>   0.1500 
 35 H       -3.6660     1.9920     2.6390 H     1 <1>   0.0800 
 36 H       -2.7810     3.1660     1.7020 H     1 <1>   0.0800 
 37 H       -1.9660     1.7500     2.3400 H     1 <1>   0.0800 
 38 H       -4.0680    -0.5920    -2.5760 H     1 <1>   0.1500 
 39 H        4.7220     3.6960    -1.0630 H     1 <1>   0.1500 
 40 H        6.0770    -0.3700    -0.0150 H     1 <1>   0.0800 
 41 H        4.4760    -0.6820    -0.6750 H     1 <1>   0.0800 
 42 H        4.6630    -0.1860     1.0180 H     1 <1>   0.0800 
 43 H        0.2300     8.0640    -0.6790 H     1 <1>   0.0800 
 44 H        0.2960     8.2590     1.0530 H     1 <1>   0.0800 
 45 H        1.4960     6.3130     2.4040 H     1 <1>   0.0800 
 46 H        2.1110     4.9750     1.4960 H     1 <1>   0.0800 
 47 H       -6.8090    -0.1480    -1.0140 H     1 <1>   0.0800 
 48 H       -6.2820    -1.2210     0.2630 H     1 <1>   0.0800 
 49 H       -5.9470    -1.6210    -1.4000 H     1 <1>   0.0800 
 50 H        2.0890     9.5890     0.0730 H     1 <1>   0.0800 
 51 H        2.6750     8.2140    -0.8350 H     1 <1>   0.0800 
 52 H        3.7660     6.4550     0.3970 H     1 <1>   0.0800 
 53 H        3.8860     6.6430     2.1310 H     1 <1>   0.0800 
@<TRIPOS>BOND
  1   1   2  2   
  2   2   3  am  
  3   2   4  1   
  4   3   5  am  
  5   3   6  1   
  6   4   7  ar  
  7   4   8  ar  
  8   5   9  2   
  9   5  10  1   
 10   6  11  ar  
 11   6  12  ar  
 12   7  10  1   
 13   7  13  ar  
 14   8  14  ar  
 15   8  30  1   
 16  10  15  2   
 17  11  16  ar  
 18  11  17  1   
 19  12  18  ar  
 20  12  31  1   
 21  13  19  ar  
 22  13  32  1   
 23  14  19  ar  
 24  14  20  1   
 25  15  21  1   
 26  15  33  1   
 27  16  22  ar  
 28  16  34  1   
 29  17  35  1   
 30  17  36  1   
 31  17  37  1   
 32  18  22  ar  
 33  18  38  1   
 34  19  39  1   
 35  20  23  1   
 36  21  24  1   
 37  21  25  1   
 38  22  26  1   
 39  23  40  1   
 40  23  41  1   
 41  23  42  1   
 42  24  27  1   
 43  24  43  1   
 44  24  44  1   
 45  25  28  1   
 46  25  45  1   
 47  25  46  1   
 48  26  47  1   
 49  26  48  1   
 50  26  49  1   
 51  27  29  1   
 52  27  50  1   
 53  27  51  1   
 54  28  29  1   
 55  28  52  1   
 56  28  53  1   
@<TRIPOS>SUBSTRUCTURE
  1 ****  10 GROUP 4 **** **** 0

# MOE 2024.06 (io_trps.svl 2023.06)
