@<TRIPOS>MOLECULE
NONAME
38 39 1 0 0 
SMALL
USER_CHARGES


@<TRIPOS>ATOM
  1 CL      -0.0400     0.5080    -0.1250 Cl    1 <1>  -0.1770 
  2 C        1.6240     1.0470    -0.1550 C.ar  1 <1>   0.1770 
  3 C        2.6490     0.1800     0.2010 C.ar  1 <1>  -0.1440 
  4 C        1.8820     2.3500    -0.5410 C.ar  1 <1>  -0.1500 
  5 C        3.9560     0.6440     0.1650 C.ar  1 <1>  -0.1500 
  6 C        2.3480    -1.2500     0.6250 C.3   1 <1>  -0.0960 
  7 C        3.1880     2.8020    -0.5740 C.ar  1 <1>  -0.1500 
  8 C        4.2300     1.9560    -0.2230 C.ar  1 <1>   0.0830 
  9 O        5.4800     2.4800    -0.2840 O.3   1 <1>  -0.3630 
 10 C        6.6160     1.7130     0.0240 C.3   1 <1>   0.1200 
 11 C        7.8360     2.6230    -0.1510 C.3   1 <1>   0.3430 
 12 N        9.1310     1.9400     0.1800 N.4   1 <1>  -0.9590 
 13 C       10.2290     2.9490     0.2680 C.3   1 <1>   0.3430 
 14 C        9.4710     0.8600    -0.7970 C.3   1 <1>   0.3430 
 15 C       11.5150     2.2720     0.7460 C.3   1 <1>  -0.1600 
 16 C       10.7400     0.1350    -0.3440 C.3   1 <1>  -0.1600 
 17 C       11.9150     1.1050    -0.1650 C.3   1 <1>  -0.1600 
 18 H        1.0660     2.9970    -0.8100 H     1 <1>   0.1500 
 19 H        4.7440    -0.0290     0.4420 H     1 <1>   0.1500 
 20 H        1.7080    -1.2500     1.4890 H     1 <1>   0.0800 
 21 H        3.2480    -1.7850     0.8680 H     1 <1>   0.0800 
 22 H        1.8480    -1.7710    -0.1730 H     1 <1>   0.0800 
 23 H        3.4020     3.8130    -0.8720 H     1 <1>   0.1500 
 24 H        6.6450     0.8800    -0.6560 H     1 <1>   0.0800 
 25 H        6.5280     1.3800     1.0430 H     1 <1>   0.0800 
 26 H        7.7080     3.4750     0.4970 H     1 <1>   0.0800 
 27 H        7.8650     2.9760    -1.1690 H     1 <1>   0.0800 
 28 H        9.0550     1.5080     1.1100 H     1 <1>   0.4500 
 29 H        9.9590     3.7320     0.9590 H     1 <1>   0.0800 
 30 H       10.3960     3.3940    -0.7000 H     1 <1>   0.0800 
 31 H        9.6330     1.2880    -1.7740 H     1 <1>   0.0800 
 32 H        8.6640     0.1490    -0.8680 H     1 <1>   0.0800 
 33 H       11.3830     1.9230     1.7560 H     1 <1>   0.0800 
 34 H       12.3100     2.9990     0.7610 H     1 <1>   0.0800 
 35 H       11.0020    -0.6070    -1.0780 H     1 <1>   0.0800 
 36 H       10.5470    -0.3830     0.5800 H     1 <1>   0.0800 
 37 H       12.7600     0.5840     0.2560 H     1 <1>   0.0800 
 38 H       12.2150     1.4870    -1.1270 H     1 <1>   0.0800 
@<TRIPOS>BOND
  1   1   2  1   
  2   2   3  ar  
  3   2   4  ar  
  4   3   5  ar  
  5   3   6  1   
  6   4   7  ar  
  7   4  18  1   
  8   5   8  ar  
  9   5  19  1   
 10   6  20  1   
 11   6  21  1   
 12   6  22  1   
 13   7   8  ar  
 14   7  23  1   
 15   8   9  1   
 16   9  10  1   
 17  10  11  1   
 18  10  24  1   
 19  10  25  1   
 20  11  12  1   
 21  11  26  1   
 22  11  27  1   
 23  12  13  1   
 24  12  14  1   
 25  12  28  1   
 26  13  15  1   
 27  13  29  1   
 28  13  30  1   
 29  14  16  1   
 30  14  31  1   
 31  14  32  1   
 32  15  17  1   
 33  15  33  1   
 34  15  34  1   
 35  16  17  1   
 36  16  35  1   
 37  16  36  1   
 38  17  37  1   
 39  17  38  1   
@<TRIPOS>SUBSTRUCTURE
  1 ****  10 GROUP 4 **** **** 0

# MOE 2024.06 (io_trps.svl 2023.06)
