@<TRIPOS>MOLECULE
NONAME
41 43 1 0 0 
SMALL
USER_CHARGES


@<TRIPOS>ATOM
  1 CL      -0.0500    -0.5940    -0.6620 Cl    1 <1>  -0.1770 
  2 C        1.0930     0.7320    -0.7460 C.ar  1 <1>   0.1770 
  3 C        0.6470     2.0260    -0.9750 C.ar  1 <1>   0.0830 
  4 C        2.4300     0.4430    -0.5680 C.ar  1 <1>  -0.1500 
  5 O       -0.6940     2.2220    -1.1320 O.3   1 <1>  -0.3630 
  6 C        1.5970     3.0530    -1.0440 C.ar  1 <1>   0.0830 
  7 C        3.3920     1.4480    -0.6160 C.ar  1 <1>   0.0280 
  8 C       -1.3280     3.2200    -0.3640 C.3   1 <1>   0.0400 
  9 O        1.1780     4.3280    -1.3030 O.3   1 <1>  -0.3630 
 10 C        2.9430     2.7460    -0.8630 C.ar  1 <1>  -0.1500 
 11 C        4.7810     1.1040    -0.4240 C.2   1 <1>  -0.1780 
 12 C        2.0880     5.4030    -1.3880 C.3   1 <1>   0.0400 
 13 C        5.8680     1.8570    -0.1250 C.2   1 <1>  -0.0380 
 14 N        5.8810     3.2380     0.0990 N.pl3 1 <1>  -0.8380 
 15 C        7.2640     1.2140     0.0340 C.3   1 <1>   0.3380 
 16 C        6.2520     3.5220     1.5190 C.3   1 <1>   0.2090 
 17 C        6.8320     3.9510    -0.8060 C.3   1 <1>   0.2090 
 18 O        7.2190     0.1870     0.9690 O.3   1 <1>  -0.6800 
 19 C        8.2500     2.3090     0.5140 C.3   1 <1>  -0.0800 
 20 C        7.6750     2.9760     1.7900 C.3   1 <1>  -0.1600 
 21 C        8.2620     3.4050    -0.5770 C.3   1 <1>  -0.1600 
 22 H        2.7240    -0.5740    -0.3850 H     1 <1>   0.1500 
 23 H       -2.3670     2.9600    -0.2700 H     1 <1>   0.0800 
 24 H       -1.2360     4.1630    -0.8720 H     1 <1>   0.0800 
 25 H       -0.8690     3.2650     0.6080 H     1 <1>   0.0800 
 26 H        3.6840     3.5140    -0.9180 H     1 <1>   0.1500 
 27 H        4.9570     0.0500    -0.5280 H     1 <1>   0.1500 
 28 H        1.5280     6.2990    -1.5870 H     1 <1>   0.0800 
 29 H        2.7750     5.2160    -2.1940 H     1 <1>   0.0800 
 30 H        2.6080     5.4960    -0.4510 H     1 <1>   0.0800 
 31 H        7.5840     0.7960    -0.9040 H     1 <1>   0.0800 
 32 H        6.2080     4.5820     1.7020 H     1 <1>   0.0800 
 33 H        5.5420     3.0370     2.1680 H     1 <1>   0.0800 
 34 H        6.5310     3.7870    -1.8270 H     1 <1>   0.0800 
 35 H        6.7940     5.0090    -0.6090 H     1 <1>   0.0800 
 36 H        8.1190    -0.1430     1.1360 H     1 <1>   0.4000 
 37 H        9.2370     1.9130     0.6700 H     1 <1>   0.0800 
 38 H        8.3110     3.7800     2.1130 H     1 <1>   0.0800 
 39 H        7.6260     2.2630     2.5930 H     1 <1>   0.0800 
 40 H        8.6390     3.0050    -1.5010 H     1 <1>   0.0800 
 41 H        8.9100     4.2130    -0.2880 H     1 <1>   0.0800 
@<TRIPOS>BOND
  1   1   2  1   
  2   2   3  ar  
  3   2   4  ar  
  4   3   5  1   
  5   3   6  ar  
  6   4   7  ar  
  7   4  22  1   
  8   5   8  1   
  9   6   9  1   
 10   6  10  ar  
 11   7  10  ar  
 12   7  11  1   
 13   8  23  1   
 14   8  24  1   
 15   8  25  1   
 16   9  12  1   
 17  10  26  1   
 18  11  13  2   
 19  11  27  1   
 20  12  28  1   
 21  12  29  1   
 22  12  30  1   
 23  13  14  1   
 24  13  15  1   
 25  14  16  1   
 26  14  17  1   
 27  15  18  1   
 28  15  19  1   
 29  15  31  1   
 30  16  20  1   
 31  16  32  1   
 32  16  33  1   
 33  17  21  1   
 34  17  34  1   
 35  17  35  1   
 36  18  36  1   
 37  19  20  1   
 38  19  21  1   
 39  19  37  1   
 40  20  38  1   
 41  20  39  1   
 42  21  40  1   
 43  21  41  1   
@<TRIPOS>SUBSTRUCTURE
  1 ****   7 GROUP 4 **** **** 0

# MOE 2024.06 (io_trps.svl 2023.06)
