@<TRIPOS>MOLECULE
NONAME
32 32 1 0 0 
SMALL
USER_CHARGES


@<TRIPOS>ATOM
  1 F       -0.7200    -0.5660     1.8510 F     1 <1>  -0.1900 
  2 C       -1.5520     0.1830     1.1750 C.ar  1 <1>   0.1900 
  3 C       -1.0490     1.1450     0.3120 C.ar  1 <1>  -0.1440 
  4 C       -2.9040    -0.0250     1.3570 C.ar  1 <1>  -0.1500 
  5 C       -1.9640     1.9190    -0.3860 C.ar  1 <1>  -0.1500 
  6 C        0.4470     1.3500     0.1310 C.3   1 <1>  -0.0960 
  7 C       -3.8170     0.7500     0.6550 C.ar  1 <1>   0.1170 
  8 C       -3.3250     1.7240    -0.2140 C.ar  1 <1>  -0.1500 
  9 N       -5.1860     0.5230     0.8630 N.am  1 <1>  -0.5470 
 10 C       -6.2960     0.8980     0.1710 C.2   1 <1>   0.7800 
 11 O       -6.2740     1.5490    -0.8520 O.2   1 <1>  -0.5700 
 12 O       -7.4400     0.4800     0.7110 O.3   1 <1>  -0.4300 
 13 C       -8.7460     0.7060     0.2260 C.3   1 <1>   0.2800 
 14 C       -8.9190     0.0600    -1.1540 C.3   1 <1>  -0.2400 
 15 C       -9.0560     2.2080     0.2120 C.3   1 <1>  -0.2400 
 16 C       -9.6700     0.0110     1.2260 C.3   1 <1>  -0.2400 
 17 H       -3.2330    -0.7860     2.0370 H     1 <1>   0.1500 
 18 H       -1.6240     2.6800    -1.0670 H     1 <1>   0.1500 
 19 H        0.9000     0.4430    -0.2270 H     1 <1>   0.0800 
 20 H        0.8960     1.6130     1.0720 H     1 <1>   0.0800 
 21 H        0.6470     2.1350    -0.5760 H     1 <1>   0.0800 
 22 H       -4.0050     2.3460    -0.7660 H     1 <1>   0.1500 
 23 H       -5.4230    -0.0610     1.6590 H     1 <1>   0.3700 
 24 H       -8.3350     0.5700    -1.8980 H     1 <1>   0.0800 
 25 H       -9.9480     0.1150    -1.4580 H     1 <1>   0.0800 
 26 H       -8.6280    -0.9740    -1.1230 H     1 <1>   0.0800 
 27 H       -8.4720     2.7180    -0.5330 H     1 <1>   0.0800 
 28 H       -8.8570     2.6410     1.1750 H     1 <1>   0.0800 
 29 H      -10.0920     2.3660    -0.0260 H     1 <1>   0.0800 
 30 H       -9.4520    -1.0410     1.2680 H     1 <1>   0.0800 
 31 H      -10.6980     0.1320     0.9330 H     1 <1>   0.0800 
 32 H       -9.5460     0.4350     2.2070 H     1 <1>   0.0800 
@<TRIPOS>BOND
  1   1   2  1   
  2   2   3  ar  
  3   2   4  ar  
  4   3   5  ar  
  5   3   6  1   
  6   4   7  ar  
  7   4  17  1   
  8   5   8  ar  
  9   5  18  1   
 10   6  19  1   
 11   6  20  1   
 12   6  21  1   
 13   7   8  ar  
 14   7   9  1   
 15   8  22  1   
 16   9  10  am  
 17   9  23  1   
 18  10  11  2   
 19  10  12  1   
 20  12  13  1   
 21  13  14  1   
 22  13  15  1   
 23  13  16  1   
 24  14  24  1   
 25  14  25  1   
 26  14  26  1   
 27  15  27  1   
 28  15  28  1   
 29  15  29  1   
 30  16  30  1   
 31  16  31  1   
 32  16  32  1   
@<TRIPOS>SUBSTRUCTURE
  1 ****   9 GROUP 4 **** **** 0

# MOE 2024.06 (io_trps.svl 2023.06)
