@<TRIPOS>MOLECULE
NONAME
32 32 1 0 0 
SMALL
USER_CHARGES


@<TRIPOS>ATOM
  1 CL      -1.5730    -0.0180     2.1210 Cl    1 <1>  -0.1770 
  2 C       -2.5000     0.7430     0.8440 C.ar  1 <1>   0.1770 
  3 C       -3.0300    -0.0310    -0.1940 C.ar  1 <1>   0.1990 
  4 C       -2.6740     2.1140     0.9000 C.ar  1 <1>  -0.1500 
  5 N       -2.8890    -1.4210    -0.2440 N.am  1 <1>  -0.6930 
  6 C       -3.7300     0.6280    -1.2000 C.ar  1 <1>  -0.1500 
  7 C       -3.3880     2.7510    -0.1030 C.ar  1 <1>  -0.1500 
  8 S       -1.7210    -2.1500    -1.2900 S.o2  1 <1>   1.3330 
  9 C       -3.9890    -2.3040     0.2690 C.3   1 <1>   0.3370 
 10 C       -3.9050     1.9960    -1.1410 C.ar  1 <1>   0.1770 
 11 O       -2.0110    -3.5620    -1.3460 O.2   1 <1>  -0.6500 
 12 O       -1.6770    -1.3550    -2.4920 O.2   1 <1>  -0.6500 
 13 C       -0.2080    -1.9280    -0.3800 C.3   1 <1>  -0.1350 
 14 C       -5.3420    -1.5810     0.4470 C.2   1 <1>   0.6590 
 15 C       -3.5090    -2.9760     1.5640 C.3   1 <1>  -0.2400 
 16 CL      -4.8060     2.7950    -2.4030 Cl    1 <1>  -0.1770 
 17 O       -5.6860    -1.0790     1.4900 O.2   1 <1>  -0.5700 
 18 O       -6.1110    -1.5200    -0.6380 O.3   1 <1>  -0.4300 
 19 C       -7.3480    -0.8370    -0.6380 C.3   1 <1>   0.0400 
 20 H       -2.2560     2.6750     1.7180 H     1 <1>   0.1500 
 21 H       -4.1360     0.0710    -2.0250 H     1 <1>   0.1500 
 22 H       -3.5420     3.8160    -0.0840 H     1 <1>   0.1500 
 23 H       -4.1740    -3.0780    -0.4550 H     1 <1>   0.0800 
 24 H       -0.0060    -0.8840    -0.2450 H     1 <1>   0.0800 
 25 H        0.6090    -2.3700    -0.9150 H     1 <1>   0.0800 
 26 H       -0.2830    -2.3950     0.5820 H     1 <1>   0.0800 
 27 H       -3.3360    -2.2390     2.3270 H     1 <1>   0.0800 
 28 H       -2.6080    -3.5350     1.3900 H     1 <1>   0.0800 
 29 H       -4.2640    -3.6540     1.9180 H     1 <1>   0.0800 
 30 H       -7.7860    -0.9240    -1.6160 H     1 <1>   0.0800 
 31 H       -7.1730     0.1980    -0.4010 H     1 <1>   0.0800 
 32 H       -7.9930    -1.2830     0.1000 H     1 <1>   0.0800 
@<TRIPOS>BOND
  1   1   2  1   
  2   2   3  ar  
  3   2   4  ar  
  4   3   5  1   
  5   3   6  ar  
  6   4   7  ar  
  7   4  20  1   
  8   5   8  am  
  9   5   9  1   
 10   6  10  ar  
 11   6  21  1   
 12   7  10  ar  
 13   7  22  1   
 14   8  11  2   
 15   8  12  2   
 16   8  13  1   
 17   9  14  1   
 18   9  15  1   
 19   9  23  1   
 20  10  16  1   
 21  13  24  1   
 22  13  25  1   
 23  13  26  1   
 24  14  17  2   
 25  14  18  1   
 26  15  27  1   
 27  15  28  1   
 28  15  29  1   
 29  18  19  1   
 30  19  30  1   
 31  19  31  1   
 32  19  32  1   
@<TRIPOS>SUBSTRUCTURE
  1 ****   3 GROUP 4 **** **** 0

# MOE 2024.06 (io_trps.svl 2023.06)
