@<TRIPOS>MOLECULE
NONAME
51 54 1 0 0 
SMALL
USER_CHARGES


@<TRIPOS>ATOM
  1 O        0.9340     3.6040     0.5680 O.3   1 <1>  -0.5640 
  2 C       -0.1120     4.3030     1.1660 C.3   1 <1>   0.1130 
  3 C        0.5890     2.9350    -0.6050 C.3   1 <1>   0.1130 
  4 C       -1.2180     3.3210     1.5830 C.3   1 <1>   0.1610 
  5 C       -0.4740     1.8650    -0.3040 C.3   1 <1>   0.1610 
  6 N       -1.6430     2.4470     0.4360 N.pl3 1 <1>  -0.5960 
  7 C       -2.9110     2.3810    -0.0050 C.cat 1 <1>   1.0690 
  8 N       -3.7670     3.3920     0.0930 N.pl3 1 <1>  -0.7030 
  9 N       -3.5160     1.3280    -0.5990 N.pl3 1 <1>  -0.7670 
 10 C       -4.9540     3.0440    -0.5140 C.ar  1 <1>   0.3030 
 11 C       -4.7980     1.7470    -0.9680 C.ar  1 <1>   0.3030 
 12 C       -3.0640    -0.0930    -0.7000 C.3   1 <1>   0.3480 
 13 C       -6.1370     3.7430    -0.7120 C.ar  1 <1>  -0.1160 
 14 C       -5.8310     1.1170    -1.6550 C.ar  1 <1>  -0.1160 
 15 C       -3.8870    -1.0280     0.2250 C.3   1 <1>   0.3370 
 16 C       -7.1660     3.1120    -1.3840 C.ar  1 <1>  -0.1570 
 17 C       -7.0130     1.8070    -1.8550 C.ar  1 <1>  -0.1570 
 18 N       -3.4230    -2.4610     0.2560 N.4   1 <1>  -0.9610 
 19 C       -3.5800    -3.1720    -1.0520 C.3   1 <1>   0.3370 
 20 C       -4.1450    -3.2080     1.3330 C.3   1 <1>   0.3370 
 21 C       -2.9460    -4.5600    -0.9580 C.3   1 <1>  -0.1670 
 22 C       -3.5290    -4.5980     1.4930 C.3   1 <1>  -0.1670 
 23 C       -3.5600    -5.3850     0.1780 C.3   1 <1>  -0.1670 
 24 H       -0.4770     5.0430     0.4740 H     1 <1>   0.0730 
 25 H        0.2860     4.8070     2.0300 H     1 <1>   0.0730 
 26 H        1.4820     2.4770    -0.9930 H     1 <1>   0.0730 
 27 H        0.2320     3.6540    -1.3220 H     1 <1>   0.0730 
 28 H       -2.0500     3.8700     1.9870 H     1 <1>   0.0730 
 29 H       -0.8320     2.6980     2.3730 H     1 <1>   0.0730 
 30 H       -0.0210     1.0900     0.2910 H     1 <1>   0.0730 
 31 H       -0.7900     1.4400    -1.2400 H     1 <1>   0.0730 
 32 H       -3.5440     4.3150     0.4560 H     1 <1>   0.4450 
 33 H       -2.0320    -0.1750    -0.4170 H     1 <1>   0.0730 
 34 H       -3.1620    -0.4120    -1.7230 H     1 <1>   0.0730 
 35 H       -6.2480     4.7510    -0.3510 H     1 <1>   0.1430 
 36 H       -5.7220     0.1180    -2.0360 H     1 <1>   0.1430 
 37 H       -4.9190    -1.0050    -0.0850 H     1 <1>   0.0730 
 38 H       -3.8350    -0.6320     1.2260 H     1 <1>   0.0730 
 39 H       -8.0990     3.6280    -1.5530 H     1 <1>   0.1430 
 40 H       -7.8320     1.3430    -2.3840 H     1 <1>   0.1430 
 41 H       -2.4270    -2.5220     0.5130 H     1 <1>   0.4450 
 42 H       -3.0990    -2.6210    -1.8430 H     1 <1>   0.0730 
 43 H       -4.6270    -3.2730    -1.2920 H     1 <1>   0.0730 
 44 H       -5.1880    -3.3050     1.0780 H     1 <1>   0.0730 
 45 H       -4.0700    -2.6780     2.2700 H     1 <1>   0.0730 
 46 H       -1.8840    -4.4640    -0.8100 H     1 <1>   0.0730 
 47 H       -3.0940    -5.0790    -1.8900 H     1 <1>   0.0730 
 48 H       -4.0780    -5.1410     2.2430 H     1 <1>   0.0730 
 49 H       -2.5150    -4.5060     1.8440 H     1 <1>   0.0730 
 50 H       -3.0210    -6.3120     0.2930 H     1 <1>   0.0730 
 51 H       -4.5800    -5.6310    -0.0670 H     1 <1>   0.0730 
@<TRIPOS>BOND
  1   1   2  1   
  2   1   3  1   
  3   2   4  1   
  4   2  24  1   
  5   2  25  1   
  6   3   5  1   
  7   3  26  1   
  8   3  27  1   
  9   4   6  1   
 10   4  28  1   
 11   4  29  1   
 12   5   6  1   
 13   5  30  1   
 14   5  31  1   
 15   6   7  ar  
 16   7   8  ar  
 17   7   9  ar  
 18   8  10  1   
 19   8  32  1   
 20   9  11  1   
 21   9  12  1   
 22  10  11  ar  
 23  10  13  ar  
 24  11  14  ar  
 25  12  15  1   
 26  12  33  1   
 27  12  34  1   
 28  13  16  ar  
 29  13  35  1   
 30  14  17  ar  
 31  14  36  1   
 32  15  18  1   
 33  15  37  1   
 34  15  38  1   
 35  16  17  ar  
 36  16  39  1   
 37  17  40  1   
 38  18  19  1   
 39  18  20  1   
 40  18  41  1   
 41  19  21  1   
 42  19  42  1   
 43  19  43  1   
 44  20  22  1   
 45  20  44  1   
 46  20  45  1   
 47  21  23  1   
 48  21  46  1   
 49  21  47  1   
 50  22  23  1   
 51  22  48  1   
 52  22  49  1   
 53  23  50  1   
 54  23  51  1   
@<TRIPOS>SUBSTRUCTURE
  1 ****   9 GROUP 4 **** **** 0

# MOE 2024.06 (io_trps.svl 2023.06)
