@<TRIPOS>MOLECULE
NONAME
53 55 1 0 0 
SMALL
USER_CHARGES


@<TRIPOS>ATOM
  1 BR       0.4950     0.6170    -0.2760 Br    1 <1>  -0.1110 
  2 C        0.9040    -1.2090     0.1700 C.ar  1 <1>   0.1110 
  3 C        0.9310    -2.1480    -0.8420 C.ar  1 <1>  -0.1500 
  4 C        1.1600    -1.5330     1.4880 C.ar  1 <1>  -0.1500 
  5 C        1.2220    -3.4670    -0.5240 C.ar  1 <1>  -0.1440 
  6 C        1.4520    -2.8480     1.8030 C.ar  1 <1>  -0.1500 
  7 C        1.4830    -3.8200     0.8010 C.ar  1 <1>   0.0830 
  8 C        1.2570    -4.5170    -1.6180 C.3   1 <1>   0.4870 
  9 O        1.7540    -5.1300     1.0570 O.3   1 <1>  -0.3630 
 10 N        0.2500    -5.5600    -1.3010 N.4   1 <1>  -0.9590 
 11 C        2.2360    -5.5430     2.3210 C.3   1 <1>   0.0400 
 12 C        0.3970    -6.7850    -2.1510 C.3   1 <1>   0.3430 
 13 C       -1.1540    -5.0280    -1.3220 C.3   1 <1>   0.3430 
 14 C       -0.6070    -7.8880    -1.7590 C.3   1 <1>   0.1400 
 15 C       -2.1680    -6.0990    -0.8890 C.3   1 <1>   0.1400 
 16 N       -2.0090    -7.3680    -1.6720 N.am  1 <1>  -0.6600 
 17 C       -3.1270    -8.0670    -2.0790 C.2   1 <1>   0.5690 
 18 O       -4.2140    -7.5400    -2.0600 O.2   1 <1>  -0.5700 
 19 C       -3.0830    -9.5210    -2.5670 C.3   1 <1>   0.1810 
 20 O       -2.1970   -10.3490    -1.8200 O.3   1 <1>  -0.3630 
 21 C       -2.3550   -10.5580    -0.4880 C.ar  1 <1>   0.0830 
 22 C       -3.4700   -10.1490     0.2380 C.ar  1 <1>  -0.1500 
 23 C       -1.3200   -11.2110     0.1620 C.ar  1 <1>  -0.1500 
 24 C       -3.5360   -10.3720     1.6040 C.ar  1 <1>  -0.1430 
 25 C       -1.3850   -11.4400     1.5250 C.ar  1 <1>  -0.1500 
 26 C       -2.4900   -11.0180     2.2430 C.ar  1 <1>  -0.1500 
 27 C       -4.7510    -9.9230     2.3960 C.3   1 <1>  -0.0970 
 28 H        0.7280    -1.8320    -1.8510 H     1 <1>   0.1500 
 29 H        1.1320    -0.7700     2.2470 H     1 <1>   0.1500 
 30 H        1.6480    -3.0910     2.8310 H     1 <1>   0.1500 
 31 H        2.2420    -4.9530    -1.6480 H     1 <1>   0.0800 
 32 H        1.0460    -4.0700    -2.5760 H     1 <1>   0.0800 
 33 H        0.4660    -5.8130    -0.3200 H     1 <1>   0.4500 
 34 H        2.4670    -6.5920     2.2720 H     1 <1>   0.0800 
 35 H        1.4750    -5.3740     3.0630 H     1 <1>   0.0800 
 36 H        3.1280    -4.9870     2.5570 H     1 <1>   0.0800 
 37 H        1.3970    -7.1760    -2.0630 H     1 <1>   0.0800 
 38 H        0.2310    -6.5280    -3.1850 H     1 <1>   0.0800 
 39 H       -1.4070    -4.6980    -2.3160 H     1 <1>   0.0800 
 40 H       -1.2370    -4.1820    -0.6590 H     1 <1>   0.0800 
 41 H       -0.3300    -8.3090    -0.8080 H     1 <1>   0.0800 
 42 H       -0.5430    -8.6700    -2.4940 H     1 <1>   0.0800 
 43 H       -3.1600    -5.6990    -1.0110 H     1 <1>   0.0800 
 44 H       -2.0370    -6.3170     0.1570 H     1 <1>   0.0800 
 45 H       -2.7590    -9.5420    -3.5900 H     1 <1>   0.0800 
 46 H       -4.0650    -9.9560    -2.5150 H     1 <1>   0.0800 
 47 H       -4.2980    -9.6600    -0.2400 H     1 <1>   0.1500 
 48 H       -0.4680   -11.5440    -0.4010 H     1 <1>   0.1500 
 49 H       -0.5810   -11.9510     2.0260 H     1 <1>   0.1500 
 50 H       -2.5350   -11.2020     3.3030 H     1 <1>   0.1500 
 51 H       -4.4610    -9.6130     3.3840 H     1 <1>   0.0800 
 52 H       -5.4500   -10.7360     2.4790 H     1 <1>   0.0800 
 53 H       -5.2370    -9.0970     1.9100 H     1 <1>   0.0800 
@<TRIPOS>BOND
  1   1   2  1   
  2   2   3  ar  
  3   2   4  ar  
  4   3   5  ar  
  5   3  28  1   
  6   4   6  ar  
  7   4  29  1   
  8   5   7  ar  
  9   5   8  1   
 10   6   7  ar  
 11   6  30  1   
 12   7   9  1   
 13   8  10  1   
 14   8  31  1   
 15   8  32  1   
 16   9  11  1   
 17  10  12  1   
 18  10  13  1   
 19  10  33  1   
 20  11  34  1   
 21  11  35  1   
 22  11  36  1   
 23  12  14  1   
 24  12  37  1   
 25  12  38  1   
 26  13  15  1   
 27  13  39  1   
 28  13  40  1   
 29  14  16  1   
 30  14  41  1   
 31  14  42  1   
 32  15  16  1   
 33  15  43  1   
 34  15  44  1   
 35  16  17  am  
 36  17  18  2   
 37  17  19  1   
 38  19  20  1   
 39  19  45  1   
 40  19  46  1   
 41  20  21  1   
 42  21  22  ar  
 43  21  23  ar  
 44  22  24  ar  
 45  22  47  1   
 46  23  25  ar  
 47  23  48  1   
 48  24  26  ar  
 49  24  27  1   
 50  25  26  ar  
 51  25  49  1   
 52  26  50  1   
 53  27  51  1   
 54  27  52  1   
 55  27  53  1   
@<TRIPOS>SUBSTRUCTURE
  1 ****  15 GROUP 4 **** **** 0

# MOE 2024.06 (io_trps.svl 2023.06)
