@<TRIPOS>MOLECULE
NONAME
51 53 1 0 0 
SMALL
USER_CHARGES


@<TRIPOS>ATOM
  1 O       -0.2560     0.3620     0.3220 O.2   1 <1>  -0.5700 
  2 C       -0.4200     1.5230     0.0030 C.2   1 <1>   0.5440 
  3 N        0.5610     2.1640    -0.7010 N.am  1 <1>  -0.7300 
  4 C       -1.6390     2.2170     0.3750 C.ar  1 <1>   0.0860 
  5 C        1.8570     1.5730    -1.1100 C.3   1 <1>   0.1400 
  6 C       -2.2070     3.2050    -0.4300 C.ar  1 <1>  -0.1500 
  7 C       -2.2990     1.9080     1.5630 C.ar  1 <1>  -0.1500 
  8 C        3.0250     2.3690    -0.5060 C.3   1 <1>  -0.0800 
  9 C       -3.3760     3.8490    -0.0690 C.ar  1 <1>  -0.1500 
 10 C       -3.4670     2.5470     1.9340 C.ar  1 <1>  -0.1500 
 11 C        3.0290     3.8390    -0.9580 C.3   1 <1>  -0.2400 
 12 C        4.3580     1.7130    -0.8890 C.3   1 <1>  -0.2400 
 13 C       -4.0210     3.5180     1.1140 C.ar  1 <1>  -0.1430 
 14 C       -5.3230     4.1930     1.5020 C.3   1 <1>   0.4860 
 15 N       -6.4110     3.6450     0.6510 N.4   1 <1>  -0.9590 
 16 C       -7.6910     4.3770     0.8390 C.3   1 <1>   0.4860 
 17 C       -6.6210     2.1770     0.8410 C.3   1 <1>   0.3430 
 18 C       -8.7480     3.8270    -0.1030 C.ar  1 <1>  -0.1430 
 19 C       -7.4930     1.6250    -0.2880 C.3   1 <1>  -0.0170 
 20 C       -8.6660     2.5380    -0.6200 C.ar  1 <1>  -0.1430 
 21 C       -9.8260     4.6320    -0.4420 C.ar  1 <1>  -0.1500 
 22 C       -9.6590     2.0720    -1.4670 C.ar  1 <1>  -0.1500 
 23 C      -10.8130     4.1610    -1.2880 C.ar  1 <1>  -0.1500 
 24 C      -10.7300     2.8800    -1.8000 C.ar  1 <1>  -0.1500 
 25 H        0.4880     3.1670    -0.8630 H     1 <1>   0.3700 
 26 H        1.9230     1.5800    -2.1840 H     1 <1>   0.0800 
 27 H        1.9120     0.5480    -0.7810 H     1 <1>   0.0800 
 28 H       -1.7260     3.4640    -1.3580 H     1 <1>   0.1500 
 29 H       -1.8760     1.1480     2.2020 H     1 <1>   0.1500 
 30 H        2.9350     2.3320     0.5670 H     1 <1>   0.0800 
 31 H       -3.7730     4.6080    -0.7230 H     1 <1>   0.1500 
 32 H       -3.9330     2.2720     2.8660 H     1 <1>   0.1500 
 33 H        3.0650     3.9060    -2.0310 H     1 <1>   0.0800 
 34 H        3.8880     4.3480    -0.5550 H     1 <1>   0.0800 
 35 H        2.1520     4.3510    -0.6060 H     1 <1>   0.0800 
 36 H        4.4960     1.7250    -1.9560 H     1 <1>   0.0800 
 37 H        4.3810     0.6920    -0.5500 H     1 <1>   0.0800 
 38 H        5.1780     2.2370    -0.4300 H     1 <1>   0.0800 
 39 H       -5.2300     5.2560     1.3510 H     1 <1>   0.0800 
 40 H       -5.5340     4.0120     2.5430 H     1 <1>   0.0800 
 41 H       -6.1400     3.7750    -0.3310 H     1 <1>   0.4500 
 42 H       -7.5500     5.4260     0.6370 H     1 <1>   0.0800 
 43 H       -8.0350     4.2680     1.8550 H     1 <1>   0.0800 
 44 H       -7.1070     2.0000     1.7860 H     1 <1>   0.0800 
 45 H       -5.6770     1.6540     0.8400 H     1 <1>   0.0800 
 46 H       -7.8580     0.6530    -0.0030 H     1 <1>   0.0800 
 47 H       -6.8890     1.4960    -1.1690 H     1 <1>   0.0800 
 48 H       -9.9160     5.6330    -0.0540 H     1 <1>   0.1500 
 49 H       -9.6080     1.0770    -1.8770 H     1 <1>   0.1500 
 50 H      -11.6490     4.7880    -1.5500 H     1 <1>   0.1500 
 51 H      -11.4990     2.5130    -2.4590 H     1 <1>   0.1500 
@<TRIPOS>BOND
  1   1   2  2   
  2   2   3  am  
  3   2   4  1   
  4   3   5  1   
  5   3  25  1   
  6   4   6  ar  
  7   4   7  ar  
  8   5   8  1   
  9   5  26  1   
 10   5  27  1   
 11   6   9  ar  
 12   6  28  1   
 13   7  10  ar  
 14   7  29  1   
 15   8  11  1   
 16   8  12  1   
 17   8  30  1   
 18   9  13  ar  
 19   9  31  1   
 20  10  13  ar  
 21  10  32  1   
 22  11  33  1   
 23  11  34  1   
 24  11  35  1   
 25  12  36  1   
 26  12  37  1   
 27  12  38  1   
 28  13  14  1   
 29  14  15  1   
 30  14  39  1   
 31  14  40  1   
 32  15  16  1   
 33  15  17  1   
 34  15  41  1   
 35  16  18  1   
 36  16  42  1   
 37  16  43  1   
 38  17  19  1   
 39  17  44  1   
 40  17  45  1   
 41  18  20  ar  
 42  18  21  ar  
 43  19  20  1   
 44  19  46  1   
 45  19  47  1   
 46  20  22  ar  
 47  21  23  ar  
 48  21  48  1   
 49  22  24  ar  
 50  22  49  1   
 51  23  24  ar  
 52  23  50  1   
 53  24  51  1   
@<TRIPOS>SUBSTRUCTURE
  1 ****   9 GROUP 4 **** **** 0

# MOE 2024.06 (io_trps.svl 2023.06)
