@<TRIPOS>MOLECULE
NONAME
33 34 1 0 0 
SMALL
USER_CHARGES


@<TRIPOS>ATOM
  1 O       -0.3990     1.8940    -2.3880 O.2   1 <1>  -0.5700 
  2 C        0.1240     1.8630    -1.2980 C.2   1 <1>   0.5690 
  3 N       -0.5410     1.4700    -0.1780 N.am  1 <1>  -0.5790 
  4 C        1.5830     2.2810    -1.1810 C.3   1 <1>   0.1810 
  5 C       -1.9410     1.0360    -0.1010 C.3   1 <1>   0.0490 
  6 O        2.0400     2.1870     0.1620 O.3   1 <1>  -0.3630 
  7 C       -2.7170     1.3850     1.1250 C.3   1 <1>  -0.2000 
  8 C       -2.2910    -0.0320     0.8800 C.3   1 <1>  -0.2000 
  9 C        3.3290     2.5340     0.3640 C.ar  1 <1>   0.0820 
 10 C        4.3230     1.5630     0.2760 C.ar  1 <1>  -0.1440 
 11 C        3.6460     3.8560     0.6660 C.ar  1 <1>  -0.1440 
 12 C        5.6440     1.9340     0.4640 C.ar  1 <1>  -0.1500 
 13 C        3.9920     0.1050    -0.0140 C.3   1 <1>  -0.0970 
 14 C        4.9740     4.2050     0.8490 C.ar  1 <1>  -0.1500 
 15 C        2.5680     4.9230     0.8040 C.3   1 <1>  -0.0970 
 16 C        5.9690     3.2490     0.7460 C.ar  1 <1>  -0.1500 
 17 H       -0.0200     1.4750     0.7030 H     1 <1>   0.3700 
 18 H        1.6930     3.2970    -1.5100 H     1 <1>   0.0800 
 19 H        2.1900     1.6410    -1.7940 H     1 <1>   0.0800 
 20 H       -2.4450     1.0500    -1.0560 H     1 <1>   0.1000 
 21 H       -3.7600     1.6280     1.0220 H     1 <1>   0.1000 
 22 H       -2.2340     1.9520     1.9010 H     1 <1>   0.1000 
 23 H       -1.5100    -0.4560     1.4860 H     1 <1>   0.1000 
 24 H       -3.0450    -0.7500     0.6120 H     1 <1>   0.1000 
 25 H        6.4300     1.2020     0.3940 H     1 <1>   0.1500 
 26 H        3.8170    -0.0290    -1.0660 H     1 <1>   0.0800 
 27 H        3.1110    -0.1920     0.5270 H     1 <1>   0.0800 
 28 H        4.8000    -0.5360     0.2850 H     1 <1>   0.0800 
 29 H        5.2420     5.2210     1.0760 H     1 <1>   0.1500 
 30 H        1.7160     4.5270     1.3270 H     1 <1>   0.0800 
 31 H        2.2570     5.2590    -0.1680 H     1 <1>   0.0800 
 32 H        2.9370     5.7680     1.3580 H     1 <1>   0.0800 
 33 H        6.9980     3.5290     0.8890 H     1 <1>   0.1500 
@<TRIPOS>BOND
  1   1   2  2   
  2   2   3  am  
  3   2   4  1   
  4   3   5  1   
  5   3  17  1   
  6   4   6  1   
  7   4  18  1   
  8   4  19  1   
  9   5   7  1   
 10   5   8  1   
 11   5  20  1   
 12   6   9  1   
 13   7   8  1   
 14   7  21  1   
 15   7  22  1   
 16   8  23  1   
 17   8  24  1   
 18   9  10  ar  
 19   9  11  ar  
 20  10  12  ar  
 21  10  13  1   
 22  11  14  ar  
 23  11  15  1   
 24  12  16  ar  
 25  12  25  1   
 26  13  26  1   
 27  13  27  1   
 28  13  28  1   
 29  14  16  ar  
 30  14  29  1   
 31  15  30  1   
 32  15  31  1   
 33  15  32  1   
 34  16  33  1   
@<TRIPOS>SUBSTRUCTURE
  1 ****   6 GROUP 4 **** **** 0

# MOE 2024.06 (io_trps.svl 2023.06)
