@<TRIPOS>MOLECULE
NONAME
39 40 1 0 0 
SMALL
USER_CHARGES


@<TRIPOS>ATOM
  1 CL       0.5020    -0.3450     1.7060 Cl    1 <1>  -0.1770 
  2 C        0.4850    -1.7990     0.7360 C.ar  1 <1>   0.1770 
  3 C       -0.5160    -2.0190    -0.1960 C.ar  1 <1>   0.1770 
  4 C        1.4910    -2.7310     0.9140 C.ar  1 <1>  -0.1500 
  5 CL      -1.7940    -0.8490    -0.4330 Cl    1 <1>  -0.1770 
  6 C       -0.5170    -3.1720    -0.9590 C.ar  1 <1>  -0.1500 
  7 C        1.4980    -3.8930     0.1520 C.ar  1 <1>  -0.1440 
  8 C        0.4920    -4.1070    -0.7830 C.ar  1 <1>  -0.1500 
  9 C        2.6070    -4.9120     0.3460 C.3   1 <1>   0.2840 
 10 N        3.8300    -4.3780    -0.2780 N.am  1 <1>  -0.7300 
 11 C        5.0530    -4.3820     0.3070 C.2   1 <1>   0.5690 
 12 O        5.2330    -4.9020     1.3820 O.2   1 <1>  -0.5700 
 13 C        6.2070    -3.6960    -0.4220 C.3   1 <1>  -0.0190 
 14 C        7.5740    -4.3400    -0.1110 C.3   1 <1>  -0.1600 
 15 C        6.2470    -2.1920    -0.0900 C.3   1 <1>  -0.1600 
 16 C        8.7160    -3.6140    -0.8250 C.3   1 <1>   0.1400 
 17 C        7.4050    -1.4850    -0.8000 C.3   1 <1>   0.1400 
 18 N        8.6860    -2.1680    -0.4680 N.am  1 <1>  -0.6600 
 19 C        9.7090    -1.4840     0.1390 C.2   1 <1>   0.5690 
 20 O        9.6440    -0.3020     0.3750 O.2   1 <1>  -0.5700 
 21 C       10.9810    -2.1950     0.5400 C.3   1 <1>  -0.1790 
 22 H        2.2630    -2.5470     1.6410 H     1 <1>   0.1500 
 23 H       -1.2990    -3.3330    -1.6810 H     1 <1>   0.1500 
 24 H        0.4880    -5.0040    -1.3800 H     1 <1>   0.1500 
 25 H        2.3490    -5.8490    -0.1170 H     1 <1>   0.0800 
 26 H        2.7670    -5.0870     1.3970 H     1 <1>   0.0800 
 27 H        3.6810    -3.8910    -1.1610 H     1 <1>   0.3700 
 28 H        6.0310    -3.8010    -1.4770 H     1 <1>   0.0800 
 29 H        7.5620    -5.3720    -0.4120 H     1 <1>   0.0800 
 30 H        7.7580    -4.3120     0.9490 H     1 <1>   0.0800 
 31 H        6.3620    -2.0590     0.9730 H     1 <1>   0.0800 
 32 H        5.3210    -1.7280    -0.3780 H     1 <1>   0.0800 
 33 H        8.6010    -3.7100    -1.8920 H     1 <1>   0.0800 
 34 H        9.6520    -4.0670    -0.5530 H     1 <1>   0.0800 
 35 H        7.4330    -0.4520    -0.4970 H     1 <1>   0.0800 
 36 H        7.2600    -1.5120    -1.8660 H     1 <1>   0.0800 
 37 H       11.4700    -2.5870    -0.3300 H     1 <1>   0.0800 
 38 H       10.7530    -2.9890     1.2250 H     1 <1>   0.0800 
 39 H       11.6440    -1.5020     1.0260 H     1 <1>   0.0800 
@<TRIPOS>BOND
  1   1   2  1   
  2   2   3  ar  
  3   2   4  ar  
  4   3   5  1   
  5   3   6  ar  
  6   4   7  ar  
  7   4  22  1   
  8   6   8  ar  
  9   6  23  1   
 10   7   8  ar  
 11   7   9  1   
 12   8  24  1   
 13   9  10  1   
 14   9  25  1   
 15   9  26  1   
 16  10  11  am  
 17  10  27  1   
 18  11  12  2   
 19  11  13  1   
 20  13  14  1   
 21  13  15  1   
 22  13  28  1   
 23  14  16  1   
 24  14  29  1   
 25  14  30  1   
 26  15  17  1   
 27  15  31  1   
 28  15  32  1   
 29  16  18  1   
 30  16  33  1   
 31  16  34  1   
 32  17  18  1   
 33  17  35  1   
 34  17  36  1   
 35  18  19  am  
 36  19  20  2   
 37  19  21  1   
 38  21  37  1   
 39  21  38  1   
 40  21  39  1   
@<TRIPOS>SUBSTRUCTURE
  1 ****  11 GROUP 4 **** **** 0

# MOE 2024.06 (io_trps.svl 2023.06)
