@<TRIPOS>MOLECULE
NONAME
38 40 1 0 0 
SMALL
USER_CHARGES


@<TRIPOS>ATOM
  1 O       -4.8790    -0.2770    -2.4090 O.co2 1 <1>  -0.9000 
  2 C       -3.8810    -0.8300    -1.9270 C.2   1 <1>   0.9060 
  3 O       -3.5750    -1.9860    -2.2250 O.co2 1 <1>  -0.9000 
  4 C       -3.0160    -0.1000    -0.9120 C.3   1 <1>  -0.1860 
  5 C       -3.4520    -0.2260     0.5980 C.3   1 <1>  -0.0190 
  6 C       -2.7880     1.3880    -1.2820 C.3   1 <1>   0.0580 
  7 C       -4.8220    -0.8420     0.9010 C.2   1 <1>   0.5690 
  8 C       -3.3450     1.1580     1.2900 C.3   1 <1>   0.0580 
  9 C       -3.9840     2.1950    -0.7910 C.2   1 <1>  -0.2880 
 10 C       -1.5970     1.8790    -0.4250 C.3   1 <1>  -0.1600 
 11 O       -4.9260    -1.5590     1.8710 O.2   1 <1>  -0.5700 
 12 N       -5.8880    -0.5670     0.1170 N.am  1 <1>  -0.7300 
 13 C       -4.2570     2.0960     0.5110 C.2   1 <1>  -0.2880 
 14 C       -1.9070     1.6940     1.0890 C.3   1 <1>  -0.1600 
 15 C       -7.1050    -1.3740     0.0480 C.3   1 <1>   0.2840 
 16 C       -8.2750    -0.4900    -0.3450 C.ar  1 <1>  -0.1430 
 17 C       -8.3220     0.0880    -1.6070 C.ar  1 <1>   0.1600 
 18 C       -9.3080    -0.2520     0.5390 C.ar  1 <1>  -0.1500 
 19 N       -9.3140     0.8540    -2.0490 N.ar  1 <1>  -0.6200 
 20 C      -10.3390     0.5490     0.0980 C.ar  1 <1>  -0.1500 
 21 C      -10.2930     1.0650    -1.1860 C.ar  1 <1>   0.1600 
 22 H       -2.0620    -0.5850    -0.9990 H     1 <1>   0.0800 
 23 H       -2.7390    -0.8790     1.0690 H     1 <1>   0.0800 
 24 H       -2.6110     1.5190    -2.3360 H     1 <1>   0.0800 
 25 H       -3.6140     1.1040     2.3320 H     1 <1>   0.0800 
 26 H       -4.5180     2.7670    -1.5300 H     1 <1>   0.1500 
 27 H       -1.4290     2.9210    -0.6320 H     1 <1>   0.0800 
 28 H       -0.7050     1.3410    -0.6910 H     1 <1>   0.0800 
 29 H       -5.6670    -0.1050    -0.7880 H     1 <1>   0.3700 
 30 H       -5.0540     2.5780     1.0500 H     1 <1>   0.1500 
 31 H       -1.2020     1.0100     1.5280 H     1 <1>   0.0800 
 32 H       -1.8100     2.6400     1.5910 H     1 <1>   0.0800 
 33 H       -7.2850    -1.8440     0.9990 H     1 <1>   0.0800 
 34 H       -6.9640    -2.1420    -0.6940 H     1 <1>   0.0800 
 35 H       -7.4990    -0.0890    -2.2850 H     1 <1>   0.1500 
 36 H       -9.3070    -0.6700     1.5310 H     1 <1>   0.1500 
 37 H      -11.1700     0.7720     0.7400 H     1 <1>   0.1500 
 38 H      -11.1040     1.6870    -1.5210 H     1 <1>   0.1500 
@<TRIPOS>BOND
  1   1   2  ar  
  2   2   3  ar  
  3   2   4  1   
  4   4   5  1   
  5   4   6  1   
  6   4  22  1   
  7   5   7  1   
  8   5   8  1   
  9   5  23  1   
 10   6   9  1   
 11   6  10  1   
 12   6  24  1   
 13   7  11  2   
 14   7  12  am  
 15   8  13  1   
 16   8  14  1   
 17   8  25  1   
 18   9  13  2   
 19   9  26  1   
 20  10  14  1   
 21  10  27  1   
 22  10  28  1   
 23  12  15  1   
 24  12  29  1   
 25  13  30  1   
 26  14  31  1   
 27  14  32  1   
 28  15  16  1   
 29  15  33  1   
 30  15  34  1   
 31  16  17  ar  
 32  16  18  ar  
 33  17  19  ar  
 34  17  35  1   
 35  18  20  ar  
 36  18  36  1   
 37  19  21  ar  
 38  20  21  ar  
 39  20  37  1   
 40  21  38  1   
@<TRIPOS>SUBSTRUCTURE
  1 ****  12 GROUP 4 **** **** 0

# MOE 2024.06 (io_trps.svl 2023.06)
