@<TRIPOS>MOLECULE
NONAME
34 35 1 0 0 
SMALL
USER_CHARGES


@<TRIPOS>ATOM
  1 S       -0.1070     0.1560    -0.7620 S.o2  1 <1>   1.4470 
  2 O       -0.3300     0.5380    -2.1410 O.2   1 <1>  -0.6500 
  3 O       -0.3750    -1.2060    -0.3540 O.2   1 <1>  -0.6500 
  4 N       -1.0770     1.1700     0.1900 N.am  1 <1>  -0.8490 
  5 C        1.5790     0.6030    -0.2590 C.ar  1 <1>  -0.0090 
  6 C       -2.4690     0.7120     0.2050 C.3   1 <1>   0.1960 
  7 C       -0.9910     2.5710    -0.2370 C.3   1 <1>   0.1960 
  8 C        1.9270     0.6670     1.0870 C.ar  1 <1>  -0.1500 
  9 C        2.5620     0.8880    -1.2030 C.ar  1 <1>  -0.1500 
 10 C       -3.2940     1.5480     1.1900 C.3   1 <1>  -0.1600 
 11 C       -1.7510     3.4710     0.7420 C.3   1 <1>  -0.1600 
 12 C        3.2090     1.0100     1.4810 C.ar  1 <1>  -0.1500 
 13 C        3.8490     1.2330    -0.8240 C.ar  1 <1>  -0.1500 
 14 C       -3.2180     3.0440     0.8640 C.3   1 <1>  -0.1600 
 15 C        4.1640     1.2930     0.5230 C.ar  1 <1>   0.1010 
 16 S        5.8090     1.7340     1.1080 S.3   1 <1>  -0.3310 
 17 C        6.8500     2.0200    -0.3900 C.3   1 <1>  -0.0100 
 18 H       -2.5110    -0.3200     0.5140 H     1 <1>   0.0800 
 19 H       -2.8890     0.7830    -0.7860 H     1 <1>   0.0800 
 20 H       -1.4040     2.6810    -1.2280 H     1 <1>   0.0800 
 21 H        0.0400     2.8820    -0.2670 H     1 <1>   0.0800 
 22 H        1.1820     0.4450     1.8330 H     1 <1>   0.1500 
 23 H        2.3140     0.8400    -2.2510 H     1 <1>   0.1500 
 24 H       -2.9210     1.3730     2.1850 H     1 <1>   0.0800 
 25 H       -4.3190     1.2230     1.1620 H     1 <1>   0.0800 
 26 H       -1.6970     4.4910     0.4050 H     1 <1>   0.0800 
 27 H       -1.2730     3.4160     1.7050 H     1 <1>   0.0800 
 28 H        3.4700     1.0590     2.5230 H     1 <1>   0.1500 
 29 H        4.5800     1.4470    -1.5780 H     1 <1>   0.1500 
 30 H       -3.7070     3.6150     1.6340 H     1 <1>   0.0800 
 31 H       -3.7240     3.2330    -0.0680 H     1 <1>   0.0800 
 32 H        7.8380     2.2760    -0.0540 H     1 <1>   0.0800 
 33 H        6.4150     2.8300    -0.9480 H     1 <1>   0.0800 
 34 H        6.8660     1.1100    -0.9630 H     1 <1>   0.0800 
@<TRIPOS>BOND
  1   1   2  2   
  2   1   3  2   
  3   1   4  am  
  4   1   5  1   
  5   4   6  1   
  6   4   7  1   
  7   5   8  ar  
  8   5   9  ar  
  9   6  10  1   
 10   6  18  1   
 11   6  19  1   
 12   7  11  1   
 13   7  20  1   
 14   7  21  1   
 15   8  12  ar  
 16   8  22  1   
 17   9  13  ar  
 18   9  23  1   
 19  10  14  1   
 20  10  24  1   
 21  10  25  1   
 22  11  14  1   
 23  11  26  1   
 24  11  27  1   
 25  12  15  ar  
 26  12  28  1   
 27  13  15  ar  
 28  13  29  1   
 29  14  30  1   
 30  14  31  1   
 31  15  16  1   
 32  16  17  1   
 33  17  32  1   
 34  17  33  1   
 35  17  34  1   
@<TRIPOS>SUBSTRUCTURE
  1 ****   5 GROUP 4 **** **** 0

# MOE 2024.06 (io_trps.svl 2023.06)
