@<TRIPOS>MOLECULE
NONAME
51 53 1 0 0 
SMALL
USER_CHARGES


@<TRIPOS>ATOM
  1 S       -0.5240    -0.9390     1.2720 S.o2  1 <1>   1.4470 
  2 O       -0.9970     0.3750     0.8860 O.2   1 <1>  -0.6500 
  3 O       -0.4700    -1.2410     2.6870 O.2   1 <1>  -0.6500 
  4 N       -1.6170    -2.0400     0.5810 N.am  1 <1>  -0.8490 
  5 C        1.0360    -1.2450     0.3910 C.ar  1 <1>  -0.0090 
  6 C       -3.0030    -1.6880     0.9290 C.3   1 <1>   0.1960 
  7 C       -1.3270    -3.4240     0.9740 C.3   1 <1>   0.1960 
  8 C        1.9850    -2.1670     0.8320 C.ar  1 <1>   0.0820 
  9 C        1.2990    -0.5560    -0.7880 C.ar  1 <1>  -0.1500 
 10 C       -3.9930    -2.5790     0.1670 C.3   1 <1>  -0.0190 
 11 C       -2.2510    -4.3950     0.2300 C.3   1 <1>  -0.1600 
 12 O        1.7290    -2.8630     1.9660 O.3   1 <1>  -0.3630 
 13 C        3.1600    -2.3680     0.1100 C.ar  1 <1>  -0.1500 
 14 C        2.4630    -0.7520    -1.5120 C.ar  1 <1>  -0.1440 
 15 C       -5.4200    -2.1830     0.5100 C.2   1 <1>   0.5690 
 16 C       -3.7290    -4.0640     0.4730 C.3   1 <1>  -0.1600 
 17 C        2.7580    -3.4710     2.7170 C.3   1 <1>   0.0400 
 18 C        3.3960    -1.6620    -1.0530 C.ar  1 <1>  -0.1500 
 19 C        2.7130     0.0270    -2.7900 C.3   1 <1>  -0.0970 
 20 O       -5.7520    -2.1000     1.6670 O.2   1 <1>  -0.5700 
 21 N       -6.2910    -1.9340    -0.4980 N.am  1 <1>  -0.7300 
 22 C       -7.7130    -1.5700    -0.3080 C.3   1 <1>   0.3200 
 23 C       -8.5940    -2.3560    -1.2640 C.2   1 <1>  -0.0400 
 24 O       -9.8450    -1.9660    -1.4210 O.3   1 <1>  -0.2800 
 25 C       -8.3440    -3.4410    -2.0330 C.2   1 <1>  -0.1500 
 26 C      -10.4160    -2.7820    -2.2840 C.2   1 <1>  -0.0100 
 27 C       -9.5410    -3.7190    -2.7040 C.2   1 <1>  -0.1500 
 28 H       -3.1980    -0.6620     0.6670 H     1 <1>   0.0800 
 29 H       -3.1510    -1.7920     1.9930 H     1 <1>   0.0800 
 30 H       -1.4490    -3.5390     2.0400 H     1 <1>   0.0800 
 31 H       -0.3100    -3.6690     0.7240 H     1 <1>   0.0800 
 32 H        0.5720     0.1550    -1.1450 H     1 <1>   0.1500 
 33 H       -3.8360    -2.4070    -0.8820 H     1 <1>   0.0800 
 34 H       -2.0470    -5.3990     0.5580 H     1 <1>   0.0800 
 35 H       -2.0310    -4.3410    -0.8220 H     1 <1>   0.0800 
 36 H        3.8990    -3.0750     0.4350 H     1 <1>   0.1500 
 37 H       -4.3540    -4.6860    -0.1440 H     1 <1>   0.0800 
 38 H       -3.9740    -4.2630     1.5030 H     1 <1>   0.0800 
 39 H        2.3380    -3.7950     3.6530 H     1 <1>   0.0800 
 40 H        3.5340    -2.7470     2.8970 H     1 <1>   0.0800 
 41 H        3.1360    -4.3180     2.1740 H     1 <1>   0.0800 
 42 H        4.3080    -1.8250    -1.6010 H     1 <1>   0.1500 
 43 H        1.7820     0.2780    -3.2680 H     1 <1>   0.0800 
 44 H        3.2990    -0.5550    -3.4780 H     1 <1>   0.0800 
 45 H        3.2420     0.9360    -2.5650 H     1 <1>   0.0800 
 46 H       -5.9940    -1.9920    -1.4720 H     1 <1>   0.3700 
 47 H       -7.8330    -0.5190    -0.5000 H     1 <1>   0.0800 
 48 H       -8.0220    -1.7660     0.7050 H     1 <1>   0.0800 
 49 H       -7.4330    -4.0040    -2.1320 H     1 <1>   0.1500 
 50 H      -11.4490    -2.6230    -2.5430 H     1 <1>   0.1500 
 51 H       -9.6980    -4.5230    -3.4010 H     1 <1>   0.1500 
@<TRIPOS>BOND
  1   1   2  2   
  2   1   3  2   
  3   1   4  am  
  4   1   5  1   
  5   4   6  1   
  6   4   7  1   
  7   5   8  ar  
  8   5   9  ar  
  9   6  10  1   
 10   6  28  1   
 11   6  29  1   
 12   7  11  1   
 13   7  30  1   
 14   7  31  1   
 15   8  12  1   
 16   8  13  ar  
 17   9  14  ar  
 18   9  32  1   
 19  10  15  1   
 20  10  16  1   
 21  10  33  1   
 22  11  16  1   
 23  11  34  1   
 24  11  35  1   
 25  12  17  1   
 26  13  18  ar  
 27  13  36  1   
 28  14  18  ar  
 29  14  19  1   
 30  15  20  2   
 31  15  21  am  
 32  16  37  1   
 33  16  38  1   
 34  17  39  1   
 35  17  40  1   
 36  17  41  1   
 37  18  42  1   
 38  19  43  1   
 39  19  44  1   
 40  19  45  1   
 41  21  22  1   
 42  21  46  1   
 43  22  23  1   
 44  22  47  1   
 45  22  48  1   
 46  23  24  1   
 47  23  25  2   
 48  24  26  1   
 49  25  27  1   
 50  25  49  1   
 51  26  27  2   
 52  26  50  1   
 53  27  51  1   
@<TRIPOS>SUBSTRUCTURE
  1 ****   6 GROUP 4 **** **** 0

# MOE 2024.06 (io_trps.svl 2023.06)
