@<TRIPOS>MOLECULE
NONAME
33 34 1 0 0 
SMALL
USER_CHARGES


@<TRIPOS>ATOM
  1 I        0.5060    -0.7320    -2.2850 I     1 <1>  -0.0810 
  2 C       -0.6170    -2.0010    -0.9790 C.ar  1 <1>   0.0810 
  3 C        0.0240    -2.9940    -0.2450 C.ar  1 <1>   0.0820 
  4 C       -1.9800    -1.7830    -0.9090 C.ar  1 <1>  -0.1500 
  5 O        1.3710    -3.1470    -0.3680 O.3   1 <1>  -0.3630 
  6 C       -0.7620    -3.7890     0.5870 C.ar  1 <1>  -0.1500 
  7 C       -2.7470    -2.5810    -0.0750 C.ar  1 <1>  -0.1430 
  8 C        2.0710    -4.1370     0.3530 C.3   1 <1>   0.1200 
  9 C       -2.1310    -3.5800     0.6660 C.ar  1 <1>  -0.1500 
 10 C       -4.2470    -2.3690     0.0250 C.3   1 <1>  -0.0960 
 11 C        3.5470    -4.0360    -0.0130 C.3   1 <1>   0.1200 
 12 O        4.2510    -5.0260     0.7070 O.3   1 <1>  -0.3160 
 13 N        5.6170    -4.9630     0.3960 N.am  1 <1>  -0.0850 
 14 C        6.5210    -4.2300     1.1060 C.2   1 <1>   0.5690 
 15 C        6.2000    -5.6950    -0.5950 C.2   1 <1>   0.5690 
 16 O        6.2970    -3.4660     2.0120 O.2   1 <1>  -0.5700 
 17 C        7.9170    -4.4810     0.5770 C.3   1 <1>  -0.0990 
 18 O        5.6540    -6.4070    -1.4020 O.2   1 <1>  -0.5700 
 19 C        7.6990    -5.4790    -0.5820 C.3   1 <1>  -0.0990 
 20 H       -2.4340    -1.0040    -1.4960 H     1 <1>   0.1500 
 21 H       -0.3320    -4.5730     1.1800 H     1 <1>   0.1500 
 22 H        1.6820    -5.1000     0.0730 H     1 <1>   0.0800 
 23 H        1.9330    -3.9530     1.4030 H     1 <1>   0.0800 
 24 H       -2.7210    -4.2050     1.3140 H     1 <1>   0.1500 
 25 H       -4.5040    -1.3570    -0.2310 H     1 <1>   0.0800 
 26 H       -4.5860    -2.5620     1.0270 H     1 <1>   0.0800 
 27 H       -4.7540    -3.0370    -0.6480 H     1 <1>   0.0800 
 28 H        3.9340    -3.0700     0.2640 H     1 <1>   0.0800 
 29 H        3.6830    -4.2160    -1.0650 H     1 <1>   0.0800 
 30 H        8.5310    -4.9040     1.3530 H     1 <1>   0.0800 
 31 H        8.3480    -3.5590     0.2300 H     1 <1>   0.0800 
 32 H        8.0180    -5.0690    -1.5230 H     1 <1>   0.0800 
 33 H        8.2000    -6.4130    -0.3990 H     1 <1>   0.0800 
@<TRIPOS>BOND
  1   1   2  1   
  2   2   3  ar  
  3   2   4  ar  
  4   3   5  1   
  5   3   6  ar  
  6   4   7  ar  
  7   4  20  1   
  8   5   8  1   
  9   6   9  ar  
 10   6  21  1   
 11   7   9  ar  
 12   7  10  1   
 13   8  11  1   
 14   8  22  1   
 15   8  23  1   
 16   9  24  1   
 17  10  25  1   
 18  10  26  1   
 19  10  27  1   
 20  11  12  1   
 21  11  28  1   
 22  11  29  1   
 23  12  13  1   
 24  13  14  am  
 25  13  15  am  
 26  14  16  2   
 27  14  17  1   
 28  15  18  2   
 29  15  19  1   
 30  17  19  1   
 31  17  30  1   
 32  17  31  1   
 33  19  32  1   
 34  19  33  1   
@<TRIPOS>SUBSTRUCTURE
  1 ****   8 GROUP 4 **** **** 0

# MOE 2024.06 (io_trps.svl 2023.06)
