@<TRIPOS>MOLECULE
NONAME
37 38 1 0 0 
SMALL
USER_CHARGES


@<TRIPOS>ATOM
  1 BR      -2.5650     1.1130     2.0140 Br    1 <1>  -0.1110 
  2 C       -1.3420     2.2450     1.0480 C.ar  1 <1>   0.1110 
  3 C       -1.5060     2.4290    -0.3170 C.ar  1 <1>  -0.1440 
  4 C       -0.3250     2.8480     1.7630 C.ar  1 <1>  -0.1500 
  5 C       -0.5960     3.2420    -0.9780 C.ar  1 <1>  -0.1500 
  6 C       -2.6430     1.7630    -1.0680 C.3   1 <1>   0.4870 
  7 C        0.5680     3.6620     1.0880 C.ar  1 <1>  -0.1500 
  8 C        0.4320     3.8550    -0.2770 C.ar  1 <1>  -0.1500 
  9 N       -3.9240     2.4540    -0.7530 N.4   1 <1>  -0.9590 
 10 C       -5.1020     1.7470    -1.3040 C.3   1 <1>   0.3430 
 11 C       -3.9310     3.8920    -1.1050 C.3   1 <1>   0.3430 
 12 C       -5.8080     1.0190    -0.1640 C.3   1 <1>  -0.1600 
 13 C       -4.4160     4.6930     0.1020 C.3   1 <1>  -0.1600 
 14 C       -6.6860     1.9190     0.7260 C.3   1 <1>  -0.1600 
 15 C       -5.8450     4.3730     0.5810 C.3   1 <1>  -0.1600 
 16 C       -5.9910     3.0960     1.4370 C.3   1 <1>  -0.1600 
 17 H       -0.2290     2.6830     2.8220 H     1 <1>   0.1500 
 18 H       -0.6680     3.4080    -2.0400 H     1 <1>   0.1500 
 19 H       -2.7020     0.7270    -0.7740 H     1 <1>   0.0800 
 20 H       -2.4520     1.8030    -2.1280 H     1 <1>   0.0800 
 21 H        1.3700     4.1420     1.6240 H     1 <1>   0.1500 
 22 H        1.1360     4.4860    -0.7950 H     1 <1>   0.1500 
 23 H       -4.0300     2.4270     0.2710 H     1 <1>   0.4500 
 24 H       -4.7920     1.0400    -2.0560 H     1 <1>   0.0800 
 25 H       -5.7890     2.4450    -1.7550 H     1 <1>   0.0800 
 26 H       -4.5740     4.0710    -1.9510 H     1 <1>   0.0800 
 27 H       -2.9380     4.2220    -1.3620 H     1 <1>   0.0800 
 28 H       -5.0970     0.4780     0.4350 H     1 <1>   0.0800 
 29 H       -6.4570     0.2830    -0.6060 H     1 <1>   0.0800 
 30 H       -4.3950     5.7310    -0.1860 H     1 <1>   0.0800 
 31 H       -3.7170     4.5910     0.9150 H     1 <1>   0.0800 
 32 H       -7.1090     1.2860     1.4900 H     1 <1>   0.0800 
 33 H       -7.5190     2.2900     0.1530 H     1 <1>   0.0800 
 34 H       -6.5280     4.3610    -0.2520 H     1 <1>   0.0800 
 35 H       -6.1520     5.1990     1.2020 H     1 <1>   0.0800 
 36 H       -5.0550     2.7940     1.8740 H     1 <1>   0.0800 
 37 H       -6.6250     3.3580     2.2690 H     1 <1>   0.0800 
@<TRIPOS>BOND
  1   1   2  1   
  2   2   3  ar  
  3   2   4  ar  
  4   3   5  ar  
  5   3   6  1   
  6   4   7  ar  
  7   4  17  1   
  8   5   8  ar  
  9   5  18  1   
 10   6   9  1   
 11   6  19  1   
 12   6  20  1   
 13   7   8  ar  
 14   7  21  1   
 15   8  22  1   
 16   9  10  1   
 17   9  11  1   
 18   9  23  1   
 19  10  12  1   
 20  10  24  1   
 21  10  25  1   
 22  11  13  1   
 23  11  26  1   
 24  11  27  1   
 25  12  14  1   
 26  12  28  1   
 27  12  29  1   
 28  13  15  1   
 29  13  30  1   
 30  13  31  1   
 31  14  16  1   
 32  14  32  1   
 33  14  33  1   
 34  15  16  1   
 35  15  34  1   
 36  15  35  1   
 37  16  36  1   
 38  16  37  1   
@<TRIPOS>SUBSTRUCTURE
  1 ****   9 GROUP 4 **** **** 0

# MOE 2024.06 (io_trps.svl 2023.06)
