@<TRIPOS>MOLECULE
NONAME
47 49 1 0 0 
SMALL
USER_CHARGES


@<TRIPOS>ATOM
  1 F       -3.5610     4.8790    -1.5490 F     1 <1>  -0.1900 
  2 C       -2.4100     4.4630    -1.0790 C.ar  1 <1>   0.1900 
  3 C       -2.3800     3.3170    -0.2840 C.ar  1 <1>   0.1170 
  4 C       -1.2800     5.1900    -1.4000 C.ar  1 <1>  -0.1500 
  5 N       -3.5720     2.6220     0.0000 N.am  1 <1>  -0.5470 
  6 C       -1.1340     2.9150     0.1890 C.ar  1 <1>  -0.1500 
  7 C       -0.0550     4.7670    -0.9130 C.ar  1 <1>  -0.1500 
  8 C       -3.8960     1.6350     0.8850 C.2   1 <1>   0.5690 
  9 C        0.0130     3.6310    -0.1210 C.ar  1 <1>  -0.1500 
 10 O       -3.1180     1.1300     1.6580 O.2   1 <1>  -0.5700 
 11 C       -5.3520     1.1620     0.8750 C.3   1 <1>   0.1710 
 12 N       -6.3010     2.1540     0.2910 N.3   1 <1>  -0.8100 
 13 C       -6.5500     3.2780     1.2350 C.3   1 <1>   0.1100 
 14 C       -7.5910     1.5110    -0.0560 C.3   1 <1>   0.1100 
 15 C       -7.5540     4.3020     0.6730 C.3   1 <1>   0.2090 
 16 C       -8.6070     2.5150    -0.6340 C.3   1 <1>   0.2090 
 17 N       -8.8400     3.6370     0.3190 N.pl3 1 <1>  -0.8380 
 18 C       -9.8970     4.4990    -0.0100 C.ar  1 <1>   0.1000 
 19 C       -9.9200     5.3390    -1.1390 C.ar  1 <1>   0.0830 
 20 C      -10.9860     4.5110     0.8500 C.ar  1 <1>  -0.1500 
 21 O       -8.8430     5.3260    -1.9850 O.3   1 <1>  -0.3620 
 22 C      -11.0250     6.1560    -1.3660 C.ar  1 <1>  -0.1500 
 23 C      -12.0790     5.3250     0.6180 C.ar  1 <1>  -0.1500 
 24 C       -8.7620     6.1940    -3.0930 C.3   1 <1>   0.0400 
 25 C      -12.0990     6.1480    -0.4920 C.ar  1 <1>  -0.1500 
 26 H       -1.3590     6.0670    -2.0170 H     1 <1>   0.1500 
 27 H       -4.4060     2.9570    -0.5010 H     1 <1>   0.3700 
 28 H       -1.0480     2.0370     0.8030 H     1 <1>   0.1500 
 29 H        0.8410     5.3160    -1.1490 H     1 <1>   0.1500 
 30 H        0.9650     3.3000     0.2580 H     1 <1>   0.1500 
 31 H       -5.6460     0.9160     1.8800 H     1 <1>   0.0800 
 32 H       -5.3810     0.2590     0.2930 H     1 <1>   0.0800 
 33 H       -5.6260     3.7870     1.4490 H     1 <1>   0.0800 
 34 H       -6.9410     2.8960     2.1620 H     1 <1>   0.0800 
 35 H       -8.0210     1.0570     0.8200 H     1 <1>   0.0800 
 36 H       -7.4190     0.7390    -0.7850 H     1 <1>   0.0800 
 37 H       -7.1320     4.7710    -0.1980 H     1 <1>   0.0800 
 38 H       -7.7420     5.0650     1.4080 H     1 <1>   0.0800 
 39 H       -9.5410     2.0150    -0.8260 H     1 <1>   0.0800 
 40 H       -8.2330     2.8980    -1.5670 H     1 <1>   0.0800 
 41 H      -10.9630     3.8680     1.7100 H     1 <1>   0.1500 
 42 H      -11.0750     6.8060    -2.2170 H     1 <1>   0.1500 
 43 H      -12.9110     5.3150     1.3010 H     1 <1>   0.1500 
 44 H       -7.8190     6.0230    -3.5800 H     1 <1>   0.0800 
 45 H       -8.8140     7.2100    -2.7450 H     1 <1>   0.0800 
 46 H       -9.5680     5.9740    -3.7700 H     1 <1>   0.0800 
 47 H      -12.9480     6.7820    -0.6750 H     1 <1>   0.1500 
@<TRIPOS>BOND
  1   1   2  1   
  2   2   3  ar  
  3   2   4  ar  
  4   3   5  1   
  5   3   6  ar  
  6   4   7  ar  
  7   4  26  1   
  8   5   8  am  
  9   5  27  1   
 10   6   9  ar  
 11   6  28  1   
 12   7   9  ar  
 13   7  29  1   
 14   8  10  2   
 15   8  11  1   
 16   9  30  1   
 17  11  12  1   
 18  11  31  1   
 19  11  32  1   
 20  12  13  1   
 21  12  14  1   
 22  13  15  1   
 23  13  33  1   
 24  13  34  1   
 25  14  16  1   
 26  14  35  1   
 27  14  36  1   
 28  15  17  1   
 29  15  37  1   
 30  15  38  1   
 31  16  17  1   
 32  16  39  1   
 33  16  40  1   
 34  17  18  1   
 35  18  19  ar  
 36  18  20  ar  
 37  19  21  1   
 38  19  22  ar  
 39  20  23  ar  
 40  20  41  1   
 41  21  24  1   
 42  22  25  ar  
 43  22  42  1   
 44  23  25  ar  
 45  23  43  1   
 46  24  44  1   
 47  24  45  1   
 48  24  46  1   
 49  25  47  1   
@<TRIPOS>SUBSTRUCTURE
  1 ****  13 GROUP 4 **** **** 0

# MOE 2024.06 (io_trps.svl 2023.06)
