@<TRIPOS>MOLECULE
NONAME
39 41 1 0 0 
SMALL
USER_CHARGES


@<TRIPOS>ATOM
  1 S       -0.1110    -1.6810     1.1140 S.3   1 <1>  -0.4600 
  2 C        0.7010    -3.0460     0.2420 C.3   1 <1>   0.0700 
  3 C        1.2940    -0.6870     1.6830 C.3   1 <1>   0.0700 
  4 C        1.6690    -2.4690    -0.8010 C.3   1 <1>   0.3430 
  5 C        2.1990    -0.3680     0.4870 C.3   1 <1>   0.3430 
  6 N        2.7300    -1.6100    -0.1800 N.4   1 <1>  -0.9590 
  7 C        3.8040    -1.2860    -1.1560 C.3   1 <1>   0.4860 
  8 C        4.9710    -0.6990    -0.3880 C.ar  1 <1>  -0.1430 
  9 C        5.6670    -1.5310     0.4590 C.ar  1 <1>   0.0830 
 10 C        5.3190     0.6680    -0.5300 C.ar  1 <1>   0.0000 
 11 O        5.2640    -2.8250     0.5640 O.3   1 <1>  -0.3630 
 12 C        6.7510    -1.0290     1.2000 C.ar  1 <1>  -0.1500 
 13 C        6.4050     1.1610     0.2310 C.ar  1 <1>   0.0000 
 14 C        4.6490     1.5840    -1.3790 C.ar  1 <1>  -0.1500 
 15 C        6.0990    -3.8100     1.1440 C.3   1 <1>   0.0400 
 16 C        7.1030     0.2840     1.0830 C.ar  1 <1>  -0.1500 
 17 C        6.7670     2.5180     0.1260 C.ar  1 <1>  -0.1500 
 18 C        5.0220     2.8970    -1.4600 C.ar  1 <1>  -0.1500 
 19 C        6.0920     3.3710    -0.6990 C.ar  1 <1>  -0.1500 
 20 H       -0.0750    -3.6250    -0.2270 H     1 <1>   0.0800 
 21 H        1.2100    -3.6490     0.9720 H     1 <1>   0.0800 
 22 H        1.8140    -1.2480     2.4400 H     1 <1>   0.0800 
 23 H        0.8900     0.2120     2.1140 H     1 <1>   0.0800 
 24 H        1.1040    -1.8920    -1.5150 H     1 <1>   0.0800 
 25 H        2.1310    -3.2890    -1.3260 H     1 <1>   0.0800 
 26 H        3.0210     0.2350     0.8380 H     1 <1>   0.0800 
 27 H        1.6410     0.2170    -0.2250 H     1 <1>   0.0800 
 28 H        3.2270    -2.1630     0.5380 H     1 <1>   0.4500 
 29 H        3.4410    -0.6130    -1.9110 H     1 <1>   0.0800 
 30 H        4.1370    -2.1890    -1.6410 H     1 <1>   0.0800 
 31 H        7.3080    -1.6620     1.8650 H     1 <1>   0.1500 
 32 H        3.8270     1.2650    -1.9880 H     1 <1>   0.1500 
 33 H        5.6460    -4.7730     0.9920 H     1 <1>   0.0800 
 34 H        6.1940    -3.6170     2.1980 H     1 <1>   0.0800 
 35 H        7.0620    -3.7830     0.6620 H     1 <1>   0.0800 
 36 H        7.9320     0.6740     1.6480 H     1 <1>   0.1500 
 37 H        7.5950     2.8780     0.7120 H     1 <1>   0.1500 
 38 H        4.5070     3.5840    -2.1100 H     1 <1>   0.1500 
 39 H        6.3750     4.4080    -0.7760 H     1 <1>   0.1500 
@<TRIPOS>BOND
  1   1   2  1   
  2   1   3  1   
  3   2   4  1   
  4   2  20  1   
  5   2  21  1   
  6   3   5  1   
  7   3  22  1   
  8   3  23  1   
  9   4   6  1   
 10   4  24  1   
 11   4  25  1   
 12   5   6  1   
 13   5  26  1   
 14   5  27  1   
 15   6   7  1   
 16   6  28  1   
 17   7   8  1   
 18   7  29  1   
 19   7  30  1   
 20   8   9  ar  
 21   8  10  ar  
 22   9  11  1   
 23   9  12  ar  
 24  10  13  ar  
 25  10  14  ar  
 26  11  15  1   
 27  12  16  ar  
 28  12  31  1   
 29  13  16  ar  
 30  13  17  ar  
 31  14  18  ar  
 32  14  32  1   
 33  15  33  1   
 34  15  34  1   
 35  15  35  1   
 36  16  36  1   
 37  17  19  ar  
 38  17  37  1   
 39  18  19  ar  
 40  18  38  1   
 41  19  39  1   
@<TRIPOS>SUBSTRUCTURE
  1 ****   8 GROUP 4 **** **** 0

# MOE 2024.06 (io_trps.svl 2023.06)
