@<TRIPOS>MOLECULE
NONAME
57 61 1 0 0 
SMALL
USER_CHARGES


@<TRIPOS>ATOM
  1 O       -0.3570    -0.5360    -0.8720 O.2   1 <1>  -0.5700 
  2 C       -0.7160    -1.2230     0.0660 C.2   1 <1>   0.6900 
  3 N       -1.9680    -1.0720     0.5950 N.am  1 <1>  -0.6600 
  4 N        0.1100    -2.1410     0.6240 N.am  1 <1>  -0.7300 
  5 C       -2.7660    -2.2210     1.1170 C.3   1 <1>   0.1400 
  6 C       -2.8080     0.1080     0.2270 C.3   1 <1>   0.1400 
  7 C        1.4900    -2.4910     0.2480 C.3   1 <1>   0.3000 
  8 C       -3.8750    -2.6210     0.1280 C.3   1 <1>   0.1400 
  9 C       -3.8860    -0.2930    -0.7880 C.3   1 <1>   0.1400 
 10 C        1.5570    -3.0010    -1.2040 C.3   1 <1>  -0.1600 
 11 C        1.9510    -3.6190     1.1910 C.3   1 <1>  -0.1600 
 12 C        2.4310    -1.2830     0.4240 C.3   1 <1>  -0.1600 
 13 N       -4.7030    -1.4410    -0.2780 N.am  1 <1>  -0.6600 
 14 C        3.0020    -3.4110    -1.5530 C.3   1 <1>  -0.0800 
 15 C        3.3960    -4.0410     0.8590 C.3   1 <1>  -0.0800 
 16 C        3.8780    -1.6890     0.0800 C.3   1 <1>  -0.0800 
 17 C       -6.0810    -1.3960    -0.2720 C.2   1 <1>   0.5690 
 18 C        3.4550    -4.5320    -0.5990 C.3   1 <1>  -0.1600 
 19 C        3.9280    -2.1910    -1.3760 C.3   1 <1>  -0.1600 
 20 C        4.3250    -2.8230     1.0210 C.3   1 <1>  -0.1600 
 21 O       -6.6580    -0.3640    -0.5430 O.2   1 <1>  -0.5700 
 22 C       -6.9400    -2.6260     0.1210 C.3   1 <1>   0.2610 
 23 O       -6.5590    -3.8140    -0.5410 O.3   1 <1>  -0.5600 
 24 C       -8.4430    -2.4920    -0.1380 C.3   1 <1>  -0.1600 
 25 C       -7.6590    -4.5650    -0.9540 C.3   1 <1>   0.1200 
 26 C       -8.8810    -3.9300    -0.3100 C.3   1 <1>  -0.1600 
 27 H       -0.1530    -2.4530     1.5510 H     1 <1>   0.3700 
 28 H       -3.2130    -1.9390     2.0540 H     1 <1>   0.0800 
 29 H       -2.1370    -3.0740     1.2920 H     1 <1>   0.0800 
 30 H       -2.1960     0.8890    -0.1910 H     1 <1>   0.0800 
 31 H       -3.2790     0.4990     1.1110 H     1 <1>   0.0800 
 32 H       -4.4800    -3.3770     0.5910 H     1 <1>   0.0800 
 33 H       -3.4280    -3.0510    -0.7520 H     1 <1>   0.0800 
 34 H       -3.4100    -0.5800    -1.7100 H     1 <1>   0.0800 
 35 H       -4.5090     0.5600    -0.9930 H     1 <1>   0.0800 
 36 H        0.9000    -3.8420    -1.3270 H     1 <1>   0.0800 
 37 H        1.2430    -2.2280    -1.8820 H     1 <1>   0.0800 
 38 H        1.3010    -4.4700     1.0840 H     1 <1>   0.0800 
 39 H        1.9070    -3.2840     2.2110 H     1 <1>   0.0800 
 40 H        2.3840    -0.9260     1.4370 H     1 <1>   0.0800 
 41 H        2.1280    -0.4840    -0.2270 H     1 <1>   0.0800 
 42 H        3.0450    -3.7570    -2.5710 H     1 <1>   0.0800 
 43 H        3.7090    -4.8290     1.5220 H     1 <1>   0.0800 
 44 H        4.5300    -0.8390     0.1950 H     1 <1>   0.0800 
 45 H        4.4600    -4.8320    -0.8420 H     1 <1>   0.0800 
 46 H        2.8200    -5.3930    -0.7220 H     1 <1>   0.0800 
 47 H        3.6210    -1.4040    -2.0430 H     1 <1>   0.0800 
 48 H        4.9380    -2.4610    -1.6340 H     1 <1>   0.0800 
 49 H        4.3040    -2.4790     2.0410 H     1 <1>   0.0800 
 50 H        5.3380    -3.1050     0.7940 H     1 <1>   0.0800 
 51 H       -6.7920    -2.8060     1.1700 H     1 <1>   0.0800 
 52 H       -8.6070    -1.9470    -1.0520 H     1 <1>   0.0800 
 53 H       -8.9460    -1.9890     0.6670 H     1 <1>   0.0800 
 54 H       -7.5210    -5.5900    -0.6560 H     1 <1>   0.0800 
 55 H       -7.7130    -4.4970    -2.0270 H     1 <1>   0.0800 
 56 H       -9.7590    -4.0270    -0.9240 H     1 <1>   0.0800 
 57 H       -9.0620    -4.3890     0.6470 H     1 <1>   0.0800 
@<TRIPOS>BOND
  1   1   2  2   
  2   2   3  am  
  3   2   4  am  
  4   3   5  1   
  5   3   6  1   
  6   4   7  1   
  7   4  27  1   
  8   5   8  1   
  9   5  28  1   
 10   5  29  1   
 11   6   9  1   
 12   6  30  1   
 13   6  31  1   
 14   7  10  1   
 15   7  11  1   
 16   7  12  1   
 17   8  13  1   
 18   8  32  1   
 19   8  33  1   
 20   9  13  1   
 21   9  34  1   
 22   9  35  1   
 23  10  14  1   
 24  10  36  1   
 25  10  37  1   
 26  11  15  1   
 27  11  38  1   
 28  11  39  1   
 29  12  16  1   
 30  12  40  1   
 31  12  41  1   
 32  13  17  am  
 33  14  18  1   
 34  14  19  1   
 35  14  42  1   
 36  15  18  1   
 37  15  20  1   
 38  15  43  1   
 39  16  19  1   
 40  16  20  1   
 41  16  44  1   
 42  17  21  2   
 43  17  22  1   
 44  18  45  1   
 45  18  46  1   
 46  19  47  1   
 47  19  48  1   
 48  20  49  1   
 49  20  50  1   
 50  22  23  1   
 51  22  24  1   
 52  22  51  1   
 53  23  25  1   
 54  24  26  1   
 55  24  52  1   
 56  24  53  1   
 57  25  26  1   
 58  25  54  1   
 59  25  55  1   
 60  26  56  1   
 61  26  57  1   
@<TRIPOS>SUBSTRUCTURE
  1 ****   2 GROUP 4 **** **** 0

# MOE 2024.06 (io_trps.svl 2023.06)
