@<TRIPOS>MOLECULE
NONAME
47 49 1 0 0 
SMALL
USER_CHARGES


@<TRIPOS>ATOM
  1 O      -11.9290     1.1440     1.7700 O.3   1 <1>  -0.5600 
  2 C      -11.0350     0.5280     0.8790 C.3   1 <1>   0.1200 
  3 C      -12.9810     1.8270     1.1480 C.3   1 <1>   0.1200 
  4 C      -10.5020     1.5220    -0.1800 C.3   1 <1>   0.3430 
  5 C      -12.4490     2.9790     0.2640 C.3   1 <1>   0.3430 
  6 N      -10.9550     2.9190     0.1080 N.4   1 <1>  -0.9590 
  7 C      -10.3800     3.8990    -0.8640 C.3   1 <1>   0.3430 
  8 C      -10.6070     5.3470    -0.4190 C.3   1 <1>   0.1200 
  9 O       -9.6560     6.1600    -1.0670 O.3   1 <1>  -0.3630 
 10 C       -8.6920     6.7520    -0.3120 C.ar  1 <1>   0.0820 
 11 C       -7.8650     6.0490     0.5760 C.ar  1 <1>   0.0820 
 12 C       -8.5410     8.1200    -0.4590 C.ar  1 <1>  -0.1500 
 13 O       -7.9770     4.6940     0.6750 O.3   1 <1>  -0.3630 
 14 C       -6.9300     6.7510     1.3310 C.ar  1 <1>  -0.1500 
 15 C       -7.5970     8.8050     0.2860 C.ar  1 <1>  -0.1500 
 16 C       -6.8110     3.9260     0.8920 C.3   1 <1>   0.2630 
 17 C       -6.7970     8.1210     1.1840 C.ar  1 <1>  -0.1500 
 18 C       -7.0720     2.5050     0.4160 C.ar  1 <1>  -0.1440 
 19 C       -7.0670     2.2190    -0.9410 C.ar  1 <1>  -0.1500 
 20 C       -7.2830     1.4800     1.3270 C.ar  1 <1>  -0.1500 
 21 C       -7.2630     0.9210    -1.3840 C.ar  1 <1>  -0.1500 
 22 C       -7.4750     0.1820     0.8850 C.ar  1 <1>  -0.1500 
 23 C       -7.4640    -0.0990    -0.4700 C.ar  1 <1>  -0.1500 
 24 H      -11.5340    -0.2990     0.4050 H     1 <1>   0.0800 
 25 H      -10.2180     0.1380     1.4600 H     1 <1>   0.0800 
 26 H      -13.6250     2.2170     1.9180 H     1 <1>   0.0800 
 27 H      -13.5470     1.1250     0.5600 H     1 <1>   0.0800 
 28 H      -10.8460     1.2160    -1.1540 H     1 <1>   0.0800 
 29 H       -9.4280     1.4800    -0.1890 H     1 <1>   0.0800 
 30 H      -12.7310     3.9180     0.7110 H     1 <1>   0.0800 
 31 H      -12.9250     2.9240    -0.7010 H     1 <1>   0.0800 
 32 H      -10.5590     3.1190     1.0400 H     1 <1>   0.4500 
 33 H      -10.8110     3.7530    -1.8400 H     1 <1>   0.0800 
 34 H       -9.3180     3.7340    -0.9350 H     1 <1>   0.0800 
 35 H      -10.4910     5.4580     0.6460 H     1 <1>   0.0800 
 36 H      -11.5820     5.6920    -0.7140 H     1 <1>   0.0800 
 37 H       -9.1650     8.6500    -1.1570 H     1 <1>   0.1500 
 38 H       -6.2990     6.2500     2.0410 H     1 <1>   0.1500 
 39 H       -7.4870     9.8700     0.1670 H     1 <1>   0.1500 
 40 H       -6.5770     3.9490     1.9420 H     1 <1>   0.0800 
 41 H       -6.0010     4.3590     0.3300 H     1 <1>   0.0800 
 42 H       -6.0690     8.6580     1.7680 H     1 <1>   0.1500 
 43 H       -6.8950     3.0050    -1.6580 H     1 <1>   0.1500 
 44 H       -7.2850     1.6830     2.3850 H     1 <1>   0.1500 
 45 H       -7.2410     0.7030    -2.4390 H     1 <1>   0.1500 
 46 H       -7.6180    -0.6130     1.5990 H     1 <1>   0.1500 
 47 H       -7.5980    -1.1120    -0.8130 H     1 <1>   0.1500 
@<TRIPOS>BOND
  1   1   2  1   
  2   1   3  1   
  3   2   4  1   
  4   2  24  1   
  5   2  25  1   
  6   3   5  1   
  7   3  26  1   
  8   3  27  1   
  9   4   6  1   
 10   4  28  1   
 11   4  29  1   
 12   5   6  1   
 13   5  30  1   
 14   5  31  1   
 15   6   7  1   
 16   6  32  1   
 17   7   8  1   
 18   7  33  1   
 19   7  34  1   
 20   8   9  1   
 21   8  35  1   
 22   8  36  1   
 23   9  10  1   
 24  10  11  ar  
 25  10  12  ar  
 26  11  13  1   
 27  11  14  ar  
 28  12  15  ar  
 29  12  37  1   
 30  13  16  1   
 31  14  17  ar  
 32  14  38  1   
 33  15  17  ar  
 34  15  39  1   
 35  16  18  1   
 36  16  40  1   
 37  16  41  1   
 38  17  42  1   
 39  18  19  ar  
 40  18  20  ar  
 41  19  21  ar  
 42  19  43  1   
 43  20  22  ar  
 44  20  44  1   
 45  21  23  ar  
 46  21  45  1   
 47  22  23  ar  
 48  22  46  1   
 49  23  47  1   
@<TRIPOS>SUBSTRUCTURE
  1 ****  13 GROUP 4 **** **** 0

# MOE 2024.06 (io_trps.svl 2023.06)
