@<TRIPOS>MOLECULE
NONAME
44 45 1 0 0 
SMALL
USER_CHARGES


@<TRIPOS>ATOM
  1 CL       0.3720    -0.2110     1.2900 Cl    1 <1>  -0.1770 
  2 C        1.9710     0.4270     0.9980 C.ar  1 <1>   0.1770 
  3 C        3.0690    -0.4000     1.1430 C.ar  1 <1>  -0.1500 
  4 C        2.1130     1.7520     0.6260 C.ar  1 <1>  -0.1500 
  5 C        4.3340     0.1120     0.9100 C.ar  1 <1>  -0.1500 
  6 C        3.3800     2.2610     0.3940 C.ar  1 <1>  -0.1500 
  7 C        4.4980     1.4390     0.5350 C.ar  1 <1>   0.0830 
  8 O        5.7710     1.8560     0.3260 O.3   1 <1>  -0.3630 
  9 C        6.0510     3.1730    -0.1110 C.3   1 <1>   0.1200 
 10 C        7.5680     3.3410    -0.2590 C.3   1 <1>   0.2000 
 11 O        8.1710     2.9610     0.9360 O.3   1 <1>  -0.6800 
 12 C        7.9540     4.7930    -0.6370 C.3   1 <1>   0.1100 
 13 N        9.3930     5.1060    -0.4820 N.3   1 <1>  -0.8100 
 14 C       10.2990     4.2610    -1.2980 C.3   1 <1>   0.1100 
 15 C        9.7030     6.5430    -0.6470 C.3   1 <1>   0.1100 
 16 C       11.7890     4.5870    -1.0300 C.3   1 <1>   0.3430 
 17 C       11.1780     6.8510    -0.2850 C.3   1 <1>   0.3430 
 18 N       11.9200     5.5940     0.0720 N.4   1 <1>  -0.9590 
 19 C       13.3150     5.7850     0.5330 C.3   1 <1>   0.3430 
 20 C       13.3190     6.5020     1.8780 C.3   1 <1>  -0.2400 
 21 H        2.9310    -1.4260     1.4330 H     1 <1>   0.1500 
 22 H        1.2410     2.3710     0.5220 H     1 <1>   0.1500 
 23 H        5.2000    -0.5160     1.0170 H     1 <1>   0.1500 
 24 H        3.4720     3.2920     0.1080 H     1 <1>   0.1500 
 25 H        5.6700     3.8650     0.6190 H     1 <1>   0.0800 
 26 H        5.5620     3.3290    -1.0570 H     1 <1>   0.0800 
 27 H        7.9120     2.6690    -1.0250 H     1 <1>   0.0800 
 28 H        7.7100     2.1630     1.2720 H     1 <1>   0.4000 
 29 H        7.3930     5.4560    -0.0010 H     1 <1>   0.0800 
 30 H        7.6500     4.9840    -1.6520 H     1 <1>   0.0800 
 31 H       10.0840     4.3900    -2.3450 H     1 <1>   0.0800 
 32 H       10.1370     3.2250    -1.0550 H     1 <1>   0.0800 
 33 H        9.0620     7.1230    -0.0050 H     1 <1>   0.0800 
 34 H        9.5090     6.8460    -1.6620 H     1 <1>   0.0800 
 35 H       12.2400     4.9670    -1.9320 H     1 <1>   0.0800 
 36 H       12.3000     3.6770    -0.7620 H     1 <1>   0.0800 
 37 H       11.1900     7.5340     0.5480 H     1 <1>   0.0800 
 38 H       11.6550     7.3410    -1.1180 H     1 <1>   0.0800 
 39 H       11.3450     5.1840     0.8290 H     1 <1>   0.4500 
 40 H       13.8740     6.3530    -0.1940 H     1 <1>   0.0800 
 41 H       13.7900     4.8240     0.6500 H     1 <1>   0.0800 
 42 H       12.9500     7.5080     1.7890 H     1 <1>   0.0800 
 43 H       14.3290     6.5570     2.2440 H     1 <1>   0.0800 
 44 H       12.7330     5.9620     2.5990 H     1 <1>   0.0800 
@<TRIPOS>BOND
  1   1   2  1   
  2   2   3  ar  
  3   2   4  ar  
  4   3   5  ar  
  5   3  21  1   
  6   4   6  ar  
  7   4  22  1   
  8   5   7  ar  
  9   5  23  1   
 10   6   7  ar  
 11   6  24  1   
 12   7   8  1   
 13   8   9  1   
 14   9  10  1   
 15   9  25  1   
 16   9  26  1   
 17  10  11  1   
 18  10  12  1   
 19  10  27  1   
 20  11  28  1   
 21  12  13  1   
 22  12  29  1   
 23  12  30  1   
 24  13  14  1   
 25  13  15  1   
 26  14  16  1   
 27  14  31  1   
 28  14  32  1   
 29  15  17  1   
 30  15  33  1   
 31  15  34  1   
 32  16  18  1   
 33  16  35  1   
 34  16  36  1   
 35  17  18  1   
 36  17  37  1   
 37  17  38  1   
 38  18  19  1   
 39  18  39  1   
 40  19  20  1   
 41  19  40  1   
 42  19  41  1   
 43  20  42  1   
 44  20  43  1   
 45  20  44  1   
@<TRIPOS>SUBSTRUCTURE
  1 ****  10 GROUP 4 **** **** 0

# MOE 2024.06 (io_trps.svl 2023.06)
