@<TRIPOS>MOLECULE
NONAME
46 46 1 0 0 
SMALL
USER_CHARGES


@<TRIPOS>ATOM
  1 O       -1.8360     0.9010     2.4510 O.2   1 <1>  -0.5700 
  2 C       -1.1960     1.3230     1.5210 C.2   1 <1>   0.5690 
  3 N       -1.6890     1.4300     0.2520 N.am  1 <1>  -0.5470 
  4 C        0.2210     1.7770     1.7600 C.3   1 <1>  -0.1790 
  5 C       -2.9500     1.0630    -0.2320 C.ar  1 <1>   0.1170 
  6 C       -3.6330    -0.0410     0.2620 C.ar  1 <1>  -0.1500 
  7 C       -3.5460     1.8130    -1.2380 C.ar  1 <1>  -0.1500 
  8 C       -4.8890    -0.3710    -0.2090 C.ar  1 <1>  -0.1500 
  9 C       -4.8050     1.4920    -1.7120 C.ar  1 <1>  -0.1500 
 10 C       -5.4930     0.4070    -1.1860 C.ar  1 <1>  -0.1430 
 11 C       -6.9000     0.0860    -1.6430 C.3   1 <1>   0.4860 
 12 N       -7.8130     0.4470    -0.5130 N.4   1 <1>  -0.9590 
 13 C       -9.1480    -0.2450    -0.6370 C.3   1 <1>   0.3430 
 14 C       -7.8900     1.9330    -0.3810 C.3   1 <1>   0.3430 
 15 C      -10.0590    -0.1180     0.6190 C.3   1 <1>   0.3430 
 16 C       -7.6400     2.3040     1.0740 C.3   1 <1>  -0.2400 
 17 N      -11.4010    -0.8040     0.5010 N.4   1 <1>  -0.9590 
 18 C      -12.2640    -0.4590     1.6830 C.3   1 <1>   0.2630 
 19 C      -11.3090    -2.3010     0.3960 C.3   1 <1>   0.2630 
 20 H       -1.0740     1.8870    -0.4190 H     1 <1>   0.3700 
 21 H        0.3030     2.8320     1.5740 H     1 <1>   0.0800 
 22 H        0.8920     1.2420     1.1160 H     1 <1>   0.0800 
 23 H        0.4950     1.5840     2.7820 H     1 <1>   0.0800 
 24 H       -3.1730    -0.6470     1.0240 H     1 <1>   0.1500 
 25 H       -3.0220     2.6600    -1.6440 H     1 <1>   0.1500 
 26 H       -5.3730    -1.2400     0.2020 H     1 <1>   0.1500 
 27 H       -5.2340     2.1020    -2.4890 H     1 <1>   0.1500 
 28 H       -6.9630    -0.9680    -1.8630 H     1 <1>   0.0800 
 29 H       -7.1470     0.6430    -2.5330 H     1 <1>   0.0800 
 30 H       -7.2920     0.1220     0.3170 H     1 <1>   0.4500 
 31 H       -8.9750    -1.2930    -0.8210 H     1 <1>   0.0800 
 32 H       -9.6710     0.1610    -1.4870 H     1 <1>   0.0800 
 33 H       -8.8500     2.3010    -0.7080 H     1 <1>   0.0800 
 34 H       -7.1300     2.4040    -0.9860 H     1 <1>   0.0800 
 35 H      -10.2270     0.9300     0.8070 H     1 <1>   0.0800 
 36 H       -9.5360    -0.5260     1.4690 H     1 <1>   0.0800 
 37 H       -8.3760     1.8870     1.7340 H     1 <1>   0.0800 
 38 H       -7.6780     3.3750     1.1740 H     1 <1>   0.0800 
 39 H       -6.6560     1.9890     1.3800 H     1 <1>   0.0800 
 40 H      -11.9080    -0.4560    -0.3330 H     1 <1>   0.4500 
 41 H      -11.8130    -0.8110     2.5970 H     1 <1>   0.0800 
 42 H      -13.2360    -0.9170     1.5840 H     1 <1>   0.0800 
 43 H      -12.4000     0.6090     1.7550 H     1 <1>   0.0800 
 44 H      -10.8150    -2.7120     1.2630 H     1 <1>   0.0800 
 45 H      -10.7620    -2.5920    -0.4860 H     1 <1>   0.0800 
 46 H      -12.2970    -2.7310     0.3350 H     1 <1>   0.0800 
@<TRIPOS>BOND
  1   1   2  2   
  2   2   3  am  
  3   2   4  1   
  4   3   5  1   
  5   3  20  1   
  6   4  21  1   
  7   4  22  1   
  8   4  23  1   
  9   5   6  ar  
 10   5   7  ar  
 11   6   8  ar  
 12   6  24  1   
 13   7   9  ar  
 14   7  25  1   
 15   8  10  ar  
 16   8  26  1   
 17   9  10  ar  
 18   9  27  1   
 19  10  11  1   
 20  11  12  1   
 21  11  28  1   
 22  11  29  1   
 23  12  13  1   
 24  12  14  1   
 25  12  30  1   
 26  13  15  1   
 27  13  31  1   
 28  13  32  1   
 29  14  16  1   
 30  14  33  1   
 31  14  34  1   
 32  15  17  1   
 33  15  35  1   
 34  15  36  1   
 35  16  37  1   
 36  16  38  1   
 37  16  39  1   
 38  17  18  1   
 39  17  19  1   
 40  17  40  1   
 41  18  41  1   
 42  18  42  1   
 43  18  43  1   
 44  19  44  1   
 45  19  45  1   
 46  19  46  1   
@<TRIPOS>SUBSTRUCTURE
  1 ****  10 GROUP 4 **** **** 0

# MOE 2024.06 (io_trps.svl 2023.06)
