@<TRIPOS>MOLECULE
NONAME
46 49 1 0 0 
SMALL
USER_CHARGES


@<TRIPOS>ATOM
  1 S        0.3170     0.0340    -0.8710 S.3   1 <1>  -0.3710 
  2 C        1.7180     1.0290    -0.4000 C.2   1 <1>   0.6410 
  3 C        0.9600    -1.6160    -1.4030 C.3   1 <1>  -0.0100 
  4 N        2.9300     0.4390    -0.4900 N.pl3 1 <1>  -0.5500 
  5 N        1.5130     2.2200    -0.0060 N.2   1 <1>  -0.6610 
  6 C        4.0470     1.1360    -0.1780 C.2   1 <1>   0.2000 
  7 C        2.6110     2.9550     0.3510 C.2   1 <1>   0.7670 
  8 N        5.2480     0.4830    -0.2550 N.pl3 1 <1>  -0.6000 
  9 C        3.9510     2.4550     0.2120 C.2   1 <1>   0.0140 
 10 O        2.3550     4.0500     0.8320 O.2   1 <1>  -0.5700 
 11 C        6.3930     1.0880     0.1980 C.2   1 <1>  -0.0380 
 12 C        5.1940     3.1960     0.3890 C.2   1 <1>   0.0000 
 13 C        6.3910     2.3940     0.6110 C.2   1 <1>   0.0140 
 14 C        7.6360     0.2090     0.2420 C.3   1 <1>  -0.0220 
 15 C        5.3230     4.5480     0.1580 C.2   1 <1>   0.0000 
 16 C        7.5520     2.9450     1.2680 C.2   1 <1>   0.4950 
 17 C        8.9320     1.0430     0.2380 C.3   1 <1>   0.0000 
 18 C        4.7370     5.5900     0.9570 C.2   1 <1>  -0.1500 
 19 C        6.1360     5.0310    -0.9280 C.2   1 <1>  -0.1500 
 20 O        7.5900     4.0030     1.8470 O.2   1 <1>  -0.5700 
 21 C        8.8340     2.1270     1.3270 C.3   1 <1>  -0.0990 
 22 C        9.1460     1.6950    -1.1420 C.3   1 <1>  -0.2400 
 23 C       10.1350     0.1320     0.5290 C.3   1 <1>  -0.2400 
 24 C        4.8840     6.9030     0.6680 C.2   1 <1>  -0.0500 
 25 C        6.2810     6.3470    -1.2060 C.2   1 <1>  -0.0500 
 26 N        5.6400     7.3070    -0.4300 N.pl3 1 <1>  -0.6000 
 27 H        0.1120    -2.2100    -1.6960 H     1 <1>   0.0800 
 28 H        1.4640    -2.0670    -0.5670 H     1 <1>   0.0800 
 29 H        1.6200    -1.4670    -2.2390 H     1 <1>   0.0800 
 30 H        2.9690    -0.5260    -0.7950 H     1 <1>   0.4000 
 31 H        5.2850    -0.4870    -0.5780 H     1 <1>   0.4000 
 32 H        7.6440    -0.4550    -0.6050 H     1 <1>   0.0800 
 33 H        7.5900    -0.3940     1.1320 H     1 <1>   0.0800 
 34 H        4.1770     5.2870     1.8210 H     1 <1>   0.1500 
 35 H        6.6300     4.2920    -1.5290 H     1 <1>   0.1500 
 36 H        8.8730     1.6710     2.3000 H     1 <1>   0.0800 
 37 H        9.6720     2.7970     1.2530 H     1 <1>   0.0800 
 38 H        8.3290     2.3410    -1.4070 H     1 <1>   0.0800 
 39 H        9.2360     0.9430    -1.9050 H     1 <1>   0.0800 
 40 H       10.0480     2.2820    -1.1450 H     1 <1>   0.0800 
 41 H       10.0330    -0.3460     1.4880 H     1 <1>   0.0800 
 42 H       11.0470     0.7030     0.5350 H     1 <1>   0.0800 
 43 H       10.2230    -0.6340    -0.2220 H     1 <1>   0.0800 
 44 H        4.4380     7.6780     1.2690 H     1 <1>   0.1500 
 45 H        6.8870     6.7040    -2.0220 H     1 <1>   0.1500 
 46 H        5.7580     8.3060    -0.6340 H     1 <1>   0.4000 
@<TRIPOS>BOND
  1   1   2  1   
  2   1   3  1   
  3   2   4  1   
  4   2   5  2   
  5   3  27  1   
  6   3  28  1   
  7   3  29  1   
  8   4   6  1   
  9   4  30  1   
 10   5   7  1   
 11   6   8  1   
 12   6   9  2   
 13   7   9  1   
 14   7  10  2   
 15   8  11  1   
 16   8  31  1   
 17   9  12  1   
 18  11  13  2   
 19  11  14  1   
 20  12  13  1   
 21  12  15  2   
 22  13  16  1   
 23  14  17  1   
 24  14  32  1   
 25  14  33  1   
 26  15  18  1   
 27  15  19  1   
 28  16  20  2   
 29  16  21  1   
 30  17  21  1   
 31  17  22  1   
 32  17  23  1   
 33  18  24  2   
 34  18  34  1   
 35  19  25  2   
 36  19  35  1   
 37  21  36  1   
 38  21  37  1   
 39  22  38  1   
 40  22  39  1   
 41  22  40  1   
 42  23  41  1   
 43  23  42  1   
 44  23  43  1   
 45  24  26  1   
 46  24  44  1   
 47  25  26  1   
 48  25  45  1   
 49  26  46  1   
@<TRIPOS>SUBSTRUCTURE
  1 ****  12 GROUP 4 **** **** 0

# MOE 2024.06 (io_trps.svl 2023.06)
