@<TRIPOS>MOLECULE
NONAME
25 26 1 0 0 
SMALL
USER_CHARGES


@<TRIPOS>ATOM
  1 CL       0.0320     0.0570    -0.4960 Cl    1 <1>  -0.1770 
  2 C       -0.0040    -1.6470    -0.0760 C.ar  1 <1>   0.1770 
  3 C       -1.1950    -2.2730     0.2450 C.ar  1 <1>   0.0830 
  4 C        1.1900    -2.3790    -0.0670 C.ar  1 <1>   0.2270 
  5 O       -2.3670    -1.5970     0.2470 O.3   1 <1>  -0.5320 
  6 C       -1.2150    -3.6340     0.5790 C.ar  1 <1>  -0.1500 
  7 N        2.4730    -2.0000    -0.3430 N.2   1 <1>  -0.5650 
  8 C        1.1550    -3.7230     0.2660 C.ar  1 <1>  -0.1520 
  9 C       -0.0460    -4.3640     0.5910 C.ar  1 <1>  -0.1500 
 10 C        3.1710    -3.0670    -0.1830 C.2   1 <1>   0.0070 
 11 N        2.4440    -4.1570     0.1890 N.pl3 1 <1>   0.0480 
 12 C        4.6720    -3.0980    -0.3950 C.3   1 <1>  -0.0600 
 13 C        2.9170    -5.5320     0.4640 C.3   1 <1>   0.0960 
 14 C        2.7790    -6.4090    -0.7840 C.3   1 <1>  -0.2400 
 15 H       -3.1290    -2.1500     0.4890 H     1 <1>   0.4500 
 16 H       -2.1460    -4.1100     0.8260 H     1 <1>   0.1500 
 17 H       -0.0500    -5.4090     0.8440 H     1 <1>   0.1500 
 18 H        5.0100    -2.1330    -0.7270 H     1 <1>   0.0800 
 19 H        4.9260    -3.8260    -1.1430 H     1 <1>   0.0800 
 20 H        5.1710    -3.3380     0.5260 H     1 <1>   0.0800 
 21 H        2.3360    -5.9410     1.2710 H     1 <1>   0.0800 
 22 H        3.9450    -5.4940     0.7770 H     1 <1>   0.0800 
 23 H        1.7490    -6.4640    -1.0900 H     1 <1>   0.0800 
 24 H        3.1260    -7.4040    -0.5710 H     1 <1>   0.0800 
 25 H        3.3670    -6.0080    -1.5910 H     1 <1>   0.0800 
@<TRIPOS>BOND
  1   1   2  1   
  2   2   3  ar  
  3   2   4  ar  
  4   3   5  1   
  5   3   6  ar  
  6   4   7  1   
  7   4   8  ar  
  8   5  15  1   
  9   6   9  ar  
 10   6  16  1   
 11   7  10  2   
 12   8   9  ar  
 13   8  11  1   
 14   9  17  1   
 15  10  11  1   
 16  10  12  1   
 17  11  13  1   
 18  12  18  1   
 19  12  19  1   
 20  12  20  1   
 21  13  14  1   
 22  13  21  1   
 23  13  22  1   
 24  14  23  1   
 25  14  24  1   
 26  14  25  1   
@<TRIPOS>SUBSTRUCTURE
  1 ****   8 GROUP 4 **** **** 0

# MOE 2024.06 (io_trps.svl 2023.06)
