@<TRIPOS>MOLECULE
NONAME
60 62 1 0 0 
SMALL
USER_CHARGES


@<TRIPOS>ATOM
  1 O       -1.8710    -0.9830     0.9430 O.3   1 <1>  -0.3630 
  2 C       -2.4940    -0.1550     0.0670 C.ar  1 <1>   0.0830 
  3 C       -0.9990    -1.9510     0.3990 C.3   1 <1>   0.0400 
  4 C       -1.8130     0.7040    -0.8030 C.ar  1 <1>   0.0830 
  5 C       -3.8770    -0.1840     0.0550 C.ar  1 <1>  -0.1500 
  6 O       -0.4640     0.8290    -0.8120 O.3   1 <1>  -0.3630 
  7 C       -2.5310     1.4750    -1.7010 C.ar  1 <1>  -0.1500 
  8 C       -4.5960     0.6090    -0.8280 C.ar  1 <1>  -0.1430 
  9 C        0.1140     1.4270     0.3270 C.3   1 <1>   0.0400 
 10 C       -3.9140     1.4300    -1.7150 C.ar  1 <1>  -0.1500 
 11 C       -6.1140     0.5720    -0.8100 C.3   1 <1>  -0.0170 
 12 C       -6.6480     1.3580     0.4050 C.3   1 <1>   0.4230 
 13 N       -8.0910     1.0980     0.6830 N.4   1 <1>  -0.9590 
 14 C       -6.4560     2.8660     0.2480 C.3   1 <1>  -0.2400 
 15 C       -8.3060    -0.2680     1.2930 C.3   1 <1>   0.3430 
 16 C       -9.0090     1.3030    -0.5030 C.3   1 <1>   0.3430 
 17 C       -9.7740    -0.5130     1.6980 C.3   1 <1>   0.2090 
 18 C      -10.4960     1.0730    -0.1600 C.3   1 <1>   0.2090 
 19 N      -10.7060    -0.2070     0.5760 N.pl3 1 <1>  -0.8380 
 20 C      -11.2470    -1.2920    -0.1150 C.ar  1 <1>   0.1000 
 21 C      -12.4960    -1.8240     0.2230 C.ar  1 <1>  -0.1430 
 22 C      -10.5190    -1.8700    -1.1500 C.ar  1 <1>  -0.1500 
 23 C      -12.9830    -2.9330    -0.4660 C.ar  1 <1>  -0.1430 
 24 C      -13.3200    -1.1940     1.3480 C.3   1 <1>  -0.0970 
 25 C      -11.0100    -2.9600    -1.8380 C.ar  1 <1>  -0.1500 
 26 C      -12.2380    -3.4890    -1.4940 C.ar  1 <1>  -0.1500 
 27 C      -14.3250    -3.5720    -0.1290 C.3   1 <1>  -0.0970 
 28 H       -0.7430    -2.6480     1.1770 H     1 <1>   0.0800 
 29 H       -0.1090    -1.4700     0.0370 H     1 <1>   0.0800 
 30 H       -1.5000    -2.4630    -0.4040 H     1 <1>   0.0800 
 31 H       -4.3720    -0.8450     0.7420 H     1 <1>   0.1500 
 32 H       -1.9970     2.1130    -2.3830 H     1 <1>   0.1500 
 33 H        1.1730     1.5100     0.1620 H     1 <1>   0.0800 
 34 H       -0.0760     0.8120     1.1890 H     1 <1>   0.0800 
 35 H       -0.3160     2.4040     0.4620 H     1 <1>   0.0800 
 36 H       -4.4460     2.0440    -2.4210 H     1 <1>   0.1500 
 37 H       -6.4170    -0.4570    -0.7560 H     1 <1>   0.0800 
 38 H       -6.4940     0.9870    -1.7260 H     1 <1>   0.0800 
 39 H       -6.0780     1.0470     1.2670 H     1 <1>   0.0800 
 40 H       -8.3810     1.7790     1.3960 H     1 <1>   0.4500 
 41 H       -6.9230     3.2360    -0.6460 H     1 <1>   0.0800 
 42 H       -5.4040     3.0880     0.1830 H     1 <1>   0.0800 
 43 H       -6.8410     3.3920     1.1030 H     1 <1>   0.0800 
 44 H       -7.6820    -0.3860     2.1630 H     1 <1>   0.0800 
 45 H       -8.0290    -1.0300     0.5840 H     1 <1>   0.0800 
 46 H       -8.7420     0.6150    -1.2870 H     1 <1>   0.0800 
 47 H       -8.8940     2.3010    -0.8910 H     1 <1>   0.0800 
 48 H      -10.0290     0.0990     2.5450 H     1 <1>   0.0800 
 49 H       -9.8960    -1.5420     1.9920 H     1 <1>   0.0800 
 50 H      -11.0760     1.0620    -1.0680 H     1 <1>   0.0800 
 51 H      -10.8600     1.8860     0.4440 H     1 <1>   0.0800 
 52 H       -9.5630    -1.4740    -1.4200 H     1 <1>   0.1500 
 53 H      -13.0590    -0.1640     1.4990 H     1 <1>   0.0800 
 54 H      -13.1510    -1.7300     2.2630 H     1 <1>   0.0800 
 55 H      -14.3690    -1.2180     1.1170 H     1 <1>   0.0800 
 56 H      -10.4430    -3.4010    -2.6390 H     1 <1>   0.1500 
 57 H      -12.6110    -4.3420    -2.0350 H     1 <1>   0.1500 
 58 H      -14.3960    -3.7540     0.9280 H     1 <1>   0.0800 
 59 H      -14.4420    -4.5130    -0.6360 H     1 <1>   0.0800 
 60 H      -15.1260    -2.9220    -0.4310 H     1 <1>   0.0800 
@<TRIPOS>BOND
  1   1   2  1   
  2   1   3  1   
  3   2   4  ar  
  4   2   5  ar  
  5   3  28  1   
  6   3  29  1   
  7   3  30  1   
  8   4   6  1   
  9   4   7  ar  
 10   5   8  ar  
 11   5  31  1   
 12   6   9  1   
 13   7  10  ar  
 14   7  32  1   
 15   8  10  ar  
 16   8  11  1   
 17   9  33  1   
 18   9  34  1   
 19   9  35  1   
 20  10  36  1   
 21  11  12  1   
 22  11  37  1   
 23  11  38  1   
 24  12  13  1   
 25  12  14  1   
 26  12  39  1   
 27  13  15  1   
 28  13  16  1   
 29  13  40  1   
 30  14  41  1   
 31  14  42  1   
 32  14  43  1   
 33  15  17  1   
 34  15  44  1   
 35  15  45  1   
 36  16  18  1   
 37  16  46  1   
 38  16  47  1   
 39  17  19  1   
 40  17  48  1   
 41  17  49  1   
 42  18  19  1   
 43  18  50  1   
 44  18  51  1   
 45  19  20  1   
 46  20  21  ar  
 47  20  22  ar  
 48  21  23  ar  
 49  21  24  1   
 50  22  25  ar  
 51  22  52  1   
 52  23  26  ar  
 53  23  27  1   
 54  24  53  1   
 55  24  54  1   
 56  24  55  1   
 57  25  26  ar  
 58  25  56  1   
 59  26  57  1   
 60  27  58  1   
 61  27  59  1   
 62  27  60  1   
@<TRIPOS>SUBSTRUCTURE
  1 ****  11 GROUP 4 **** **** 0

# MOE 2024.06 (io_trps.svl 2023.06)
