@<TRIPOS>MOLECULE
NONAME
45 47 1 0 0 
SMALL
USER_CHARGES


@<TRIPOS>ATOM
  1 O        0.0210     2.9870     1.5700 O.2   1 <1>  -0.5700 
  2 C        0.1980     2.7380     0.4020 C.2   1 <1>   0.5690 
  3 N       -0.6150     1.9110    -0.3280 N.am  1 <1>  -0.5470 
  4 C        1.3850     3.3970    -0.3160 C.3   1 <1>   0.1710 
  5 C       -1.7150     1.1310     0.0600 C.ar  1 <1>   0.1170 
  6 N        2.6410     2.5950    -0.3820 N.3   1 <1>  -0.8100 
  7 C       -1.8960     0.6760     1.3620 C.ar  1 <1>  -0.1500 
  8 C       -2.6560     0.7760    -0.9000 C.ar  1 <1>  -0.1500 
  9 C        3.1610     2.3310     0.9670 C.3   1 <1>   0.1100 
 10 C        2.4970     1.3670    -1.1710 C.3   1 <1>   0.1100 
 11 C       -2.9870    -0.1060     1.6960 C.ar  1 <1>  -0.1500 
 12 C       -3.7480    -0.0070    -0.5710 C.ar  1 <1>  -0.1500 
 13 C        4.5640     1.7290     0.8530 C.3   1 <1>  -0.1600 
 14 C        3.8800     0.7390    -1.3630 C.3   1 <1>  -0.1600 
 15 C       -3.9150    -0.4490     0.7290 C.ar  1 <1>  -0.1500 
 16 C        4.5810     0.4530    -0.0160 C.3   1 <1>   0.3430 
 17 C        3.7920    -0.6130     0.7000 C.1   1 <1>   0.3570 
 18 C        6.0450     0.0150    -0.2740 C.ar  1 <1>  -0.1440 
 19 N        3.1810    -1.4140     1.2330 N.1   1 <1>  -0.5570 
 20 C        6.5450    -1.2260     0.1210 C.ar  1 <1>  -0.1500 
 21 C        6.9180     0.8820    -0.9290 C.ar  1 <1>  -0.1500 
 22 C        7.8600    -1.5800    -0.1290 C.ar  1 <1>  -0.1500 
 23 C        8.2320     0.5300    -1.1800 C.ar  1 <1>  -0.1500 
 24 C        8.7060    -0.7040    -0.7800 C.ar  1 <1>  -0.1500 
 25 H       -0.3900     1.8520    -1.3180 H     1 <1>   0.3700 
 26 H        1.5990     4.3210     0.1920 H     1 <1>   0.0800 
 27 H        1.0850     3.6550    -1.3140 H     1 <1>   0.0800 
 28 H       -1.1800     0.9280     2.1240 H     1 <1>   0.1500 
 29 H       -2.5400     1.1150    -1.9130 H     1 <1>   0.1500 
 30 H        2.5010     1.6660     1.5010 H     1 <1>   0.0800 
 31 H        3.2190     3.2550     1.5200 H     1 <1>   0.0800 
 32 H        2.0850     1.6040    -2.1370 H     1 <1>   0.0800 
 33 H        1.8340     0.6770    -0.6750 H     1 <1>   0.0800 
 34 H       -3.1110    -0.4470     2.7090 H     1 <1>   0.1500 
 35 H       -4.4700    -0.2730    -1.3240 H     1 <1>   0.1500 
 36 H        4.9370     1.5030     1.8360 H     1 <1>   0.0800 
 37 H        5.2050     2.4810     0.4320 H     1 <1>   0.0800 
 38 H        4.4660     1.4170    -1.9550 H     1 <1>   0.0800 
 39 H        3.7850    -0.1750    -1.9210 H     1 <1>   0.0800 
 40 H       -4.7640    -1.0570     0.9890 H     1 <1>   0.1500 
 41 H        5.9360    -1.9510     0.6330 H     1 <1>   0.1500 
 42 H        6.5870     1.8520    -1.2570 H     1 <1>   0.1500 
 43 H        8.2240    -2.5430     0.1860 H     1 <1>   0.1500 
 44 H        8.8870     1.2170    -1.6880 H     1 <1>   0.1500 
 45 H        9.7270    -0.9810    -0.9740 H     1 <1>   0.1500 
@<TRIPOS>BOND
  1   1   2  2   
  2   2   3  am  
  3   2   4  1   
  4   3   5  1   
  5   3  25  1   
  6   4   6  1   
  7   4  26  1   
  8   4  27  1   
  9   5   7  ar  
 10   5   8  ar  
 11   6   9  1   
 12   6  10  1   
 13   7  11  ar  
 14   7  28  1   
 15   8  12  ar  
 16   8  29  1   
 17   9  13  1   
 18   9  30  1   
 19   9  31  1   
 20  10  14  1   
 21  10  32  1   
 22  10  33  1   
 23  11  15  ar  
 24  11  34  1   
 25  12  15  ar  
 26  12  35  1   
 27  13  16  1   
 28  13  36  1   
 29  13  37  1   
 30  14  16  1   
 31  14  38  1   
 32  14  39  1   
 33  15  40  1   
 34  16  17  1   
 35  16  18  1   
 36  17  19  3   
 37  18  20  ar  
 38  18  21  ar  
 39  20  22  ar  
 40  20  41  1   
 41  21  23  ar  
 42  21  42  1   
 43  22  24  ar  
 44  22  43  1   
 45  23  24  ar  
 46  23  44  1   
 47  24  45  1   
@<TRIPOS>SUBSTRUCTURE
  1 ****  10 GROUP 4 **** **** 0

# MOE 2024.06 (io_trps.svl 2023.06)
