@<TRIPOS>MOLECULE
NONAME
47 48 1 0 0 
SMALL
USER_CHARGES


@<TRIPOS>ATOM
  1 CL      -0.1700     0.8890    -3.2320 Cl    1 <1>  -0.1770 
  2 C       -1.2620     1.4790    -2.0040 C.ar  1 <1>   0.1770 
  3 C       -1.4110     2.8390    -1.8280 C.ar  1 <1>  -0.1500 
  4 C       -1.9540     0.5700    -1.2280 C.ar  1 <1>  -0.1500 
  5 C       -2.2650     3.3290    -0.8480 C.ar  1 <1>   0.1990 
  6 C       -2.8210     1.0400    -0.2560 C.ar  1 <1>  -0.1500 
  7 N       -2.3830     4.7160    -0.6800 N.am  1 <1>  -0.6930 
  8 C       -2.9770     2.4080    -0.0630 C.ar  1 <1>   0.0830 
  9 S       -3.2230     5.6700    -1.8480 S.o2  1 <1>   1.3330 
 10 C       -1.7280     5.4240     0.4690 C.3   1 <1>   0.3370 
 11 O       -3.8470     2.8640     0.8770 O.3   1 <1>  -0.3630 
 12 O       -2.9330     7.0550    -1.5620 O.2   1 <1>  -0.6500 
 13 O       -2.9280     5.1220    -3.1490 O.2   1 <1>  -0.6500 
 14 C       -4.9220     5.3310    -1.4390 C.3   1 <1>  -0.1350 
 15 C       -0.6450     4.5770     1.1830 C.2   1 <1>   0.5690 
 16 C       -2.7890     5.9740     1.4400 C.3   1 <1>  -0.2400 
 17 C       -3.7070     2.3570     2.1880 C.3   1 <1>   0.0400 
 18 O       -0.8120     4.1900     2.3190 O.2   1 <1>  -0.5700 
 19 N        0.5010     4.2840     0.5080 N.am  1 <1>  -0.7300 
 20 C        1.6230     3.4860     1.0280 C.3   1 <1>   0.2200 
 21 C        2.9260     4.1930     0.6780 C.3   1 <1>  -0.1600 
 22 C        1.7070     2.1870     0.2390 C.3   1 <1>  -0.1600 
 23 C        3.2320     3.8150    -0.7770 C.3   1 <1>  -0.1600 
 24 C        2.4250     2.5420    -1.0670 C.3   1 <1>  -0.1600 
 25 H       -0.8680     3.5190    -2.4570 H     1 <1>   0.1500 
 26 H       -1.8200    -0.4850    -1.3880 H     1 <1>   0.1500 
 27 H       -3.3770     0.3400     0.3400 H     1 <1>   0.1500 
 28 H       -1.2040     6.2730     0.0660 H     1 <1>   0.0800 
 29 H       -5.1210     4.2820    -1.5390 H     1 <1>   0.0800 
 30 H       -5.5740     5.8700    -2.0970 H     1 <1>   0.0800 
 31 H       -5.1290     5.6230    -0.4290 H     1 <1>   0.0800 
 32 H       -3.3750     5.1780     1.8560 H     1 <1>   0.0800 
 33 H       -3.4330     6.6830     0.9570 H     1 <1>   0.0800 
 34 H       -2.2980     6.4800     2.2510 H     1 <1>   0.0800 
 35 H       -4.2730     2.9850     2.8530 H     1 <1>   0.0800 
 36 H       -2.6670     2.3790     2.4650 H     1 <1>   0.0800 
 37 H       -4.0890     1.3530     2.2240 H     1 <1>   0.0800 
 38 H        0.5890     4.5350    -0.4770 H     1 <1>   0.3700 
 39 H        1.5160     3.3180     2.0880 H     1 <1>   0.0800 
 40 H        3.7030     3.8000     1.3100 H     1 <1>   0.0800 
 41 H        2.8670     5.2570     0.8300 H     1 <1>   0.0800 
 42 H        0.7410     1.7420     0.0820 H     1 <1>   0.0800 
 43 H        2.3150     1.4930     0.7930 H     1 <1>   0.0800 
 44 H        4.2870     3.6490    -0.9140 H     1 <1>   0.0800 
 45 H        2.9160     4.6040    -1.4380 H     1 <1>   0.0800 
 46 H        1.7030     2.7430    -1.8400 H     1 <1>   0.0800 
 47 H        3.0600     1.7350    -1.3910 H     1 <1>   0.0800 
@<TRIPOS>BOND
  1   1   2  1   
  2   2   3  ar  
  3   2   4  ar  
  4   3   5  ar  
  5   3  25  1   
  6   4   6  ar  
  7   4  26  1   
  8   5   7  1   
  9   5   8  ar  
 10   6   8  ar  
 11   6  27  1   
 12   7   9  am  
 13   7  10  1   
 14   8  11  1   
 15   9  12  2   
 16   9  13  2   
 17   9  14  1   
 18  10  15  1   
 19  10  16  1   
 20  10  28  1   
 21  11  17  1   
 22  14  29  1   
 23  14  30  1   
 24  14  31  1   
 25  15  18  2   
 26  15  19  am  
 27  16  32  1   
 28  16  33  1   
 29  16  34  1   
 30  17  35  1   
 31  17  36  1   
 32  17  37  1   
 33  19  20  1   
 34  19  38  1   
 35  20  21  1   
 36  20  22  1   
 37  20  39  1   
 38  21  23  1   
 39  21  40  1   
 40  21  41  1   
 41  22  24  1   
 42  22  42  1   
 43  22  43  1   
 44  23  24  1   
 45  23  44  1   
 46  23  45  1   
 47  24  46  1   
 48  24  47  1   
@<TRIPOS>SUBSTRUCTURE
  1 ****   5 GROUP 4 **** **** 0

# MOE 2024.06 (io_trps.svl 2023.06)
