@<TRIPOS>MOLECULE
NONAME
45 47 1 0 0 
SMALL
USER_CHARGES


@<TRIPOS>ATOM
  1 O        0.6930     0.7020    -0.9700 O.2   1 <1>  -0.5700 
  2 C        1.0690     1.6710    -0.3350 C.2   1 <1>   0.5440 
  3 N        2.3300     1.6400     0.2260 N.am  1 <1>  -0.6600 
  4 C        0.2000     2.8230    -0.2060 C.ar  1 <1>   0.0860 
  5 C        3.1000     0.3620     0.3500 C.3   1 <1>   0.1400 
  6 C        3.1620     2.8620     0.4460 C.3   1 <1>   0.1400 
  7 C       -0.5020     3.3220    -1.3040 C.ar  1 <1>  -0.1500 
  8 C        0.0190     3.4780     1.0150 C.ar  1 <1>  -0.1500 
  9 C        4.3050     0.3670    -0.5990 C.3   1 <1>   0.1400 
 10 C        4.3970     2.8640    -0.4740 C.3   1 <1>   0.1400 
 11 C       -1.3210     4.4280    -1.1960 C.ar  1 <1>  -0.1500 
 12 C       -0.7990     4.5850     1.1240 C.ar  1 <1>  -0.1500 
 13 N        5.1540     1.5780    -0.3680 N.am  1 <1>  -0.6600 
 14 C       -1.4820     5.0840     0.0210 C.ar  1 <1>   0.1000 
 15 C        6.4040     1.4850     0.2150 C.2   1 <1>   0.7150 
 16 N       -2.2980     6.2000     0.1520 N.pl3 1 <1>  -0.8380 
 17 O        6.7080     0.4390     0.7610 O.2   1 <1>  -0.5700 
 18 C        7.3360     2.5930     0.1770 C.2   1 <1>   0.0550 
 19 C       -2.3860     7.2180    -0.9270 C.3   1 <1>   0.1290 
 20 C       -3.4460     6.1590     1.0960 C.3   1 <1>   0.1290 
 21 O        8.1000     2.8870     1.2270 O.3   1 <1>  -0.2800 
 22 C        7.6170     3.4860    -0.8150 C.2   1 <1>  -0.1500 
 23 C        8.8490     3.9250     0.9340 C.2   1 <1>  -0.0100 
 24 C        8.5970     4.3480    -0.3220 C.2   1 <1>  -0.1500 
 25 H        2.4720    -0.4830     0.1270 H     1 <1>   0.0800 
 26 H        3.4480     0.2530     1.3620 H     1 <1>   0.0800 
 27 H        3.4840     2.8870     1.4730 H     1 <1>   0.0800 
 28 H        2.5890     3.7520     0.2560 H     1 <1>   0.0800 
 29 H       -0.3980     2.8220    -2.2520 H     1 <1>   0.1500 
 30 H        0.5290     3.1050     1.8850 H     1 <1>   0.1500 
 31 H        3.9500     0.3700    -1.6150 H     1 <1>   0.0800 
 32 H        4.8770    -0.5330    -0.4560 H     1 <1>   0.0800 
 33 H        5.0200     3.6990    -0.2070 H     1 <1>   0.0800 
 34 H        4.0780     3.0000    -1.4920 H     1 <1>   0.0800 
 35 H       -1.8530     4.7840    -2.0570 H     1 <1>   0.1500 
 36 H       -0.9180     5.0820     2.0680 H     1 <1>   0.1500 
 37 H       -1.4850     7.2090    -1.5150 H     1 <1>   0.0800 
 38 H       -2.5040     8.1960    -0.4950 H     1 <1>   0.0800 
 39 H       -3.2270     7.0060    -1.5640 H     1 <1>   0.0800 
 40 H       -3.4180     5.2550     1.6800 H     1 <1>   0.0800 
 41 H       -4.3720     6.1860     0.5490 H     1 <1>   0.0800 
 42 H       -3.3990     7.0050     1.7590 H     1 <1>   0.0800 
 43 H        7.1860     3.5290    -1.8000 H     1 <1>   0.1500 
 44 H        9.5350     4.2990     1.6750 H     1 <1>   0.1500 
 45 H        9.0450     5.1690    -0.8550 H     1 <1>   0.1500 
@<TRIPOS>BOND
  1   1   2  2   
  2   2   3  am  
  3   2   4  1   
  4   3   5  1   
  5   3   6  1   
  6   4   7  ar  
  7   4   8  ar  
  8   5   9  1   
  9   5  25  1   
 10   5  26  1   
 11   6  10  1   
 12   6  27  1   
 13   6  28  1   
 14   7  11  ar  
 15   7  29  1   
 16   8  12  ar  
 17   8  30  1   
 18   9  13  1   
 19   9  31  1   
 20   9  32  1   
 21  10  13  1   
 22  10  33  1   
 23  10  34  1   
 24  11  14  ar  
 25  11  35  1   
 26  12  14  ar  
 27  12  36  1   
 28  13  15  am  
 29  14  16  1   
 30  15  17  2   
 31  15  18  1   
 32  16  19  1   
 33  16  20  1   
 34  18  21  1   
 35  18  22  2   
 36  19  37  1   
 37  19  38  1   
 38  19  39  1   
 39  20  40  1   
 40  20  41  1   
 41  20  42  1   
 42  21  23  1   
 43  22  24  1   
 44  22  43  1   
 45  23  24  2   
 46  23  44  1   
 47  24  45  1   
@<TRIPOS>SUBSTRUCTURE
  1 ****   6 GROUP 4 **** **** 0

# MOE 2024.06 (io_trps.svl 2023.06)
