@<TRIPOS>MOLECULE
NONAME
40 40 1 0 0 
SMALL
USER_CHARGES


@<TRIPOS>ATOM
  1 O        0.9140     1.9840     1.8740 O.2   1 <1>  -0.5700 
  2 C        0.4100     2.3840     0.8400 C.2   1 <1>   0.5440 
  3 N        1.1670     2.4000    -0.3160 N.am  1 <1>  -0.6600 
  4 C       -0.9710     2.8330     0.8510 C.ar  1 <1>   0.0860 
  5 C        2.0280     1.2510    -0.7110 C.3   1 <1>   0.2200 
  6 C        1.4180     3.6450    -1.0980 C.3   1 <1>   0.2200 
  7 C       -1.4530     3.6450     1.8760 C.ar  1 <1>  -0.1500 
  8 C       -1.8660     2.4610    -0.1510 C.ar  1 <1>  -0.1500 
  9 C        1.3020    -0.0800    -0.5070 C.3   1 <1>  -0.2400 
 10 C        3.3580     1.2880     0.0430 C.3   1 <1>  -0.2400 
 11 C        1.3480     4.9020    -0.2290 C.3   1 <1>  -0.2400 
 12 C        0.4570     3.7320    -2.2820 C.3   1 <1>  -0.2400 
 13 C       -2.7640     4.0890     1.8940 C.ar  1 <1>  -0.1430 
 14 C       -3.1790     2.8970    -0.1510 C.ar  1 <1>  -0.1430 
 15 C       -3.6230     3.7140     0.8750 C.ar  1 <1>  -0.1500 
 16 C       -3.2650     4.9780     3.0180 C.3   1 <1>  -0.0970 
 17 C       -4.1330     2.4860    -1.2570 C.3   1 <1>  -0.0970 
 18 H        2.2390     1.3370    -1.7640 H     1 <1>   0.0800 
 19 H        2.4200     3.5940    -1.4900 H     1 <1>   0.0800 
 20 H       -0.7750     3.9240     2.6630 H     1 <1>   0.1500 
 21 H       -1.5120     1.8190    -0.9370 H     1 <1>   0.1500 
 22 H        1.1340    -0.2700     0.5380 H     1 <1>   0.0800 
 23 H        1.8980    -0.8830    -0.8990 H     1 <1>   0.0800 
 24 H        0.3600    -0.0710    -1.0240 H     1 <1>   0.0800 
 25 H        3.2000     1.1460     1.0970 H     1 <1>   0.0800 
 26 H        3.8530     2.2290    -0.1120 H     1 <1>   0.0800 
 27 H        4.0010     0.5030    -0.3090 H     1 <1>   0.0800 
 28 H        0.3420     5.1030     0.0910 H     1 <1>   0.0800 
 29 H        1.6900     5.7500    -0.7940 H     1 <1>   0.0800 
 30 H        1.9840     4.7920     0.6310 H     1 <1>   0.0800 
 31 H       -0.5450     3.9270    -1.9490 H     1 <1>   0.0800 
 32 H        0.4760     2.8200    -2.8490 H     1 <1>   0.0800 
 33 H        0.7530     4.5390    -2.9280 H     1 <1>   0.0800 
 34 H       -4.6420     4.0560     0.8830 H     1 <1>   0.1500 
 35 H       -2.5570     5.0080     3.8270 H     1 <1>   0.0800 
 36 H       -4.1980     4.6010     3.3970 H     1 <1>   0.0800 
 37 H       -3.4150     5.9780     2.6520 H     1 <1>   0.0800 
 38 H       -3.6000     2.0430    -2.0790 H     1 <1>   0.0800 
 39 H       -4.6680     3.3450    -1.6210 H     1 <1>   0.0800 
 40 H       -4.8410     1.7700    -0.8780 H     1 <1>   0.0800 
@<TRIPOS>BOND
  1   1   2  2   
  2   2   3  am  
  3   2   4  1   
  4   3   5  1   
  5   3   6  1   
  6   4   7  ar  
  7   4   8  ar  
  8   5   9  1   
  9   5  10  1   
 10   5  18  1   
 11   6  11  1   
 12   6  12  1   
 13   6  19  1   
 14   7  13  ar  
 15   7  20  1   
 16   8  14  ar  
 17   8  21  1   
 18   9  22  1   
 19   9  23  1   
 20   9  24  1   
 21  10  25  1   
 22  10  26  1   
 23  10  27  1   
 24  11  28  1   
 25  11  29  1   
 26  11  30  1   
 27  12  31  1   
 28  12  32  1   
 29  12  33  1   
 30  13  15  ar  
 31  13  16  1   
 32  14  15  ar  
 33  14  17  1   
 34  15  34  1   
 35  16  35  1   
 36  16  36  1   
 37  16  37  1   
 38  17  38  1   
 39  17  39  1   
 40  17  40  1   
@<TRIPOS>SUBSTRUCTURE
  1 ****   4 GROUP 4 **** **** 0

# MOE 2024.06 (io_trps.svl 2023.06)
