@<TRIPOS>MOLECULE
NONAME
41 42 1 0 0 
SMALL
USER_CHARGES


@<TRIPOS>ATOM
  1 F       -0.4240    -0.8700    -1.6350 F     1 <1>  -0.1900 
  2 C       -1.4270    -1.2790    -0.8920 C.ar  1 <1>   0.1900 
  3 C       -1.2460    -2.3840    -0.0530 C.ar  1 <1>   0.1000 
  4 C       -2.6150    -0.5900    -0.9800 C.ar  1 <1>  -0.1500 
  5 N       -0.0590    -3.1040     0.0610 N.pl3 1 <1>  -0.8380 
  6 C       -2.3440    -2.7650     0.7050 C.ar  1 <1>  -0.1500 
  7 C       -3.7220    -0.9720    -0.2150 C.ar  1 <1>   0.0860 
  8 C        1.0810    -2.3920     0.7150 C.3   1 <1>   0.2090 
  9 C        0.3300    -3.9190    -1.1300 C.3   1 <1>   0.2090 
 10 C       -3.5440    -2.0810     0.6260 C.ar  1 <1>  -0.1500 
 11 C       -4.9610    -0.2320    -0.3240 C.2   1 <1>   0.4230 
 12 C        2.2500    -3.3550     1.0140 C.3   1 <1>   0.3430 
 13 C        1.5060    -4.8630    -0.8050 C.3   1 <1>   0.3430 
 14 O       -5.1060     0.6740    -1.1070 O.2   1 <1>  -0.5700 
 15 C       -6.1620    -0.5560     0.5580 C.3   1 <1>  -0.0990 
 16 N        2.6860    -4.1370    -0.2050 N.4   1 <1>  -0.9590 
 17 C       -7.0010    -1.7170     0.0020 C.3   1 <1>  -0.2400 
 18 C        3.7910    -5.0840     0.0920 C.3   1 <1>   0.3430 
 19 C        5.0810    -4.3090     0.3350 C.3   1 <1>  -0.2400 
 20 H       -2.6900     0.2520    -1.6460 H     1 <1>   0.1500 
 21 H       -2.2470    -3.6110     1.3620 H     1 <1>   0.1500 
 22 H        0.7390    -1.9530     1.6370 H     1 <1>   0.0800 
 23 H        1.4240    -1.5940     0.0790 H     1 <1>   0.0800 
 24 H        0.6020    -3.2680    -1.9430 H     1 <1>   0.0800 
 25 H       -0.5180    -4.5030    -1.4480 H     1 <1>   0.0800 
 26 H       -4.3580    -2.4290     1.2350 H     1 <1>   0.1500 
 27 H        1.9310    -4.0380     1.7830 H     1 <1>   0.0800 
 28 H        3.0770    -2.7850     1.4010 H     1 <1>   0.0800 
 29 H        1.8070    -5.3690    -1.7080 H     1 <1>   0.0800 
 30 H        1.1530    -5.6090    -0.1120 H     1 <1>   0.0800 
 31 H       -6.7840     0.3200     0.6130 H     1 <1>   0.0800 
 32 H       -5.8390    -0.7710     1.5590 H     1 <1>   0.0800 
 33 H        3.0200    -3.4610    -0.9050 H     1 <1>   0.4500 
 34 H       -7.3590    -1.4710    -0.9830 H     1 <1>   0.0800 
 35 H       -7.8500    -1.8970     0.6380 H     1 <1>   0.0800 
 36 H       -6.4200    -2.6190    -0.0610 H     1 <1>   0.0800 
 37 H        3.9360    -5.7460    -0.7460 H     1 <1>   0.0800 
 38 H        3.5480    -5.6830     0.9560 H     1 <1>   0.0800 
 39 H        5.3240    -3.6930    -0.5120 H     1 <1>   0.0800 
 40 H        5.8870    -5.0080     0.4760 H     1 <1>   0.0800 
 41 H        5.0190    -3.7040     1.2210 H     1 <1>   0.0800 
@<TRIPOS>BOND
  1   1   2  1   
  2   2   3  ar  
  3   2   4  ar  
  4   3   5  1   
  5   3   6  ar  
  6   4   7  ar  
  7   4  20  1   
  8   5   8  1   
  9   5   9  1   
 10   6  10  ar  
 11   6  21  1   
 12   7  10  ar  
 13   7  11  1   
 14   8  12  1   
 15   8  22  1   
 16   8  23  1   
 17   9  13  1   
 18   9  24  1   
 19   9  25  1   
 20  10  26  1   
 21  11  14  2   
 22  11  15  1   
 23  12  16  1   
 24  12  27  1   
 25  12  28  1   
 26  13  16  1   
 27  13  29  1   
 28  13  30  1   
 29  15  17  1   
 30  15  31  1   
 31  15  32  1   
 32  16  18  1   
 33  16  33  1   
 34  17  34  1   
 35  17  35  1   
 36  17  36  1   
 37  18  19  1   
 38  18  37  1   
 39  18  38  1   
 40  19  39  1   
 41  19  40  1   
 42  19  41  1   
@<TRIPOS>SUBSTRUCTURE
  1 ****   3 GROUP 4 **** **** 0

# MOE 2024.06 (io_trps.svl 2023.06)
