@<TRIPOS>MOLECULE
NONAME
41 45 1 0 0 
SMALL
USER_CHARGES


@<TRIPOS>ATOM
  1 O       -0.1280    -0.1980    -2.0620 O.2   1 <1>  -0.5700 
  2 C       -0.4000    -1.0880    -1.2980 C.2   1 <1>   0.5690 
  3 N        0.4730    -1.9480    -0.6750 N.am  1 <1>  -0.4200 
  4 C       -1.7850    -1.5040    -0.8900 C.3   1 <1>  -0.0190 
  5 C       -0.1670    -2.6550     0.3150 C.2   1 <1>   0.5690 
  6 C        1.9040    -2.0870    -1.0190 C.3   1 <1>   0.1400 
  7 C       -3.1920    -0.8530    -0.9250 C.3   1 <1>   0.1530 
  8 C       -1.4920    -1.9810     0.5440 C.3   1 <1>  -0.0190 
  9 O        0.2650    -3.5860     0.9430 O.2   1 <1>  -0.5700 
 10 C        2.7460    -1.1260    -0.1790 C.3   1 <1>  -0.0170 
 11 C       -4.0550    -2.1230    -0.8550 C.2   1 <1>  -0.2880 
 12 C       -3.4750    -0.0910     0.4080 C.3   1 <1>  -0.1950 
 13 C       -2.8240    -2.3850     1.2400 C.3   1 <1>   0.1530 
 14 C        4.2130    -1.2730    -0.5440 C.ar  1 <1>  -0.1440 
 15 C       -3.8330    -2.9120     0.2080 C.2   1 <1>  -0.2880 
 16 C       -3.3890    -0.9830     1.6390 C.3   1 <1>  -0.1950 
 17 C       -4.6840    -0.3070     1.2700 C.3   1 <1>  -0.2000 
 18 C        5.0080    -2.1980     0.1150 C.ar  1 <1>  -0.1500 
 19 C        4.7670    -0.4890    -1.5440 C.ar  1 <1>  -0.1500 
 20 C        6.3430    -2.3380    -0.2220 C.ar  1 <1>  -0.1500 
 21 C        6.1020    -0.6280    -1.8820 C.ar  1 <1>  -0.1500 
 22 C        6.8910    -1.5520    -1.2210 C.ar  1 <1>  -0.1500 
 23 H       -1.8880    -2.3780    -1.5150 H     1 <1>   0.0800 
 24 H        2.0420    -1.8710    -2.0650 H     1 <1>   0.0800 
 25 H        2.2180    -3.1010    -0.8370 H     1 <1>   0.0800 
 26 H       -3.3810    -0.2750    -1.8140 H     1 <1>   0.0800 
 27 H       -1.1450    -1.1300     1.1080 H     1 <1>   0.0800 
 28 H        2.6130    -1.3440     0.8660 H     1 <1>   0.0800 
 29 H        2.4310    -0.1140    -0.3610 H     1 <1>   0.0800 
 30 H       -4.7480    -2.2920    -1.6620 H     1 <1>   0.1500 
 31 H       -2.9820     0.8650     0.4560 H     1 <1>   0.1000 
 32 H       -2.6920    -3.0330     2.0890 H     1 <1>   0.0800 
 33 H       -4.3090    -3.8520     0.4310 H     1 <1>   0.1500 
 34 H       -2.9070    -0.5910     2.5200 H     1 <1>   0.1000 
 35 H       -5.5110    -0.9030     0.9250 H     1 <1>   0.1000 
 36 H       -5.0220     0.5120     1.8810 H     1 <1>   0.1000 
 37 H        4.5920    -2.8150     0.8930 H     1 <1>   0.1500 
 38 H        4.1620     0.2320    -2.0650 H     1 <1>   0.1500 
 39 H        6.9560    -3.0570     0.2930 H     1 <1>   0.1500 
 40 H        6.5260    -0.0160    -2.6580 H     1 <1>   0.1500 
 41 H        7.9290    -1.6600    -1.4820 H     1 <1>   0.1500 
@<TRIPOS>BOND
  1   1   2  2   
  2   2   3  am  
  3   2   4  1   
  4   3   5  am  
  5   3   6  1   
  6   4   7  1   
  7   4   8  1   
  8   4  23  1   
  9   5   8  1   
 10   5   9  2   
 11   6  10  1   
 12   6  24  1   
 13   6  25  1   
 14   7  11  1   
 15   7  12  1   
 16   7  26  1   
 17   8  13  1   
 18   8  27  1   
 19  10  14  1   
 20  10  28  1   
 21  10  29  1   
 22  11  15  2   
 23  11  30  1   
 24  12  16  1   
 25  12  17  1   
 26  12  31  1   
 27  13  15  1   
 28  13  16  1   
 29  13  32  1   
 30  14  18  ar  
 31  14  19  ar  
 32  15  33  1   
 33  16  17  1   
 34  16  34  1   
 35  17  35  1   
 36  17  36  1   
 37  18  20  ar  
 38  18  37  1   
 39  19  21  ar  
 40  19  38  1   
 41  20  22  ar  
 42  20  39  1   
 43  21  22  ar  
 44  21  40  1   
 45  22  41  1   
@<TRIPOS>SUBSTRUCTURE
  1 ****   3 GROUP 4 **** **** 0

# MOE 2024.06 (io_trps.svl 2023.06)
