@<TRIPOS>MOLECULE
NONAME
50 53 1 0 0 
SMALL
USER_CHARGES


@<TRIPOS>ATOM
  1 O        0.8000    -0.6590    -1.6460 O.2   1 <1>  -0.5700 
  2 C        1.7040    -1.0670    -0.9530 C.2   1 <1>   0.4950 
  3 C        2.7010    -0.2380    -0.3590 C.2   1 <1>  -0.1240 
  4 C        1.7950    -2.5780    -0.8270 C.3   1 <1>  -0.0990 
  5 C        3.8800    -0.7620     0.0970 C.2   1 <1>  -0.0380 
  6 C        2.3090     1.2480    -0.3370 C.3   1 <1>   0.5710 
  7 C        2.7290    -3.0390     0.3040 C.3   1 <1>   0.0000 
  8 N        5.0220    -0.0840     0.4580 N.pl3 1 <1>  -0.6000 
  9 C        4.0620    -2.2750     0.1900 C.3   1 <1>  -0.0220 
 10 N        3.1990     2.1220     0.4520 N.pl3 1 <1>  -0.8690 
 11 C        0.9400     1.4740     0.3130 C.ar  1 <1>  -0.1430 
 12 C        2.9840    -4.5490     0.1760 C.3   1 <1>  -0.2400 
 13 C        2.0750    -2.7790     1.6750 C.3   1 <1>  -0.2400 
 14 C        5.4120     1.2070     0.0620 C.ar  1 <1>   0.1000 
 15 C        4.5150     2.2810     0.0400 C.ar  1 <1>   0.1000 
 16 C       -0.1040     2.0370    -0.4070 C.ar  1 <1>  -0.1500 
 17 C        0.7270     1.1270     1.6430 C.ar  1 <1>  -0.1500 
 18 C        6.7300     1.4240    -0.3100 C.ar  1 <1>  -0.1500 
 19 C        4.9590     3.5340    -0.3570 C.ar  1 <1>  -0.1500 
 20 C       -1.3330     2.2450     0.1940 C.ar  1 <1>   0.0830 
 21 C       -0.5050     1.3310     2.2420 C.ar  1 <1>  -0.1500 
 22 C        7.1610     2.6780    -0.7080 C.ar  1 <1>  -0.1500 
 23 C        6.2750     3.7410    -0.7360 C.ar  1 <1>  -0.1430 
 24 O       -2.3260     2.7950    -0.5200 O.3   1 <1>  -0.5330 
 25 C       -1.5410     1.8920     1.5170 C.ar  1 <1>  -0.1500 
 26 C        6.7460     5.1180    -1.1690 C.3   1 <1>  -0.0970 
 27 H        2.1510    -2.9530    -1.7690 H     1 <1>   0.0800 
 28 H        0.8070    -2.9730    -0.6730 H     1 <1>   0.0800 
 29 H        2.2870     1.6080    -1.3520 H     1 <1>   0.0800 
 30 H        5.7760    -0.6240     0.8860 H     1 <1>   0.4000 
 31 H        4.6680    -2.5140     1.0460 H     1 <1>   0.0800 
 32 H        4.5960    -2.5990    -0.6860 H     1 <1>   0.0800 
 33 H        2.7040     2.9950     0.6360 H     1 <1>   0.4000 
 34 H        3.4430    -4.7810    -0.7690 H     1 <1>   0.0800 
 35 H        2.0590    -5.0950     0.2430 H     1 <1>   0.0800 
 36 H        3.6350    -4.8920     0.9610 H     1 <1>   0.0800 
 37 H        1.8730    -1.7330     1.8230 H     1 <1>   0.0800 
 38 H        2.7210    -3.1070     2.4700 H     1 <1>   0.0800 
 39 H        1.1440    -3.3110     1.7570 H     1 <1>   0.0800 
 40 H        0.0210     2.3100    -1.4400 H     1 <1>   0.1500 
 41 H        1.5360     0.7010     2.2140 H     1 <1>   0.1500 
 42 H        7.4260     0.6070    -0.2960 H     1 <1>   0.1500 
 43 H        4.2650     4.3540    -0.3640 H     1 <1>   0.1500 
 44 H       -0.6520     1.0540     3.2710 H     1 <1>   0.1500 
 45 H        8.1880     2.8210    -0.9940 H     1 <1>   0.1500 
 46 H       -3.1610     2.8530    -0.0260 H     1 <1>   0.4500 
 47 H       -2.4960     2.0500     1.9820 H     1 <1>   0.1500 
 48 H        5.9210     5.7030    -1.5310 H     1 <1>   0.0800 
 49 H        7.4730     5.0330    -1.9560 H     1 <1>   0.0800 
 50 H        7.1940     5.6270    -0.3350 H     1 <1>   0.0800 
@<TRIPOS>BOND
  1   1   2  2   
  2   2   3  1   
  3   2   4  1   
  4   3   5  2   
  5   3   6  1   
  6   4   7  1   
  7   4  27  1   
  8   4  28  1   
  9   5   8  1   
 10   5   9  1   
 11   6  10  1   
 12   6  11  1   
 13   6  29  1   
 14   7   9  1   
 15   7  12  1   
 16   7  13  1   
 17   8  14  1   
 18   8  30  1   
 19   9  31  1   
 20   9  32  1   
 21  10  15  1   
 22  10  33  1   
 23  11  16  ar  
 24  11  17  ar  
 25  12  34  1   
 26  12  35  1   
 27  12  36  1   
 28  13  37  1   
 29  13  38  1   
 30  13  39  1   
 31  14  15  ar  
 32  14  18  ar  
 33  15  19  ar  
 34  16  20  ar  
 35  16  40  1   
 36  17  21  ar  
 37  17  41  1   
 38  18  22  ar  
 39  18  42  1   
 40  19  23  ar  
 41  19  43  1   
 42  20  24  1   
 43  20  25  ar  
 44  21  25  ar  
 45  21  44  1   
 46  22  23  ar  
 47  22  45  1   
 48  23  26  1   
 49  24  46  1   
 50  25  47  1   
 51  26  48  1   
 52  26  49  1   
 53  26  50  1   
@<TRIPOS>SUBSTRUCTURE
  1 ****   6 GROUP 4 **** **** 0

# MOE 2024.06 (io_trps.svl 2023.06)
