@<TRIPOS>MOLECULE
NONAME
54 56 1 0 0 
SMALL
USER_CHARGES


@<TRIPOS>ATOM
  1 S        0.3140     1.2020    -1.3430 S.o2  1 <1>   1.3330 
  2 O        0.0150     0.1620    -2.3020 O.2   1 <1>  -0.6500 
  3 O        1.0280     2.3700    -1.8050 O.2   1 <1>  -0.6500 
  4 N        1.2140     0.4570    -0.1020 N.am  1 <1>  -0.8490 
  5 C       -1.2360     1.7360    -0.5940 C.3   1 <1>  -0.0550 
  6 C        1.3610     1.1720     1.1660 C.3   1 <1>   0.1960 
  7 C        2.4770    -0.1480    -0.5720 C.3   1 <1>   0.1960 
  8 C       -2.0690     0.6170     0.0590 C.3   1 <1>  -0.2400 
  9 C        2.3490     2.3370     1.0600 C.3   1 <1>  -0.1600 
 10 C        3.7450     0.5600    -0.0460 C.3   1 <1>  -0.1600 
 11 C        3.5230     2.0770     0.0850 C.3   1 <1>  -0.0190 
 12 C        4.7710     2.9040     0.4260 C.2   1 <1>   0.5690 
 13 O        5.7940     2.3510     0.7470 O.2   1 <1>  -0.5700 
 14 N        4.7350     4.2680     0.3790 N.am  1 <1>  -0.5470 
 15 C        3.6080     5.0880     0.2500 C.ar  1 <1>   0.1170 
 16 C        3.2010     5.8750     1.3200 C.ar  1 <1>  -0.1500 
 17 C        2.8240     5.0620    -0.8970 C.ar  1 <1>  -0.1500 
 18 C        1.9950     6.5520     1.2750 C.ar  1 <1>  -0.1500 
 19 C        1.6110     5.7210    -0.9330 C.ar  1 <1>  -0.1500 
 20 C        1.1710     6.4520     0.1620 C.ar  1 <1>   0.1170 
 21 N       -0.0860     7.0640     0.1550 N.am  1 <1>  -0.5470 
 22 C       -1.3010     6.4670    -0.0870 C.2   1 <1>   0.5440 
 23 O       -1.3620     5.2560    -0.1980 O.2   1 <1>  -0.5700 
 24 C       -2.5000     7.2800    -0.1660 C.ar  1 <1>   0.0860 
 25 C       -2.4770     8.5830    -0.6720 C.ar  1 <1>  -0.1500 
 26 C       -3.7310     6.7840     0.2670 C.ar  1 <1>  -0.1500 
 27 C       -3.6230     9.3560    -0.7250 C.ar  1 <1>  -0.1500 
 28 C       -4.8800     7.5520     0.2160 C.ar  1 <1>  -0.1500 
 29 C       -4.8270     8.8430    -0.2790 C.ar  1 <1>  -0.1500 
 30 H       -1.8330     2.1980    -1.3570 H     1 <1>   0.0800 
 31 H       -1.0330     2.4970     0.1340 H     1 <1>   0.0800 
 32 H        1.7300     0.4740     1.8990 H     1 <1>   0.0800 
 33 H        0.4100     1.5250     1.5220 H     1 <1>   0.0800 
 34 H        2.4990    -0.1400    -1.6500 H     1 <1>   0.0800 
 35 H        2.5000    -1.1800    -0.2660 H     1 <1>   0.0800 
 36 H       -2.3210    -0.1280    -0.6760 H     1 <1>   0.0800 
 37 H       -2.9770     1.0220     0.4680 H     1 <1>   0.0800 
 38 H       -1.5130     0.1420     0.8480 H     1 <1>   0.0800 
 39 H        2.7320     2.5400     2.0450 H     1 <1>   0.0800 
 40 H        1.7990     3.2050     0.7500 H     1 <1>   0.0800 
 41 H        4.5610     0.3630    -0.7190 H     1 <1>   0.0800 
 42 H        4.0170     0.1510     0.9120 H     1 <1>   0.0800 
 43 H        3.2380     2.4010    -0.8940 H     1 <1>   0.0800 
 44 H        5.6080     4.7050     0.6740 H     1 <1>   0.3700 
 45 H        3.8170     5.9330     2.1990 H     1 <1>   0.1500 
 46 H        3.1400     4.4950    -1.7550 H     1 <1>   0.1500 
 47 H        1.6800     7.1400     2.1180 H     1 <1>   0.1500 
 48 H        0.9900     5.6490    -1.8090 H     1 <1>   0.1500 
 49 H       -0.1210     8.0230     0.4960 H     1 <1>   0.3700 
 50 H       -1.5550     8.9970    -1.0390 H     1 <1>   0.1500 
 51 H       -3.7800     5.7790     0.6500 H     1 <1>   0.1500 
 52 H       -3.5820    10.3580    -1.1180 H     1 <1>   0.1500 
 53 H       -5.8160     7.1470     0.5590 H     1 <1>   0.1500 
 54 H       -5.7200     9.4430    -0.3200 H     1 <1>   0.1500 
@<TRIPOS>BOND
  1   1   2  2   
  2   1   3  2   
  3   1   4  am  
  4   1   5  1   
  5   4   6  1   
  6   4   7  1   
  7   5   8  1   
  8   5  30  1   
  9   5  31  1   
 10   6   9  1   
 11   6  32  1   
 12   6  33  1   
 13   7  10  1   
 14   7  34  1   
 15   7  35  1   
 16   8  36  1   
 17   8  37  1   
 18   8  38  1   
 19   9  11  1   
 20   9  39  1   
 21   9  40  1   
 22  10  11  1   
 23  10  41  1   
 24  10  42  1   
 25  11  12  1   
 26  11  43  1   
 27  12  13  2   
 28  12  14  am  
 29  14  15  1   
 30  14  44  1   
 31  15  16  ar  
 32  15  17  ar  
 33  16  18  ar  
 34  16  45  1   
 35  17  19  ar  
 36  17  46  1   
 37  18  20  ar  
 38  18  47  1   
 39  19  20  ar  
 40  19  48  1   
 41  20  21  1   
 42  21  22  am  
 43  21  49  1   
 44  22  23  2   
 45  22  24  1   
 46  24  25  ar  
 47  24  26  ar  
 48  25  27  ar  
 49  25  50  1   
 50  26  28  ar  
 51  26  51  1   
 52  27  29  ar  
 53  27  52  1   
 54  28  29  ar  
 55  28  53  1   
 56  29  54  1   
@<TRIPOS>SUBSTRUCTURE
  1 ****  19 GROUP 4 **** **** 0

# MOE 2024.06 (io_trps.svl 2023.06)
