@<TRIPOS>MOLECULE
NONAME
50 52 1 0 0 
SMALL
USER_CHARGES


@<TRIPOS>ATOM
  1 S       -0.0940    -0.5960     0.5290 S.o2  1 <1>   1.4470 
  2 O        0.1260    -2.0130     0.7110 O.2   1 <1>  -0.6500 
  3 O       -0.5500     0.2000     1.6490 O.2   1 <1>  -0.6500 
  4 N        1.3760     0.0840     0.0240 N.am  1 <1>  -0.8490 
  5 C       -1.1820    -0.3440    -0.9040 C.ar  1 <1>  -0.0090 
  6 C        2.4900    -0.3770     0.8550 C.3   1 <1>   0.1960 
  7 C        1.3130     1.5480    -0.0330 C.3   1 <1>   0.1960 
  8 C       -2.4620     0.1870    -0.7500 C.ar  1 <1>  -0.1500 
  9 C       -0.7580    -0.6850    -2.1870 C.ar  1 <1>  -0.1500 
 10 C        3.8210     0.1290     0.2910 C.3   1 <1>  -0.1600 
 11 C        2.5990     2.1100    -0.6410 C.3   1 <1>  -0.1600 
 12 C       -3.2960     0.3800    -1.8400 C.ar  1 <1>  -0.1500 
 13 C       -1.5760    -0.5000    -3.2890 C.ar  1 <1>  -0.1500 
 14 C        3.8330     1.6610     0.1610 C.3   1 <1>  -0.0190 
 15 C       -2.8340     0.0330    -3.0940 C.ar  1 <1>   0.1900 
 16 C        5.1360     2.1570    -0.4680 C.2   1 <1>   0.5690 
 17 F       -3.6120     0.2130    -4.1260 F     1 <1>  -0.1900 
 18 O        5.3460     1.9190    -1.6320 O.2   1 <1>  -0.5700 
 19 N        6.0070     2.8400     0.3380 N.am  1 <1>  -0.5470 
 20 C        7.2540     3.4300     0.0740 C.ar  1 <1>   0.1170 
 21 C        7.7040     3.7340    -1.2070 C.ar  1 <1>  -0.1500 
 22 C        8.0800     3.7410     1.1480 C.ar  1 <1>  -0.1500 
 23 C        8.9390     4.3260    -1.4060 C.ar  1 <1>  -0.1500 
 24 C        9.3140     4.3340     0.9530 C.ar  1 <1>  -0.1500 
 25 C        9.7530     4.6310    -0.3270 C.ar  1 <1>  -0.1430 
 26 C       11.1100     5.2810    -0.5470 C.3   1 <1>  -0.0170 
 27 C       12.1950     4.2140    -0.7110 C.3   1 <1>  -0.2400 
 28 H        2.5150    -1.4550     0.8660 H     1 <1>   0.0800 
 29 H        2.3570    -0.0350     1.8680 H     1 <1>   0.0800 
 30 H        1.1690     1.9510     0.9580 H     1 <1>   0.0800 
 31 H        0.4780     1.8540    -0.6430 H     1 <1>   0.0800 
 32 H       -2.8100     0.4520     0.2360 H     1 <1>   0.1500 
 33 H        0.2280    -1.1010    -2.3200 H     1 <1>   0.1500 
 34 H        3.9780    -0.3180    -0.6760 H     1 <1>   0.0800 
 35 H        4.6240    -0.1900     0.9310 H     1 <1>   0.0800 
 36 H        2.5490     3.1840    -0.6590 H     1 <1>   0.0800 
 37 H        2.6780     1.7690    -1.6590 H     1 <1>   0.0800 
 38 H       -4.2830     0.7900    -1.7230 H     1 <1>   0.1500 
 39 H       -1.2480    -0.7620    -4.2800 H     1 <1>   0.1500 
 40 H        3.7520     2.0790     1.1480 H     1 <1>   0.0800 
 41 H        5.7240     2.9080     1.3120 H     1 <1>   0.3700 
 42 H        7.0930     3.5150    -2.0630 H     1 <1>   0.1500 
 43 H        7.7620     3.5180     2.1490 H     1 <1>   0.1500 
 44 H        9.2640     4.5460    -2.4070 H     1 <1>   0.1500 
 45 H        9.9370     4.5620     1.8000 H     1 <1>   0.1500 
 46 H       11.3490     5.9140     0.2900 H     1 <1>   0.0800 
 47 H       11.0770     5.9000    -1.4260 H     1 <1>   0.0800 
 48 H       12.2470     3.6000     0.1710 H     1 <1>   0.0800 
 49 H       13.1520     4.6790    -0.8670 H     1 <1>   0.0800 
 50 H       11.9710     3.5860    -1.5550 H     1 <1>   0.0800 
@<TRIPOS>BOND
  1   1   2  2   
  2   1   3  2   
  3   1   4  am  
  4   1   5  1   
  5   4   6  1   
  6   4   7  1   
  7   5   8  ar  
  8   5   9  ar  
  9   6  10  1   
 10   6  28  1   
 11   6  29  1   
 12   7  11  1   
 13   7  30  1   
 14   7  31  1   
 15   8  12  ar  
 16   8  32  1   
 17   9  13  ar  
 18   9  33  1   
 19  10  14  1   
 20  10  34  1   
 21  10  35  1   
 22  11  14  1   
 23  11  36  1   
 24  11  37  1   
 25  12  15  ar  
 26  12  38  1   
 27  13  15  ar  
 28  13  39  1   
 29  14  16  1   
 30  14  40  1   
 31  15  17  1   
 32  16  18  2   
 33  16  19  am  
 34  19  20  1   
 35  19  41  1   
 36  20  21  ar  
 37  20  22  ar  
 38  21  23  ar  
 39  21  42  1   
 40  22  24  ar  
 41  22  43  1   
 42  23  25  ar  
 43  23  44  1   
 44  24  25  ar  
 45  24  45  1   
 46  25  26  1   
 47  26  27  1   
 48  26  46  1   
 49  26  47  1   
 50  27  48  1   
 51  27  49  1   
 52  27  50  1   
@<TRIPOS>SUBSTRUCTURE
  1 ****  11 GROUP 4 **** **** 0

# MOE 2024.06 (io_trps.svl 2023.06)
