@<TRIPOS>MOLECULE
NONAME
36 36 1 0 0 
SMALL
USER_CHARGES


@<TRIPOS>ATOM
  1 F       -4.6810     5.2450     1.0480 F     1 <1>  -0.1900 
  2 C       -4.6500     4.0510     0.5240 C.ar  1 <1>   0.1900 
  3 C       -3.4970     3.6130    -0.1270 C.ar  1 <1>   0.0860 
  4 C       -5.7820     3.2700     0.6690 C.ar  1 <1>  -0.1500 
  5 C       -2.3280     4.4470    -0.2780 C.2   1 <1>   0.6340 
  6 C       -3.5300     2.3080    -0.6270 C.ar  1 <1>  -0.1500 
  7 C       -5.7820     1.9860     0.1550 C.ar  1 <1>  -0.1500 
  8 O       -2.3570     5.6250    -0.5610 O.2   1 <1>  -0.5700 
  9 O       -1.1290     3.8740    -0.1080 O.3   1 <1>  -0.4300 
 10 C       -4.6530     1.5080    -0.4900 C.ar  1 <1>  -0.1500 
 11 C        0.0540     4.6390    -0.2220 C.3   1 <1>   0.1200 
 12 C        1.2500     3.7550     0.1450 C.3   1 <1>   0.3430 
 13 N        2.5640     4.4730     0.0070 N.4   1 <1>  -0.9590 
 14 C        3.6970     3.5060     0.0580 C.3   1 <1>   0.4230 
 15 C        2.6850     5.6090     0.9860 C.3   1 <1>   0.2630 
 16 C        3.9250     2.9600     1.4700 C.3   1 <1>  -0.2400 
 17 C        4.9550     4.1800    -0.4780 C.3   1 <1>  -0.2400 
 18 H       -6.6450     3.6620     1.1780 H     1 <1>   0.1500 
 19 H       -2.6670     1.9160    -1.1360 H     1 <1>   0.1500 
 20 H       -6.6530     1.3610     0.2580 H     1 <1>   0.1500 
 21 H       -4.6530     0.5070    -0.8890 H     1 <1>   0.1500 
 22 H       -0.0310     5.4750     0.4500 H     1 <1>   0.0800 
 23 H        0.1240     4.9870    -1.2390 H     1 <1>   0.0800 
 24 H        1.2450     2.8960    -0.5060 H     1 <1>   0.0800 
 25 H        1.1310     3.4130     1.1600 H     1 <1>   0.0800 
 26 H        2.5940     4.8780    -0.9390 H     1 <1>   0.4500 
 27 H        3.4680     2.6740    -0.5910 H     1 <1>   0.0800 
 28 H        2.6170     5.2420     1.9970 H     1 <1>   0.0800 
 29 H        1.9000     6.3300     0.8290 H     1 <1>   0.0800 
 30 H        3.6310     6.1110     0.8660 H     1 <1>   0.0800 
 31 H        4.2540     3.7270     2.1480 H     1 <1>   0.0800 
 32 H        4.6950     2.2100     1.4360 H     1 <1>   0.0800 
 33 H        3.0390     2.4920     1.8580 H     1 <1>   0.0800 
 34 H        5.2910     4.9720     0.1670 H     1 <1>   0.0800 
 35 H        4.7900     4.5660    -1.4680 H     1 <1>   0.0800 
 36 H        5.7480     3.4550    -0.5400 H     1 <1>   0.0800 
@<TRIPOS>BOND
  1   1   2  1   
  2   2   3  ar  
  3   2   4  ar  
  4   3   5  1   
  5   3   6  ar  
  6   4   7  ar  
  7   4  18  1   
  8   5   8  2   
  9   5   9  1   
 10   6  10  ar  
 11   6  19  1   
 12   7  10  ar  
 13   7  20  1   
 14   9  11  1   
 15  10  21  1   
 16  11  12  1   
 17  11  22  1   
 18  11  23  1   
 19  12  13  1   
 20  12  24  1   
 21  12  25  1   
 22  13  14  1   
 23  13  15  1   
 24  13  26  1   
 25  14  16  1   
 26  14  17  1   
 27  14  27  1   
 28  15  28  1   
 29  15  29  1   
 30  15  30  1   
 31  16  31  1   
 32  16  32  1   
 33  16  33  1   
 34  17  34  1   
 35  17  35  1   
 36  17  36  1   
@<TRIPOS>SUBSTRUCTURE
  1 ****   9 GROUP 4 **** **** 0

# MOE 2024.06 (io_trps.svl 2023.06)
