@<TRIPOS>MOLECULE
NONAME
34 34 1 0 0 
SMALL
USER_CHARGES


@<TRIPOS>ATOM
  1 O       -0.1540    -0.5060    -0.0330 O.co2 1 <1>  -0.9000 
  2 C       -0.8990    -1.5000    -0.0100 C.2   1 <1>   0.9790 
  3 O       -0.3900    -2.6340     0.0080 O.co2 1 <1>  -0.9000 
  4 C       -2.3480    -1.3420    -0.0050 C.ar  1 <1>  -0.1790 
  5 C       -3.2020    -2.4450     0.0210 C.ar  1 <1>  -0.1500 
  6 C       -2.9440    -0.0810    -0.0240 C.ar  1 <1>  -0.1500 
  7 C       -4.5850    -2.3210     0.0270 C.ar  1 <1>   0.0730 
  8 C       -4.3160     0.0720    -0.0190 C.ar  1 <1>  -0.1500 
  9 C       -5.4080    -3.4960     0.0530 C.1   1 <1>   0.4840 
 10 C       -5.1470    -1.0440     0.0070 C.ar  1 <1>   0.0820 
 11 N       -6.0480    -4.4420     0.0750 N.1   1 <1>  -0.5570 
 12 O       -6.5000    -0.9430     0.0130 O.3   1 <1>  -0.3630 
 13 C       -7.1660     0.2990    -0.0060 C.3   1 <1>   0.1200 
 14 C       -8.6710     0.0320     0.0090 C.3   1 <1>  -0.1600 
 15 C       -9.4680     1.3420    -0.0100 C.3   1 <1>  -0.1600 
 16 C      -10.9770     1.0690     0.0040 C.3   1 <1>  -0.1600 
 17 C      -11.7760     2.3770    -0.0140 C.3   1 <1>  -0.1600 
 18 C      -13.2820     2.1020     0.0000 C.3   1 <1>  -0.2400 
 19 H       -2.7550    -3.4260     0.0360 H     1 <1>   0.1500 
 20 H       -2.3020     0.7850    -0.0440 H     1 <1>   0.1500 
 21 H       -4.7110     1.0690    -0.0350 H     1 <1>   0.1500 
 22 H       -6.8800     0.8230    -0.9010 H     1 <1>   0.0800 
 23 H       -6.8690     0.8550     0.8660 H     1 <1>   0.0800 
 24 H       -8.9180    -0.5270     0.8950 H     1 <1>   0.0800 
 25 H       -8.9290    -0.5590    -0.8540 H     1 <1>   0.0800 
 26 H       -9.2170     1.9030    -0.8940 H     1 <1>   0.0800 
 27 H       -9.2050     1.9350     0.8500 H     1 <1>   0.0800 
 28 H      -11.2310     0.5080     0.8880 H     1 <1>   0.0800 
 29 H      -11.2420     0.4760    -0.8550 H     1 <1>   0.0800 
 30 H      -11.5290     2.9410    -0.8980 H     1 <1>   0.0800 
 31 H      -11.5180     2.9730     0.8450 H     1 <1>   0.0800 
 32 H      -13.5680     1.5260    -0.8620 H     1 <1>   0.0800 
 33 H      -13.8260     3.0300    -0.0130 H     1 <1>   0.0800 
 34 H      -13.5570     1.5580     0.8870 H     1 <1>   0.0800 
@<TRIPOS>BOND
  1   1   2  ar  
  2   2   3  ar  
  3   2   4  1   
  4   4   5  ar  
  5   4   6  ar  
  6   5   7  ar  
  7   5  19  1   
  8   6   8  ar  
  9   6  20  1   
 10   7   9  1   
 11   7  10  ar  
 12   8  10  ar  
 13   8  21  1   
 14   9  11  3   
 15  10  12  1   
 16  12  13  1   
 17  13  14  1   
 18  13  22  1   
 19  13  23  1   
 20  14  15  1   
 21  14  24  1   
 22  14  25  1   
 23  15  16  1   
 24  15  26  1   
 25  15  27  1   
 26  16  17  1   
 27  16  28  1   
 28  16  29  1   
 29  17  18  1   
 30  17  30  1   
 31  17  31  1   
 32  18  32  1   
 33  18  33  1   
 34  18  34  1   
@<TRIPOS>SUBSTRUCTURE
  1 ****  10 GROUP 4 **** **** 0

# MOE 2024.06 (io_trps.svl 2023.06)
