@<TRIPOS>MOLECULE
NONAME
45 47 1 0 0 
SMALL
USER_CHARGES


@<TRIPOS>ATOM
  1 O       -0.9780     9.1330     1.4070 O.3   1 <1>  -0.3630 
  2 C       -1.8210     9.8440     0.6240 C.ar  1 <1>   0.0830 
  3 C        0.2530     9.6680     1.8410 C.3   1 <1>   0.1200 
  4 C       -2.6150     9.1350    -0.2850 C.ar  1 <1>   0.0000 
  5 C       -1.9010    11.2300     0.7080 C.ar  1 <1>  -0.1500 
  6 C        1.1860     8.4850     2.1320 C.3   1 <1>   0.3430 
  7 C       -2.5490     7.6930    -0.4030 C.ar  1 <1>   0.0000 
  8 C       -3.4780     9.8610    -1.1020 C.ar  1 <1>  -0.1500 
  9 C       -2.7630    11.9260    -0.1180 C.ar  1 <1>  -0.1500 
 10 N        1.0900     7.4520     1.0520 N.4   1 <1>  -0.9590 
 11 C       -2.2460     7.0890    -1.6200 C.ar  1 <1>  -0.1500 
 12 C       -2.7940     6.8650     0.6900 C.ar  1 <1>  -0.1500 
 13 C       -3.5520    11.2390    -1.0240 C.ar  1 <1>  -0.1500 
 14 C        1.5420     6.1150     1.5280 C.3   1 <1>   0.3430 
 15 C        1.7730     7.8790    -0.2040 C.3   1 <1>   0.3430 
 16 C       -2.1810     5.7130    -1.7410 C.ar  1 <1>  -0.1500 
 17 C       -2.7300     5.4880     0.5760 C.ar  1 <1>  -0.1500 
 18 C        1.2920     5.0630     0.4470 C.3   1 <1>  -0.1600 
 19 C        1.5420     6.8480    -1.3080 C.3   1 <1>  -0.1600 
 20 C       -2.4220     4.9090    -0.6420 C.ar  1 <1>  -0.1500 
 21 C        1.9650     5.4380    -0.8790 C.3   1 <1>  -0.1600 
 22 H        0.0840    10.2580     2.7240 H     1 <1>   0.0800 
 23 H        0.6600    10.2870     1.0600 H     1 <1>   0.0800 
 24 H       -1.3100    11.7790     1.4170 H     1 <1>   0.1500 
 25 H        0.8830     8.0500     3.0700 H     1 <1>   0.0800 
 26 H        2.2010     8.8290     2.2390 H     1 <1>   0.0800 
 27 H       -4.1030     9.3370    -1.8040 H     1 <1>   0.1500 
 28 H       -2.8290    12.9990    -0.0560 H     1 <1>   0.1500 
 29 H        0.0790     7.3770     0.8250 H     1 <1>   0.4500 
 30 H       -2.0650     7.7070    -2.4820 H     1 <1>   0.1500 
 31 H       -3.0480     7.3110     1.6360 H     1 <1>   0.1500 
 32 H       -4.2270    11.7800    -1.6660 H     1 <1>   0.1500 
 33 H        1.0050     5.8410     2.4220 H     1 <1>   0.0800 
 34 H        2.5950     6.1480     1.7590 H     1 <1>   0.0800 
 35 H        2.8320     7.9790    -0.0250 H     1 <1>   0.0800 
 36 H        1.3890     8.8340    -0.5260 H     1 <1>   0.0800 
 37 H       -1.9500     5.2650    -2.6930 H     1 <1>   0.1500 
 38 H       -2.9320     4.8660     1.4310 H     1 <1>   0.1500 
 39 H        0.2330     4.9530     0.3010 H     1 <1>   0.0800 
 40 H        1.6710     4.1140     0.7840 H     1 <1>   0.0800 
 41 H        2.0980     7.1370    -2.1830 H     1 <1>   0.0800 
 42 H        0.5010     6.8500    -1.5770 H     1 <1>   0.0800 
 43 H       -2.3810     3.8370    -0.7370 H     1 <1>   0.1500 
 44 H        1.6910     4.7270    -1.6410 H     1 <1>   0.0800 
 45 H        3.0360     5.4020    -0.7640 H     1 <1>   0.0800 
@<TRIPOS>BOND
  1   1   2  1   
  2   1   3  1   
  3   2   4  ar  
  4   2   5  ar  
  5   3   6  1   
  6   3  22  1   
  7   3  23  1   
  8   4   7  1   
  9   4   8  ar  
 10   5   9  ar  
 11   5  24  1   
 12   6  10  1   
 13   6  25  1   
 14   6  26  1   
 15   7  11  ar  
 16   7  12  ar  
 17   8  13  ar  
 18   8  27  1   
 19   9  13  ar  
 20   9  28  1   
 21  10  14  1   
 22  10  15  1   
 23  10  29  1   
 24  11  16  ar  
 25  11  30  1   
 26  12  17  ar  
 27  12  31  1   
 28  13  32  1   
 29  14  18  1   
 30  14  33  1   
 31  14  34  1   
 32  15  19  1   
 33  15  35  1   
 34  15  36  1   
 35  16  20  ar  
 36  16  37  1   
 37  17  20  ar  
 38  17  38  1   
 39  18  21  1   
 40  18  39  1   
 41  18  40  1   
 42  19  21  1   
 43  19  41  1   
 44  19  42  1   
 45  20  43  1   
 46  21  44  1   
 47  21  45  1   
@<TRIPOS>SUBSTRUCTURE
  1 ****   7 GROUP 4 **** **** 0

# MOE 2024.06 (io_trps.svl 2023.06)
