@<TRIPOS>MOLECULE
NONAME
35 36 1 0 0 
SMALL
USER_CHARGES


@<TRIPOS>ATOM
  1 I        0.2450    -0.0060     1.7580 I     1 <1>  -0.0810 
  2 C       -1.3660    -1.0090     0.7830 C.ar  1 <1>   0.0810 
  3 C       -1.1960    -2.2880     0.2470 C.ar  1 <1>   0.0860 
  4 C       -2.5680    -0.3230     0.7340 C.ar  1 <1>  -0.1500 
  5 C        0.0510    -3.0180     0.2630 C.2   1 <1>   0.5440 
  6 C       -2.3240    -2.8660    -0.3360 C.ar  1 <1>  -0.1500 
  7 C       -3.6600    -0.9250     0.1370 C.ar  1 <1>  -0.1500 
  8 O        0.1630    -4.0260     0.9310 O.2   1 <1>  -0.5700 
  9 N        1.1020    -2.6080    -0.5090 N.am  1 <1>  -0.7300 
 10 C       -3.5360    -2.1980    -0.3940 C.ar  1 <1>  -0.1500 
 11 C        2.4530    -3.2140    -0.5210 C.3   1 <1>   0.1400 
 12 C        3.4940    -2.2190     0.0170 C.3   1 <1>  -0.0800 
 13 C        3.5880    -0.9450    -0.8470 C.3   1 <1>  -0.1600 
 14 C        4.8700    -2.9030     0.1110 C.3   1 <1>  -0.1600 
 15 C        4.6630     0.0150    -0.3190 C.3   1 <1>  -0.1600 
 16 C        5.9440    -1.9430     0.6390 C.3   1 <1>  -0.1600 
 17 C        6.0280    -0.6780    -0.2230 C.3   1 <1>  -0.1600 
 18 H       -2.6540     0.6630     1.1570 H     1 <1>   0.1500 
 19 H       -2.2410    -3.8580    -0.7460 H     1 <1>   0.1500 
 20 H       -4.6040    -0.4090     0.0890 H     1 <1>   0.1500 
 21 H        1.0110    -1.7440    -1.0440 H     1 <1>   0.3700 
 22 H       -4.3880    -2.6710    -0.8530 H     1 <1>   0.1500 
 23 H        2.7020    -3.5020    -1.5280 H     1 <1>   0.0800 
 24 H        2.4570    -4.1020     0.0890 H     1 <1>   0.0800 
 25 H        3.1970    -1.9430     1.0150 H     1 <1>   0.0800 
 26 H        2.6440    -0.4290    -0.8510 H     1 <1>   0.0800 
 27 H        3.8230    -1.2150    -1.8620 H     1 <1>   0.0800 
 28 H        5.1640    -3.2570    -0.8630 H     1 <1>   0.0800 
 29 H        4.8070    -3.7540     0.7660 H     1 <1>   0.0800 
 30 H        4.3750     0.3690     0.6560 H     1 <1>   0.0800 
 31 H        4.7370     0.8680    -0.9710 H     1 <1>   0.0800 
 32 H        6.8990    -2.4380     0.6470 H     1 <1>   0.0800 
 33 H        5.7070    -1.6680     1.6530 H     1 <1>   0.0800 
 34 H        6.7470     0.0010     0.2020 H     1 <1>   0.0800 
 35 H        6.3650    -0.9410    -1.2110 H     1 <1>   0.0800 
@<TRIPOS>BOND
  1   1   2  1   
  2   2   3  ar  
  3   2   4  ar  
  4   3   5  1   
  5   3   6  ar  
  6   4   7  ar  
  7   4  18  1   
  8   5   8  2   
  9   5   9  am  
 10   6  10  ar  
 11   6  19  1   
 12   7  10  ar  
 13   7  20  1   
 14   9  11  1   
 15   9  21  1   
 16  10  22  1   
 17  11  12  1   
 18  11  23  1   
 19  11  24  1   
 20  12  13  1   
 21  12  14  1   
 22  12  25  1   
 23  13  15  1   
 24  13  26  1   
 25  13  27  1   
 26  14  16  1   
 27  14  28  1   
 28  14  29  1   
 29  15  17  1   
 30  15  30  1   
 31  15  31  1   
 32  16  17  1   
 33  16  32  1   
 34  16  33  1   
 35  17  34  1   
 36  17  35  1   
@<TRIPOS>SUBSTRUCTURE
  1 ****   9 GROUP 4 **** **** 0

# MOE 2024.06 (io_trps.svl 2023.06)
