@<TRIPOS>MOLECULE
NONAME
38 39 1 0 0 
SMALL
USER_CHARGES


@<TRIPOS>ATOM
  1 S        0.2420    -1.8130    -0.8310 S.o2  1 <1>   1.5010 
  2 O        0.9200    -2.8170    -0.0460 O.2   1 <1>  -0.6500 
  3 O       -0.1350    -2.0560    -2.2030 O.2   1 <1>  -0.6500 
  4 N       -1.1950    -1.5190     0.0590 N.am  1 <1>  -0.7570 
  5 C        1.0880    -0.2380    -0.6730 C.2   1 <1>  -0.0630 
  6 C       -2.0040    -0.4040    -0.0950 C.ar  1 <1>   0.1990 
  7 C        1.1800     0.6990    -1.6930 C.2   1 <1>   0.1390 
  8 C        1.7180     0.3590     0.3710 C.2   1 <1>  -0.3020 
  9 C       -2.4140     0.3000     1.0270 C.ar  1 <1>  -0.1500 
 10 C       -2.4090     0.0420    -1.3460 C.ar  1 <1>  -0.1500 
 11 N        1.8100     1.7750    -1.3310 N.2   1 <1>  -0.7070 
 12 N        2.1420     1.5650    -0.0470 N.pl3 1 <1>   0.3140 
 13 C       -3.1900     1.4380     0.9120 C.ar  1 <1>   0.0830 
 14 C       -3.1820     1.1810    -1.4800 C.ar  1 <1>   0.0830 
 15 C        2.8620     2.5780     0.7510 C.3   1 <1>   0.0960 
 16 O       -3.5280     2.0580     2.0720 O.3   1 <1>  -0.3630 
 17 C       -3.5760     1.8870    -0.3470 C.ar  1 <1>  -0.1500 
 18 O       -3.5110     1.5430    -2.7460 O.3   1 <1>  -0.3630 
 19 C        1.8980     3.3480     1.6620 C.3   1 <1>  -0.2400 
 20 C       -4.3300     3.2180     2.0800 C.3   1 <1>   0.0400 
 21 C       -4.1960     2.7460    -3.0150 C.3   1 <1>   0.0400 
 22 H       -1.0760    -1.8890     0.9950 H     1 <1>   0.4200 
 23 H        0.7720     0.5560    -2.6810 H     1 <1>   0.1500 
 24 H        1.8770    -0.0070     1.3680 H     1 <1>   0.1500 
 25 H       -2.1250    -0.0300     2.0070 H     1 <1>   0.1500 
 26 H       -2.1290    -0.4970    -2.2320 H     1 <1>   0.1500 
 27 H        3.3460     3.2570     0.0720 H     1 <1>   0.0800 
 28 H        3.6140     2.0820     1.3350 H     1 <1>   0.0800 
 29 H       -4.1750     2.7680    -0.4450 H     1 <1>   0.1500 
 30 H        1.1480     3.8430     1.0690 H     1 <1>   0.0800 
 31 H        2.4380     4.0920     2.2190 H     1 <1>   0.0800 
 32 H        1.4180     2.6810     2.3560 H     1 <1>   0.0800 
 33 H       -4.4700     3.5200     3.1020 H     1 <1>   0.0800 
 34 H       -5.2820     2.9880     1.6340 H     1 <1>   0.0800 
 35 H       -3.8250     3.9960     1.5350 H     1 <1>   0.0800 
 36 H       -4.3020     2.8370    -4.0800 H     1 <1>   0.0800 
 37 H       -3.6180     3.5690    -2.6330 H     1 <1>   0.0800 
 38 H       -5.1670     2.7060    -2.5530 H     1 <1>   0.0800 
@<TRIPOS>BOND
  1   1   2  2   
  2   1   3  2   
  3   1   4  am  
  4   1   5  1   
  5   4   6  1   
  6   4  22  1   
  7   5   7  1   
  8   5   8  2   
  9   6   9  ar  
 10   6  10  ar  
 11   7  11  2   
 12   7  23  1   
 13   8  12  1   
 14   8  24  1   
 15   9  13  ar  
 16   9  25  1   
 17  10  14  ar  
 18  10  26  1   
 19  11  12  1   
 20  12  15  1   
 21  13  16  1   
 22  13  17  ar  
 23  14  17  ar  
 24  14  18  1   
 25  15  19  1   
 26  15  27  1   
 27  15  28  1   
 28  16  20  1   
 29  17  29  1   
 30  18  21  1   
 31  19  30  1   
 32  19  31  1   
 33  19  32  1   
 34  20  33  1   
 35  20  34  1   
 36  20  35  1   
 37  21  36  1   
 38  21  37  1   
 39  21  38  1   
@<TRIPOS>SUBSTRUCTURE
  1 ****   6 GROUP 4 **** **** 0

# MOE 2024.06 (io_trps.svl 2023.06)
