@<TRIPOS>MOLECULE
NONAME
39 40 1 0 0 
SMALL
USER_CHARGES


@<TRIPOS>ATOM
  1 O        0.9960     0.4060    -1.2050 O.2   1 <1>  -0.5700 
  2 C        1.3400     1.4610    -0.7670 C.2   1 <1>   0.4480 
  3 C        2.4220     1.5490     0.2840 C.3   1 <1>  -0.0380 
  4 C        0.6950     2.7510    -1.2400 C.3   1 <1>  -0.0990 
  5 C        3.0510     2.9260     0.3190 C.2   1 <1>   0.3280 
  6 C        0.6510     3.8300    -0.1410 C.3   1 <1>   0.0000 
  7 N        4.3150     3.0340     0.2940 N.2   1 <1>  -0.5120 
  8 C        2.0820     4.1140     0.3800 C.3   1 <1>  -0.0990 
  9 C       -0.2730     3.3890     1.0110 C.3   1 <1>  -0.2400 
 10 C        0.0570     5.1200    -0.7330 C.3   1 <1>  -0.2400 
 11 N        4.9600     4.2700     0.3460 N.am  1 <1>  -0.3680 
 12 C        6.3050     4.5120     0.2940 C.2   1 <1>   0.6900 
 13 O        6.6870     5.6630     0.3550 O.2   1 <1>  -0.5700 
 14 N        7.1360     3.4380     0.1690 N.am  1 <1>  -0.5470 
 15 C        8.5270     3.2910     0.0790 C.ar  1 <1>   0.1170 
 16 C        9.4230     4.3480     0.2160 C.ar  1 <1>  -0.1500 
 17 C        9.0420     2.0210    -0.1570 C.ar  1 <1>  -0.1500 
 18 C       10.7880     4.1400     0.1190 C.ar  1 <1>  -0.1500 
 19 C       10.4050     1.8080    -0.2540 C.ar  1 <1>  -0.1500 
 20 C       11.2820     2.8690    -0.1170 C.ar  1 <1>  -0.1500 
 21 H        2.0060     1.3190     1.2460 H     1 <1>   0.0800 
 22 H        3.1720     0.8090     0.0690 H     1 <1>   0.0800 
 23 H        1.2580     3.1110    -2.0830 H     1 <1>   0.0800 
 24 H       -0.3000     2.5320    -1.5870 H     1 <1>   0.0800 
 25 H        2.0390     4.4760     1.3920 H     1 <1>   0.0800 
 26 H        2.5030     4.9020    -0.2170 H     1 <1>   0.0800 
 27 H       -0.3550     4.1690     1.7490 H     1 <1>   0.0800 
 28 H        0.0830     2.5060     1.5070 H     1 <1>   0.0800 
 29 H       -1.2620     3.1820     0.6400 H     1 <1>   0.0800 
 30 H        0.6410     5.4660    -1.5680 H     1 <1>   0.0800 
 31 H        0.0300     5.9010     0.0070 H     1 <1>   0.0800 
 32 H       -0.9480     4.9510    -1.0790 H     1 <1>   0.0800 
 33 H        4.4180     5.1310     0.4440 H     1 <1>   0.3700 
 34 H        6.5870     2.5810     0.1220 H     1 <1>   0.3700 
 35 H        9.0640     5.3420     0.4010 H     1 <1>   0.1500 
 36 H        8.3700     1.1890    -0.2660 H     1 <1>   0.1500 
 37 H       11.4640     4.9700     0.2270 H     1 <1>   0.1500 
 38 H       10.7850     0.8180    -0.4370 H     1 <1>   0.1500 
 39 H       12.3430     2.7080    -0.1920 H     1 <1>   0.1500 
@<TRIPOS>BOND
  1   1   2  2   
  2   2   3  1   
  3   2   4  1   
  4   3   5  1   
  5   3  21  1   
  6   3  22  1   
  7   4   6  1   
  8   4  23  1   
  9   4  24  1   
 10   5   7  2   
 11   5   8  1   
 12   6   8  1   
 13   6   9  1   
 14   6  10  1   
 15   7  11  1   
 16   8  25  1   
 17   8  26  1   
 18   9  27  1   
 19   9  28  1   
 20   9  29  1   
 21  10  30  1   
 22  10  31  1   
 23  10  32  1   
 24  11  12  am  
 25  11  33  1   
 26  12  13  2   
 27  12  14  am  
 28  14  15  1   
 29  14  34  1   
 30  15  16  ar  
 31  15  17  ar  
 32  16  18  ar  
 33  16  35  1   
 34  17  19  ar  
 35  17  36  1   
 36  18  20  ar  
 37  18  37  1   
 38  19  20  ar  
 39  19  38  1   
 40  20  39  1   
@<TRIPOS>SUBSTRUCTURE
  1 ****   7 GROUP 4 **** **** 0

# MOE 2024.06 (io_trps.svl 2023.06)
