@<TRIPOS>MOLECULE
NONAME
35 35 1 0 0 
SMALL
USER_CHARGES


@<TRIPOS>ATOM
  1 CL       0.0530     0.0800    -0.0150 Cl    1 <1>  -0.1770 
  2 C        0.0050     1.8300     0.0400 C.ar  1 <1>   0.1770 
  3 C       -1.2310     2.4760     0.0320 C.ar  1 <1>   0.1170 
  4 C        1.2020     2.5130     0.0920 C.ar  1 <1>  -0.1500 
  5 N       -2.4100     1.7120    -0.0240 N.am  1 <1>  -0.5470 
  6 C       -1.2080     3.8670     0.0900 C.ar  1 <1>  -0.1500 
  7 C        1.2260     3.9080     0.1370 C.ar  1 <1>   0.0860 
  8 C       -3.7220     2.0570    -0.1830 C.2   1 <1>   0.5690 
  9 C       -0.0110     4.5590     0.1420 C.ar  1 <1>  -0.1500 
 10 C        2.4680     4.6560     0.1800 C.2   1 <1>   0.5440 
 11 O       -4.1160     3.1860    -0.3230 O.2   1 <1>  -0.5700 
 12 C       -4.7310     0.9370    -0.1890 C.3   1 <1>  -0.1790 
 13 O        2.5110     5.7570     0.6930 O.2   1 <1>  -0.5700 
 14 N        3.6130     4.1440    -0.3680 N.am  1 <1>  -0.7300 
 15 C        4.9360     4.8020    -0.3460 C.3   1 <1>   0.1400 
 16 C        6.0110     3.7520    -0.0660 C.3   1 <1>  -0.1600 
 17 C        7.4070     4.3850    -0.0290 C.3   1 <1>  -0.1600 
 18 C        8.4820     3.3320     0.2520 C.3   1 <1>  -0.2400 
 19 H        2.1200     1.9550     0.1080 H     1 <1>   0.1500 
 20 H       -2.2460     0.7060     0.0380 H     1 <1>   0.3700 
 21 H       -2.1260     4.4250     0.0990 H     1 <1>   0.1500 
 22 H       -0.0260     5.6350     0.1880 H     1 <1>   0.1500 
 23 H       -4.5320     0.2700    -1.0060 H     1 <1>   0.0800 
 24 H       -5.7200     1.3410    -0.3050 H     1 <1>   0.0800 
 25 H       -4.6840     0.3980     0.7390 H     1 <1>   0.0800 
 26 H        3.5620     3.2930    -0.9280 H     1 <1>   0.3700 
 27 H        4.9560     5.5610     0.4200 H     1 <1>   0.0800 
 28 H        5.1130     5.2750    -1.2970 H     1 <1>   0.0800 
 29 H        5.9840     2.9990    -0.8350 H     1 <1>   0.0800 
 30 H        5.8070     3.2880     0.8830 H     1 <1>   0.0800 
 31 H        7.4420     5.1390     0.7400 H     1 <1>   0.0800 
 32 H        7.6160     4.8610    -0.9720 H     1 <1>   0.0800 
 33 H        8.3070     2.8590     1.2020 H     1 <1>   0.0800 
 34 H        9.4530     3.7950     0.2760 H     1 <1>   0.0800 
 35 H        8.4830     2.5790    -0.5160 H     1 <1>   0.0800 
@<TRIPOS>BOND
  1   1   2  1   
  2   2   3  ar  
  3   2   4  ar  
  4   3   5  1   
  5   3   6  ar  
  6   4   7  ar  
  7   4  19  1   
  8   5   8  am  
  9   5  20  1   
 10   6   9  ar  
 11   6  21  1   
 12   7   9  ar  
 13   7  10  1   
 14   8  11  2   
 15   8  12  1   
 16   9  22  1   
 17  10  13  2   
 18  10  14  am  
 19  12  23  1   
 20  12  24  1   
 21  12  25  1   
 22  14  15  1   
 23  14  26  1   
 24  15  16  1   
 25  15  27  1   
 26  15  28  1   
 27  16  17  1   
 28  16  29  1   
 29  16  30  1   
 30  17  18  1   
 31  17  31  1   
 32  17  32  1   
 33  18  33  1   
 34  18  34  1   
 35  18  35  1   
@<TRIPOS>SUBSTRUCTURE
  1 ****   7 GROUP 4 **** **** 0

# MOE 2024.06 (io_trps.svl 2023.06)
