@<TRIPOS>MOLECULE
NONAME
40 41 1 0 0 
SMALL
USER_CHARGES


@<TRIPOS>ATOM
  1 O        0.2060    -1.5620    -1.8600 O.2   1 <1>  -0.5700 
  2 C       -0.1670    -1.8390    -0.7450 C.2   1 <1>   0.5690 
  3 N       -1.4620    -1.6430    -0.3890 N.am  1 <1>  -0.7300 
  4 C        0.8150    -2.4240     0.3020 C.3   1 <1>   0.0610 
  5 C       -2.5260    -1.1720    -1.3130 C.3   1 <1>   0.3200 
  6 C        0.9070    -1.4940     1.5280 C.3   1 <1>  -0.2400 
  7 C        0.3330    -3.8110     0.7690 C.3   1 <1>  -0.2400 
  8 C        2.2360    -2.5870    -0.2760 C.3   1 <1>  -0.2400 
  9 C       -3.7590    -2.0570    -1.2190 C.2   1 <1>   0.2980 
 10 O       -3.7100    -3.2530    -1.7460 O.3   1 <1>  -0.0190 
 11 N       -4.8570    -1.7530    -0.6600 N.2   1 <1>  -0.5650 
 12 N       -4.8800    -3.7530    -1.5000 N.2   1 <1>  -0.4100 
 13 C       -5.5630    -2.8710    -0.8590 C.2   1 <1>   0.4620 
 14 C       -6.9290    -3.0330    -0.3900 C.ar  1 <1>   0.0540 
 15 C       -7.5970    -2.0160     0.2960 C.ar  1 <1>  -0.1500 
 16 C       -7.6340    -4.2200    -0.6070 C.ar  1 <1>  -0.1500 
 17 C       -8.8960    -2.1760     0.7410 C.ar  1 <1>  -0.1500 
 18 C       -8.9330    -4.3880    -0.1640 C.ar  1 <1>  -0.1500 
 19 C       -9.5760    -3.3600     0.5170 C.ar  1 <1>   0.0820 
 20 O      -10.8440    -3.4390     0.9860 O.3   1 <1>  -0.3620 
 21 C      -11.6220    -4.6010     0.8110 C.3   1 <1>   0.0400 
 22 H       -1.7710    -1.8890     0.5520 H     1 <1>   0.3700 
 23 H       -2.1690    -1.1700    -2.3280 H     1 <1>   0.0800 
 24 H       -2.7960    -0.1650    -1.0490 H     1 <1>   0.0800 
 25 H       -0.0490    -1.3950     2.0090 H     1 <1>   0.0800 
 26 H        1.2360    -0.5160     1.2240 H     1 <1>   0.0800 
 27 H        1.6080    -1.8800     2.2460 H     1 <1>   0.0800 
 28 H        1.0250    -4.2370     1.4730 H     1 <1>   0.0800 
 29 H       -0.6310    -3.7470     1.2400 H     1 <1>   0.0800 
 30 H        0.2530    -4.4750    -0.0740 H     1 <1>   0.0800 
 31 H        2.6180    -1.6340    -0.6000 H     1 <1>   0.0800 
 32 H        2.2190    -3.2450    -1.1270 H     1 <1>   0.0800 
 33 H        2.9090    -2.9930     0.4580 H     1 <1>   0.0800 
 34 H       -7.0930    -1.0840     0.4840 H     1 <1>   0.1500 
 35 H       -7.1540    -5.0270    -1.1330 H     1 <1>   0.1500 
 36 H       -9.3930    -1.3810     1.2680 H     1 <1>   0.1500 
 37 H       -9.4280    -5.3210    -0.3580 H     1 <1>   0.1500 
 38 H      -12.5830    -4.4310     1.2620 H     1 <1>   0.0800 
 39 H      -11.1320    -5.4260     1.2960 H     1 <1>   0.0800 
 40 H      -11.7400    -4.7870    -0.2420 H     1 <1>   0.0800 
@<TRIPOS>BOND
  1   1   2  2   
  2   2   3  am  
  3   2   4  1   
  4   3   5  1   
  5   3  22  1   
  6   4   6  1   
  7   4   7  1   
  8   4   8  1   
  9   5   9  1   
 10   5  23  1   
 11   5  24  1   
 12   6  25  1   
 13   6  26  1   
 14   6  27  1   
 15   7  28  1   
 16   7  29  1   
 17   7  30  1   
 18   8  31  1   
 19   8  32  1   
 20   8  33  1   
 21   9  10  1   
 22   9  11  2   
 23  10  12  1   
 24  11  13  1   
 25  12  13  2   
 26  13  14  1   
 27  14  15  ar  
 28  14  16  ar  
 29  15  17  ar  
 30  15  34  1   
 31  16  18  ar  
 32  16  35  1   
 33  17  19  ar  
 34  17  36  1   
 35  18  19  ar  
 36  18  37  1   
 37  19  20  1   
 38  20  21  1   
 39  21  38  1   
 40  21  39  1   
 41  21  40  1   
@<TRIPOS>SUBSTRUCTURE
  1 ****  11 GROUP 4 **** **** 0

# MOE 2024.06 (io_trps.svl 2023.06)
