@<TRIPOS>MOLECULE
NONAME
31 32 1 0 0 
SMALL
USER_CHARGES


@<TRIPOS>ATOM
  1 N       -1.8410    -0.4810     0.6890 N.1   1 <1>  -0.5570 
  2 C       -1.1680    -1.4030     0.6910 C.1   1 <1>   0.5380 
  3 C       -0.3170    -2.5470     0.7010 C.2   1 <1>   0.0190 
  4 C        0.6310    -2.9370    -0.1970 C.2   1 <1>  -0.0680 
  5 C       -0.2920    -3.5310     1.6870 C.2   1 <1>   0.1390 
  6 N        1.1520    -4.1020     0.2800 N.pl3 1 <1>   0.3140 
  7 N        1.0130    -2.2940    -1.3880 N.pl3 1 <1>  -0.8840 
  8 N        0.5750    -4.4620     1.4520 N.2   1 <1>  -0.7070 
  9 C        2.1640    -4.9620    -0.3700 C.3   1 <1>   0.0960 
 10 C        3.5680    -4.7690     0.2350 C.3   1 <1>  -0.0800 
 11 C        4.0970    -3.3330     0.0420 C.3   1 <1>  -0.1600 
 12 C        4.5440    -5.7850    -0.3850 C.3   1 <1>  -0.1600 
 13 C        5.5140    -3.1750     0.6080 C.3   1 <1>  -0.1600 
 14 C        5.9610    -5.6260     0.1830 C.3   1 <1>  -0.1600 
 15 C        6.4780    -4.1960    -0.0090 C.3   1 <1>  -0.1600 
 16 H       -0.9270    -3.5250     2.5570 H     1 <1>   0.1500 
 17 H        1.9980    -2.3670    -1.6680 H     1 <1>   0.4000 
 18 H        0.6590    -1.3400    -1.5400 H     1 <1>   0.4000 
 19 H        2.1760    -4.7470    -1.4220 H     1 <1>   0.0800 
 20 H        1.8520    -5.9810    -0.2390 H     1 <1>   0.0800 
 21 H        3.5030    -4.9740     1.2910 H     1 <1>   0.0800 
 22 H        3.4510    -2.6320     0.5410 H     1 <1>   0.0800 
 23 H        4.1110    -3.0900    -1.0060 H     1 <1>   0.0800 
 24 H        4.5790    -5.6510    -1.4530 H     1 <1>   0.0800 
 25 H        4.2000    -6.7860    -0.1880 H     1 <1>   0.0800 
 26 H        5.4880    -3.3130     1.6760 H     1 <1>   0.0800 
 27 H        5.8730    -2.1790     0.4150 H     1 <1>   0.0800 
 28 H        6.6260    -6.3180    -0.3050 H     1 <1>   0.0800 
 29 H        5.9530    -5.8640     1.2340 H     1 <1>   0.0800 
 30 H        7.4470    -4.0990     0.4490 H     1 <1>   0.0800 
 31 H        6.5880    -3.9940    -1.0610 H     1 <1>   0.0800 
@<TRIPOS>BOND
  1   1   2  3   
  2   2   3  1   
  3   3   4  2   
  4   3   5  1   
  5   4   6  1   
  6   4   7  1   
  7   5   8  2   
  8   5  16  1   
  9   6   8  1   
 10   6   9  1   
 11   7  17  1   
 12   7  18  1   
 13   9  10  1   
 14   9  19  1   
 15   9  20  1   
 16  10  11  1   
 17  10  12  1   
 18  10  21  1   
 19  11  13  1   
 20  11  22  1   
 21  11  23  1   
 22  12  14  1   
 23  12  24  1   
 24  12  25  1   
 25  13  15  1   
 26  13  26  1   
 27  13  27  1   
 28  14  15  1   
 29  14  28  1   
 30  14  29  1   
 31  15  30  1   
 32  15  31  1   
@<TRIPOS>SUBSTRUCTURE
  1 ****   6 GROUP 4 **** **** 0

# MOE 2024.06 (io_trps.svl 2023.06)
