@<TRIPOS>MOLECULE
NONAME
54 56 1 0 0 
SMALL
USER_CHARGES


@<TRIPOS>ATOM
  1 CL       1.3130     2.2640    -3.6020 Cl    1 <1>  -0.1770 
  2 C        1.7750     2.5820    -1.9430 C.ar  1 <1>   0.1770 
  3 C        1.0030     3.4270    -1.1510 C.ar  1 <1>   0.0830 
  4 C        2.9140     1.9730    -1.4570 C.ar  1 <1>  -0.1500 
  5 O       -0.1110     3.9920    -1.6990 O.3   1 <1>  -0.3630 
  6 C        1.4090     3.6520     0.1620 C.ar  1 <1>  -0.1500 
  7 C        3.3190     2.1920    -0.1460 C.ar  1 <1>   0.1990 
  8 C       -0.9680     4.8090    -0.9310 C.3   1 <1>   0.0400 
  9 C        2.5530     3.0410     0.6470 C.ar  1 <1>  -0.1500 
 10 N        4.4750     1.5930     0.3610 N.am  1 <1>  -0.6930 
 11 S        4.4830     0.5700     1.7660 S.o2  1 <1>   1.4470 
 12 C        5.7770     1.7700    -0.3600 C.3   1 <1>   0.2570 
 13 O        3.2600     0.8180     2.4930 O.2   1 <1>  -0.6500 
 14 O        5.7490     0.8250     2.4170 O.2   1 <1>  -0.6500 
 15 C        4.4660    -1.1270     1.1210 C.ar  1 <1>  -0.0090 
 16 C        6.2650     0.5010    -1.0770 C.2   1 <1>   0.5690 
 17 C        5.1400    -2.1400     1.7940 C.ar  1 <1>  -0.1500 
 18 C        3.7790    -1.4730    -0.0370 C.ar  1 <1>  -0.1500 
 19 O        5.7520     0.2680    -2.1490 O.2   1 <1>  -0.5700 
 20 N        7.2100    -0.3480    -0.5440 N.am  1 <1>  -0.6600 
 21 C        5.1480    -3.4410     1.3220 C.ar  1 <1>  -0.1500 
 22 C        3.7860    -2.7710    -0.5180 C.ar  1 <1>  -0.1500 
 23 C        8.0600    -0.0910     0.6570 C.3   1 <1>   0.1400 
 24 C        7.4420    -1.6940    -1.1470 C.3   1 <1>   0.1400 
 25 C        4.4750    -3.7620     0.1580 C.ar  1 <1>  -0.1430 
 26 C        9.5400    -0.2210     0.2810 C.3   1 <1>  -0.1600 
 27 C        8.9130    -1.8380    -1.5480 C.3   1 <1>  -0.1600 
 28 C        4.4820    -5.1850    -0.3710 C.3   1 <1>  -0.0970 
 29 C        9.8460    -1.5830    -0.3570 C.3   1 <1>  -0.1600 
 30 H        3.4770     1.3270    -2.1040 H     1 <1>   0.1500 
 31 H        0.8540     4.2940     0.8190 H     1 <1>   0.1500 
 32 H       -1.7840     5.1190    -1.5600 H     1 <1>   0.0800 
 33 H       -0.4210     5.6710    -0.5930 H     1 <1>   0.0800 
 34 H       -1.3450     4.2380    -0.1010 H     1 <1>   0.0800 
 35 H        2.8580     3.2240     1.6630 H     1 <1>   0.1500 
 36 H        6.5140     2.1360     0.3260 H     1 <1>   0.0800 
 37 H        5.6540     2.5310    -1.1090 H     1 <1>   0.0800 
 38 H        5.6690    -1.9060     2.7020 H     1 <1>   0.1500 
 39 H        3.2330    -0.7220    -0.5800 H     1 <1>   0.1500 
 40 H        5.6800    -4.2010     1.8680 H     1 <1>   0.1500 
 41 H        3.2510    -3.0020    -1.4230 H     1 <1>   0.1500 
 42 H        7.8150    -0.8110     1.4190 H     1 <1>   0.0800 
 43 H        7.8940     0.8870     1.0650 H     1 <1>   0.0800 
 44 H        6.8170    -1.8440    -2.0110 H     1 <1>   0.0800 
 45 H        7.1850    -2.4490    -0.4250 H     1 <1>   0.0800 
 46 H       10.1410    -0.0940     1.1640 H     1 <1>   0.0800 
 47 H        9.7960     0.5670    -0.4060 H     1 <1>   0.0800 
 48 H        9.1260    -1.1380    -2.3370 H     1 <1>   0.0800 
 49 H        9.0800    -2.8280    -1.9330 H     1 <1>   0.0800 
 50 H        5.3710    -5.7010    -0.0560 H     1 <1>   0.0800 
 51 H        4.4530    -5.1860    -1.4460 H     1 <1>   0.0800 
 52 H        3.6240    -5.7150     0.0000 H     1 <1>   0.0800 
 53 H        9.7090    -2.3600     0.3760 H     1 <1>   0.0800 
 54 H       10.8710    -1.6100    -0.6840 H     1 <1>   0.0800 
@<TRIPOS>BOND
  1   1   2  1   
  2   2   3  ar  
  3   2   4  ar  
  4   3   5  1   
  5   3   6  ar  
  6   4   7  ar  
  7   4  30  1   
  8   5   8  1   
  9   6   9  ar  
 10   6  31  1   
 11   7   9  ar  
 12   7  10  1   
 13   8  32  1   
 14   8  33  1   
 15   8  34  1   
 16   9  35  1   
 17  10  11  am  
 18  10  12  1   
 19  11  13  2   
 20  11  14  2   
 21  11  15  1   
 22  12  16  1   
 23  12  36  1   
 24  12  37  1   
 25  15  17  ar  
 26  15  18  ar  
 27  16  19  2   
 28  16  20  am  
 29  17  21  ar  
 30  17  38  1   
 31  18  22  ar  
 32  18  39  1   
 33  20  23  1   
 34  20  24  1   
 35  21  25  ar  
 36  21  40  1   
 37  22  25  ar  
 38  22  41  1   
 39  23  26  1   
 40  23  42  1   
 41  23  43  1   
 42  24  27  1   
 43  24  44  1   
 44  24  45  1   
 45  25  28  1   
 46  26  29  1   
 47  26  46  1   
 48  26  47  1   
 49  27  29  1   
 50  27  48  1   
 51  27  49  1   
 52  28  50  1   
 53  28  51  1   
 54  28  52  1   
 55  29  53  1   
 56  29  54  1   
@<TRIPOS>SUBSTRUCTURE
  1 ****  10 GROUP 4 **** **** 0

# MOE 2024.06 (io_trps.svl 2023.06)
