@<TRIPOS>MOLECULE
NONAME
43 46 1 0 0 
SMALL
USER_CHARGES


@<TRIPOS>ATOM
  1 O        0.9660    -1.4090     0.7210 O.co2 1 <1>  -0.9000 
  2 C        0.3340    -2.2160     1.4030 C.2   1 <1>   0.9060 
  3 O        0.9010    -2.9720     2.2000 O.co2 1 <1>  -0.9000 
  4 C       -1.1730    -2.3310     1.3180 C.3   1 <1>  -0.1860 
  5 C       -1.7770    -3.6230     0.6200 C.3   1 <1>  -0.0190 
  6 C       -1.8490    -1.0450     0.7780 C.3   1 <1>   0.1530 
  7 C       -0.8380    -4.6230    -0.0860 C.2   1 <1>   0.5690 
  8 C       -2.9560    -3.1920    -0.3070 C.3   1 <1>   0.1530 
  9 C       -3.3300    -1.2520     1.1010 C.2   1 <1>  -0.2880 
 10 C       -1.7130    -1.0470    -0.7680 C.3   1 <1>  -0.1950 
 11 O       -1.1900    -5.1140    -1.1360 O.2   1 <1>  -0.5700 
 12 N        0.3160    -5.0230     0.5270 N.am  1 <1>  -0.5470 
 13 C       -3.8870    -2.3410     0.5590 C.2   1 <1>  -0.2880 
 14 C       -2.3550    -2.2550    -1.3890 C.3   1 <1>  -0.1950 
 15 C       -2.8290    -0.8770    -1.7600 C.3   1 <1>  -0.2000 
 16 C        1.3590    -5.8090     0.0240 C.ar  1 <1>   0.1170 
 17 C        1.2210    -7.1480    -0.3490 C.ar  1 <1>  -0.1430 
 18 C        2.6070    -5.2090    -0.0780 C.ar  1 <1>  -0.1500 
 19 C        2.3200    -7.8410    -0.8330 C.ar  1 <1>  -0.1500 
 20 C       -0.1090    -7.8800    -0.2310 C.3   1 <1>  -0.0970 
 21 C        3.6980    -5.9080    -0.5570 C.ar  1 <1>  -0.1500 
 22 C        3.5600    -7.2310    -0.9430 C.ar  1 <1>  -0.1430 
 23 C        4.7520    -8.0050    -1.4730 C.3   1 <1>  -0.0970 
 24 H       -1.4650    -2.3900     2.3490 H     1 <1>   0.0800 
 25 H       -2.2200    -4.2020     1.4080 H     1 <1>   0.0800 
 26 H       -1.4540    -0.1470     1.2220 H     1 <1>   0.0800 
 27 H       -3.4780    -4.0250    -0.7440 H     1 <1>   0.0800 
 28 H       -3.7970    -0.5180     1.7320 H     1 <1>   0.1500 
 29 H       -0.7120    -0.8120    -1.0910 H     1 <1>   0.1000 
 30 H        0.6160    -4.4010     1.3030 H     1 <1>   0.3700 
 31 H       -4.9040    -2.6750     0.6590 H     1 <1>   0.1500 
 32 H       -1.7730    -2.7880    -2.1220 H     1 <1>   0.1000 
 33 H       -2.5830    -0.5000    -2.7360 H     1 <1>   0.1000 
 34 H       -3.7930    -0.5340    -1.4290 H     1 <1>   0.1000 
 35 H        2.7100    -4.1780     0.2230 H     1 <1>   0.1500 
 36 H        2.2120    -8.8690    -1.1280 H     1 <1>   0.1500 
 37 H       -0.7050    -7.6880    -1.1050 H     1 <1>   0.0800 
 38 H       -0.6460    -7.5440     0.6360 H     1 <1>   0.0800 
 39 H        0.0450    -8.9400    -0.1430 H     1 <1>   0.0800 
 40 H        4.6500    -5.4130    -0.6260 H     1 <1>   0.1500 
 41 H        4.4360    -8.7150    -2.2160 H     1 <1>   0.0800 
 42 H        5.2300    -8.5300    -0.6670 H     1 <1>   0.0800 
 43 H        5.4630    -7.3360    -1.9240 H     1 <1>   0.0800 
@<TRIPOS>BOND
  1   1   2  ar  
  2   2   3  ar  
  3   2   4  1   
  4   4   5  1   
  5   4   6  1   
  6   4  24  1   
  7   5   7  1   
  8   5   8  1   
  9   5  25  1   
 10   6   9  1   
 11   6  10  1   
 12   6  26  1   
 13   7  11  2   
 14   7  12  am  
 15   8  13  1   
 16   8  14  1   
 17   8  27  1   
 18   9  13  2   
 19   9  28  1   
 20  10  14  1   
 21  10  15  1   
 22  10  29  1   
 23  12  16  1   
 24  12  30  1   
 25  13  31  1   
 26  14  15  1   
 27  14  32  1   
 28  15  33  1   
 29  15  34  1   
 30  16  17  ar  
 31  16  18  ar  
 32  17  19  ar  
 33  17  20  1   
 34  18  21  ar  
 35  18  35  1   
 36  19  22  ar  
 37  19  36  1   
 38  20  37  1   
 39  20  38  1   
 40  20  39  1   
 41  21  22  ar  
 42  21  40  1   
 43  22  23  1   
 44  23  41  1   
 45  23  42  1   
 46  23  43  1   
@<TRIPOS>SUBSTRUCTURE
  1 ****   7 GROUP 4 **** **** 0

# MOE 2024.06 (io_trps.svl 2023.06)
