@<TRIPOS>MOLECULE
NONAME
40 40 1 0 0 
SMALL
USER_CHARGES


@<TRIPOS>ATOM
  1 O       -0.0220    -0.5340    -0.1540 O.2   1 <1>  -0.5700 
  2 C       -0.0500    -1.7520    -0.0870 C.2   1 <1>   0.5410 
  3 C        1.1140    -2.5720    -0.0400 C.2   1 <1>  -0.1240 
  4 C       -1.2500    -2.5190    -0.0480 C.2   1 <1>  -0.1240 
  5 C        2.4130    -2.1780    -0.0600 C.2   1 <1>  -0.1500 
  6 C        0.6670    -4.0220     0.0390 C.3   1 <1>  -0.0220 
  7 C       -2.5300    -2.0660    -0.0750 C.2   1 <1>  -0.1500 
  8 C       -0.8700    -3.9870     0.0320 C.3   1 <1>  -0.0220 
  9 C        3.5800    -2.9940    -0.0130 C.2   1 <1>  -0.1500 
 10 C       -3.7330    -2.8280    -0.0360 C.2   1 <1>  -0.1500 
 11 C        4.8580    -2.5430    -0.0400 C.2   1 <1>  -0.0500 
 12 C       -4.9880    -2.3190    -0.0700 C.2   1 <1>  -0.0500 
 13 N        6.0090    -3.3040     0.0060 N.pl3 1 <1>  -0.8380 
 14 N       -6.1730    -3.0280    -0.0320 N.pl3 1 <1>  -0.8380 
 15 C        6.0080    -4.7840     0.1620 C.3   1 <1>   0.1290 
 16 C        7.3460    -2.6710    -0.1320 C.3   1 <1>   0.1290 
 17 C       -6.2400    -4.5060     0.1210 C.3   1 <1>   0.1290 
 18 C       -7.4800    -2.3340    -0.1770 C.3   1 <1>   0.1290 
 19 H        2.6100    -1.1200    -0.1180 H     1 <1>   0.1500 
 20 H        1.0370    -4.5720    -0.8090 H     1 <1>   0.0800 
 21 H        1.0310    -4.4740     0.9460 H     1 <1>   0.0800 
 22 H       -2.6790    -1.0000    -0.1330 H     1 <1>   0.1500 
 23 H       -1.2620    -4.4240     0.9340 H     1 <1>   0.0800 
 24 H       -1.2560    -4.5180    -0.8210 H     1 <1>   0.0800 
 25 H        3.4070    -4.0500     0.0460 H     1 <1>   0.1500 
 26 H       -3.6090    -3.8910     0.0210 H     1 <1>   0.1500 
 27 H        5.0170    -1.4780    -0.1080 H     1 <1>   0.1500 
 28 H       -5.0990    -1.2480    -0.1380 H     1 <1>   0.1500 
 29 H        6.9520    -5.1180     0.5530 H     1 <1>   0.0800 
 30 H        5.8370    -5.2460    -0.7940 H     1 <1>   0.0800 
 31 H        5.2330    -5.0820     0.8460 H     1 <1>   0.0800 
 32 H        7.8660    -3.0970    -0.9720 H     1 <1>   0.0800 
 33 H        7.9200    -2.8350     0.7630 H     1 <1>   0.0800 
 34 H        7.2450    -1.6110    -0.2890 H     1 <1>   0.0800 
 35 H       -7.2010    -4.7980     0.5060 H     1 <1>   0.0800 
 36 H       -5.4840    -4.8400     0.8090 H     1 <1>   0.0800 
 37 H       -6.0850    -4.9740    -0.8350 H     1 <1>   0.0800 
 38 H       -8.0130    -2.7350    -1.0210 H     1 <1>   0.0800 
 39 H       -7.3300    -1.2800    -0.3310 H     1 <1>   0.0800 
 40 H       -8.0660    -2.4740     0.7140 H     1 <1>   0.0800 
@<TRIPOS>BOND
  1   1   2  2   
  2   2   3  1   
  3   2   4  1   
  4   3   5  2   
  5   3   6  1   
  6   4   7  2   
  7   4   8  1   
  8   5   9  1   
  9   5  19  1   
 10   6   8  1   
 11   6  20  1   
 12   6  21  1   
 13   7  10  1   
 14   7  22  1   
 15   8  23  1   
 16   8  24  1   
 17   9  11  2   
 18   9  25  1   
 19  10  12  2   
 20  10  26  1   
 21  11  13  1   
 22  11  27  1   
 23  12  14  1   
 24  12  28  1   
 25  13  15  1   
 26  13  16  1   
 27  14  17  1   
 28  14  18  1   
 29  15  29  1   
 30  15  30  1   
 31  15  31  1   
 32  16  32  1   
 33  16  33  1   
 34  16  34  1   
 35  17  35  1   
 36  17  36  1   
 37  17  37  1   
 38  18  38  1   
 39  18  39  1   
 40  18  40  1   
@<TRIPOS>SUBSTRUCTURE
  1 ****   2 GROUP 4 **** **** 0

# MOE 2024.06 (io_trps.svl 2023.06)
