@<TRIPOS>MOLECULE
NONAME
56 59 1 0 0 
SMALL
USER_CHARGES


@<TRIPOS>ATOM
  1 S        0.1210    -1.3070     0.6350 S.3   1 <1>  -0.0800 
  2 C        1.5640    -0.3470     0.9150 C.2   1 <1>   0.1660 
  3 C       -0.7910     0.1340     0.2160 C.2   1 <1>  -0.1400 
  4 N        2.7340    -0.9020     1.2950 N.2   1 <1>  -0.5760 
  5 C        1.3300     0.9740     0.7010 C.2   1 <1>  -0.0860 
  6 C       -0.0300     1.2360     0.3080 C.2   1 <1>  -0.1810 
  7 C       -2.2420     0.0360    -0.1870 C.3   1 <1>   0.5230 
  8 C        3.7070    -0.0650     1.4320 C.2   1 <1>   0.6510 
  9 C        2.4330     1.8550     0.8910 C.2   1 <1>   0.7160 
 10 C       -0.6090     2.6070     0.0060 C.3   1 <1>   0.0210 
 11 N       -2.6030     1.3210    -0.8830 N.4   1 <1>  -0.9590 
 12 S        5.2600    -0.7580     1.9680 S.3   1 <1>  -0.3710 
 13 N        3.6490     1.2970     1.2220 N.am  1 <1>  -0.4200 
 14 O        2.3010     3.0680     0.7800 O.2   1 <1>  -0.5700 
 15 C       -2.1460     2.5320    -0.1050 C.3   1 <1>   0.3430 
 16 C       -4.0250     1.4230    -1.2940 C.3   1 <1>   0.4230 
 17 C        4.9300    -2.5860     2.0880 C.3   1 <1>   0.1310 
 18 C        4.8570     2.1700     1.2210 C.3   1 <1>   0.2840 
 19 C       -4.9740     1.2590    -0.1060 C.3   1 <1>  -0.2400 
 20 C       -4.3130     0.3850    -2.3740 C.3   1 <1>  -0.2400 
 21 C        6.1950    -3.3350     2.4600 C.2   1 <1>   0.6590 
 22 C        5.4320     2.2540    -0.1870 C.ar  1 <1>  -0.1440 
 23 O        6.3180    -3.8790     3.5280 O.2   1 <1>  -0.5700 
 24 O        7.1500    -3.3720     1.5360 O.3   1 <1>  -0.4300 
 25 C        4.9660     3.2160    -1.0730 C.ar  1 <1>  -0.1500 
 26 C        6.4240     1.3780    -0.6040 C.ar  1 <1>  -0.1500 
 27 C        8.3750    -4.0390     1.7620 C.3   1 <1>   0.0400 
 28 C        5.4770     3.2950    -2.3560 C.ar  1 <1>  -0.1500 
 29 C        6.9350     1.4560    -1.8880 C.ar  1 <1>  -0.1500 
 30 C        6.4610     2.4140    -2.7660 C.ar  1 <1>  -0.1500 
 31 H       -2.8480    -0.1110     0.6910 H     1 <1>   0.0800 
 32 H       -2.3780    -0.8000    -0.8520 H     1 <1>   0.0800 
 33 H       -0.1890     2.9830    -0.9090 H     1 <1>   0.0800 
 34 H       -0.3520     3.2960     0.7920 H     1 <1>   0.0800 
 35 H       -2.0430     1.3130    -1.7430 H     1 <1>   0.4500 
 36 H       -2.5060     3.4330    -0.5740 H     1 <1>   0.0800 
 37 H       -2.5600     2.4870     0.8890 H     1 <1>   0.0800 
 38 H       -4.1880     2.4000    -1.7240 H     1 <1>   0.0800 
 39 H        4.5690    -2.9140     1.1320 H     1 <1>   0.0800 
 40 H        4.1750    -2.7270     2.8390 H     1 <1>   0.0800 
 41 H        5.6020     1.8070     1.9050 H     1 <1>   0.0800 
 42 H        4.5930     3.1580     1.5580 H     1 <1>   0.0800 
 43 H       -4.9350     0.2680     0.3080 H     1 <1>   0.0800 
 44 H       -5.9840     1.4270    -0.4380 H     1 <1>   0.0800 
 45 H       -4.7670     1.9800     0.6630 H     1 <1>   0.0800 
 46 H       -4.2540    -0.6190    -1.9930 H     1 <1>   0.0800 
 47 H       -3.6370     0.4970    -3.2030 H     1 <1>   0.0800 
 48 H       -5.3110     0.5310    -2.7490 H     1 <1>   0.0800 
 49 H        4.2020     3.9120    -0.7690 H     1 <1>   0.1500 
 50 H        6.8110     0.6280     0.0630 H     1 <1>   0.1500 
 51 H        8.9870    -3.9360     0.8840 H     1 <1>   0.0800 
 52 H        8.1750    -5.0790     1.9550 H     1 <1>   0.0800 
 53 H        8.8640    -3.5920     2.6100 H     1 <1>   0.0800 
 54 H        5.1080     4.0430    -3.0360 H     1 <1>   0.1500 
 55 H        7.7020     0.7710    -2.2040 H     1 <1>   0.1500 
 56 H        6.8570     2.4750    -3.7650 H     1 <1>   0.1500 
@<TRIPOS>BOND
  1   1   2  1   
  2   1   3  1   
  3   2   4  1   
  4   2   5  2   
  5   3   6  2   
  6   3   7  1   
  7   4   8  2   
  8   5   6  1   
  9   5   9  1   
 10   6  10  1   
 11   7  11  1   
 12   7  31  1   
 13   7  32  1   
 14   8  12  1   
 15   8  13  1   
 16   9  13  am  
 17   9  14  2   
 18  10  15  1   
 19  10  33  1   
 20  10  34  1   
 21  11  15  1   
 22  11  16  1   
 23  11  35  1   
 24  12  17  1   
 25  13  18  1   
 26  15  36  1   
 27  15  37  1   
 28  16  19  1   
 29  16  20  1   
 30  16  38  1   
 31  17  21  1   
 32  17  39  1   
 33  17  40  1   
 34  18  22  1   
 35  18  41  1   
 36  18  42  1   
 37  19  43  1   
 38  19  44  1   
 39  19  45  1   
 40  20  46  1   
 41  20  47  1   
 42  20  48  1   
 43  21  23  2   
 44  21  24  1   
 45  22  25  ar  
 46  22  26  ar  
 47  24  27  1   
 48  25  28  ar  
 49  25  49  1   
 50  26  29  ar  
 51  26  50  1   
 52  27  51  1   
 53  27  52  1   
 54  27  53  1   
 55  28  30  ar  
 56  28  54  1   
 57  29  30  ar  
 58  29  55  1   
 59  30  56  1   
@<TRIPOS>SUBSTRUCTURE
  1 ****   5 GROUP 4 **** **** 0

# MOE 2024.06 (io_trps.svl 2023.06)
