@<TRIPOS>MOLECULE
NONAME
42 45 1 0 0 
SMALL
USER_CHARGES


@<TRIPOS>ATOM
  1 S       -0.1650    -0.5470     2.0570 S.3   1 <1>  -0.2420 
  2 C       -0.4610    -1.9150     0.9840 C.2   1 <1>   0.6510 
  3 C        1.4820    -0.3410     1.4320 C.2   1 <1>  -0.0490 
  4 N       -1.5850    -2.5600     0.9550 N.2   1 <1>  -0.6210 
  5 N        0.6530    -2.1430     0.2220 N.am  1 <1>  -0.2290 
  6 C        1.7240    -1.2600     0.4870 C.2   1 <1>  -0.0410 
  7 C       -1.6530    -3.5990     0.0620 C.2   1 <1>   0.0330 
  8 C        0.6000    -3.1660    -0.6920 C.2   1 <1>   0.6160 
  9 C       -0.6070    -3.9090    -0.7510 C.2   1 <1>  -0.1360 
 10 C       -2.9690    -4.3780     0.0470 C.3   1 <1>   0.4810 
 11 O        1.5480    -3.4120    -1.4180 O.2   1 <1>  -0.5700 
 12 N       -4.0860    -3.4150     0.2450 N.4   1 <1>  -0.9590 
 13 C       -5.3260    -4.0550     0.8140 C.3   1 <1>   0.3430 
 14 C       -4.3840    -2.6120    -0.9980 C.3   1 <1>   0.3430 
 15 C       -6.4700    -3.0410     1.0290 C.3   1 <1>   0.2090 
 16 C       -5.5260    -1.5960    -0.7840 C.3   1 <1>   0.2090 
 17 N       -6.7340    -2.2690    -0.2200 N.pl3 1 <1>  -0.8380 
 18 C       -7.9140    -1.5340    -0.2470 C.ar  1 <1>   0.1000 
 19 C       -8.0810    -0.4010     0.5490 C.ar  1 <1>  -0.1500 
 20 C       -8.9490    -1.9380    -1.0850 C.ar  1 <1>  -0.1500 
 21 C       -9.2630     0.3190     0.5100 C.ar  1 <1>  -0.1500 
 22 C      -10.1360    -1.2280    -1.1350 C.ar  1 <1>  -0.1500 
 23 C      -10.2700    -0.1100    -0.3340 C.ar  1 <1>   0.1900 
 24 F      -11.3900     0.5660    -0.3760 F     1 <1>  -0.1900 
 25 H        2.0760     0.4530     1.8540 H     1 <1>   0.1500 
 26 H        2.6380    -1.3840    -0.0730 H     1 <1>   0.1500 
 27 H       -0.6250    -4.7140    -1.4630 H     1 <1>   0.1500 
 28 H       -2.9530    -5.0810     0.8630 H     1 <1>   0.0800 
 29 H       -3.0870    -4.9210    -0.8760 H     1 <1>   0.0800 
 30 H       -3.7020    -2.7500     0.9390 H     1 <1>   0.4500 
 31 H       -5.0970    -4.5280     1.7550 H     1 <1>   0.0800 
 32 H       -5.6810    -4.8150     0.1380 H     1 <1>   0.0800 
 33 H       -4.6760    -3.2750    -1.7950 H     1 <1>   0.0800 
 34 H       -3.5000    -2.0820    -1.3120 H     1 <1>   0.0800 
 35 H       -6.2130    -2.3650     1.8270 H     1 <1>   0.0800 
 36 H       -7.3650    -3.5660     1.3160 H     1 <1>   0.0800 
 37 H       -5.7820    -1.1420    -1.7260 H     1 <1>   0.0800 
 38 H       -5.2000    -0.8150    -0.1180 H     1 <1>   0.0800 
 39 H       -7.2880    -0.0830     1.1990 H     1 <1>   0.1500 
 40 H       -8.8150    -2.8110    -1.6960 H     1 <1>   0.1500 
 41 H       -9.4080     1.1940     1.1170 H     1 <1>   0.1500 
 42 H      -10.9430    -1.5300    -1.7790 H     1 <1>   0.1500 
@<TRIPOS>BOND
  1   1   2  1   
  2   1   3  1   
  3   2   4  2   
  4   2   5  1   
  5   3   6  2   
  6   3  25  1   
  7   4   7  1   
  8   5   6  1   
  9   5   8  am  
 10   6  26  1   
 11   7   9  2   
 12   7  10  1   
 13   8   9  1   
 14   8  11  2   
 15   9  27  1   
 16  10  12  1   
 17  10  28  1   
 18  10  29  1   
 19  12  13  1   
 20  12  14  1   
 21  12  30  1   
 22  13  15  1   
 23  13  31  1   
 24  13  32  1   
 25  14  16  1   
 26  14  33  1   
 27  14  34  1   
 28  15  17  1   
 29  15  35  1   
 30  15  36  1   
 31  16  17  1   
 32  16  37  1   
 33  16  38  1   
 34  17  18  1   
 35  18  19  ar  
 36  18  20  ar  
 37  19  21  ar  
 38  19  39  1   
 39  20  22  ar  
 40  20  40  1   
 41  21  23  ar  
 42  21  41  1   
 43  22  23  ar  
 44  22  42  1   
 45  23  24  1   
@<TRIPOS>SUBSTRUCTURE
  1 ****  14 GROUP 4 **** **** 0

# MOE 2024.06 (io_trps.svl 2023.06)
