@<TRIPOS>MOLECULE
NONAME
50 51 1 0 0 
SMALL
USER_CHARGES


@<TRIPOS>ATOM
  1 S        0.4530     0.3550    -1.4470 S.o2  1 <1>   1.3330 
  2 O        0.2240    -0.8560    -0.7010 O.2   1 <1>  -0.6500 
  3 O        1.6870     0.5320    -2.1770 O.2   1 <1>  -0.6500 
  4 N        0.3590     1.6770    -0.3420 N.am  1 <1>  -0.6930 
  5 C       -0.9150     0.6630    -2.5420 C.3   1 <1>  -0.1350 
  6 C       -0.7170     1.8060     0.5380 C.ar  1 <1>   0.1990 
  7 C        1.2820     2.8390    -0.5270 C.3   1 <1>   0.2570 
  8 C       -1.8050     2.6480     0.2620 C.ar  1 <1>   0.0830 
  9 C       -0.7090     1.0780     1.7190 C.ar  1 <1>  -0.1500 
 10 C        2.6440     2.6480     0.1450 C.2   1 <1>   0.5690 
 11 O       -1.7920     3.3430    -0.9180 O.3   1 <1>  -0.3630 
 12 C       -2.8500     2.7440     1.1760 C.ar  1 <1>  -0.1500 
 13 C       -1.7510     1.1780     2.6220 C.ar  1 <1>  -0.1500 
 14 O        2.9320     3.3700     1.0700 O.2   1 <1>  -0.5700 
 15 N        3.4790     1.6770    -0.3340 N.am  1 <1>  -0.5470 
 16 C       -2.7740     4.3170    -1.2010 C.3   1 <1>   0.0400 
 17 C       -2.8210     2.0110     2.3520 C.ar  1 <1>  -0.1500 
 18 C        4.6640     1.1750     0.2240 C.ar  1 <1>   0.1170 
 19 C        5.8180     1.9560     0.3390 C.ar  1 <1>  -0.1430 
 20 C        4.6940    -0.1550     0.6490 C.ar  1 <1>  -0.1430 
 21 C        6.9660     1.4090     0.8870 C.ar  1 <1>  -0.1500 
 22 C        5.8620     3.4050    -0.1300 C.3   1 <1>  -0.0970 
 23 C        5.8550    -0.6820     1.1890 C.ar  1 <1>  -0.1500 
 24 C        3.4630    -1.0470     0.5370 C.3   1 <1>  -0.0970 
 25 C        6.9930     0.0940     1.3160 C.ar  1 <1>  -0.1430 
 26 C        8.2590    -0.4930     1.9120 C.3   1 <1>  -0.0970 
 27 H       -0.9480    -0.0850    -3.3090 H     1 <1>   0.0800 
 28 H       -0.8140     1.6270    -3.0010 H     1 <1>   0.0800 
 29 H       -1.8370     0.6370    -1.9960 H     1 <1>   0.0800 
 30 H        0.8280     3.7180    -0.1070 H     1 <1>   0.0800 
 31 H        1.4320     3.0210    -1.5750 H     1 <1>   0.0800 
 32 H        0.1240     0.4290     1.9250 H     1 <1>   0.1500 
 33 H       -3.6980     3.3780     0.9990 H     1 <1>   0.1500 
 34 H       -1.7270     0.6060     3.5340 H     1 <1>   0.1500 
 35 H        3.0770     1.0850    -1.0730 H     1 <1>   0.3700 
 36 H       -2.5320     4.7730    -2.1440 H     1 <1>   0.0800 
 37 H       -2.7650     5.0600    -0.4240 H     1 <1>   0.0800 
 38 H       -3.7350     3.8380    -1.2660 H     1 <1>   0.0800 
 39 H       -3.6310     2.0890     3.0560 H     1 <1>   0.1500 
 40 H        7.8510     2.0120     0.9820 H     1 <1>   0.1500 
 41 H        5.4280     4.0400     0.6210 H     1 <1>   0.0800 
 42 H        5.3140     3.5220    -1.0460 H     1 <1>   0.0800 
 43 H        6.8740     3.7210    -0.3030 H     1 <1>   0.0800 
 44 H        5.8760    -1.7060     1.5170 H     1 <1>   0.1500 
 45 H        3.6260    -1.9970     1.0110 H     1 <1>   0.0800 
 46 H        2.6200    -0.5770     1.0110 H     1 <1>   0.0800 
 47 H        3.2270    -1.2220    -0.4980 H     1 <1>   0.0800 
 48 H        8.8310     0.2730     2.4050 H     1 <1>   0.0800 
 49 H        8.8590    -0.9290     1.1340 H     1 <1>   0.0800 
 50 H        8.0170    -1.2520     2.6340 H     1 <1>   0.0800 
@<TRIPOS>BOND
  1   1   2  2   
  2   1   3  2   
  3   1   4  am  
  4   1   5  1   
  5   4   6  1   
  6   4   7  1   
  7   5  27  1   
  8   5  28  1   
  9   5  29  1   
 10   6   8  ar  
 11   6   9  ar  
 12   7  10  1   
 13   7  30  1   
 14   7  31  1   
 15   8  11  1   
 16   8  12  ar  
 17   9  13  ar  
 18   9  32  1   
 19  10  14  2   
 20  10  15  am  
 21  11  16  1   
 22  12  17  ar  
 23  12  33  1   
 24  13  17  ar  
 25  13  34  1   
 26  15  18  1   
 27  15  35  1   
 28  16  36  1   
 29  16  37  1   
 30  16  38  1   
 31  17  39  1   
 32  18  19  ar  
 33  18  20  ar  
 34  19  21  ar  
 35  19  22  1   
 36  20  23  ar  
 37  20  24  1   
 38  21  25  ar  
 39  21  40  1   
 40  22  41  1   
 41  22  42  1   
 42  22  43  1   
 43  23  25  ar  
 44  23  44  1   
 45  24  45  1   
 46  24  46  1   
 47  24  47  1   
 48  25  26  1   
 49  26  48  1   
 50  26  49  1   
 51  26  50  1   
@<TRIPOS>SUBSTRUCTURE
  1 ****  10 GROUP 4 **** **** 0

# MOE 2024.06 (io_trps.svl 2023.06)
