@<TRIPOS>MOLECULE
NONAME
34 35 1 0 0 
SMALL
USER_CHARGES


@<TRIPOS>ATOM
  1 O        0.3260    -0.4320    -0.9440 O.3   1 <1>  -0.3630 
  2 C       -0.2310    -1.5640    -0.5060 C.ar  1 <1>   0.0830 
  3 C        1.5010    -0.2230    -0.1600 C.3   1 <1>   0.4000 
  4 C        0.5030    -2.0840     0.5180 C.ar  1 <1>   0.0830 
  5 C       -1.3760    -2.1840    -0.9640 C.ar  1 <1>  -0.1500 
  6 O        1.5560    -1.3030     0.7720 O.3   1 <1>  -0.3630 
  7 C        0.1350    -3.2580     1.1440 C.ar  1 <1>  -0.1500 
  8 C       -1.7730    -3.3670    -0.3440 C.ar  1 <1>  -0.1440 
  9 C       -1.0160    -3.8990     0.7010 C.ar  1 <1>  -0.1500 
 10 C       -3.0330    -4.0650    -0.8000 C.3   1 <1>   0.4870 
 11 N       -4.1360    -3.4860    -0.0050 N.4   1 <1>  -0.9060 
 12 C       -5.4780    -4.0210    -0.3400 C.3   1 <1>   0.4230 
 13 C       -6.5810    -3.1330     0.2700 C.3   1 <1>   0.1200 
 14 C       -5.5720    -5.4620     0.1700 C.3   1 <1>  -0.2400 
 15 O       -7.8100    -3.5730    -0.2060 O.3   1 <1>  -0.5600 
 16 C       -8.9090    -2.8760     0.2940 C.3   1 <1>   0.0400 
 17 H        1.4230     0.7090     0.3700 H     1 <1>   0.0800 
 18 H        2.3690    -0.2500    -0.7950 H     1 <1>   0.0800 
 19 H       -1.9160    -1.7380    -1.7810 H     1 <1>   0.1500 
 20 H        0.7340    -3.6500     1.9460 H     1 <1>   0.1500 
 21 H       -1.3040    -4.8190     1.1830 H     1 <1>   0.1500 
 22 H       -2.9490    -5.1260    -0.6250 H     1 <1>   0.0800 
 23 H       -3.1910    -3.8940    -1.8530 H     1 <1>   0.0800 
 24 H       -4.1090    -2.4710    -0.1500 H     1 <1>   0.4500 
 25 H       -3.9290    -3.6410     0.9870 H     1 <1>   0.4500 
 26 H       -5.6090    -4.0090    -1.4110 H     1 <1>   0.0800 
 27 H       -6.4590    -2.1080    -0.0360 H     1 <1>   0.0800 
 28 H       -6.5860    -3.2070     1.3440 H     1 <1>   0.0800 
 29 H       -5.4350    -5.5080     1.2350 H     1 <1>   0.0800 
 30 H       -4.8610    -6.1030    -0.3180 H     1 <1>   0.0800 
 31 H       -6.5510    -5.8530    -0.0500 H     1 <1>   0.0800 
 32 H       -9.8000    -3.2970    -0.1410 H     1 <1>   0.0800 
 33 H       -8.8330    -1.8380     0.0200 H     1 <1>   0.0800 
 34 H       -8.9480    -2.9850     1.3640 H     1 <1>   0.0800 
@<TRIPOS>BOND
  1   1   2  1   
  2   1   3  1   
  3   2   4  ar  
  4   2   5  ar  
  5   3   6  1   
  6   3  17  1   
  7   3  18  1   
  8   4   6  1   
  9   4   7  ar  
 10   5   8  ar  
 11   5  19  1   
 12   7   9  ar  
 13   7  20  1   
 14   8   9  ar  
 15   8  10  1   
 16   9  21  1   
 17  10  11  1   
 18  10  22  1   
 19  10  23  1   
 20  11  12  1   
 21  11  24  1   
 22  11  25  1   
 23  12  13  1   
 24  12  14  1   
 25  12  26  1   
 26  13  15  1   
 27  13  27  1   
 28  13  28  1   
 29  14  29  1   
 30  14  30  1   
 31  14  31  1   
 32  15  16  1   
 33  16  32  1   
 34  16  33  1   
 35  16  34  1   
@<TRIPOS>SUBSTRUCTURE
  1 ****   8 GROUP 4 **** **** 0

# MOE 2024.06 (io_trps.svl 2023.06)
