@<TRIPOS>MOLECULE
NONAME
31 32 1 0 0 
SMALL
USER_CHARGES


@<TRIPOS>ATOM
  1 F       -1.4560     1.1610     1.5860 F     1 <1>  -0.1900 
  2 C       -0.8390     2.0950     0.9120 C.ar  1 <1>   0.1900 
  3 C       -1.3720     2.4980    -0.2990 C.ar  1 <1>  -0.1440 
  4 C        0.3130     2.6480     1.4440 C.ar  1 <1>  -0.1500 
  5 C       -0.6960     3.5020    -0.9680 C.ar  1 <1>   0.1900 
  6 C       -2.6250     1.8690    -0.8660 C.3   1 <1>   0.4860 
  7 C        0.9660     3.6510     0.7420 C.ar  1 <1>  -0.1500 
  8 F       -1.1740     3.9260    -2.1070 F     1 <1>  -0.1900 
  9 C        0.4590     4.0850    -0.4740 C.ar  1 <1>  -0.1500 
 10 N       -3.8010     2.2870    -0.0560 N.4   1 <1>  -0.9590 
 11 C       -5.0070     1.4830    -0.4020 C.3   1 <1>   0.3430 
 12 C       -4.0540     3.7550    -0.1660 C.3   1 <1>   0.3430 
 13 C       -6.1510     1.8390     0.5500 C.3   1 <1>  -0.1600 
 14 C       -5.1810     4.1550     0.7890 C.3   1 <1>  -0.1600 
 15 C       -6.4580     3.3430     0.5340 C.3   1 <1>  -0.1600 
 16 H        0.6940     2.3010     2.3900 H     1 <1>   0.1500 
 17 H       -2.5200     0.7960    -0.8330 H     1 <1>   0.0800 
 18 H       -2.7580     2.1650    -1.8950 H     1 <1>   0.0800 
 19 H        1.8660     4.0920     1.1410 H     1 <1>   0.1500 
 20 H        0.9530     4.8620    -1.0310 H     1 <1>   0.1500 
 21 H       -3.5660     2.0880     0.9260 H     1 <1>   0.4500 
 22 H       -4.7890     0.4300    -0.3190 H     1 <1>   0.0800 
 23 H       -5.3080     1.6920    -1.4160 H     1 <1>   0.0800 
 24 H       -4.3330     4.0040    -1.1770 H     1 <1>   0.0800 
 25 H       -3.1630     4.3080     0.0850 H     1 <1>   0.0800 
 26 H       -5.8950     1.5280     1.5480 H     1 <1>   0.0800 
 27 H       -7.0320     1.2940     0.2600 H     1 <1>   0.0800 
 28 H       -5.3950     5.2020     0.6610 H     1 <1>   0.0800 
 29 H       -4.8540     4.0160     1.8050 H     1 <1>   0.0800 
 30 H       -7.1950     3.5740     1.2860 H     1 <1>   0.0800 
 31 H       -6.8720     3.6150    -0.4230 H     1 <1>   0.0800 
@<TRIPOS>BOND
  1   1   2  1   
  2   2   3  ar  
  3   2   4  ar  
  4   3   5  ar  
  5   3   6  1   
  6   4   7  ar  
  7   4  16  1   
  8   5   8  1   
  9   5   9  ar  
 10   6  10  1   
 11   6  17  1   
 12   6  18  1   
 13   7   9  ar  
 14   7  19  1   
 15   9  20  1   
 16  10  11  1   
 17  10  12  1   
 18  10  21  1   
 19  11  13  1   
 20  11  22  1   
 21  11  23  1   
 22  12  14  1   
 23  12  24  1   
 24  12  25  1   
 25  13  15  1   
 26  13  26  1   
 27  13  27  1   
 28  14  15  1   
 29  14  28  1   
 30  14  29  1   
 31  15  30  1   
 32  15  31  1   
@<TRIPOS>SUBSTRUCTURE
  1 ****   3 GROUP 4 **** **** 0

# MOE 2024.06 (io_trps.svl 2023.06)
