@<TRIPOS>MOLECULE
NONAME
30 30 1 0 0 
SMALL
USER_CHARGES


@<TRIPOS>ATOM
  1 O       -0.2110    -0.5220     1.1120 O.2   1 <1>  -0.5700 
  2 C        0.1210    -1.6160     0.7250 C.2   1 <1>   0.4230 
  3 C        1.5070    -1.9910     0.5190 C.ar  1 <1>   0.0860 
  4 C       -1.0080    -2.6140     0.5020 C.3   1 <1>   0.1810 
  5 C        1.9150    -3.2590     0.0820 C.ar  1 <1>  -0.1500 
  6 C        2.5240    -1.0640     0.7690 C.ar  1 <1>  -0.1500 
  7 O       -1.0250    -3.0780    -0.8370 O.3   1 <1>  -0.4300 
  8 C        3.2480    -3.5800    -0.0920 C.ar  1 <1>  -0.1500 
  9 C        3.8580    -1.3770     0.5990 C.ar  1 <1>  -0.1500 
 10 C       -1.9390    -3.8960    -1.3430 C.2   1 <1>   0.6590 
 11 C        4.2360    -2.6360     0.1680 C.ar  1 <1>   0.0830 
 12 O       -1.7160    -4.4900    -2.3590 O.2   1 <1>  -0.5700 
 13 C       -3.2610    -4.0690    -0.6280 C.3   1 <1>  -0.1790 
 14 O        5.5590    -2.8670     0.0250 O.3   1 <1>  -0.3630 
 15 C        6.0560    -4.1010    -0.4380 C.3   1 <1>   0.1200 
 16 C        7.5780    -4.0070    -0.4920 C.3   1 <1>  -0.2400 
 17 H       -1.9460    -2.1310     0.7090 H     1 <1>   0.0800 
 18 H       -0.8860    -3.4590     1.1560 H     1 <1>   0.0800 
 19 H        1.1880    -4.0190    -0.1360 H     1 <1>   0.1500 
 20 H        2.2590    -0.0750     1.1040 H     1 <1>   0.1500 
 21 H        3.5020    -4.5660    -0.4320 H     1 <1>   0.1500 
 22 H        4.6210    -0.6440     0.7990 H     1 <1>   0.1500 
 23 H       -3.1090    -4.5190     0.3350 H     1 <1>   0.0800 
 24 H       -3.8970    -4.7110    -1.2100 H     1 <1>   0.0800 
 25 H       -3.7460    -3.1170    -0.5170 H     1 <1>   0.0800 
 26 H        5.6510    -4.2850    -1.4190 H     1 <1>   0.0800 
 27 H        5.7460    -4.8720     0.2460 H     1 <1>   0.0800 
 28 H        7.8750    -3.2230    -1.1650 H     1 <1>   0.0800 
 29 H        7.9890    -4.9360    -0.8430 H     1 <1>   0.0800 
 30 H        7.9700    -3.8060     0.4890 H     1 <1>   0.0800 
@<TRIPOS>BOND
  1   1   2  2   
  2   2   3  1   
  3   2   4  1   
  4   3   5  ar  
  5   3   6  ar  
  6   4   7  1   
  7   4  17  1   
  8   4  18  1   
  9   5   8  ar  
 10   5  19  1   
 11   6   9  ar  
 12   6  20  1   
 13   7  10  1   
 14   8  11  ar  
 15   8  21  1   
 16   9  11  ar  
 17   9  22  1   
 18  10  12  2   
 19  10  13  1   
 20  11  14  1   
 21  13  23  1   
 22  13  24  1   
 23  13  25  1   
 24  14  15  1   
 25  15  16  1   
 26  15  26  1   
 27  15  27  1   
 28  16  28  1   
 29  16  29  1   
 30  16  30  1   
@<TRIPOS>SUBSTRUCTURE
  1 ****   5 GROUP 4 **** **** 0

# MOE 2024.06 (io_trps.svl 2023.06)
