@<TRIPOS>MOLECULE
NONAME
46 48 1 0 0 
SMALL
USER_CHARGES


@<TRIPOS>ATOM
  1 F       -0.7560    -1.2570    -2.2840 F     1 <1>  -0.1900 
  2 C       -0.5820    -2.1210    -1.3120 C.ar  1 <1>   0.1900 
  3 C        0.4580    -1.9450    -0.3900 C.ar  1 <1>   0.1000 
  4 C       -1.4490    -3.1880    -1.2680 C.ar  1 <1>  -0.1500 
  5 N        1.3710    -0.8840    -0.3890 N.pl3 1 <1>  -0.8380 
  6 C        0.5540    -2.9180     0.6010 C.ar  1 <1>  -0.1500 
  7 C       -1.3250    -4.1720    -0.2870 C.ar  1 <1>   0.0860 
  8 C        2.8420    -1.1410    -0.2490 C.3   1 <1>   0.2090 
  9 C        0.9740     0.4960    -0.8120 C.3   1 <1>   0.2090 
 10 C       -0.3080    -4.0010     0.6700 C.ar  1 <1>  -0.1440 
 11 C       -2.2430    -5.2840    -0.3220 C.2   1 <1>   0.4230 
 12 C        3.7000    -0.0880    -0.9730 C.3   1 <1>   0.1400 
 13 C        1.9140     1.5590    -0.2170 C.3   1 <1>   0.1400 
 14 C       -0.1330    -4.9680     1.8360 C.3   1 <1>  -0.0960 
 15 O       -3.4330    -5.1460    -0.4400 O.2   1 <1>  -0.5700 
 16 C       -1.7260    -6.7080    -0.2780 C.3   1 <1>  -0.1790 
 17 N        3.3540     1.3120    -0.5610 N.am  1 <1>  -0.6600 
 18 C        4.2840     2.3250    -0.6640 C.2   1 <1>   0.5440 
 19 O        5.3460     2.0910    -1.2090 O.2   1 <1>  -0.5700 
 20 C        4.0210     3.6580    -0.1540 C.ar  1 <1>   0.0860 
 21 C        3.6320     3.8740     1.1690 C.ar  1 <1>  -0.1500 
 22 C        4.1510     4.7750    -0.9780 C.ar  1 <1>  -0.1500 
 23 C        3.3660     5.1460     1.6430 C.ar  1 <1>  -0.1500 
 24 C        3.8870     6.0500    -0.5110 C.ar  1 <1>  -0.1500 
 25 C        3.4910     6.2360     0.8010 C.ar  1 <1>  -0.1500 
 26 H       -2.2320    -3.2670    -2.0010 H     1 <1>   0.1500 
 27 H        1.3220    -2.8010     1.3420 H     1 <1>   0.1500 
 28 H        3.0730    -2.1150    -0.6430 H     1 <1>   0.0800 
 29 H        3.0990    -1.1340     0.7950 H     1 <1>   0.0800 
 30 H       -0.0350     0.6900    -0.4920 H     1 <1>   0.0800 
 31 H        1.0040     0.5640    -1.8850 H     1 <1>   0.0800 
 32 H        3.5540    -0.1850    -2.0350 H     1 <1>   0.0800 
 33 H        4.7380    -0.2790    -0.7650 H     1 <1>   0.0800 
 34 H        1.8020     1.5500     0.8530 H     1 <1>   0.0800 
 35 H        1.6160     2.5270    -0.5790 H     1 <1>   0.0800 
 36 H        0.4300    -4.5110     2.6300 H     1 <1>   0.0800 
 37 H        0.3940    -5.8490     1.5160 H     1 <1>   0.0800 
 38 H       -1.0890    -5.2510     2.2380 H     1 <1>   0.0800 
 39 H       -0.6790    -6.7390    -0.5150 H     1 <1>   0.0800 
 40 H       -2.2580    -7.3010    -0.9990 H     1 <1>   0.0800 
 41 H       -1.8920    -7.1240     0.6970 H     1 <1>   0.0800 
 42 H        3.5450     3.0300     1.8300 H     1 <1>   0.1500 
 43 H        4.4680     4.6310    -1.9970 H     1 <1>   0.1500 
 44 H        3.0660     5.2890     2.6660 H     1 <1>   0.1500 
 45 H        3.9930     6.8960    -1.1670 H     1 <1>   0.1500 
 46 H        3.2840     7.2280     1.1670 H     1 <1>   0.1500 
@<TRIPOS>BOND
  1   1   2  1   
  2   2   3  ar  
  3   2   4  ar  
  4   3   5  1   
  5   3   6  ar  
  6   4   7  ar  
  7   4  26  1   
  8   5   8  1   
  9   5   9  1   
 10   6  10  ar  
 11   6  27  1   
 12   7  10  ar  
 13   7  11  1   
 14   8  12  1   
 15   8  28  1   
 16   8  29  1   
 17   9  13  1   
 18   9  30  1   
 19   9  31  1   
 20  10  14  1   
 21  11  15  2   
 22  11  16  1   
 23  12  17  1   
 24  12  32  1   
 25  12  33  1   
 26  13  17  1   
 27  13  34  1   
 28  13  35  1   
 29  14  36  1   
 30  14  37  1   
 31  14  38  1   
 32  16  39  1   
 33  16  40  1   
 34  16  41  1   
 35  17  18  am  
 36  18  19  2   
 37  18  20  1   
 38  20  21  ar  
 39  20  22  ar  
 40  21  23  ar  
 41  21  42  1   
 42  22  24  ar  
 43  22  43  1   
 44  23  25  ar  
 45  23  44  1   
 46  24  25  ar  
 47  24  45  1   
 48  25  46  1   
@<TRIPOS>SUBSTRUCTURE
  1 ****   5 GROUP 4 **** **** 0

# MOE 2024.06 (io_trps.svl 2023.06)
