@<TRIPOS>MOLECULE
NONAME
49 50 1 0 0 
SMALL
USER_CHARGES


@<TRIPOS>ATOM
  1 S       -0.2050    -0.0780     0.7330 S.o2  1 <1>   1.4470 
  2 O       -0.3610    -0.2290     2.1640 O.2   1 <1>  -0.6500 
  3 O        0.9460    -0.6610     0.0790 O.2   1 <1>  -0.6500 
  4 N       -1.5810    -0.7610     0.0160 N.am  1 <1>  -0.8490 
  5 C       -0.3210     1.6740     0.2660 C.ar  1 <1>  -0.0090 
  6 C       -2.8240    -0.3010     0.6580 C.3   1 <1>   0.1960 
  7 C       -1.5060    -2.2250     0.0360 C.3   1 <1>   0.1960 
  8 C       -0.5910     2.6580     1.2170 C.ar  1 <1>  -0.1500 
  9 C       -0.1610     2.0640    -1.0620 C.ar  1 <1>  -0.1500 
 10 C       -4.0490    -0.8070    -0.1170 C.3   1 <1>  -0.0190 
 11 C       -2.6840    -2.8310    -0.7380 C.3   1 <1>  -0.1600 
 12 C       -0.6970     3.9930     0.8590 C.ar  1 <1>  -0.1500 
 13 C       -0.2630     3.3930    -1.4400 C.ar  1 <1>  -0.1500 
 14 C       -5.3360    -0.2950     0.5120 C.2   1 <1>   0.5690 
 15 C       -4.0330    -2.3440    -0.1920 C.3   1 <1>  -0.1600 
 16 C       -0.5300     4.3360    -0.4680 C.ar  1 <1>   0.1900 
 17 O       -5.3680    -0.0470     1.6930 O.2   1 <1>  -0.5700 
 18 N       -6.4230    -0.1340    -0.2870 N.am  1 <1>  -0.7300 
 19 F       -0.6290     5.5900    -0.8130 F     1 <1>  -0.1900 
 20 C       -7.7520     0.3260     0.1690 C.3   1 <1>   0.1400 
 21 C       -8.8000    -0.7180    -0.2210 C.3   1 <1>  -0.1600 
 22 C      -10.2050    -0.3860     0.3130 C.3   1 <1>  -0.0800 
 23 C      -11.1620    -1.5440     0.0080 C.3   1 <1>  -0.2400 
 24 C      -10.7630     0.9100    -0.2910 C.3   1 <1>  -0.2400 
 25 H       -2.8510     0.7760     0.6780 H     1 <1>   0.0800 
 26 H       -2.8650    -0.6530     1.6780 H     1 <1>   0.0800 
 27 H       -1.5120    -2.5780     1.0550 H     1 <1>   0.0800 
 28 H       -0.5880    -2.5500    -0.4260 H     1 <1>   0.0800 
 29 H       -0.7190     2.3760     2.2500 H     1 <1>   0.1500 
 30 H        0.0470     1.3120    -1.8060 H     1 <1>   0.1500 
 31 H       -3.9880    -0.4060    -1.1120 H     1 <1>   0.0800 
 32 H       -2.6340    -3.9030    -0.6770 H     1 <1>   0.0800 
 33 H       -2.5890    -2.5580    -1.7750 H     1 <1>   0.0800 
 34 H       -0.9050     4.7530     1.5910 H     1 <1>   0.1500 
 35 H       -0.1370     3.6950    -2.4650 H     1 <1>   0.1500 
 36 H       -4.8330    -2.6940    -0.8210 H     1 <1>   0.0800 
 37 H       -4.1850    -2.7480     0.7950 H     1 <1>   0.0800 
 38 H       -6.3590    -0.3630    -1.2790 H     1 <1>   0.3700 
 39 H       -7.9700     1.2740    -0.2920 H     1 <1>   0.0800 
 40 H       -7.7490     0.4590     1.2380 H     1 <1>   0.0800 
 41 H       -8.4960    -1.6670     0.1870 H     1 <1>   0.0800 
 42 H       -8.8380    -0.8070    -1.2930 H     1 <1>   0.0800 
 43 H      -10.1500    -0.2710     1.3840 H     1 <1>   0.0800 
 44 H      -11.2520    -1.6940    -1.0530 H     1 <1>   0.0800 
 45 H      -12.1390    -1.3360     0.4090 H     1 <1>   0.0800 
 46 H      -10.8050    -2.4540     0.4560 H     1 <1>   0.0800 
 47 H      -10.7850     0.8500    -1.3640 H     1 <1>   0.0800 
 48 H      -10.1670     1.7570    -0.0030 H     1 <1>   0.0800 
 49 H      -11.7650     1.0810     0.0610 H     1 <1>   0.0800 
@<TRIPOS>BOND
  1   1   2  2   
  2   1   3  2   
  3   1   4  am  
  4   1   5  1   
  5   4   6  1   
  6   4   7  1   
  7   5   8  ar  
  8   5   9  ar  
  9   6  10  1   
 10   6  25  1   
 11   6  26  1   
 12   7  11  1   
 13   7  27  1   
 14   7  28  1   
 15   8  12  ar  
 16   8  29  1   
 17   9  13  ar  
 18   9  30  1   
 19  10  14  1   
 20  10  15  1   
 21  10  31  1   
 22  11  15  1   
 23  11  32  1   
 24  11  33  1   
 25  12  16  ar  
 26  12  34  1   
 27  13  16  ar  
 28  13  35  1   
 29  14  17  2   
 30  14  18  am  
 31  15  36  1   
 32  15  37  1   
 33  16  19  1   
 34  18  20  1   
 35  18  38  1   
 36  20  21  1   
 37  20  39  1   
 38  20  40  1   
 39  21  22  1   
 40  21  41  1   
 41  21  42  1   
 42  22  23  1   
 43  22  24  1   
 44  22  43  1   
 45  23  44  1   
 46  23  45  1   
 47  23  46  1   
 48  24  47  1   
 49  24  48  1   
 50  24  49  1   
@<TRIPOS>SUBSTRUCTURE
  1 ****   6 GROUP 4 **** **** 0

# MOE 2024.06 (io_trps.svl 2023.06)
