@<TRIPOS>MOLECULE
NONAME
45 46 1 0 0 
SMALL
USER_CHARGES


@<TRIPOS>ATOM
  1 BR       2.7260     2.1150    -2.2500 Br    1 <1>  -0.1110 
  2 C        1.5360     2.7790    -0.8820 C.ar  1 <1>   0.1110 
  3 C        1.8500     2.5800     0.4550 C.ar  1 <1>   0.0830 
  4 C        0.3980     3.4520    -1.2840 C.ar  1 <1>  -0.1500 
  5 O        2.9900     1.9120     0.7680 O.3   1 <1>  -0.3630 
  6 C        0.9770     3.0800     1.4150 C.ar  1 <1>  -0.1500 
  7 C       -0.4640     3.9500    -0.3190 C.ar  1 <1>  -0.1430 
  8 C        3.6630     2.1830     1.9890 C.3   1 <1>   0.1810 
  9 C       -0.1670     3.7610     1.0240 C.ar  1 <1>  -0.1500 
 10 C       -1.7220     4.6970    -0.7250 C.3   1 <1>  -0.0960 
 11 C        5.0680     1.5850     2.0000 C.2   1 <1>   0.5690 
 12 O        5.3170     0.8050     2.8910 O.2   1 <1>  -0.5700 
 13 N        6.0190     1.9360     1.0660 N.am  1 <1>  -0.6600 
 14 C        5.7930     2.8860    -0.0620 C.3   1 <1>   0.1400 
 15 C        7.3670     1.3030     1.0670 C.3   1 <1>   0.1400 
 16 C        6.8620     3.9800    -0.0360 C.3   1 <1>  -0.1600 
 17 C        8.4470     2.3860     1.1090 C.3   1 <1>  -0.1600 
 18 C        8.2880     3.3930    -0.0460 C.3   1 <1>  -0.0190 
 19 C        9.3730     4.4670     0.0100 C.2   1 <1>   0.6590 
 20 O        9.1430     5.6110     0.3110 O.2   1 <1>  -0.5700 
 21 O       10.5960     4.0560    -0.2980 O.3   1 <1>  -0.4300 
 22 C       11.6940     4.9370    -0.2790 C.3   1 <1>   0.1200 
 23 C       12.9410     4.1480    -0.6650 C.3   1 <1>  -0.2400 
 24 H        0.1980     3.5830    -2.3320 H     1 <1>   0.1500 
 25 H        1.1650     2.9430     2.4630 H     1 <1>   0.1500 
 26 H        3.0890     1.7530     2.7890 H     1 <1>   0.0800 
 27 H        3.7270     3.2470     2.1180 H     1 <1>   0.0800 
 28 H       -0.8350     4.1440     1.7770 H     1 <1>   0.1500 
 29 H       -2.0170     4.4300    -1.7240 H     1 <1>   0.0800 
 30 H       -1.5450     5.7570    -0.6870 H     1 <1>   0.0800 
 31 H       -2.5310     4.4560    -0.0580 H     1 <1>   0.0800 
 32 H        4.8240     3.3470    -0.0020 H     1 <1>   0.0800 
 33 H        5.8420     2.3420    -0.9900 H     1 <1>   0.0800 
 34 H        7.4730     0.7080     0.1760 H     1 <1>   0.0800 
 35 H        7.4820     0.6500     1.9160 H     1 <1>   0.0800 
 36 H        6.7200     4.5800     0.8470 H     1 <1>   0.0800 
 37 H        6.7300     4.6230    -0.8880 H     1 <1>   0.0800 
 38 H        9.4140     1.9170     1.0530 H     1 <1>   0.0800 
 39 H        8.3860     2.9000     2.0530 H     1 <1>   0.0800 
 40 H        8.4210     2.8640    -0.9730 H     1 <1>   0.0800 
 41 H       11.7860     5.3460     0.7140 H     1 <1>   0.0800 
 42 H       11.5060     5.7330    -0.9800 H     1 <1>   0.0800 
 43 H       13.1080     3.3520     0.0380 H     1 <1>   0.0800 
 44 H       13.7980     4.7980    -0.6560 H     1 <1>   0.0800 
 45 H       12.8310     3.7400    -1.6530 H     1 <1>   0.0800 
@<TRIPOS>BOND
  1   1   2  1   
  2   2   3  ar  
  3   2   4  ar  
  4   3   5  1   
  5   3   6  ar  
  6   4   7  ar  
  7   4  24  1   
  8   5   8  1   
  9   6   9  ar  
 10   6  25  1   
 11   7   9  ar  
 12   7  10  1   
 13   8  11  1   
 14   8  26  1   
 15   8  27  1   
 16   9  28  1   
 17  10  29  1   
 18  10  30  1   
 19  10  31  1   
 20  11  12  2   
 21  11  13  am  
 22  13  14  1   
 23  13  15  1   
 24  14  16  1   
 25  14  32  1   
 26  14  33  1   
 27  15  17  1   
 28  15  34  1   
 29  15  35  1   
 30  16  18  1   
 31  16  36  1   
 32  16  37  1   
 33  17  18  1   
 34  17  38  1   
 35  17  39  1   
 36  18  19  1   
 37  18  40  1   
 38  19  20  2   
 39  19  21  1   
 40  21  22  1   
 41  22  23  1   
 42  22  41  1   
 43  22  42  1   
 44  23  43  1   
 45  23  44  1   
 46  23  45  1   
@<TRIPOS>SUBSTRUCTURE
  1 ****  14 GROUP 4 **** **** 0

# MOE 2024.06 (io_trps.svl 2023.06)
