@<TRIPOS>MOLECULE
NONAME
38 39 1 0 0 
SMALL
USER_CHARGES


@<TRIPOS>ATOM
  1 CL       0.0520    -2.8340    -2.8920 Cl    1 <1>  -0.1770 
  2 C        0.9430    -3.1550    -1.4250 C.ar  1 <1>   0.1770 
  3 C        2.3190    -3.0480    -1.4290 C.ar  1 <1>  -0.1500 
  4 C        0.2490    -3.5080    -0.2840 C.ar  1 <1>  -0.1500 
  5 C        3.0370    -3.3020    -0.2660 C.ar  1 <1>   0.1170 
  6 C        0.9510    -3.7580     0.8830 C.ar  1 <1>  -0.1500 
  7 N        4.4370    -3.2090    -0.1990 N.am  1 <1>  -0.5470 
  8 C        2.3400    -3.6550     0.8990 C.ar  1 <1>   0.0830 
  9 C        5.4260    -3.1600    -1.1370 C.2   1 <1>   0.6900 
 10 O        3.0850    -3.8840     2.0240 O.3   1 <1>  -0.3630 
 11 O        5.1720    -3.2750    -2.3210 O.2   1 <1>  -0.5700 
 12 N        6.7240    -3.0030    -0.7170 N.am  1 <1>  -0.6600 
 13 C        2.4870    -4.3350     3.2190 C.3   1 <1>   0.0400 
 14 C        7.1240    -2.4540     0.6070 C.3   1 <1>   0.1400 
 15 C        7.8670    -3.2930    -1.6240 C.3   1 <1>   0.1400 
 16 C        8.0550    -3.4470     1.3100 C.3   1 <1>  -0.1600 
 17 C        8.8200    -4.2820    -0.9430 C.3   1 <1>  -0.1600 
 18 C        9.2760    -3.7810     0.4380 C.3   1 <1>  -0.0800 
 19 C       10.1610    -4.8260     1.1260 C.3   1 <1>  -0.2400 
 20 H        2.8170    -2.7650    -2.3370 H     1 <1>   0.1500 
 21 H       -0.8230    -3.5840    -0.3140 H     1 <1>   0.1500 
 22 H        0.3960    -4.0280     1.7620 H     1 <1>   0.1500 
 23 H        4.7920    -3.3630     0.7410 H     1 <1>   0.3700 
 24 H        3.2630    -4.4810     3.9480 H     1 <1>   0.0800 
 25 H        1.9850    -5.2670     3.0300 H     1 <1>   0.0800 
 26 H        1.7960    -3.5880     3.5690 H     1 <1>   0.0800 
 27 H        6.2670    -2.2520     1.2250 H     1 <1>   0.0800 
 28 H        7.6420    -1.5230     0.4520 H     1 <1>   0.0800 
 29 H        8.3820    -2.3740    -1.8450 H     1 <1>   0.0800 
 30 H        7.5190    -3.7140    -2.5520 H     1 <1>   0.0800 
 31 H        7.5020    -4.3440     1.5300 H     1 <1>   0.0800 
 32 H        8.3810    -3.0230     2.2430 H     1 <1>   0.0800 
 33 H        9.6760    -4.4340    -1.5760 H     1 <1>   0.0800 
 34 H        8.3150    -5.2270    -0.8440 H     1 <1>   0.0800 
 35 H        9.8550    -2.8830     0.3000 H     1 <1>   0.0800 
 36 H        9.6180    -5.7420     1.2800 H     1 <1>   0.0800 
 37 H       10.4980    -4.4610     2.0800 H     1 <1>   0.0800 
 38 H       11.0260    -5.0380     0.5210 H     1 <1>   0.0800 
@<TRIPOS>BOND
  1   1   2  1   
  2   2   3  ar  
  3   2   4  ar  
  4   3   5  ar  
  5   3  20  1   
  6   4   6  ar  
  7   4  21  1   
  8   5   7  1   
  9   5   8  ar  
 10   6   8  ar  
 11   6  22  1   
 12   7   9  am  
 13   7  23  1   
 14   8  10  1   
 15   9  11  2   
 16   9  12  am  
 17  10  13  1   
 18  12  14  1   
 19  12  15  1   
 20  13  24  1   
 21  13  25  1   
 22  13  26  1   
 23  14  16  1   
 24  14  27  1   
 25  14  28  1   
 26  15  17  1   
 27  15  29  1   
 28  15  30  1   
 29  16  18  1   
 30  16  31  1   
 31  16  32  1   
 32  17  18  1   
 33  17  33  1   
 34  17  34  1   
 35  18  19  1   
 36  18  35  1   
 37  19  36  1   
 38  19  37  1   
 39  19  38  1   
@<TRIPOS>SUBSTRUCTURE
  1 ****   7 GROUP 4 **** **** 0

# MOE 2024.06 (io_trps.svl 2023.06)
