@<TRIPOS>MOLECULE
NONAME
29 30 1 0 0 
SMALL
USER_CHARGES


@<TRIPOS>ATOM
  1 S        2.9960     1.9670    -0.8320 S.3   1 <1>   1.1040 
  2 C        1.4200     2.6440    -0.2650 C.ar  1 <1>  -0.1200 
  3 C        4.0880     2.2610     0.5530 C.3   1 <1>  -0.1520 
  4 C        2.7180     0.2000    -0.7880 C.3   1 <1>  -0.1530 
  5 C        0.7950     3.5810    -1.0690 C.ar  1 <1>   0.0820 
  6 C        0.8390     2.2510     0.9320 C.ar  1 <1>  -0.1500 
  7 C        5.2800     1.2930     0.5690 C.3   1 <1>  -0.1600 
  8 C        4.0280    -0.5900    -0.6560 C.3   1 <1>  -0.1600 
  9 O        1.3780     3.9440    -2.2230 O.3   1 <1>  -0.5330 
 10 C       -0.4170     4.1380    -0.6890 C.ar  1 <1>  -0.1500 
 11 C       -0.3690     2.8100     1.3070 C.ar  1 <1>   0.0820 
 12 C        4.8260    -0.1760     0.5920 C.3   1 <1>  -0.1600 
 13 C       -1.0010     3.7500     0.5060 C.ar  1 <1>  -0.1500 
 14 O       -0.9200     2.4220     2.4660 O.3   1 <1>  -0.5330 
 15 H        3.5450     2.1400     1.4720 H     1 <1>   0.0800 
 16 H        4.4550     3.2710     0.5260 H     1 <1>   0.0800 
 17 H        2.2040    -0.1150    -1.6770 H     1 <1>   0.0800 
 18 H        2.0930    -0.0440     0.0510 H     1 <1>   0.0800 
 19 H        1.2910     1.5260     1.5870 H     1 <1>   0.1500 
 20 H        5.8730     1.4880     1.4480 H     1 <1>   0.0800 
 21 H        5.9110     1.4650    -0.2870 H     1 <1>   0.0800 
 22 H        4.6350    -0.4540    -1.5360 H     1 <1>   0.0800 
 23 H        3.7950    -1.6400    -0.5870 H     1 <1>   0.0800 
 24 H        0.8570     4.6120    -2.7180 H     1 <1>   0.4500 
 25 H       -0.9080     4.8670    -1.3090 H     1 <1>   0.1500 
 26 H        4.2400    -0.3630     1.4770 H     1 <1>   0.0800 
 27 H        5.7020    -0.8020     0.6600 H     1 <1>   0.0800 
 28 H       -1.9410     4.1780     0.8070 H     1 <1>   0.1500 
 29 H       -1.7700     2.8590     2.6610 H     1 <1>   0.4500 
@<TRIPOS>BOND
  1   1   2  1   
  2   1   3  1   
  3   1   4  1   
  4   2   5  ar  
  5   2   6  ar  
  6   3   7  1   
  7   3  15  1   
  8   3  16  1   
  9   4   8  1   
 10   4  17  1   
 11   4  18  1   
 12   5   9  1   
 13   5  10  ar  
 14   6  11  ar  
 15   6  19  1   
 16   7  12  1   
 17   7  20  1   
 18   7  21  1   
 19   8  12  1   
 20   8  22  1   
 21   8  23  1   
 22   9  24  1   
 23  10  13  ar  
 24  10  25  1   
 25  11  13  ar  
 26  11  14  1   
 27  12  26  1   
 28  12  27  1   
 29  13  28  1   
 30  14  29  1   
@<TRIPOS>SUBSTRUCTURE
  1 ****   2 GROUP 4 **** **** 0

# MOE 2024.06 (io_trps.svl 2023.06)
