@<TRIPOS>MOLECULE
NONAME
38 39 1 0 0 
SMALL
USER_CHARGES


@<TRIPOS>ATOM
  1 O        1.6210    -0.3710     0.8260 O.3   1 <1>  -0.3630 
  2 C        1.4310    -1.6440     0.3960 C.ar  1 <1>   0.0830 
  3 C        2.5230     0.4920     0.1680 C.3   1 <1>   0.1200 
  4 C        0.5100    -2.4080     1.0920 C.ar  1 <1>  -0.1500 
  5 C        2.1010    -2.2060    -0.6850 C.ar  1 <1>  -0.1500 
  6 C        2.4960     1.8490     0.8640 C.3   1 <1>   0.0210 
  7 C        0.2450    -3.7190     0.7290 C.ar  1 <1>  -0.1440 
  8 C        1.8410    -3.5140    -1.0510 C.ar  1 <1>  -0.1500 
  9 C        3.4360     2.8070     0.1540 C.2   1 <1>  -0.1810 
 10 C        0.9170    -4.2770    -0.3530 C.ar  1 <1>  -0.1430 
 11 C       -0.7780    -4.5140     1.5280 C.3   1 <1>  -0.0970 
 12 C        3.1240     3.6190    -0.9360 C.2   1 <1>   0.1080 
 13 C        4.7370     3.0650     0.4130 C.2   1 <1>  -0.3320 
 14 C        0.6620    -5.7130    -0.7920 C.3   1 <1>  -0.0970 
 15 N        4.1360     4.3240    -1.3280 N.2   1 <1>  -0.7070 
 16 C        1.7760     3.7080    -1.6160 C.3   1 <1>  -0.0590 
 17 N        5.1320     3.9840    -0.4920 N.pl3 1 <1>   0.3000 
 18 C        5.6640     2.4940     1.4740 C.3   1 <1>  -0.0600 
 19 H        2.2160     0.5890    -0.8580 H     1 <1>   0.0800 
 20 H        3.5080     0.0630     0.2220 H     1 <1>   0.0800 
 21 H        0.0020    -1.9570     1.9250 H     1 <1>   0.1500 
 22 H        2.8230    -1.6480    -1.2490 H     1 <1>   0.1500 
 23 H        2.8020     1.7330     1.8880 H     1 <1>   0.0800 
 24 H        1.4970     2.2450     0.8510 H     1 <1>   0.0800 
 25 H        2.3660    -3.9350    -1.8900 H     1 <1>   0.1500 
 26 H       -1.1910    -3.9210     2.3240 H     1 <1>   0.0800 
 27 H       -0.3130    -5.3810     1.9610 H     1 <1>   0.0800 
 28 H       -1.5820    -4.8280     0.8880 H     1 <1>   0.0800 
 29 H        0.8990    -6.3890     0.0090 H     1 <1>   0.0800 
 30 H        1.2680    -5.9700    -1.6420 H     1 <1>   0.0800 
 31 H       -0.3700    -5.8360    -1.0640 H     1 <1>   0.0800 
 32 H        1.4190     2.7260    -1.8610 H     1 <1>   0.0800 
 33 H        1.8630     4.2800    -2.5220 H     1 <1>   0.0800 
 34 H        1.0740     4.1930    -0.9650 H     1 <1>   0.0800 
 35 H        6.0690     4.3970    -0.5680 H     1 <1>   0.2700 
 36 H        5.1590     1.7490     2.0610 H     1 <1>   0.0800 
 37 H        5.9990     3.2770     2.1310 H     1 <1>   0.0800 
 38 H        6.5200     2.0370     1.0100 H     1 <1>   0.0800 
@<TRIPOS>BOND
  1   1   2  1   
  2   1   3  1   
  3   2   4  ar  
  4   2   5  ar  
  5   3   6  1   
  6   3  19  1   
  7   3  20  1   
  8   4   7  ar  
  9   4  21  1   
 10   5   8  ar  
 11   5  22  1   
 12   6   9  1   
 13   6  23  1   
 14   6  24  1   
 15   7  10  ar  
 16   7  11  1   
 17   8  10  ar  
 18   8  25  1   
 19   9  12  1   
 20   9  13  2   
 21  10  14  1   
 22  11  26  1   
 23  11  27  1   
 24  11  28  1   
 25  12  15  2   
 26  12  16  1   
 27  13  17  1   
 28  13  18  1   
 29  14  29  1   
 30  14  30  1   
 31  14  31  1   
 32  15  17  1   
 33  16  32  1   
 34  16  33  1   
 35  16  34  1   
 36  17  35  1   
 37  18  36  1   
 38  18  37  1   
 39  18  38  1   
@<TRIPOS>SUBSTRUCTURE
  1 ****   3 GROUP 4 **** **** 0

# MOE 2024.06 (io_trps.svl 2023.06)
