@<TRIPOS>MOLECULE
NONAME
52 53 1 0 0 
SMALL
USER_CHARGES


@<TRIPOS>ATOM
  1 S        0.1390     0.6670     0.2820 S.o2  1 <1>   1.3330 
  2 O       -0.4840     1.6390    -0.5860 O.2   1 <1>  -0.6500 
  3 O        1.5170     0.8250     0.6790 O.2   1 <1>  -0.6500 
  4 N       -0.0070    -0.8800    -0.4840 N.am  1 <1>  -0.6930 
  5 C       -0.8340     0.4930     1.7660 C.3   1 <1>  -0.1350 
  6 C        1.0070    -1.8290    -0.4380 C.ar  1 <1>   0.1990 
  7 C       -1.1470    -1.0420    -1.4170 C.3   1 <1>   0.3390 
  8 C        1.5510    -2.3630    -1.6040 C.ar  1 <1>  -0.1500 
  9 C        1.5090    -2.2840     0.7770 C.ar  1 <1>  -0.1500 
 10 C       -2.4760    -1.0400    -0.6670 C.ar  1 <1>  -0.1430 
 11 C        2.5480    -3.3170    -1.5530 C.ar  1 <1>  -0.1500 
 12 C        2.5070    -3.2370     0.8260 C.ar  1 <1>  -0.1500 
 13 C       -2.9030    -2.1200     0.1040 C.ar  1 <1>  -0.1430 
 14 C       -3.2810     0.0870    -0.7640 C.ar  1 <1>  -0.1500 
 15 C        3.0590    -3.7730    -0.3380 C.ar  1 <1>   0.0860 
 16 C       -4.1180    -2.0460     0.7680 C.ar  1 <1>  -0.1500 
 17 C       -2.0760    -3.3920     0.2490 C.3   1 <1>  -0.0970 
 18 C       -4.4920     0.1520    -0.1000 C.ar  1 <1>  -0.1500 
 19 C        4.1120    -4.7650    -0.3000 C.2   1 <1>   0.5440 
 20 C       -4.9100    -0.9170     0.6690 C.ar  1 <1>  -0.1500 
 21 O        3.8920    -5.8670    -0.7700 O.2   1 <1>  -0.5700 
 22 N        5.3570    -4.4990     0.2430 N.am  1 <1>  -0.6600 
 23 C        5.8080    -3.1330     0.6310 C.3   1 <1>   0.1400 
 24 C        6.3300    -5.6000     0.4920 C.3   1 <1>   0.1400 
 25 C        6.0880    -2.2890    -0.6110 C.3   1 <1>  -0.2400 
 26 C        7.3860    -5.6310    -0.6090 C.3   1 <1>  -0.2400 
 27 H       -0.4690    -0.3200     2.3590 H     1 <1>   0.0800 
 28 H       -1.8620     0.3110     1.5300 H     1 <1>   0.0800 
 29 H       -0.7750     1.3920     2.3450 H     1 <1>   0.0800 
 30 H       -1.0560    -1.9660    -1.9580 H     1 <1>   0.0800 
 31 H       -1.1270    -0.2460    -2.1420 H     1 <1>   0.0800 
 32 H        1.1990    -2.0210    -2.5590 H     1 <1>   0.1500 
 33 H        1.1130    -1.8880     1.6920 H     1 <1>   0.1500 
 34 H        2.9530    -3.7260    -2.4630 H     1 <1>   0.1500 
 35 H        2.8740    -3.5820     1.7770 H     1 <1>   0.1500 
 36 H       -2.9660     0.9320    -1.3550 H     1 <1>   0.1500 
 37 H       -4.4600    -2.8700     1.3690 H     1 <1>   0.1500 
 38 H       -1.2200    -3.2030     0.8690 H     1 <1>   0.0800 
 39 H       -1.7440    -3.7430    -0.7110 H     1 <1>   0.0800 
 40 H       -2.6540    -4.1760     0.7030 H     1 <1>   0.0800 
 41 H       -5.1050     1.0320    -0.1820 H     1 <1>   0.1500 
 42 H       -5.8520    -0.8720     1.1870 H     1 <1>   0.1500 
 43 H        6.7050    -3.2030     1.2230 H     1 <1>   0.0800 
 44 H        5.0580    -2.6540     1.2360 H     1 <1>   0.0800 
 45 H        5.8140    -6.5450     0.5150 H     1 <1>   0.0800 
 46 H        6.7960    -5.4620     1.4520 H     1 <1>   0.0800 
 47 H        6.8210    -2.7650    -1.2360 H     1 <1>   0.0800 
 48 H        6.4660    -1.3280    -0.3140 H     1 <1>   0.0800 
 49 H        5.1890    -2.1320    -1.1770 H     1 <1>   0.0800 
 50 H        6.9090    -5.7250    -1.5690 H     1 <1>   0.0800 
 51 H        8.0330    -6.4770    -0.4650 H     1 <1>   0.0800 
 52 H        7.9840    -4.7390    -0.5880 H     1 <1>   0.0800 
@<TRIPOS>BOND
  1   1   2  2   
  2   1   3  2   
  3   1   4  am  
  4   1   5  1   
  5   4   6  1   
  6   4   7  1   
  7   5  27  1   
  8   5  28  1   
  9   5  29  1   
 10   6   8  ar  
 11   6   9  ar  
 12   7  10  1   
 13   7  30  1   
 14   7  31  1   
 15   8  11  ar  
 16   8  32  1   
 17   9  12  ar  
 18   9  33  1   
 19  10  13  ar  
 20  10  14  ar  
 21  11  15  ar  
 22  11  34  1   
 23  12  15  ar  
 24  12  35  1   
 25  13  16  ar  
 26  13  17  1   
 27  14  18  ar  
 28  14  36  1   
 29  15  19  1   
 30  16  20  ar  
 31  16  37  1   
 32  17  38  1   
 33  17  39  1   
 34  17  40  1   
 35  18  20  ar  
 36  18  41  1   
 37  19  21  2   
 38  19  22  am  
 39  20  42  1   
 40  22  23  1   
 41  22  24  1   
 42  23  25  1   
 43  23  43  1   
 44  23  44  1   
 45  24  26  1   
 46  24  45  1   
 47  24  46  1   
 48  25  47  1   
 49  25  48  1   
 50  25  49  1   
 51  26  50  1   
 52  26  51  1   
 53  26  52  1   
@<TRIPOS>SUBSTRUCTURE
  1 ****   6 GROUP 4 **** **** 0

# MOE 2024.06 (io_trps.svl 2023.06)
