@<TRIPOS>MOLECULE
NONAME
44 48 1 0 0 
SMALL
USER_CHARGES


@<TRIPOS>ATOM
  1 O        0.9950     0.7370     0.9200 O.2   1 <1>  -0.5700 
  2 C        1.3580    -0.3610     0.6020 C.2   1 <1>   0.4480 
  3 C        0.7200    -1.6470     1.1260 C.3   1 <1>   0.0610 
  4 C        2.5070    -0.6270    -0.3690 C.3   1 <1>   0.0610 
  5 C        0.2280    -2.4180    -0.1140 C.3   1 <1>   0.1100 
  6 C        1.8490    -2.4400     1.8100 C.3   1 <1>   0.1100 
  7 C       -0.4420    -1.3980     2.1070 C.3   1 <1>  -0.2400 
  8 C        1.9190    -1.4610    -1.5250 C.3   1 <1>   0.1100 
  9 C        3.5370    -1.4830     0.3960 C.3   1 <1>   0.1100 
 10 C        3.1640     0.6580    -0.9080 C.3   1 <1>  -0.2400 
 11 N        1.3630    -2.7360    -1.0050 N.3   1 <1>  -0.8100 
 12 N        2.9170    -2.7570     0.8390 N.3   1 <1>  -0.8100 
 13 C        2.4390    -3.5630    -0.3450 C.3   1 <1>   0.7440 
 14 C        3.6030    -3.9960    -1.3300 C.2   1 <1>   0.5690 
 15 C        1.9470    -4.9860     0.0540 C.ar  1 <1>  -0.1440 
 16 O        4.3520    -3.2640    -1.9530 O.2   1 <1>  -0.5700 
 17 N        3.6810    -5.3560    -1.4120 N.am  1 <1>  -0.4770 
 18 C        2.7160    -5.9370    -0.6050 C.ar  1 <1>   0.1170 
 19 C        0.9370    -5.4410     0.9000 C.ar  1 <1>  -0.1500 
 20 C        4.6560    -6.1050    -2.2410 C.3   1 <1>   0.0600 
 21 C        2.5010    -7.2980    -0.4390 C.ar  1 <1>  -0.1500 
 22 C        0.7160    -6.7990     1.0710 C.ar  1 <1>  -0.1500 
 23 C        1.4950    -7.7280     0.4040 C.ar  1 <1>  -0.1500 
 24 H       -0.4800    -1.8100    -0.6520 H     1 <1>   0.0800 
 25 H       -0.2950    -3.3130     0.1560 H     1 <1>   0.0800 
 26 H        2.2660    -1.8460     2.6070 H     1 <1>   0.0800 
 27 H        1.4840    -3.3370     2.2680 H     1 <1>   0.0800 
 28 H       -0.0950    -0.8400     2.9600 H     1 <1>   0.0800 
 29 H       -0.8610    -2.3280     2.4490 H     1 <1>   0.0800 
 30 H       -1.2170    -0.8250     1.6280 H     1 <1>   0.0800 
 31 H        1.1350    -0.9030    -2.0080 H     1 <1>   0.0800 
 32 H        2.6660    -1.6500    -2.2730 H     1 <1>   0.0800 
 33 H        3.8860    -0.9400     1.2570 H     1 <1>   0.0800 
 34 H        4.3990    -1.6730    -0.2160 H     1 <1>   0.0800 
 35 H        2.4380     1.2570    -1.4290 H     1 <1>   0.0800 
 36 H        3.9650     0.4180    -1.5860 H     1 <1>   0.0800 
 37 H        3.5610     1.2420    -0.0960 H     1 <1>   0.0800 
 38 H        0.3010    -4.7750     1.4430 H     1 <1>   0.1500 
 39 H        5.2960    -5.4230    -2.7730 H     1 <1>   0.0800 
 40 H        4.1290    -6.7150    -2.9530 H     1 <1>   0.0800 
 41 H        5.2610    -6.7310    -1.6090 H     1 <1>   0.0800 
 42 H        3.1100    -8.0120    -0.9600 H     1 <1>   0.1500 
 43 H       -0.0680    -7.1350     1.7280 H     1 <1>   0.1500 
 44 H        1.3170    -8.7810     0.5420 H     1 <1>   0.1500 
@<TRIPOS>BOND
  1   1   2  2   
  2   2   3  1   
  3   2   4  1   
  4   3   5  1   
  5   3   6  1   
  6   3   7  1   
  7   4   8  1   
  8   4   9  1   
  9   4  10  1   
 10   5  11  1   
 11   5  24  1   
 12   5  25  1   
 13   6  12  1   
 14   6  26  1   
 15   6  27  1   
 16   7  28  1   
 17   7  29  1   
 18   7  30  1   
 19   8  11  1   
 20   8  31  1   
 21   8  32  1   
 22   9  12  1   
 23   9  33  1   
 24   9  34  1   
 25  10  35  1   
 26  10  36  1   
 27  10  37  1   
 28  11  13  1   
 29  12  13  1   
 30  13  14  1   
 31  13  15  1   
 32  14  16  2   
 33  14  17  am  
 34  15  18  ar  
 35  15  19  ar  
 36  17  18  1   
 37  17  20  1   
 38  18  21  ar  
 39  19  22  ar  
 40  19  38  1   
 41  20  39  1   
 42  20  40  1   
 43  20  41  1   
 44  21  23  ar  
 45  21  42  1   
 46  22  23  ar  
 47  22  43  1   
 48  23  44  1   
@<TRIPOS>SUBSTRUCTURE
  1 ****  13 GROUP 4 **** **** 0

# MOE 2024.06 (io_trps.svl 2023.06)
