@<TRIPOS>MOLECULE
NONAME
52 56 1 0 0 
SMALL
USER_CHARGES


@<TRIPOS>ATOM
  1 O       -1.0830     0.4360     1.2770 O.2   1 <1>  -0.5700 
  2 C       -1.4960    -0.4210     0.5340 C.2   1 <1>   0.5690 
  3 N       -0.8790    -1.6340     0.4080 N.am  1 <1>  -0.5470 
  4 C       -2.7700    -0.1380    -0.2940 C.3   1 <1>   0.0610 
  5 C        0.2330    -2.2040     0.9850 C.ar  1 <1>   0.4270 
  6 C       -3.9850    -0.0060     0.6560 C.3   1 <1>  -0.1600 
  7 C       -3.0880    -1.2580    -1.3250 C.3   1 <1>  -0.1600 
  8 C       -2.6090     1.1910    -1.0710 C.3   1 <1>  -0.1600 
  9 N        0.4550    -3.4300     0.5360 N.ar  1 <1>  -0.6200 
 10 C        1.0410    -1.5780     1.9340 C.ar  1 <1>  -0.1500 
 11 C       -5.2910     0.3130    -0.1090 C.3   1 <1>   0.1430 
 12 C       -4.3620    -0.9300    -2.1250 C.3   1 <1>  -0.0800 
 13 C       -3.8840     1.5230    -1.8630 C.3   1 <1>  -0.0800 
 14 C        1.5090    -4.0510     1.0410 C.ar  1 <1>   0.1600 
 15 C        2.1330    -2.2360     2.4510 C.ar  1 <1>  -0.1500 
 16 C       -6.4760     0.3830     0.8810 C.ar  1 <1>  -0.1430 
 17 C       -5.5460    -0.8010    -1.1500 C.3   1 <1>  -0.1600 
 18 C       -5.0670     1.6360    -0.8850 C.3   1 <1>  -0.1600 
 19 C       -4.1660     0.3980    -2.8710 C.3   1 <1>  -0.1600 
 20 C        2.3660    -3.5130     1.9840 C.ar  1 <1>  -0.1500 
 21 C       -7.2590     1.5220     1.0510 C.ar  1 <1>  -0.1500 
 22 C       -6.7960    -0.7330     1.6490 C.ar  1 <1>  -0.1500 
 23 C       -8.3140     1.5420     1.9480 C.ar  1 <1>  -0.1500 
 24 C       -7.8500    -0.7160     2.5450 C.ar  1 <1>  -0.1500 
 25 C       -8.6160     0.4230     2.7020 C.ar  1 <1>  -0.1430 
 26 C       -9.7740     0.4450     3.6830 C.3   1 <1>  -0.0970 
 27 H       -1.3040    -2.2820    -0.2470 H     1 <1>   0.3700 
 28 H       -3.8000     0.7770     1.3720 H     1 <1>   0.0800 
 29 H       -4.0910    -0.9200     1.2100 H     1 <1>   0.0800 
 30 H       -3.2320    -2.1980    -0.8210 H     1 <1>   0.0800 
 31 H       -2.2640    -1.3700    -2.0100 H     1 <1>   0.0800 
 32 H       -1.7710     1.1220    -1.7420 H     1 <1>   0.0800 
 33 H       -2.4020     1.9930    -0.3810 H     1 <1>   0.0800 
 34 H        0.8200    -0.5830     2.2670 H     1 <1>   0.1500 
 35 H       -4.5610    -1.7170    -2.8330 H     1 <1>   0.0800 
 36 H       -3.7540     2.4560    -2.3850 H     1 <1>   0.0800 
 37 H        1.7010    -5.0490     0.6840 H     1 <1>   0.1500 
 38 H        2.7730    -1.7770     3.1840 H     1 <1>   0.1500 
 39 H       -6.4450    -0.5770    -1.6970 H     1 <1>   0.0800 
 40 H       -5.6980    -1.7450    -0.6600 H     1 <1>   0.0800 
 41 H       -4.8710     2.4350    -0.1910 H     1 <1>   0.0800 
 42 H       -5.9540     1.8860    -1.4400 H     1 <1>   0.0800 
 43 H       -3.3460     0.3140    -3.5640 H     1 <1>   0.0800 
 44 H       -5.0500     0.6310    -3.4400 H     1 <1>   0.0800 
 45 H        3.2020    -4.0830     2.3460 H     1 <1>   0.1500 
 46 H       -7.0730     2.4210     0.4950 H     1 <1>   0.1500 
 47 H       -6.2250    -1.6390     1.5580 H     1 <1>   0.1500 
 48 H       -8.8990     2.4370     2.0540 H     1 <1>   0.1500 
 49 H       -8.0700    -1.5980     3.1210 H     1 <1>   0.1500 
 50 H       -9.9180     1.4380     4.0710 H     1 <1>   0.0800 
 51 H       -9.5800    -0.2160     4.5080 H     1 <1>   0.0800 
 52 H      -10.6750     0.1300     3.1890 H     1 <1>   0.0800 
@<TRIPOS>BOND
  1   1   2  2   
  2   2   3  am  
  3   2   4  1   
  4   3   5  1   
  5   3  27  1   
  6   4   6  1   
  7   4   7  1   
  8   4   8  1   
  9   5   9  ar  
 10   5  10  ar  
 11   6  11  1   
 12   6  28  1   
 13   6  29  1   
 14   7  12  1   
 15   7  30  1   
 16   7  31  1   
 17   8  13  1   
 18   8  32  1   
 19   8  33  1   
 20   9  14  ar  
 21  10  15  ar  
 22  10  34  1   
 23  11  16  1   
 24  11  17  1   
 25  11  18  1   
 26  12  17  1   
 27  12  19  1   
 28  12  35  1   
 29  13  18  1   
 30  13  19  1   
 31  13  36  1   
 32  14  20  ar  
 33  14  37  1   
 34  15  20  ar  
 35  15  38  1   
 36  16  21  ar  
 37  16  22  ar  
 38  17  39  1   
 39  17  40  1   
 40  18  41  1   
 41  18  42  1   
 42  19  43  1   
 43  19  44  1   
 44  20  45  1   
 45  21  23  ar  
 46  21  46  1   
 47  22  24  ar  
 48  22  47  1   
 49  23  25  ar  
 50  23  48  1   
 51  24  25  ar  
 52  24  49  1   
 53  25  26  1   
 54  26  50  1   
 55  26  51  1   
 56  26  52  1   
@<TRIPOS>SUBSTRUCTURE
  1 ****   6 GROUP 4 **** **** 0

# MOE 2024.06 (io_trps.svl 2023.06)
