@<TRIPOS>MOLECULE
NONAME
50 52 1 0 0 
SMALL
USER_CHARGES


@<TRIPOS>ATOM
  1 S       -0.3630     0.3240     0.0820 S.3   1 <1>  -0.3320 
  2 C        1.4250     0.1070     0.1410 C.ar  1 <1>   0.1020 
  3 C       -1.0970    -1.3700     0.0500 C.3   1 <1>   0.2140 
  4 C        2.0220    -1.1440     0.1480 C.ar  1 <1>  -0.1500 
  5 C        2.1950     1.2550     0.1780 C.ar  1 <1>  -0.1500 
  6 C       -2.6100    -1.2340    -0.0070 C.ar  1 <1>  -0.1440 
  7 C        3.4030    -1.2370     0.1940 C.ar  1 <1>  -0.1500 
  8 C        3.5740     1.1550     0.2240 C.ar  1 <1>  -0.1500 
  9 C       -3.3820    -1.4740     1.1180 C.ar  1 <1>  -0.1500 
 10 C       -3.2350    -0.8750    -1.1900 C.ar  1 <1>  -0.1500 
 11 C        4.1840    -0.0910     0.2340 C.ar  1 <1>  -0.1430 
 12 C       -4.7590    -1.3550     1.0580 C.ar  1 <1>  -0.1500 
 13 C       -4.6110    -0.7570    -1.2440 C.ar  1 <1>  -0.1500 
 14 C        5.6970    -0.1990     0.2830 C.3   1 <1>  -0.0970 
 15 C       -5.4050    -0.9850    -0.1200 C.ar  1 <1>   0.0860 
 16 C       -6.8490    -0.8480    -0.1670 C.2   1 <1>   0.5440 
 17 O       -7.5440    -1.7630     0.2310 O.2   1 <1>  -0.5700 
 18 N       -7.4580     0.2990    -0.6360 N.am  1 <1>  -0.6600 
 19 C       -8.9170     0.3440    -0.9270 C.3   1 <1>   0.1400 
 20 C       -6.7860     1.6270    -0.6770 C.3   1 <1>   0.1400 
 21 C       -9.6070     1.2480     0.0960 C.3   1 <1>  -0.1600 
 22 C       -7.4490     2.5560     0.3430 C.3   1 <1>  -0.1600 
 23 C       -8.9720     2.6520     0.1260 C.3   1 <1>  -0.0190 
 24 C       -9.6290     3.5560     1.1650 C.2   1 <1>   0.5690 
 25 O      -10.1000     4.6100     0.8260 O.2   1 <1>  -0.5700 
 26 N       -9.6770     3.1820     2.4570 N.am  1 <1>  -0.8000 
 27 H       -0.7760    -1.8760     0.9430 H     1 <1>   0.0800 
 28 H       -0.7180    -1.8700    -0.8230 H     1 <1>   0.0800 
 29 H        1.4430    -2.0450     0.1180 H     1 <1>   0.1500 
 30 H        1.7160     2.2180     0.1710 H     1 <1>   0.1500 
 31 H        3.8700    -2.2060     0.1980 H     1 <1>   0.1500 
 32 H        4.1700     2.0500     0.2520 H     1 <1>   0.1500 
 33 H       -2.9160    -1.7550     2.0470 H     1 <1>   0.1500 
 34 H       -2.6460    -0.6840    -2.0720 H     1 <1>   0.1500 
 35 H       -5.3540    -1.5510     1.9330 H     1 <1>   0.1500 
 36 H       -5.0870    -0.4840    -2.1700 H     1 <1>   0.1500 
 37 H        5.9950    -1.1020     0.7850 H     1 <1>   0.0800 
 38 H        6.1170     0.6370     0.8130 H     1 <1>   0.0800 
 39 H        6.0930    -0.2100    -0.7170 H     1 <1>   0.0800 
 40 H       -9.3440    -0.6440    -0.8890 H     1 <1>   0.0800 
 41 H       -9.0650     0.7300    -1.9210 H     1 <1>   0.0800 
 42 H       -6.8790     2.0380    -1.6680 H     1 <1>   0.0800 
 43 H       -5.7390     1.5400    -0.4460 H     1 <1>   0.0800 
 44 H       -9.5340     0.7790     1.0610 H     1 <1>   0.0800 
 45 H      -10.6510     1.3290    -0.1520 H     1 <1>   0.0800 
 46 H       -7.0130     3.5370     0.2640 H     1 <1>   0.0800 
 47 H       -7.2390     2.1850     1.3310 H     1 <1>   0.0800 
 48 H       -9.1380     3.1070    -0.8360 H     1 <1>   0.0800 
 49 H      -10.1230     3.7970     3.1390 H     1 <1>   0.3700 
 50 H       -9.3050     2.2990     2.8040 H     1 <1>   0.3700 
@<TRIPOS>BOND
  1   1   2  1   
  2   1   3  1   
  3   2   4  ar  
  4   2   5  ar  
  5   3   6  1   
  6   3  27  1   
  7   3  28  1   
  8   4   7  ar  
  9   4  29  1   
 10   5   8  ar  
 11   5  30  1   
 12   6   9  ar  
 13   6  10  ar  
 14   7  11  ar  
 15   7  31  1   
 16   8  11  ar  
 17   8  32  1   
 18   9  12  ar  
 19   9  33  1   
 20  10  13  ar  
 21  10  34  1   
 22  11  14  1   
 23  12  15  ar  
 24  12  35  1   
 25  13  15  ar  
 26  13  36  1   
 27  14  37  1   
 28  14  38  1   
 29  14  39  1   
 30  15  16  1   
 31  16  17  2   
 32  16  18  am  
 33  18  19  1   
 34  18  20  1   
 35  19  21  1   
 36  19  40  1   
 37  19  41  1   
 38  20  22  1   
 39  20  42  1   
 40  20  43  1   
 41  21  23  1   
 42  21  44  1   
 43  21  45  1   
 44  22  23  1   
 45  22  46  1   
 46  22  47  1   
 47  23  24  1   
 48  23  48  1   
 49  24  25  2   
 50  24  26  am  
 51  26  49  1   
 52  26  50  1   
@<TRIPOS>SUBSTRUCTURE
  1 ****  10 GROUP 4 **** **** 0

# MOE 2024.06 (io_trps.svl 2023.06)
