@<TRIPOS>MOLECULE
NONAME
39 40 1 0 0 
SMALL
USER_CHARGES


@<TRIPOS>ATOM
  1 O        3.6200    -5.3450     0.1190 O.3   1 <1>  -0.2800 
  2 C        3.6300    -4.0260     0.0570 C.2   1 <1>  -0.0400 
  3 C        4.4650    -5.7920    -0.7900 C.2   1 <1>  -0.0100 
  4 C        4.4820    -3.6020    -0.9030 C.2   1 <1>  -0.1500 
  5 C        2.7300    -3.2680     1.0060 C.3   1 <1>   0.5230 
  6 C        5.0310    -4.7650    -1.4580 C.2   1 <1>  -0.1500 
  7 N        1.3760    -3.8310     0.8470 N.4   1 <1>  -0.9060 
  8 C        0.3990    -3.4230     1.8700 C.3   1 <1>   0.4860 
  9 C       -0.9160    -4.0510     1.4740 C.ar  1 <1>  -0.1430 
 10 C       -1.7320    -3.4160     0.5530 C.ar  1 <1>  -0.1500 
 11 C       -1.3170    -5.2630     2.0090 C.ar  1 <1>  -0.1500 
 12 C       -2.9340    -3.9710     0.1470 C.ar  1 <1>   0.0830 
 13 C       -2.5150    -5.8340     1.6160 C.ar  1 <1>  -0.1500 
 14 O       -3.6010    -3.2110    -0.7680 O.3   1 <1>  -0.3620 
 15 C       -3.3380    -5.2080     0.6820 C.ar  1 <1>   0.0830 
 16 C       -4.9390    -3.4440    -1.1420 C.3   1 <1>   0.1200 
 17 O       -4.5100    -5.7810     0.2820 O.3   1 <1>  -0.3630 
 18 C       -5.3960    -2.2770    -2.0120 C.3   1 <1>  -0.2400 
 19 C       -4.9770    -7.0080     0.8010 C.3   1 <1>   0.0400 
 20 H        4.6080    -6.8550    -0.8980 H     1 <1>   0.1500 
 21 H        4.7280    -2.6020    -1.2170 H     1 <1>   0.1500 
 22 H        2.7420    -2.2150     0.7760 H     1 <1>   0.0800 
 23 H        3.0820    -3.4160     2.0140 H     1 <1>   0.0800 
 24 H        5.7570    -4.7990    -2.2530 H     1 <1>   0.1500 
 25 H        1.4760    -4.8550     0.8510 H     1 <1>   0.4500 
 26 H        1.0110    -3.6110    -0.0860 H     1 <1>   0.4500 
 27 H        0.2970    -2.3490     1.8930 H     1 <1>   0.0800 
 28 H        0.6980    -3.7710     2.8460 H     1 <1>   0.0800 
 29 H       -1.4570    -2.4670     0.1260 H     1 <1>   0.1500 
 30 H       -0.7110    -5.7810     2.7340 H     1 <1>   0.1500 
 31 H       -2.7890    -6.7750     2.0540 H     1 <1>   0.1500 
 32 H       -5.5380    -3.5110    -0.2490 H     1 <1>   0.0800 
 33 H       -4.9830    -4.3670    -1.6920 H     1 <1>   0.0800 
 34 H       -5.3350    -1.3570    -1.4590 H     1 <1>   0.0800 
 35 H       -6.4160    -2.4290    -2.3140 H     1 <1>   0.0800 
 36 H       -4.7830    -2.2110    -2.8930 H     1 <1>   0.0800 
 37 H       -5.9200    -7.2300     0.3340 H     1 <1>   0.0800 
 38 H       -5.1130    -6.9110     1.8640 H     1 <1>   0.0800 
 39 H       -4.2660    -7.7810     0.5680 H     1 <1>   0.0800 
@<TRIPOS>BOND
  1   1   2  1   
  2   1   3  1   
  3   2   4  2   
  4   2   5  1   
  5   3   6  2   
  6   3  20  1   
  7   4   6  1   
  8   4  21  1   
  9   5   7  1   
 10   5  22  1   
 11   5  23  1   
 12   6  24  1   
 13   7   8  1   
 14   7  25  1   
 15   7  26  1   
 16   8   9  1   
 17   8  27  1   
 18   8  28  1   
 19   9  10  ar  
 20   9  11  ar  
 21  10  12  ar  
 22  10  29  1   
 23  11  13  ar  
 24  11  30  1   
 25  12  14  1   
 26  12  15  ar  
 27  13  15  ar  
 28  13  31  1   
 29  14  16  1   
 30  15  17  1   
 31  16  18  1   
 32  16  32  1   
 33  16  33  1   
 34  17  19  1   
 35  18  34  1   
 36  18  35  1   
 37  18  36  1   
 38  19  37  1   
 39  19  38  1   
 40  19  39  1   
@<TRIPOS>SUBSTRUCTURE
  1 ****   9 GROUP 4 **** **** 0

# MOE 2024.06 (io_trps.svl 2023.06)
