@<TRIPOS>MOLECULE
NONAME
39 41 1 0 0 
SMALL
USER_CHARGES


@<TRIPOS>ATOM
  1 O       -4.1120     1.4260     0.8610 O.3   1 <1>  -0.2800 
  2 C       -4.1450     2.4760     0.0600 C.2   1 <1>  -0.0400 
  3 C       -2.9430     0.8380     0.6960 C.2   1 <1>  -0.0100 
  4 C       -2.9940     2.5750    -0.6410 C.2   1 <1>  -0.1500 
  5 C       -5.3950     3.3260     0.0590 C.3   1 <1>   0.5230 
  6 C       -2.2040     1.4970    -0.2210 C.2   1 <1>  -0.1500 
  7 N       -6.5340     2.3970    -0.1150 N.4   1 <1>  -0.9060 
  8 C       -7.8650     3.0400     0.0750 C.3   1 <1>   0.3430 
  9 C       -9.0060     2.0310    -0.0660 C.3   1 <1>   0.1200 
 10 O      -10.2030     2.7440     0.1120 O.3   1 <1>  -0.3630 
 11 C      -11.4080     2.1260     0.0420 C.ar  1 <1>   0.0830 
 12 C      -12.5260     2.9280     0.2230 C.ar  1 <1>  -0.1500 
 13 C      -11.5680     0.7580    -0.1960 C.ar  1 <1>  -0.1500 
 14 C      -13.7840     2.3610     0.1640 C.ar  1 <1>  -0.1430 
 15 C      -12.8360     0.2030    -0.2520 C.ar  1 <1>  -0.1500 
 16 C      -13.9370     1.0180    -0.0700 C.ar  1 <1>  -0.1430 
 17 C      -15.1180     3.0450     0.3320 C.3   1 <1>  -0.0170 
 18 C      -15.3940     0.6280    -0.0900 C.3   1 <1>  -0.0170 
 19 C      -16.1260     1.9810    -0.1380 C.3   1 <1>  -0.1600 
 20 H       -2.7130    -0.0450     1.2700 H     1 <1>   0.1500 
 21 H       -2.6900     3.3030    -1.3750 H     1 <1>   0.1500 
 22 H       -5.3590     4.0500    -0.7380 H     1 <1>   0.0800 
 23 H       -5.4740     3.8400     1.0030 H     1 <1>   0.0800 
 24 H       -1.2120     1.2700    -0.5740 H     1 <1>   0.1500 
 25 H       -6.3730     1.6440     0.5710 H     1 <1>   0.4500 
 26 H       -6.4470     1.9570    -1.0380 H     1 <1>   0.4500 
 27 H       -8.0020     3.8170    -0.6600 H     1 <1>   0.0800 
 28 H       -7.9190     3.4820     1.0570 H     1 <1>   0.0800 
 29 H       -8.9530     1.2740     0.6970 H     1 <1>   0.0800 
 30 H       -9.0220     1.5940    -1.0490 H     1 <1>   0.0800 
 31 H      -12.4100     3.9800     0.4070 H     1 <1>   0.1500 
 32 H      -10.7280     0.1070    -0.3400 H     1 <1>   0.1500 
 33 H      -12.9680    -0.8490    -0.4350 H     1 <1>   0.1500 
 34 H      -15.1810     3.9390    -0.2630 H     1 <1>   0.0800 
 35 H      -15.2700     3.2820     1.3700 H     1 <1>   0.0800 
 36 H      -15.6350     0.0970     0.8140 H     1 <1>   0.0800 
 37 H      -15.6300     0.0210    -0.9470 H     1 <1>   0.0800 
 38 H      -16.3990     2.1900    -1.1570 H     1 <1>   0.0800 
 39 H      -17.0140     1.9770     0.4690 H     1 <1>   0.0800 
@<TRIPOS>BOND
  1   1   2  1   
  2   1   3  1   
  3   2   4  2   
  4   2   5  1   
  5   3   6  2   
  6   3  20  1   
  7   4   6  1   
  8   4  21  1   
  9   5   7  1   
 10   5  22  1   
 11   5  23  1   
 12   6  24  1   
 13   7   8  1   
 14   7  25  1   
 15   7  26  1   
 16   8   9  1   
 17   8  27  1   
 18   8  28  1   
 19   9  10  1   
 20   9  29  1   
 21   9  30  1   
 22  10  11  1   
 23  11  12  ar  
 24  11  13  ar  
 25  12  14  ar  
 26  12  31  1   
 27  13  15  ar  
 28  13  32  1   
 29  14  16  ar  
 30  14  17  1   
 31  15  16  ar  
 32  15  33  1   
 33  16  18  1   
 34  17  19  1   
 35  17  34  1   
 36  17  35  1   
 37  18  19  1   
 38  18  36  1   
 39  18  37  1   
 40  19  38  1   
 41  19  39  1   
@<TRIPOS>SUBSTRUCTURE
  1 ****   9 GROUP 4 **** **** 0

# MOE 2024.06 (io_trps.svl 2023.06)
