@<TRIPOS>MOLECULE
NONAME
31 31 1 0 0 
SMALL
USER_CHARGES


@<TRIPOS>ATOM
  1 O       -7.6150     1.2590    -0.8420 O.3   1 <1>  -0.3630 
  2 C       -6.3190     1.2280    -0.4460 C.ar  1 <1>   0.0830 
  3 C       -8.6290     1.9290    -0.1220 C.3   1 <1>   0.1200 
  4 C       -5.4500     0.4990    -1.2390 C.ar  1 <1>  -0.1500 
  5 C       -5.8290     1.8700     0.6870 C.ar  1 <1>  -0.1500 
  6 C       -8.6150     3.4200    -0.4810 C.3   1 <1>  -0.1600 
  7 C       -4.1070     0.4130    -0.9200 C.ar  1 <1>  -0.1500 
  8 C       -4.4850     1.7870     1.0060 C.ar  1 <1>  -0.1500 
  9 C       -9.7090     4.1830     0.2740 C.3   1 <1>  -0.2400 
 10 C       -3.6150     1.0640     0.2020 C.ar  1 <1>  -0.1430 
 11 C       -2.1270     1.0110     0.5280 C.3   1 <1>   0.0880 
 12 C       -1.3550     2.1340    -0.1690 C.cat 1 <1>   0.6040 
 13 N       -1.9940     2.9660    -0.9520 N.pl3 1 <1>  -0.7540 
 14 N       -0.0650     2.2500     0.0250 N.pl3 1 <1>  -0.7540 
 15 H       -8.4930     1.7570     0.9310 H     1 <1>   0.0800 
 16 H       -9.5670     1.4920    -0.4180 H     1 <1>   0.0800 
 17 H       -5.8390    -0.0040    -2.1070 H     1 <1>   0.1500 
 18 H       -6.4770     2.4360     1.3290 H     1 <1>   0.1500 
 19 H       -8.7780     3.5250    -1.5400 H     1 <1>   0.0800 
 20 H       -7.6590     3.8490    -0.2400 H     1 <1>   0.0800 
 21 H       -3.4590    -0.1670    -1.5560 H     1 <1>   0.1500 
 22 H       -4.1300     2.2910     1.8900 H     1 <1>   0.1500 
 23 H      -10.6800     3.7880     0.0290 H     1 <1>   0.0800 
 24 H       -9.6860     5.2230     0.0010 H     1 <1>   0.0800 
 25 H       -9.5610     4.1040     1.3370 H     1 <1>   0.0800 
 26 H       -1.7280     0.0620     0.2190 H     1 <1>   0.0800 
 27 H       -1.9910     1.0930     1.5910 H     1 <1>   0.0800 
 28 H       -1.5910     3.7490    -1.4690 H     1 <1>   0.4500 
 29 H       -3.0100     2.8690    -1.1020 H     1 <1>   0.4500 
 30 H        0.5150     2.9740    -0.4060 H     1 <1>   0.4500 
 31 H        0.4830     1.6270     0.6270 H     1 <1>   0.4500 
@<TRIPOS>BOND
  1   1   2  1   
  2   1   3  1   
  3   2   4  ar  
  4   2   5  ar  
  5   3   6  1   
  6   3  15  1   
  7   3  16  1   
  8   4   7  ar  
  9   4  17  1   
 10   5   8  ar  
 11   5  18  1   
 12   6   9  1   
 13   6  19  1   
 14   6  20  1   
 15   7  10  ar  
 16   7  21  1   
 17   8  10  ar  
 18   8  22  1   
 19   9  23  1   
 20   9  24  1   
 21   9  25  1   
 22  10  11  1   
 23  11  12  1   
 24  11  26  1   
 25  11  27  1   
 26  12  13  ar  
 27  12  14  ar  
 28  13  28  1   
 29  13  29  1   
 30  14  30  1   
 31  14  31  1   
@<TRIPOS>SUBSTRUCTURE
  1 ****   5 GROUP 4 **** **** 0

# MOE 2024.06 (io_trps.svl 2023.06)
