@<TRIPOS>MOLECULE
NONAME
29 30 1 0 0 
SMALL
USER_CHARGES


@<TRIPOS>ATOM
  1 S        1.0500    -0.9870     1.3930 S.3   1 <1>  -0.0800 
  2 C        1.5800    -0.7530    -0.2400 C.2   1 <1>   0.4420 
  3 C       -0.5430    -1.2240     0.7630 C.2   1 <1>   0.1980 
  4 N        0.6170    -0.8580    -1.0820 N.2   1 <1>  -0.3380 
  5 N        2.9220    -0.4940    -0.4200 N.am  1 <1>  -0.4940 
  6 N       -0.5930    -1.1270    -0.5010 N.2   1 <1>  -0.3380 
  7 C       -1.6610    -1.5100     1.7400 C.3   1 <1>  -0.0600 
  8 C        3.6290    -0.2680    -1.5680 C.2   1 <1>   0.5690 
  9 O        3.1340    -0.2660    -2.6650 O.2   1 <1>  -0.5700 
 10 C        5.1230    -0.0050    -1.4650 C.3   1 <1>   0.1310 
 11 S        5.7080    -0.0470     0.3020 S.3   1 <1>  -0.3320 
 12 C        7.4570     0.2810     0.1910 C.ar  1 <1>   0.7210 
 13 N        8.0870     0.2980     1.3510 N.ar  1 <1>  -0.6200 
 14 N        7.9290     0.4700    -1.0310 N.ar  1 <1>  -0.6200 
 15 C        9.3750     0.5390     1.2710 C.ar  1 <1>   0.1670 
 16 C        9.2220     0.7090    -1.0740 C.ar  1 <1>   0.1600 
 17 C        9.9970     0.7540     0.0620 C.ar  1 <1>  -0.1500 
 18 C       10.1490     0.5700     2.5730 C.3   1 <1>  -0.0970 
 19 H        3.4780    -0.4640     0.4340 H     1 <1>   0.3700 
 20 H       -1.7620    -0.6920     2.4290 H     1 <1>   0.0800 
 21 H       -1.4490    -2.4110     2.2850 H     1 <1>   0.0800 
 22 H       -2.5860    -1.6330     1.2060 H     1 <1>   0.0800 
 23 H        5.3570     0.9670    -1.8580 H     1 <1>   0.0800 
 24 H        5.6710    -0.7560    -2.0040 H     1 <1>   0.0800 
 25 H        9.6740     0.8720    -2.0380 H     1 <1>   0.1500 
 26 H       11.0500     0.9510     0.0000 H     1 <1>   0.1500 
 27 H       10.0570    -0.3790     3.0680 H     1 <1>   0.0800 
 28 H        9.7450     1.3330     3.2130 H     1 <1>   0.0800 
 29 H       11.1890     0.7740     2.4010 H     1 <1>   0.0800 
@<TRIPOS>BOND
  1   1   2  1   
  2   1   3  1   
  3   2   4  2   
  4   2   5  1   
  5   3   6  2   
  6   3   7  1   
  7   4   6  1   
  8   5   8  am  
  9   5  19  1   
 10   7  20  1   
 11   7  21  1   
 12   7  22  1   
 13   8   9  2   
 14   8  10  1   
 15  10  11  1   
 16  10  23  1   
 17  10  24  1   
 18  11  12  1   
 19  12  13  ar  
 20  12  14  ar  
 21  13  15  ar  
 22  14  16  ar  
 23  15  17  ar  
 24  15  18  1   
 25  16  17  ar  
 26  16  25  1   
 27  17  26  1   
 28  18  27  1   
 29  18  28  1   
 30  18  29  1   
@<TRIPOS>SUBSTRUCTURE
  1 ****  11 GROUP 4 **** **** 0

# MOE 2024.06 (io_trps.svl 2023.06)
