@<TRIPOS>MOLECULE
NONAME
51 53 1 0 0 
SMALL
USER_CHARGES


@<TRIPOS>ATOM
  1 O       -4.8030     4.8990     0.7820 O.3   1 <1>  -0.3630 
  2 C       -5.2310     6.1410     0.4340 C.ar  1 <1>   0.0830 
  3 C       -4.8830     3.8620    -0.1740 C.3   1 <1>   0.2640 
  4 C       -6.4540     6.4000    -0.1990 C.ar  1 <1>   0.0830 
  5 C       -4.3840     7.1900     0.7490 C.ar  1 <1>  -0.1500 
  6 C       -3.8010     2.8300     0.1090 C.ar  1 <1>  -0.1440 
  7 O       -7.3130     5.3750    -0.4580 O.3   1 <1>  -0.3630 
  8 C       -6.7780     7.7100    -0.5390 C.ar  1 <1>  -0.1500 
  9 C       -4.7230     8.4910     0.4200 C.ar  1 <1>  -0.1500 
 10 C       -2.9340     2.4300    -0.8980 C.ar  1 <1>  -0.1500 
 11 C       -3.6730     2.2730     1.3720 C.ar  1 <1>  -0.1500 
 12 C       -8.7040     5.5970    -0.3700 C.3   1 <1>   0.1200 
 13 C       -5.9170     8.7500    -0.2280 C.ar  1 <1>  -0.1500 
 14 C       -1.9560     1.4830    -0.6460 C.ar  1 <1>  -0.1500 
 15 C       -2.6960     1.3260     1.6270 C.ar  1 <1>  -0.1500 
 16 C       -9.3970     4.2350    -0.2800 C.3   1 <1>   0.1100 
 17 C       -1.8370     0.9300     0.6170 C.ar  1 <1>  -0.1500 
 18 N      -10.8670     4.3720    -0.1750 N.3   1 <1>  -0.8100 
 19 C      -11.5350     3.0920    -0.5160 C.3   1 <1>   0.1100 
 20 C      -11.2950     4.8250     1.1750 C.3   1 <1>   0.1100 
 21 C      -13.0800     3.1830    -0.4310 C.3   1 <1>   0.3430 
 22 C      -12.8360     4.8970     1.3230 C.3   1 <1>   0.3430 
 23 N      -13.5210     4.5390     0.0380 N.4   1 <1>  -0.9590 
 24 C      -15.0030     4.6950     0.0890 C.3   1 <1>   0.2630 
 25 H       -4.7590     4.2890    -1.1530 H     1 <1>   0.0800 
 26 H       -5.8540     3.4070    -0.0970 H     1 <1>   0.0800 
 27 H       -3.4560     6.9800     1.2500 H     1 <1>   0.1500 
 28 H       -7.6940     7.9380    -1.0490 H     1 <1>   0.1500 
 29 H       -4.0550     9.2990     0.6670 H     1 <1>   0.1500 
 30 H       -3.0160     2.8540    -1.8840 H     1 <1>   0.1500 
 31 H       -4.3350     2.5820     2.1620 H     1 <1>   0.1500 
 32 H       -9.0210     6.1200    -1.2530 H     1 <1>   0.0800 
 33 H       -8.8900     6.1850     0.5110 H     1 <1>   0.0800 
 34 H       -6.1750     9.7610    -0.4920 H     1 <1>   0.1500 
 35 H       -1.2880     1.1780    -1.4320 H     1 <1>   0.1500 
 36 H       -2.6040     0.9000     2.6100 H     1 <1>   0.1500 
 37 H       -9.0140     3.6890     0.5670 H     1 <1>   0.0800 
 38 H       -9.1530     3.6900    -1.1760 H     1 <1>   0.0800 
 39 H       -1.0770     0.1940     0.8140 H     1 <1>   0.1500 
 40 H      -11.1930     2.3140     0.1460 H     1 <1>   0.0800 
 41 H      -11.2640     2.8030    -1.5180 H     1 <1>   0.0800 
 42 H      -10.8910     5.8030     1.3730 H     1 <1>   0.0800 
 43 H      -10.9030     4.1600     1.9270 H     1 <1>   0.0800 
 44 H      -13.4420     2.4230     0.2410 H     1 <1>   0.0800 
 45 H      -13.4940     2.9820    -1.4060 H     1 <1>   0.0800 
 46 H      -13.1110     5.8950     1.6210 H     1 <1>   0.0800 
 47 H      -13.1470     4.2250     2.1050 H     1 <1>   0.0800 
 48 H      -13.1060     5.1850    -0.6530 H     1 <1>   0.4500 
 49 H      -15.4270     4.0160     0.8110 H     1 <1>   0.0800 
 50 H      -15.4340     4.4850    -0.8770 H     1 <1>   0.0800 
 51 H      -15.2630     5.7030     0.3680 H     1 <1>   0.0800 
@<TRIPOS>BOND
  1   1   2  1   
  2   1   3  1   
  3   2   4  ar  
  4   2   5  ar  
  5   3   6  1   
  6   3  25  1   
  7   3  26  1   
  8   4   7  1   
  9   4   8  ar  
 10   5   9  ar  
 11   5  27  1   
 12   6  10  ar  
 13   6  11  ar  
 14   7  12  1   
 15   8  13  ar  
 16   8  28  1   
 17   9  13  ar  
 18   9  29  1   
 19  10  14  ar  
 20  10  30  1   
 21  11  15  ar  
 22  11  31  1   
 23  12  16  1   
 24  12  32  1   
 25  12  33  1   
 26  13  34  1   
 27  14  17  ar  
 28  14  35  1   
 29  15  17  ar  
 30  15  36  1   
 31  16  18  1   
 32  16  37  1   
 33  16  38  1   
 34  17  39  1   
 35  18  19  1   
 36  18  20  1   
 37  19  21  1   
 38  19  40  1   
 39  19  41  1   
 40  20  22  1   
 41  20  42  1   
 42  20  43  1   
 43  21  23  1   
 44  21  44  1   
 45  21  45  1   
 46  22  23  1   
 47  22  46  1   
 48  22  47  1   
 49  23  24  1   
 50  23  48  1   
 51  24  49  1   
 52  24  50  1   
 53  24  51  1   
@<TRIPOS>SUBSTRUCTURE
  1 ****   7 GROUP 4 **** **** 0

# MOE 2024.06 (io_trps.svl 2023.06)
