@<TRIPOS>MOLECULE
NONAME
43 44 1 0 0 
SMALL
USER_CHARGES


@<TRIPOS>ATOM
  1 O        0.0850     0.6930     0.0940 O.2   1 <1>  -0.5700 
  2 C       -0.7490     1.3810    -0.4500 C.2   1 <1>   0.6340 
  3 O       -1.5510     0.7760    -1.3310 O.3   1 <1>  -0.4300 
  4 C       -0.9010     2.7900    -0.1540 C.ar  1 <1>   0.0860 
  5 C       -2.8890     1.1700    -1.5550 C.3   1 <1>   0.0400 
  6 C       -0.9240     3.2410     1.1670 C.ar  1 <1>  -0.1500 
  7 C       -1.0130     3.7560    -1.1580 C.ar  1 <1>  -0.1500 
  8 C       -1.0660     4.5800     1.4720 C.ar  1 <1>  -0.1500 
  9 C       -1.1530     5.0970    -0.8570 C.ar  1 <1>  -0.1500 
 10 C       -1.1750     5.5290     0.4620 C.ar  1 <1>   0.1170 
 11 N       -1.3130     6.8820     0.7550 N.am  1 <1>  -0.5470 
 12 C       -0.4410     7.7350     1.3620 C.2   1 <1>   0.5690 
 13 O       -0.7620     8.8840     1.5380 O.2   1 <1>  -0.5700 
 14 C        0.9600     7.2790     1.8020 C.3   1 <1>   0.1710 
 15 N        2.0340     7.4920     0.7850 N.3   1 <1>  -0.8100 
 16 C        2.2040     8.9390     0.4780 C.3   1 <1>   0.1100 
 17 C        3.3180     6.8970     1.2230 C.3   1 <1>   0.1100 
 18 C        3.4060     9.2220    -0.4550 C.3   1 <1>   0.3430 
 19 C        4.4370     7.0680     0.1650 C.3   1 <1>   0.3430 
 20 N        3.9940     7.9430    -0.9730 N.4   1 <1>  -0.9590 
 21 C        5.0470     8.1490    -2.0080 C.3   1 <1>   0.2630 
 22 H       -3.3860     0.3750    -2.0830 H     1 <1>   0.0800 
 23 H       -2.9040     2.0640    -2.1520 H     1 <1>   0.0800 
 24 H       -3.3720     1.3350    -0.6080 H     1 <1>   0.0800 
 25 H       -0.8300     2.5170     1.9600 H     1 <1>   0.1500 
 26 H       -0.9820     3.4430    -2.1880 H     1 <1>   0.1500 
 27 H       -1.0980     4.8950     2.5000 H     1 <1>   0.1500 
 28 H       -1.2390     5.8200    -1.6490 H     1 <1>   0.1500 
 29 H       -2.1630     7.3460     0.4300 H     1 <1>   0.3700 
 30 H        0.9180     6.2350     2.0500 H     1 <1>   0.0800 
 31 H        1.2090     7.8120     2.7030 H     1 <1>   0.0800 
 32 H        2.3290     9.4990     1.3900 H     1 <1>   0.0800 
 33 H        1.3120     9.3080     0.0010 H     1 <1>   0.0800 
 34 H        3.1800     5.8450     1.4130 H     1 <1>   0.0800 
 35 H        3.6340     7.3530     2.1460 H     1 <1>   0.0800 
 36 H        4.1540     9.7750     0.0890 H     1 <1>   0.0800 
 37 H        3.0740     9.8390    -1.2740 H     1 <1>   0.0800 
 38 H        4.7080     6.0960    -0.2120 H     1 <1>   0.0800 
 39 H        5.3080     7.4890     0.6390 H     1 <1>   0.0800 
 40 H        3.1810     7.4420    -1.3680 H     1 <1>   0.4500 
 41 H        5.8890     8.6740    -1.5880 H     1 <1>   0.0800 
 42 H        4.6540     8.7260    -2.8300 H     1 <1>   0.0800 
 43 H        5.3860     7.1990    -2.3890 H     1 <1>   0.0800 
@<TRIPOS>BOND
  1   1   2  2   
  2   2   3  1   
  3   2   4  1   
  4   3   5  1   
  5   4   6  ar  
  6   4   7  ar  
  7   5  22  1   
  8   5  23  1   
  9   5  24  1   
 10   6   8  ar  
 11   6  25  1   
 12   7   9  ar  
 13   7  26  1   
 14   8  10  ar  
 15   8  27  1   
 16   9  10  ar  
 17   9  28  1   
 18  10  11  1   
 19  11  12  am  
 20  11  29  1   
 21  12  13  2   
 22  12  14  1   
 23  14  15  1   
 24  14  30  1   
 25  14  31  1   
 26  15  16  1   
 27  15  17  1   
 28  16  18  1   
 29  16  32  1   
 30  16  33  1   
 31  17  19  1   
 32  17  34  1   
 33  17  35  1   
 34  18  20  1   
 35  18  36  1   
 36  18  37  1   
 37  19  20  1   
 38  19  38  1   
 39  19  39  1   
 40  20  21  1   
 41  20  40  1   
 42  21  41  1   
 43  21  42  1   
 44  21  43  1   
@<TRIPOS>SUBSTRUCTURE
  1 ****  10 GROUP 4 **** **** 0

# MOE 2024.06 (io_trps.svl 2023.06)
