@<TRIPOS>MOLECULE
NONAME
38 39 1 0 0 
SMALL
USER_CHARGES


@<TRIPOS>ATOM
  1 S        0.4920    -0.4050    -0.6050 S.3   1 <1>  -0.2860 
  2 C       -1.1720    -0.8200    -0.0700 C.2   1 <1>   0.2420 
  3 C        1.5460    -1.2750     0.6590 C.3   1 <1>   0.1310 
  4 N       -1.4210    -1.5040     0.9880 N.2   1 <1>  -0.3380 
  5 N       -2.2640    -0.4420    -0.7340 N.pl3 1 <1>   0.0480 
  6 C        3.0230    -0.9830     0.4520 C.2   1 <1>   0.5690 
  7 N       -2.7520    -1.5950     1.0520 N.2   1 <1>  -0.3380 
  8 C       -3.2380    -0.9610     0.0310 C.2   1 <1>   0.0060 
  9 C       -2.3500     0.3460    -1.9810 C.3   1 <1>   0.0160 
 10 O        3.8190    -1.7870     0.8690 O.2   1 <1>  -0.5700 
 11 N        3.3770     0.1740    -0.1900 N.am  1 <1>  -0.5470 
 12 C       -4.7290    -0.8220    -0.2780 C.3   1 <1>   0.1000 
 13 C        4.6290     0.7330    -0.4940 C.ar  1 <1>   0.1170 
 14 C       -5.5770    -0.8030     1.0000 C.3   1 <1>  -0.2400 
 15 C       -5.1830    -1.9660    -1.1910 C.3   1 <1>  -0.2400 
 16 C        5.8070     0.3610     0.1470 C.ar  1 <1>  -0.1500 
 17 C        4.6950     1.7190    -1.4720 C.ar  1 <1>  -0.1500 
 18 C        7.0130     0.9510    -0.1840 C.ar  1 <1>  -0.1500 
 19 C        5.8990     2.3130    -1.8060 C.ar  1 <1>  -0.1500 
 20 C        7.0620     1.9290    -1.1610 C.ar  1 <1>  -0.1500 
 21 H        1.3530    -2.3280     0.5620 H     1 <1>   0.0800 
 22 H        1.2310    -0.9370     1.6280 H     1 <1>   0.0800 
 23 H       -2.4130     1.3900    -1.7370 H     1 <1>   0.0800 
 24 H       -3.2210     0.0520    -2.5380 H     1 <1>   0.0800 
 25 H       -1.4770     0.1700    -2.5820 H     1 <1>   0.0800 
 26 H        2.5820     0.6930    -0.5630 H     1 <1>   0.3700 
 27 H       -4.8930     0.1120    -0.7860 H     1 <1>   0.0800 
 28 H       -5.4800    -1.7350     1.5300 H     1 <1>   0.0800 
 29 H       -6.6140    -0.6460     0.7640 H     1 <1>   0.0800 
 30 H       -5.2460    -0.0100     1.6480 H     1 <1>   0.0800 
 31 H       -5.0350    -2.9110    -0.6970 H     1 <1>   0.0800 
 32 H       -4.6160    -1.9680    -2.1040 H     1 <1>   0.0800 
 33 H       -6.2260    -1.8630    -1.4340 H     1 <1>   0.0800 
 34 H        5.7900    -0.3930     0.9130 H     1 <1>   0.1500 
 35 H        3.8000     2.0250    -1.9820 H     1 <1>   0.1500 
 36 H        7.9140     0.6490     0.3210 H     1 <1>   0.1500 
 37 H        5.9350     3.0740    -2.5670 H     1 <1>   0.1500 
 38 H        8.0000     2.3890    -1.4190 H     1 <1>   0.1500 
@<TRIPOS>BOND
  1   1   2  1   
  2   1   3  1   
  3   2   4  2   
  4   2   5  1   
  5   3   6  1   
  6   3  21  1   
  7   3  22  1   
  8   4   7  1   
  9   5   8  1   
 10   5   9  1   
 11   6  10  2   
 12   6  11  am  
 13   7   8  2   
 14   8  12  1   
 15   9  23  1   
 16   9  24  1   
 17   9  25  1   
 18  11  13  1   
 19  11  26  1   
 20  12  14  1   
 21  12  15  1   
 22  12  27  1   
 23  13  16  ar  
 24  13  17  ar  
 25  14  28  1   
 26  14  29  1   
 27  14  30  1   
 28  15  31  1   
 29  15  32  1   
 30  15  33  1   
 31  16  18  ar  
 32  16  34  1   
 33  17  19  ar  
 34  17  35  1   
 35  18  20  ar  
 36  18  36  1   
 37  19  20  ar  
 38  19  37  1   
 39  20  38  1   
@<TRIPOS>SUBSTRUCTURE
  1 ****   1 GROUP 4 **** **** 0

# MOE 2024.06 (io_trps.svl 2023.06)
