@<TRIPOS>MOLECULE
NONAME
42 44 1 0 0 
SMALL
USER_CHARGES


@<TRIPOS>ATOM
  1 O        0.7300    -1.6080    -1.3610 O.2   1 <1>  -0.5700 
  2 C        0.9480    -1.9280    -0.2320 C.2   1 <1>   0.5090 
  3 C       -0.1300    -2.5310     0.6640 C.3   1 <1>  -0.1000 
  4 C        2.3160    -1.7170     0.3680 C.3   1 <1>  -0.0990 
  5 C       -0.4310    -4.0010     0.6230 C.3   1 <1>  -0.2000 
  6 C       -1.4330    -3.0190     0.1010 C.3   1 <1>  -0.2000 
  7 C        3.2360    -2.8910     0.0580 C.3   1 <1>   0.4330 
  8 N        2.8560    -4.0640     0.8900 N.pl3 1 <1>  -0.8690 
  9 C        4.6810    -2.4700     0.3280 C.ar  1 <1>  -0.1440 
 10 C        3.1300    -5.3610     0.4640 C.ar  1 <1>   0.1000 
 11 C        5.2710    -2.6160     1.5770 C.ar  1 <1>  -0.1500 
 12 C        5.4290    -1.9160    -0.7040 C.ar  1 <1>  -0.1500 
 13 C        4.2400    -5.6860    -0.3110 C.ar  1 <1>  -0.1500 
 14 C        2.2680    -6.3870     0.8320 C.ar  1 <1>  -0.1500 
 15 C        6.5780    -2.2160     1.7920 C.ar  1 <1>  -0.1500 
 16 C        6.7370    -1.5160    -0.4910 C.ar  1 <1>  -0.1500 
 17 C        4.4640    -6.9860    -0.7240 C.ar  1 <1>  -0.1500 
 18 C        2.4890    -7.6890     0.4210 C.ar  1 <1>  -0.1500 
 19 C        7.3120    -1.6650     0.7570 C.ar  1 <1>  -0.1500 
 20 C        3.5890    -7.9980    -0.3630 C.ar  1 <1>  -0.1440 
 21 C        3.8340    -9.4240    -0.8190 C.3   1 <1>  -0.0970 
 22 H       -0.1900    -2.0270     1.6110 H     1 <1>   0.1000 
 23 H        2.2610    -1.5510     1.4270 H     1 <1>   0.0800 
 24 H        2.7290    -0.8320    -0.0800 H     1 <1>   0.0800 
 25 H       -0.6540    -4.5190     1.5400 H     1 <1>   0.1000 
 26 H        0.0650    -4.6280    -0.0990 H     1 <1>   0.1000 
 27 H       -1.5910    -2.9550    -0.9630 H     1 <1>   0.1000 
 28 H       -2.3360    -2.8470     0.6620 H     1 <1>   0.1000 
 29 H        3.1360    -3.1540    -0.9830 H     1 <1>   0.0800 
 30 H        1.9220    -3.9630     1.2920 H     1 <1>   0.4000 
 31 H        4.7130    -3.0510     2.3890 H     1 <1>   0.1500 
 32 H        4.9960    -1.7930    -1.6820 H     1 <1>   0.1500 
 33 H        4.9430    -4.9250    -0.5900 H     1 <1>   0.1500 
 34 H        1.4190    -6.1680     1.4490 H     1 <1>   0.1500 
 35 H        7.0230    -2.3380     2.7640 H     1 <1>   0.1500 
 36 H        7.3070    -1.0890    -1.2980 H     1 <1>   0.1500 
 37 H        5.3270    -7.2090    -1.3260 H     1 <1>   0.1500 
 38 H        1.8030    -8.4630     0.7150 H     1 <1>   0.1500 
 39 H        8.3290    -1.3550     0.9240 H     1 <1>   0.1500 
 40 H        4.8890    -9.6150    -0.8980 H     1 <1>   0.0800 
 41 H        3.3790    -9.5810    -1.7810 H     1 <1>   0.0800 
 42 H        3.4150   -10.1220    -0.1170 H     1 <1>   0.0800 
@<TRIPOS>BOND
  1   1   2  2   
  2   2   3  1   
  3   2   4  1   
  4   3   5  1   
  5   3   6  1   
  6   3  22  1   
  7   4   7  1   
  8   4  23  1   
  9   4  24  1   
 10   5   6  1   
 11   5  25  1   
 12   5  26  1   
 13   6  27  1   
 14   6  28  1   
 15   7   8  1   
 16   7   9  1   
 17   7  29  1   
 18   8  10  1   
 19   8  30  1   
 20   9  11  ar  
 21   9  12  ar  
 22  10  13  ar  
 23  10  14  ar  
 24  11  15  ar  
 25  11  31  1   
 26  12  16  ar  
 27  12  32  1   
 28  13  17  ar  
 29  13  33  1   
 30  14  18  ar  
 31  14  34  1   
 32  15  19  ar  
 33  15  35  1   
 34  16  19  ar  
 35  16  36  1   
 36  17  20  ar  
 37  17  37  1   
 38  18  20  ar  
 39  18  38  1   
 40  19  39  1   
 41  20  21  1   
 42  21  40  1   
 43  21  41  1   
 44  21  42  1   
@<TRIPOS>SUBSTRUCTURE
  1 ****   8 GROUP 4 **** **** 0

# MOE 2024.06 (io_trps.svl 2023.06)
