@<TRIPOS>MOLECULE
NONAME
48 50 1 0 0 
SMALL
USER_CHARGES


@<TRIPOS>ATOM
  1 F       -1.6630    -0.5370    -1.0390 F     1 <1>  -0.3400 
  2 C       -1.7570     0.6660    -0.4840 C.3   1 <1>   1.3000 
  3 F       -0.7380     1.3930    -0.9160 F     1 <1>  -0.3400 
  4 F       -1.6320     0.5290     0.8310 F     1 <1>  -0.3400 
  5 O       -2.9800     1.2920    -0.8210 O.3   1 <1>  -0.3630 
  6 C       -4.1210     0.6750    -0.4490 C.ar  1 <1>   0.0830 
  7 C       -4.7280    -0.2300    -1.3050 C.ar  1 <1>  -0.1500 
  8 C       -4.6920     0.9610     0.7800 C.ar  1 <1>  -0.1500 
  9 C       -5.9000    -0.8590    -0.9240 C.ar  1 <1>  -0.1500 
 10 C       -5.8640     0.3310     1.1590 C.ar  1 <1>  -0.1500 
 11 C       -6.4770    -0.5810     0.3090 C.ar  1 <1>  -0.1430 
 12 C       -7.7630    -1.2720     0.7230 C.3   1 <1>   0.4870 
 13 N       -8.8880    -0.3060     0.6110 N.4   1 <1>  -0.9590 
 14 C      -10.1600    -0.8560     1.2070 C.3   1 <1>   0.3430 
 15 C       -9.1120     0.1360    -0.8170 C.3   1 <1>   0.3430 
 16 C      -11.3400     0.1280     1.0880 C.3   1 <1>   0.2090 
 17 C      -10.2910     1.1200    -0.9540 C.3   1 <1>   0.2090 
 18 N      -11.5280     0.5660    -0.3260 N.pl3 1 <1>  -0.8380 
 19 C      -12.6810     1.3340    -0.5460 C.ar  1 <1>   0.1000 
 20 C      -12.8800     2.6240    -0.0180 C.ar  1 <1>   0.0830 
 21 C      -13.6770     0.7730    -1.3330 C.ar  1 <1>  -0.1500 
 22 O      -11.8900     3.1700     0.7580 O.3   1 <1>  -0.3630 
 23 C      -14.0630     3.3030    -0.2940 C.ar  1 <1>  -0.1500 
 24 C      -14.8480     1.4560    -1.6020 C.ar  1 <1>  -0.1500 
 25 C      -12.0130     4.4730     1.2880 C.3   1 <1>   0.0400 
 26 C      -15.0420     2.7210    -1.0830 C.ar  1 <1>  -0.1500 
 27 H       -4.2800    -0.4410    -2.2610 H     1 <1>   0.1500 
 28 H       -4.2170     1.6720     1.4360 H     1 <1>   0.1500 
 29 H       -6.3480    -1.5690    -1.6000 H     1 <1>   0.1500 
 30 H       -6.2830     0.5590     2.1250 H     1 <1>   0.1500 
 31 H       -7.6680    -1.6130     1.7410 H     1 <1>   0.0800 
 32 H       -7.9420    -2.1270     0.0920 H     1 <1>   0.0800 
 33 H       -8.6250     0.5360     1.1360 H     1 <1>   0.4500 
 34 H      -10.0080    -1.0920     2.2470 H     1 <1>   0.0800 
 35 H      -10.4350    -1.7640     0.6970 H     1 <1>   0.0800 
 36 H       -9.3230    -0.7230    -1.4320 H     1 <1>   0.0800 
 37 H       -8.2210     0.6060    -1.2000 H     1 <1>   0.0800 
 38 H      -11.1650     0.9820     1.7180 H     1 <1>   0.0800 
 39 H      -12.2430    -0.3510     1.4280 H     1 <1>   0.0800 
 40 H      -10.4820     1.3070    -1.9970 H     1 <1>   0.0800 
 41 H      -10.0330     2.0580    -0.4950 H     1 <1>   0.0800 
 42 H      -13.5270    -0.2110    -1.7370 H     1 <1>   0.1500 
 43 H      -14.2530     4.2870     0.0900 H     1 <1>   0.1500 
 44 H      -15.6080     1.0020    -2.2150 H     1 <1>   0.1500 
 45 H      -11.1210     4.6970     1.8440 H     1 <1>   0.0800 
 46 H      -12.8670     4.5060     1.9410 H     1 <1>   0.0800 
 47 H      -12.1210     5.1720     0.4770 H     1 <1>   0.0800 
 48 H      -15.9530     3.2540    -1.2910 H     1 <1>   0.1500 
@<TRIPOS>BOND
  1   1   2  1   
  2   2   3  1   
  3   2   4  1   
  4   2   5  1   
  5   5   6  1   
  6   6   7  ar  
  7   6   8  ar  
  8   7   9  ar  
  9   7  27  1   
 10   8  10  ar  
 11   8  28  1   
 12   9  11  ar  
 13   9  29  1   
 14  10  11  ar  
 15  10  30  1   
 16  11  12  1   
 17  12  13  1   
 18  12  31  1   
 19  12  32  1   
 20  13  14  1   
 21  13  15  1   
 22  13  33  1   
 23  14  16  1   
 24  14  34  1   
 25  14  35  1   
 26  15  17  1   
 27  15  36  1   
 28  15  37  1   
 29  16  18  1   
 30  16  38  1   
 31  16  39  1   
 32  17  18  1   
 33  17  40  1   
 34  17  41  1   
 35  18  19  1   
 36  19  20  ar  
 37  19  21  ar  
 38  20  22  1   
 39  20  23  ar  
 40  21  24  ar  
 41  21  42  1   
 42  22  25  1   
 43  23  26  ar  
 44  23  43  1   
 45  24  26  ar  
 46  24  44  1   
 47  25  45  1   
 48  25  46  1   
 49  25  47  1   
 50  26  48  1   
@<TRIPOS>SUBSTRUCTURE
  1 ****  15 GROUP 4 **** **** 0

# MOE 2024.06 (io_trps.svl 2023.06)
