@<TRIPOS>MOLECULE
NONAME
51 53 1 0 0 
SMALL
USER_CHARGES


@<TRIPOS>ATOM
  1 O        0.5950     0.0700    -0.3290 O.3   1 <1>  -0.5600 
  2 C        0.1410     1.3780    -0.5570 C.3   1 <1>   0.2000 
  3 C        1.4800    -0.1380     0.7410 C.3   1 <1>   0.2000 
  4 C        1.3410     2.3170    -0.8530 C.3   1 <1>   0.3430 
  5 C       -0.7230     1.8410     0.6230 C.3   1 <1>  -0.2400 
  6 C        2.5570     0.9750     0.8030 C.3   1 <1>   0.3430 
  7 C        2.1030    -1.5140     0.5100 C.3   1 <1>  -0.2400 
  8 N        2.6700     1.6730    -0.5280 N.4   1 <1>  -0.9590 
  9 C        3.8480     2.5580    -0.7550 C.3   1 <1>   0.4230 
 10 C        5.1270     1.7220    -0.8160 C.3   1 <1>  -0.1600 
 11 C        3.9720     3.6510     0.3150 C.3   1 <1>  -0.1600 
 12 C        6.3440     2.6110    -1.0720 C.3   1 <1>   0.3430 
 13 C        5.2000     4.5270     0.0540 C.3   1 <1>   0.3430 
 14 N        6.4220     3.6790    -0.0290 N.4   1 <1>  -0.9590 
 15 C        7.6480     4.5150    -0.2180 C.3   1 <1>   0.4860 
 16 C        8.8540     3.6250    -0.0030 C.ar  1 <1>  -0.1440 
 17 C        9.2070     3.2230     1.2790 C.ar  1 <1>  -0.1500 
 18 C        9.6080     3.1960    -1.0860 C.ar  1 <1>  -0.1500 
 19 C       10.2910     2.3850     1.4700 C.ar  1 <1>  -0.1500 
 20 C       10.6910     2.3570    -0.8910 C.ar  1 <1>  -0.1500 
 21 C       11.0310     1.9490     0.3860 C.ar  1 <1>  -0.1500 
 22 H       -0.4870     1.3370    -1.4310 H     1 <1>   0.0800 
 23 H        0.9110    -0.1590     1.6570 H     1 <1>   0.0800 
 24 H        1.2140     3.2230    -0.2850 H     1 <1>   0.0800 
 25 H        1.3120     2.5860    -1.8970 H     1 <1>   0.0800 
 26 H       -0.1490     1.9820     1.5190 H     1 <1>   0.0800 
 27 H       -1.4990     1.1180     0.8090 H     1 <1>   0.0800 
 28 H       -1.1990     2.7750     0.3810 H     1 <1>   0.0800 
 29 H        3.4960     0.5330     1.0890 H     1 <1>   0.0800 
 30 H        2.2810     1.6840     1.5660 H     1 <1>   0.0800 
 31 H        2.6490    -1.5410    -0.4150 H     1 <1>   0.0800 
 32 H        1.3270    -2.2600     0.4780 H     1 <1>   0.0800 
 33 H        2.7690    -1.7650     1.3160 H     1 <1>   0.0800 
 34 H        2.7130     0.8880    -1.1990 H     1 <1>   0.4500 
 35 H        3.7260     3.0390    -1.7140 H     1 <1>   0.0800 
 36 H        5.0570     1.0100    -1.6190 H     1 <1>   0.0800 
 37 H        5.2870     1.1810     0.0990 H     1 <1>   0.0800 
 38 H        4.0610     3.2240     1.2970 H     1 <1>   0.0800 
 39 H        3.1030     4.2820     0.2990 H     1 <1>   0.0800 
 40 H        6.2720     3.0600    -2.0500 H     1 <1>   0.0800 
 41 H        7.2390     2.0060    -1.0480 H     1 <1>   0.0800 
 42 H        5.3050     5.2480     0.8510 H     1 <1>   0.0800 
 43 H        5.0710     5.0690    -0.8700 H     1 <1>   0.0800 
 44 H        6.5810     3.2120     0.8750 H     1 <1>   0.4500 
 45 H        7.6700     5.3190     0.5020 H     1 <1>   0.0800 
 46 H        7.6720     4.9400    -1.2080 H     1 <1>   0.0800 
 47 H        8.6590     3.5570     2.1430 H     1 <1>   0.1500 
 48 H        9.3730     3.5060    -2.0900 H     1 <1>   0.1500 
 49 H       10.5680     2.0720     2.4630 H     1 <1>   0.1500 
 50 H       11.2780     2.0230    -1.7310 H     1 <1>   0.1500 
 51 H       11.8750     1.2970     0.5370 H     1 <1>   0.1500 
@<TRIPOS>BOND
  1   1   2  1   
  2   1   3  1   
  3   2   4  1   
  4   2   5  1   
  5   2  22  1   
  6   3   6  1   
  7   3   7  1   
  8   3  23  1   
  9   4   8  1   
 10   4  24  1   
 11   4  25  1   
 12   5  26  1   
 13   5  27  1   
 14   5  28  1   
 15   6   8  1   
 16   6  29  1   
 17   6  30  1   
 18   7  31  1   
 19   7  32  1   
 20   7  33  1   
 21   8   9  1   
 22   8  34  1   
 23   9  10  1   
 24   9  11  1   
 25   9  35  1   
 26  10  12  1   
 27  10  36  1   
 28  10  37  1   
 29  11  13  1   
 30  11  38  1   
 31  11  39  1   
 32  12  14  1   
 33  12  40  1   
 34  12  41  1   
 35  13  14  1   
 36  13  42  1   
 37  13  43  1   
 38  14  15  1   
 39  14  44  1   
 40  15  16  1   
 41  15  45  1   
 42  15  46  1   
 43  16  17  ar  
 44  16  18  ar  
 45  17  19  ar  
 46  17  47  1   
 47  18  20  ar  
 48  18  48  1   
 49  19  21  ar  
 50  19  49  1   
 51  20  21  ar  
 52  20  50  1   
 53  21  51  1   
@<TRIPOS>SUBSTRUCTURE
  1 ****  10 GROUP 4 **** **** 0

# MOE 2024.06 (io_trps.svl 2023.06)
