@<TRIPOS>MOLECULE
NONAME
44 45 1 0 0 
SMALL
USER_CHARGES


@<TRIPOS>ATOM
  1 S       -0.6770    -1.6130    -0.4570 S.o2  1 <1>   1.4470 
  2 O        0.4340    -1.5750    -1.3810 O.2   1 <1>  -0.6500 
  3 O       -1.6510    -2.6730    -0.6140 O.2   1 <1>  -0.6500 
  4 N       -0.0530    -1.7480     1.1200 N.am  1 <1>  -0.8490 
  5 C       -1.5160    -0.0040    -0.4430 C.ar  1 <1>  -0.0090 
  6 C        1.3850    -2.1120     1.1820 C.3   1 <1>   0.2570 
  7 C       -0.8750    -2.5550     2.0260 C.3   1 <1>   0.1160 
  8 C       -0.9220     1.1150     0.1290 C.ar  1 <1>  -0.1500 
  9 C       -2.7700     0.1550    -1.0200 C.ar  1 <1>  -0.1500 
 10 C        2.3680    -0.9830     0.8040 C.2   1 <1>   0.5690 
 11 C       -1.5570     2.3450     0.1310 C.ar  1 <1>  -0.1500 
 12 C       -3.4120     1.3820    -1.0220 C.ar  1 <1>  -0.1500 
 13 O        2.3400     0.0450     1.4360 O.2   1 <1>  -0.5700 
 14 N        3.3020    -1.1050    -0.1740 N.am  1 <1>  -0.7300 
 15 C       -2.8080     2.4850    -0.4440 C.ar  1 <1>  -0.1430 
 16 C        3.5020    -2.1870    -1.1800 C.3   1 <1>   0.1400 
 17 C       -3.5040     3.8340    -0.4450 C.3   1 <1>  -0.0970 
 18 C        4.8010    -2.9600    -0.9130 C.3   1 <1>   0.2000 
 19 O        4.9150    -4.0000    -1.8240 O.3   1 <1>  -0.5600 
 20 C        4.8720    -3.6490     0.4440 C.3   1 <1>  -0.1600 
 21 C        5.7670    -4.9880    -1.3360 C.3   1 <1>   0.1200 
 22 C        5.8200    -4.8050     0.1800 C.3   1 <1>  -0.1600 
 23 H        1.5560    -2.9820     0.5760 H     1 <1>   0.0800 
 24 H        1.6280    -2.3800     2.1940 H     1 <1>   0.0800 
 25 H       -1.8910    -2.1960     2.0150 H     1 <1>   0.0800 
 26 H       -0.5020    -2.4810     3.0330 H     1 <1>   0.0800 
 27 H       -0.8690    -3.5880     1.7190 H     1 <1>   0.0800 
 28 H        0.0520     1.0250     0.5810 H     1 <1>   0.1500 
 29 H       -3.2530    -0.6940    -1.4750 H     1 <1>   0.1500 
 30 H       -1.0690     3.1910     0.5820 H     1 <1>   0.1500 
 31 H       -4.3830     1.4740    -1.4780 H     1 <1>   0.1500 
 32 H        3.8630    -0.2640    -0.3260 H     1 <1>   0.3700 
 33 H        3.5500    -1.7430    -2.1590 H     1 <1>   0.0800 
 34 H        2.6730    -2.8710    -1.1730 H     1 <1>   0.0800 
 35 H       -3.2130     4.3920    -1.3160 H     1 <1>   0.0800 
 36 H       -3.2360     4.3940     0.4330 H     1 <1>   0.0800 
 37 H       -4.5720     3.7070    -0.4520 H     1 <1>   0.0800 
 38 H        5.6530    -2.3170    -1.0550 H     1 <1>   0.0800 
 39 H        3.9010    -4.0230     0.7120 H     1 <1>   0.0800 
 40 H        5.2260    -2.9850     1.2120 H     1 <1>   0.0800 
 41 H        6.7370    -4.8520    -1.7840 H     1 <1>   0.0800 
 42 H        5.3640    -5.9470    -1.6130 H     1 <1>   0.0800 
 43 H        5.5180    -5.7000     0.6950 H     1 <1>   0.0800 
 44 H        6.8240    -4.5530     0.4750 H     1 <1>   0.0800 
@<TRIPOS>BOND
  1   1   2  2   
  2   1   3  2   
  3   1   4  am  
  4   1   5  1   
  5   4   6  1   
  6   4   7  1   
  7   5   8  ar  
  8   5   9  ar  
  9   6  10  1   
 10   6  23  1   
 11   6  24  1   
 12   7  25  1   
 13   7  26  1   
 14   7  27  1   
 15   8  11  ar  
 16   8  28  1   
 17   9  12  ar  
 18   9  29  1   
 19  10  13  2   
 20  10  14  am  
 21  11  15  ar  
 22  11  30  1   
 23  12  15  ar  
 24  12  31  1   
 25  14  16  1   
 26  14  32  1   
 27  15  17  1   
 28  16  18  1   
 29  16  33  1   
 30  16  34  1   
 31  17  35  1   
 32  17  36  1   
 33  17  37  1   
 34  18  19  1   
 35  18  20  1   
 36  18  38  1   
 37  19  21  1   
 38  20  22  1   
 39  20  39  1   
 40  20  40  1   
 41  21  22  1   
 42  21  41  1   
 43  21  42  1   
 44  22  43  1   
 45  22  44  1   
@<TRIPOS>SUBSTRUCTURE
  1 ****   2 GROUP 4 **** **** 0

# MOE 2024.06 (io_trps.svl 2023.06)
