@<TRIPOS>MOLECULE
NONAME
53 55 1 0 0 
SMALL
USER_CHARGES


@<TRIPOS>ATOM
  1 F        0.9090     0.2310    -1.4380 F     1 <1>  -0.1900 
  2 C        2.0190    -0.4320    -1.2700 C.ar  1 <1>   0.1900 
  3 C        2.2680    -1.0180    -0.0450 C.ar  1 <1>  -0.1500 
  4 C        2.9070    -0.5270    -2.3240 C.ar  1 <1>  -0.1500 
  5 C        3.4500    -1.7180     0.1260 C.ar  1 <1>  -0.1500 
  6 C        4.0840    -1.2300    -2.1350 C.ar  1 <1>  -0.1500 
  7 C        4.3840    -1.8320    -0.9090 C.ar  1 <1>   0.0860 
  8 C        5.6250    -2.5590    -0.7280 C.2   1 <1>   0.5440 
  9 O        5.8570    -3.5070    -1.4540 O.2   1 <1>  -0.5700 
 10 N        6.5500    -2.2050     0.2370 N.am  1 <1>  -0.6600 
 11 C        7.7490    -3.0450     0.5090 C.3   1 <1>   0.1400 
 12 C        6.5320    -0.9020     0.9600 C.3   1 <1>   0.1400 
 13 C        9.0180    -2.2640     0.1570 C.3   1 <1>  -0.1600 
 14 C        7.7950    -0.1070     0.6190 C.3   1 <1>  -0.1600 
 15 C        9.0770    -0.9160     0.8990 C.3   1 <1>  -0.0190 
 16 C       10.3460    -0.1470     0.5310 C.2   1 <1>   0.5690 
 17 O       10.3510     0.5900    -0.4250 O.2   1 <1>  -0.5700 
 18 N       11.4560    -0.3300     1.2940 N.am  1 <1>  -0.7300 
 19 C       12.7510     0.3520     1.0580 C.3   1 <1>   0.1400 
 20 C       13.6450    -0.5160     0.1740 C.3   1 <1>  -0.0170 
 21 C       14.9760     0.1770    -0.0640 C.ar  1 <1>  -0.1430 
 22 C       16.0860    -0.1400     0.7030 C.ar  1 <1>  -0.1500 
 23 C       15.0850     1.1430    -1.0530 C.ar  1 <1>  -0.1500 
 24 C       17.2910     0.5040     0.4820 C.ar  1 <1>  -0.1500 
 25 C       16.2890     1.7880    -1.2760 C.ar  1 <1>  -0.1500 
 26 C       17.4030     1.4690    -0.5040 C.ar  1 <1>   0.0830 
 27 O       18.6190     2.0530    -0.6540 O.3   1 <1>  -0.3630 
 28 C       18.8360     3.0460    -1.6300 C.3   1 <1>   0.0400 
 29 H        1.5490    -0.9290     0.7500 H     1 <1>   0.1500 
 30 H        2.6780    -0.0630    -3.2660 H     1 <1>   0.1500 
 31 H        3.6630    -2.1900     1.0700 H     1 <1>   0.1500 
 32 H        4.7910    -1.3260    -2.9420 H     1 <1>   0.1500 
 33 H        7.7180    -3.9570    -0.0630 H     1 <1>   0.0800 
 34 H        7.7580    -3.3130     1.5510 H     1 <1>   0.0800 
 35 H        6.4900    -1.0910     2.0190 H     1 <1>   0.0800 
 36 H        5.6700    -0.3190     0.6890 H     1 <1>   0.0800 
 37 H        9.0350    -2.0940    -0.9060 H     1 <1>   0.0800 
 38 H        9.8790    -2.8580     0.4060 H     1 <1>   0.0800 
 39 H        7.8100     0.8030     1.1910 H     1 <1>   0.0800 
 40 H        7.7570     0.1650    -0.4220 H     1 <1>   0.0800 
 41 H        9.1120    -1.1160     1.9550 H     1 <1>   0.0800 
 42 H       11.4360    -0.9890     2.0720 H     1 <1>   0.3700 
 43 H       13.2360     0.5430     2.0000 H     1 <1>   0.0800 
 44 H       12.5780     1.2980     0.5720 H     1 <1>   0.0800 
 45 H       13.1560    -0.6830    -0.7710 H     1 <1>   0.0800 
 46 H       13.8090    -1.4690     0.6430 H     1 <1>   0.0800 
 47 H       16.0210    -0.8870     1.4740 H     1 <1>   0.1500 
 48 H       14.2280     1.3970    -1.6540 H     1 <1>   0.1500 
 49 H       18.1540     0.2610     1.0740 H     1 <1>   0.1500 
 50 H       16.3390     2.5300    -2.0490 H     1 <1>   0.1500 
 51 H       19.8630     3.3580    -1.5660 H     1 <1>   0.0800 
 52 H       18.1870     3.8800    -1.4290 H     1 <1>   0.0800 
 53 H       18.6400     2.6290    -2.6020 H     1 <1>   0.0800 
@<TRIPOS>BOND
  1   1   2  1   
  2   2   3  ar  
  3   2   4  ar  
  4   3   5  ar  
  5   3  29  1   
  6   4   6  ar  
  7   4  30  1   
  8   5   7  ar  
  9   5  31  1   
 10   6   7  ar  
 11   6  32  1   
 12   7   8  1   
 13   8   9  2   
 14   8  10  am  
 15  10  11  1   
 16  10  12  1   
 17  11  13  1   
 18  11  33  1   
 19  11  34  1   
 20  12  14  1   
 21  12  35  1   
 22  12  36  1   
 23  13  15  1   
 24  13  37  1   
 25  13  38  1   
 26  14  15  1   
 27  14  39  1   
 28  14  40  1   
 29  15  16  1   
 30  15  41  1   
 31  16  17  2   
 32  16  18  am  
 33  18  19  1   
 34  18  42  1   
 35  19  20  1   
 36  19  43  1   
 37  19  44  1   
 38  20  21  1   
 39  20  45  1   
 40  20  46  1   
 41  21  22  ar  
 42  21  23  ar  
 43  22  24  ar  
 44  22  47  1   
 45  23  25  ar  
 46  23  48  1   
 47  24  26  ar  
 48  24  49  1   
 49  25  26  ar  
 50  25  50  1   
 51  26  27  1   
 52  27  28  1   
 53  28  51  1   
 54  28  52  1   
 55  28  53  1   
@<TRIPOS>SUBSTRUCTURE
  1 ****  16 GROUP 4 **** **** 0

# MOE 2024.06 (io_trps.svl 2023.06)
