@<TRIPOS>MOLECULE
NONAME
43 44 1 0 0 
SMALL
USER_CHARGES


@<TRIPOS>ATOM
  1 CL      -0.2720     0.5360     0.3190 Cl    1 <1>  -0.1770 
  2 C        0.9920     1.7320     0.1300 C.ar  1 <1>   0.1770 
  3 C        2.3190     1.3370     0.0400 C.ar  1 <1>  -0.1440 
  4 C        0.6250     3.0650     0.0740 C.ar  1 <1>  -0.1500 
  5 C        3.2840     2.3190    -0.1040 C.ar  1 <1>  -0.1500 
  6 C        2.7110    -0.1310     0.0960 C.3   1 <1>  -0.0960 
  7 C        1.5890     4.0530    -0.0750 C.ar  1 <1>  -0.1430 
  8 C        2.9250     3.6590    -0.1520 C.ar  1 <1>   0.0830 
  9 C        1.1760     5.5280    -0.1470 C.3   1 <1>   0.0640 
 10 O        3.9050     4.5760    -0.2800 O.3   1 <1>  -0.3630 
 11 C        0.5700     5.9850     1.1830 C.3   1 <1>  -0.2400 
 12 C        0.1960     5.7720    -1.3010 C.3   1 <1>  -0.2400 
 13 C        4.5050     5.0030     0.9330 C.3   1 <1>   0.1810 
 14 C        5.2050     6.3500     0.7710 C.2   1 <1>   0.5690 
 15 O        4.8400     7.2460     1.4980 O.2   1 <1>  -0.5700 
 16 N        6.2200     6.5380    -0.1380 N.am  1 <1>  -0.6600 
 17 C        6.8710     7.8700    -0.3170 C.3   1 <1>   0.1400 
 18 C        6.7240     5.5070    -1.0960 C.3   1 <1>   0.1400 
 19 C        8.3990     7.7260    -0.3950 C.3   1 <1>   0.1200 
 20 C        8.2620     5.5040    -1.1360 C.3   1 <1>   0.1200 
 21 O        8.7590     6.7900    -1.3730 O.3   1 <1>  -0.5600 
 22 H       -0.4160     3.3160     0.1470 H     1 <1>   0.1500 
 23 H        4.3230     2.0550    -0.1830 H     1 <1>   0.1500 
 24 H        2.3960    -0.5610     1.0300 H     1 <1>   0.0800 
 25 H        3.7760    -0.2510     0.0070 H     1 <1>   0.0800 
 26 H        2.2390    -0.6670    -0.7080 H     1 <1>   0.0800 
 27 H        2.0400     6.1410    -0.3360 H     1 <1>   0.0800 
 28 H       -0.3310     5.4410     1.4030 H     1 <1>   0.0800 
 29 H        0.3390     7.0340     1.1450 H     1 <1>   0.0800 
 30 H        1.2730     5.8220     1.9800 H     1 <1>   0.0800 
 31 H       -0.7310     5.2530    -1.1400 H     1 <1>   0.0800 
 32 H        0.6290     5.4270    -2.2230 H     1 <1>   0.0800 
 33 H       -0.0110     6.8230    -1.3930 H     1 <1>   0.0800 
 34 H        5.2090     4.2550     1.2450 H     1 <1>   0.0800 
 35 H        3.7350     5.0960     1.6780 H     1 <1>   0.0800 
 36 H        6.6200     8.5270     0.4970 H     1 <1>   0.0800 
 37 H        6.5110     8.3190    -1.2260 H     1 <1>   0.0800 
 38 H        6.3460     5.7280    -2.0790 H     1 <1>   0.0800 
 39 H        6.3830     4.5260    -0.8240 H     1 <1>   0.0800 
 40 H        8.7970     7.4080     0.5530 H     1 <1>   0.0800 
 41 H        8.8470     8.6670    -0.6610 H     1 <1>   0.0800 
 42 H        8.6110     4.8670    -1.9300 H     1 <1>   0.0800 
 43 H        8.6650     5.1460    -0.2040 H     1 <1>   0.0800 
@<TRIPOS>BOND
  1   1   2  1   
  2   2   3  ar  
  3   2   4  ar  
  4   3   5  ar  
  5   3   6  1   
  6   4   7  ar  
  7   4  22  1   
  8   5   8  ar  
  9   5  23  1   
 10   6  24  1   
 11   6  25  1   
 12   6  26  1   
 13   7   8  ar  
 14   7   9  1   
 15   8  10  1   
 16   9  11  1   
 17   9  12  1   
 18   9  27  1   
 19  10  13  1   
 20  11  28  1   
 21  11  29  1   
 22  11  30  1   
 23  12  31  1   
 24  12  32  1   
 25  12  33  1   
 26  13  14  1   
 27  13  34  1   
 28  13  35  1   
 29  14  15  2   
 30  14  16  am  
 31  16  17  1   
 32  16  18  1   
 33  17  19  1   
 34  17  36  1   
 35  17  37  1   
 36  18  20  1   
 37  18  38  1   
 38  18  39  1   
 39  19  21  1   
 40  19  40  1   
 41  19  41  1   
 42  20  21  1   
 43  20  42  1   
 44  20  43  1   
@<TRIPOS>SUBSTRUCTURE
  1 ****  10 GROUP 4 **** **** 0

# MOE 2024.06 (io_trps.svl 2023.06)
