@<TRIPOS>MOLECULE
NONAME
35 36 1 0 0 
SMALL
USER_CHARGES


@<TRIPOS>ATOM
  1 BR      -0.0300     0.5490     1.2500 Br    1 <1>  -0.1110 
  2 C        1.6910     1.2410     0.7400 C.ar  1 <1>   0.1110 
  3 C        1.7450     2.3200    -0.1220 C.ar  1 <1>  -0.1500 
  4 C        2.8290     0.6410     1.2490 C.ar  1 <1>  -0.1500 
  5 C        2.9920     2.7990    -0.4730 C.ar  1 <1>   0.1770 
  6 C        4.0730     1.1340     0.8860 C.ar  1 <1>  -0.1500 
  7 CL       3.0810     4.1650    -1.5640 Cl    1 <1>  -0.1770 
  8 C        4.1640     2.2230     0.0170 C.ar  1 <1>   0.0830 
  9 O        5.3480     2.7600    -0.3840 O.3   1 <1>  -0.3630 
 10 C        6.5880     2.2570     0.0440 C.3   1 <1>   0.1200 
 11 C        7.6640     3.1180    -0.6220 C.3   1 <1>   0.3430 
 12 N        9.0440     2.6820    -0.2470 N.4   1 <1>  -0.9060 
 13 C       10.1010     3.5050    -0.8660 C.3   1 <1>   0.4230 
 14 C       11.4390     2.8350    -0.5820 C.3   1 <1>  -0.1600 
 15 C       10.2230     4.8270    -0.1140 C.3   1 <1>  -0.1600 
 16 C       11.8130     3.2320     0.8520 C.3   1 <1>  -0.1600 
 17 C       11.0310     4.5170     1.1520 C.3   1 <1>  -0.1600 
 18 H        0.8490     2.7710    -0.5050 H     1 <1>   0.1500 
 19 H        2.7360    -0.1980     1.9180 H     1 <1>   0.1500 
 20 H        4.9450     0.6560     1.2900 H     1 <1>   0.1500 
 21 H        6.6590     1.2310    -0.2720 H     1 <1>   0.0800 
 22 H        6.6300     2.3400     1.1160 H     1 <1>   0.0800 
 23 H        7.5120     4.1430    -0.3250 H     1 <1>   0.0800 
 24 H        7.5430     3.0540    -1.6910 H     1 <1>   0.0800 
 25 H        9.1980     1.7060    -0.5210 H     1 <1>   0.4500 
 26 H        9.1880     2.7440     0.7680 H     1 <1>   0.4500 
 27 H        9.9290     3.6380    -1.9230 H     1 <1>   0.0800 
 28 H       12.1720     3.2530    -1.2520 H     1 <1>   0.0800 
 29 H       11.4260     1.7690    -0.7290 H     1 <1>   0.0800 
 30 H        9.2800     5.2980     0.1010 H     1 <1>   0.0800 
 31 H       10.7970     5.5050    -0.7240 H     1 <1>   0.0800 
 32 H       12.8760     3.3950     0.9380 H     1 <1>   0.0800 
 33 H       11.5330     2.4580     1.5470 H     1 <1>   0.0800 
 34 H       10.3770     4.3650     1.9950 H     1 <1>   0.0800 
 35 H       11.6980     5.3310     1.3870 H     1 <1>   0.0800 
@<TRIPOS>BOND
  1   1   2  1   
  2   2   3  ar  
  3   2   4  ar  
  4   3   5  ar  
  5   3  18  1   
  6   4   6  ar  
  7   4  19  1   
  8   5   7  1   
  9   5   8  ar  
 10   6   8  ar  
 11   6  20  1   
 12   8   9  1   
 13   9  10  1   
 14  10  11  1   
 15  10  21  1   
 16  10  22  1   
 17  11  12  1   
 18  11  23  1   
 19  11  24  1   
 20  12  13  1   
 21  12  25  1   
 22  12  26  1   
 23  13  14  1   
 24  13  15  1   
 25  13  27  1   
 26  14  16  1   
 27  14  28  1   
 28  14  29  1   
 29  15  17  1   
 30  15  30  1   
 31  15  31  1   
 32  16  17  1   
 33  16  32  1   
 34  16  33  1   
 35  17  34  1   
 36  17  35  1   
@<TRIPOS>SUBSTRUCTURE
  1 ****  10 GROUP 4 **** **** 0

# MOE 2024.06 (io_trps.svl 2023.06)
