@<TRIPOS>MOLECULE
NONAME
48 50 1 0 0 
SMALL
USER_CHARGES


@<TRIPOS>ATOM
  1 F        1.6920    -0.5560     1.7380 F     1 <1>  -0.1900 
  2 C        2.2980    -0.0870     0.6790 C.ar  1 <1>   0.1900 
  3 C        1.9740     1.1770     0.2080 C.ar  1 <1>  -0.1440 
  4 C        3.2450    -0.8900     0.0710 C.ar  1 <1>  -0.1500 
  5 C        2.6350     1.6320    -0.9250 C.ar  1 <1>  -0.1500 
  6 C        0.9250     2.0380     0.8960 C.3   1 <1>   0.2840 
  7 C        3.8950    -0.4160    -1.0560 C.ar  1 <1>  -0.1500 
  8 C        3.5880     0.8420    -1.5500 C.ar  1 <1>  -0.1500 
  9 N        1.4830     3.3830     1.1390 N.am  1 <1>  -0.7300 
 10 C        0.9450     4.5600     0.7300 C.2   1 <1>   0.5440 
 11 O        1.7330     5.4410     0.4620 O.2   1 <1>  -0.5700 
 12 C       -0.4850     4.7640     0.5840 C.ar  1 <1>   0.0860 
 13 C       -0.9980     5.4970    -0.4860 C.ar  1 <1>  -0.1500 
 14 C       -1.4030     4.2440     1.4980 C.ar  1 <1>  -0.1500 
 15 C       -2.3590     5.6830    -0.6460 C.ar  1 <1>  -0.1500 
 16 C       -2.7640     4.4300     1.3390 C.ar  1 <1>  -0.1500 
 17 C       -3.2620     5.1490     0.2620 C.ar  1 <1>   0.0730 
 18 C       -4.6690     5.3420     0.0880 C.1   1 <1>  -0.0730 
 19 C       -5.8340     5.5150    -0.0820 C.1   1 <1>  -0.2000 
 20 C       -7.2880     5.7460    -0.3160 C.3   1 <1>   0.4800 
 21 O       -7.4150     6.2770    -1.5770 O.3   1 <1>  -0.6800 
 22 C       -8.0790     4.4300    -0.2820 C.3   1 <1>  -0.1600 
 23 C       -7.8620     6.7650     0.6790 C.3   1 <1>  -0.1600 
 24 C       -9.5980     4.6320    -0.4410 C.3   1 <1>  -0.1600 
 25 C       -9.3800     6.9750     0.5240 C.3   1 <1>  -0.1600 
 26 C      -10.1340     5.6390     0.5860 C.3   1 <1>  -0.1600 
 27 H        3.4650    -1.8620     0.4710 H     1 <1>   0.1500 
 28 H        2.4130     2.6070    -1.3280 H     1 <1>   0.1500 
 29 H        0.6320     1.6100     1.8390 H     1 <1>   0.0800 
 30 H        0.0530     2.1040     0.2680 H     1 <1>   0.0800 
 31 H        4.6370    -1.0230    -1.5470 H     1 <1>   0.1500 
 32 H        4.0940     1.2090    -2.4270 H     1 <1>   0.1500 
 33 H        2.5020     3.3930     1.2280 H     1 <1>   0.3700 
 34 H       -0.3120     5.9250    -1.1980 H     1 <1>   0.1500 
 35 H       -1.0400     3.6940     2.3490 H     1 <1>   0.1500 
 36 H       -2.7300     6.2510    -1.4820 H     1 <1>   0.1500 
 37 H       -3.4520     4.0170     2.0560 H     1 <1>   0.1500 
 38 H       -8.3620     6.4280    -1.7350 H     1 <1>   0.4000 
 39 H       -7.8950     3.9520     0.6640 H     1 <1>   0.0800 
 40 H       -7.7090     3.7720    -1.0490 H     1 <1>   0.0800 
 41 H       -7.3440     7.7020     0.5690 H     1 <1>   0.0800 
 42 H       -7.6670     6.4080     1.6750 H     1 <1>   0.0800 
 43 H      -10.0980     3.6870    -0.3100 H     1 <1>   0.0800 
 44 H       -9.8180     4.9780    -1.4360 H     1 <1>   0.0800 
 45 H       -9.5870     7.4630    -0.4130 H     1 <1>   0.0800 
 46 H       -9.7320     7.6220     1.3090 H     1 <1>   0.0800 
 47 H      -10.0340     5.2230     1.5740 H     1 <1>   0.0800 
 48 H      -11.1830     5.8090     0.4100 H     1 <1>   0.0800 
@<TRIPOS>BOND
  1   1   2  1   
  2   2   3  ar  
  3   2   4  ar  
  4   3   5  ar  
  5   3   6  1   
  6   4   7  ar  
  7   4  27  1   
  8   5   8  ar  
  9   5  28  1   
 10   6   9  1   
 11   6  29  1   
 12   6  30  1   
 13   7   8  ar  
 14   7  31  1   
 15   8  32  1   
 16   9  10  am  
 17   9  33  1   
 18  10  11  2   
 19  10  12  1   
 20  12  13  ar  
 21  12  14  ar  
 22  13  15  ar  
 23  13  34  1   
 24  14  16  ar  
 25  14  35  1   
 26  15  17  ar  
 27  15  36  1   
 28  16  17  ar  
 29  16  37  1   
 30  17  18  1   
 31  18  19  3   
 32  19  20  1   
 33  20  21  1   
 34  20  22  1   
 35  20  23  1   
 36  21  38  1   
 37  22  24  1   
 38  22  39  1   
 39  22  40  1   
 40  23  25  1   
 41  23  41  1   
 42  23  42  1   
 43  24  26  1   
 44  24  43  1   
 45  24  44  1   
 46  25  26  1   
 47  25  45  1   
 48  25  46  1   
 49  26  47  1   
 50  26  48  1   
@<TRIPOS>SUBSTRUCTURE
  1 ****  16 GROUP 4 **** **** 0

# MOE 2024.06 (io_trps.svl 2023.06)
