@<TRIPOS>MOLECULE
NONAME
32 33 1 0 0 
SMALL
USER_CHARGES


@<TRIPOS>ATOM
  1 CL       0.6520     0.8680    -0.3340 Cl    1 <1>  -0.1770 
  2 C        2.0090    -0.2240    -0.4350 C.ar  1 <1>   0.1770 
  3 C        1.8820    -1.3910    -1.1630 C.ar  1 <1>  -0.1500 
  4 C        3.1840     0.0990     0.2170 C.ar  1 <1>  -0.1500 
  5 C        2.9720    -2.2370    -1.2230 C.ar  1 <1>   0.1770 
  6 C        4.2810    -0.7550     0.1500 C.ar  1 <1>   0.1170 
  7 CL       2.8420    -3.7210    -2.1300 Cl    1 <1>  -0.1770 
  8 C        4.1570    -1.9350    -0.5800 C.ar  1 <1>  -0.1500 
  9 N        5.4560    -0.4040     0.8290 N.am  1 <1>  -0.5470 
 10 C        6.7520    -0.7390     0.5740 C.2   1 <1>   0.6900 
 11 O        7.0720    -1.3600    -0.4190 O.2   1 <1>  -0.5700 
 12 N        7.6920    -0.3350     1.4630 N.am  1 <1>  -0.7300 
 13 C        9.1470    -0.6420     1.3430 C.3   1 <1>   0.1400 
 14 C        9.7960     0.0550     0.1370 C.3   1 <1>   0.2000 
 15 O       11.1770    -0.0630     0.2320 O.3   1 <1>  -0.5600 
 16 C        9.5640     1.5600     0.0540 C.3   1 <1>  -0.1600 
 17 C       11.7850     0.8890    -0.5790 C.3   1 <1>   0.1200 
 18 C       10.8140     2.0650    -0.6510 C.3   1 <1>  -0.1600 
 19 H        0.9650    -1.6330    -1.6660 H     1 <1>   0.1500 
 20 H        3.2400     1.0180     0.7690 H     1 <1>   0.1500 
 21 H        4.9790    -2.6250    -0.6500 H     1 <1>   0.1500 
 22 H        5.3520     0.2950     1.5560 H     1 <1>   0.3700 
 23 H        7.4000     0.0300     2.3660 H     1 <1>   0.3700 
 24 H        9.2740    -1.7060     1.2380 H     1 <1>   0.0800 
 25 H        9.6450    -0.3220     2.2410 H     1 <1>   0.0800 
 26 H        9.4930    -0.4250    -0.7780 H     1 <1>   0.0800 
 27 H        9.5020     1.9750     1.0440 H     1 <1>   0.0800 
 28 H        8.6620     1.7860    -0.4860 H     1 <1>   0.0800 
 29 H       11.9400     0.4510    -1.5500 H     1 <1>   0.0800 
 30 H       12.7300     1.1630    -0.1400 H     1 <1>   0.0800 
 31 H       11.2200     2.9310    -0.1580 H     1 <1>   0.0800 
 32 H       10.6120     2.3080    -1.6790 H     1 <1>   0.0800 
@<TRIPOS>BOND
  1   1   2  1   
  2   2   3  ar  
  3   2   4  ar  
  4   3   5  ar  
  5   3  19  1   
  6   4   6  ar  
  7   4  20  1   
  8   5   7  1   
  9   5   8  ar  
 10   6   8  ar  
 11   6   9  1   
 12   8  21  1   
 13   9  10  am  
 14   9  22  1   
 15  10  11  2   
 16  10  12  am  
 17  12  13  1   
 18  12  23  1   
 19  13  14  1   
 20  13  24  1   
 21  13  25  1   
 22  14  15  1   
 23  14  16  1   
 24  14  26  1   
 25  15  17  1   
 26  16  18  1   
 27  16  27  1   
 28  16  28  1   
 29  17  18  1   
 30  17  29  1   
 31  17  30  1   
 32  18  31  1   
 33  18  32  1   
@<TRIPOS>SUBSTRUCTURE
  1 ****  10 GROUP 4 **** **** 0

# MOE 2024.06 (io_trps.svl 2023.06)
