@<TRIPOS>MOLECULE
NONAME
53 54 1 0 0 
SMALL
USER_CHARGES


@<TRIPOS>ATOM
  1 O       -5.6220     6.2840    -1.5090 O.3   1 <1>  -0.3630 
  2 C       -6.4460     5.3120    -1.0580 C.ar  1 <1>   0.0820 
  3 C       -4.4260     6.4540    -0.7840 C.3   1 <1>   0.1200 
  4 C       -7.4430     5.6200    -0.1330 C.ar  1 <1>  -0.1440 
  5 C       -6.2880     4.0100    -1.5270 C.ar  1 <1>  -0.1440 
  6 C       -3.6370     7.5960    -1.4280 C.3   1 <1>   0.1100 
  7 C       -8.2450     4.5970     0.3490 C.ar  1 <1>  -0.1500 
  8 C       -7.6690     7.0470     0.3640 C.3   1 <1>   0.1220 
  9 C       -7.1070     3.0100    -1.0310 C.ar  1 <1>  -0.1500 
 10 C       -5.2420     3.6600    -2.5770 C.3   1 <1>  -0.0960 
 11 N       -2.3370     7.8190    -0.7560 N.3   1 <1>  -0.8100 
 12 C       -8.0810     3.2940    -0.0900 C.ar  1 <1>  -0.1430 
 13 C       -9.1450     7.4140     0.3730 C.2   1 <1>  -0.2880 
 14 C       -1.4370     8.6260    -1.6140 C.3   1 <1>   0.1100 
 15 C       -2.4900     8.4650     0.5740 C.3   1 <1>   0.1100 
 16 C       -8.9720     2.1900     0.4480 C.3   1 <1>  -0.0970 
 17 C       -9.8400     7.8080     1.4450 C.2   1 <1>  -0.3000 
 18 C       -0.0560     8.8790    -0.9570 C.3   1 <1>   0.3430 
 19 C       -1.1290     8.7590     1.2540 C.3   1 <1>   0.3430 
 20 N        0.0170     8.2740     0.4130 N.4   1 <1>  -0.9590 
 21 C        1.3560     8.4170     1.0360 C.3   1 <1>   0.3430 
 22 C        1.4770     7.4680     2.2210 C.3   1 <1>  -0.2400 
 23 H       -3.8680     5.5360    -0.8300 H     1 <1>   0.0800 
 24 H       -4.6860     6.6780     0.2340 H     1 <1>   0.0800 
 25 H       -4.2250     8.4990    -1.4080 H     1 <1>   0.0800 
 26 H       -3.4620     7.3260    -2.4560 H     1 <1>   0.0800 
 27 H       -9.0120     4.8180     1.0710 H     1 <1>   0.1500 
 28 H       -7.1600     7.7540    -0.2650 H     1 <1>   0.0800 
 29 H       -7.2640     7.1360     1.3560 H     1 <1>   0.0800 
 30 H       -6.9890     1.9990    -1.3810 H     1 <1>   0.1500 
 31 H       -5.1760     4.4420    -3.3120 H     1 <1>   0.0800 
 32 H       -5.5020     2.7480    -3.0820 H     1 <1>   0.0800 
 33 H       -4.2820     3.5340    -2.1110 H     1 <1>   0.0800 
 34 H       -9.5890     7.3190    -0.6040 H     1 <1>   0.1500 
 35 H       -1.8980     9.5740    -1.8380 H     1 <1>   0.0800 
 36 H       -1.2830     8.1150    -2.5500 H     1 <1>   0.0800 
 37 H       -3.0590     7.8240     1.2240 H     1 <1>   0.0800 
 38 H       -3.0370     9.3880     0.4730 H     1 <1>   0.0800 
 39 H       -9.2810     2.4120     1.4540 H     1 <1>   0.0800 
 40 H       -8.4460     1.2520     0.4550 H     1 <1>   0.0800 
 41 H       -9.8450     2.0950    -0.1710 H     1 <1>   0.0800 
 42 H      -10.8860     8.0610     1.4190 H     1 <1>   0.1500 
 43 H       -9.4280     7.9110     2.4340 H     1 <1>   0.1500 
 44 H        0.1200     9.9400    -0.9030 H     1 <1>   0.0800 
 45 H        0.7090     8.4530    -1.5860 H     1 <1>   0.0800 
 46 H       -1.1130     8.2740     2.2160 H     1 <1>   0.0800 
 47 H       -1.0380     9.8190     1.4220 H     1 <1>   0.0800 
 48 H       -0.1950     7.2760     0.2540 H     1 <1>   0.4500 
 49 H        1.5110     9.4350     1.3570 H     1 <1>   0.0800 
 50 H        2.1180     8.1700     0.3130 H     1 <1>   0.0800 
 51 H        0.8050     7.7400     3.0150 H     1 <1>   0.0800 
 52 H        2.4780     7.5190     2.6110 H     1 <1>   0.0800 
 53 H        1.2920     6.4520     1.9190 H     1 <1>   0.0800 
@<TRIPOS>BOND
  1   1   2  1   
  2   1   3  1   
  3   2   4  ar  
  4   2   5  ar  
  5   3   6  1   
  6   3  23  1   
  7   3  24  1   
  8   4   7  ar  
  9   4   8  1   
 10   5   9  ar  
 11   5  10  1   
 12   6  11  1   
 13   6  25  1   
 14   6  26  1   
 15   7  12  ar  
 16   7  27  1   
 17   8  13  1   
 18   8  28  1   
 19   8  29  1   
 20   9  12  ar  
 21   9  30  1   
 22  10  31  1   
 23  10  32  1   
 24  10  33  1   
 25  11  14  1   
 26  11  15  1   
 27  12  16  1   
 28  13  17  2   
 29  13  34  1   
 30  14  18  1   
 31  14  35  1   
 32  14  36  1   
 33  15  19  1   
 34  15  37  1   
 35  15  38  1   
 36  16  39  1   
 37  16  40  1   
 38  16  41  1   
 39  17  42  1   
 40  17  43  1   
 41  18  20  1   
 42  18  44  1   
 43  18  45  1   
 44  19  20  1   
 45  19  46  1   
 46  19  47  1   
 47  20  21  1   
 48  20  48  1   
 49  21  22  1   
 50  21  49  1   
 51  21  50  1   
 52  22  51  1   
 53  22  52  1   
 54  22  53  1   
@<TRIPOS>SUBSTRUCTURE
  1 ****   3 GROUP 4 **** **** 0

# MOE 2024.06 (io_trps.svl 2023.06)
