@<TRIPOS>MOLECULE
NONAME
47 48 1 0 0 
SMALL
USER_CHARGES


@<TRIPOS>ATOM
  1 O        2.0120    -0.9250     1.8070 O.2   1 <1>  -0.5700 
  2 C        2.2380    -1.6730     0.8830 C.2   1 <1>   0.5690 
  3 N        1.2600    -2.4940     0.3710 N.am  1 <1>  -0.6600 
  4 C        3.6630    -1.6550     0.3280 C.3   1 <1>  -0.0190 
  5 C        1.4570    -3.5450    -0.6730 C.3   1 <1>   0.1400 
  6 C       -0.1020    -2.4790     0.9860 C.3   1 <1>   0.1400 
  7 C        4.6190    -1.0190     1.3630 C.3   1 <1>   0.3430 
  8 C        3.7520    -0.9260    -1.0280 C.3   1 <1>  -0.1600 
  9 C        0.6720    -3.2100    -1.9390 C.3   1 <1>  -0.2400 
 10 C       -0.9040    -1.2820     0.4740 C.3   1 <1>  -0.2400 
 11 N        5.7790    -0.3000     0.7360 N.4   1 <1>  -0.9590 
 12 C        5.1950    -0.9330    -1.5730 C.3   1 <1>  -0.1600 
 13 C        6.2810    -0.9770    -0.4900 C.3   1 <1>   0.3430 
 14 C        6.8580    -0.0250     1.7270 C.3   1 <1>   0.5230 
 15 C        7.6980     1.1460     1.2530 C.2   1 <1>  -0.0400 
 16 O        8.4710     1.0000     0.1940 O.3   1 <1>  -0.2800 
 17 C        7.8110     2.3980     1.7500 C.2   1 <1>  -0.1500 
 18 C        9.0920     2.1440    -0.0100 C.2   1 <1>  -0.0400 
 19 C        8.7270     3.0520     0.9180 C.2   1 <1>  -0.1500 
 20 C       10.0580     2.2560    -1.1710 C.3   1 <1>  -0.0600 
 21 H        3.9820    -2.6710     0.2050 H     1 <1>   0.0800 
 22 H        1.1290    -4.4960    -0.2850 H     1 <1>   0.0800 
 23 H        2.4940    -3.6470    -0.9300 H     1 <1>   0.0800 
 24 H       -0.0100    -2.4130     2.0580 H     1 <1>   0.0800 
 25 H       -0.6240    -3.3920     0.7580 H     1 <1>   0.0800 
 26 H        4.9730    -1.7960     2.0200 H     1 <1>   0.0800 
 27 H        4.0780    -0.3090     1.9680 H     1 <1>   0.0800 
 28 H        3.4220     0.0920    -0.8950 H     1 <1>   0.0800 
 29 H        3.0940    -1.3790    -1.7490 H     1 <1>   0.0800 
 30 H       -0.3850    -3.2860    -1.7610 H     1 <1>   0.0800 
 31 H        0.9250    -3.9090    -2.7160 H     1 <1>   0.0800 
 32 H        0.9050    -2.2190    -2.2820 H     1 <1>   0.0800 
 33 H       -0.4190    -0.3630     0.7500 H     1 <1>   0.0800 
 34 H       -1.8830    -1.2900     0.9180 H     1 <1>   0.0800 
 35 H       -1.0150    -1.3190    -0.5930 H     1 <1>   0.0800 
 36 H        5.4460     0.6230     0.4280 H     1 <1>   0.4500 
 37 H        5.3440    -0.0610    -2.1880 H     1 <1>   0.0800 
 38 H        5.3330    -1.7880    -2.2130 H     1 <1>   0.0800 
 39 H        6.5220    -2.0030    -0.2600 H     1 <1>   0.0800 
 40 H        7.1720    -0.4980    -0.8620 H     1 <1>   0.0800 
 41 H        7.4810    -0.8930     1.8600 H     1 <1>   0.0800 
 42 H        6.4200     0.2330     2.6770 H     1 <1>   0.0800 
 43 H        7.3280     2.8490     2.6000 H     1 <1>   0.1500 
 44 H        9.0540     4.0720     1.0260 H     1 <1>   0.1500 
 45 H        9.5440     2.0700    -2.0960 H     1 <1>   0.0800 
 46 H       10.8480     1.5360    -1.0590 H     1 <1>   0.0800 
 47 H       10.4870     3.2410    -1.2020 H     1 <1>   0.0800 
@<TRIPOS>BOND
  1   1   2  2   
  2   2   3  am  
  3   2   4  1   
  4   3   5  1   
  5   3   6  1   
  6   4   7  1   
  7   4   8  1   
  8   4  21  1   
  9   5   9  1   
 10   5  22  1   
 11   5  23  1   
 12   6  10  1   
 13   6  24  1   
 14   6  25  1   
 15   7  11  1   
 16   7  26  1   
 17   7  27  1   
 18   8  12  1   
 19   8  28  1   
 20   8  29  1   
 21   9  30  1   
 22   9  31  1   
 23   9  32  1   
 24  10  33  1   
 25  10  34  1   
 26  10  35  1   
 27  11  13  1   
 28  11  14  1   
 29  11  36  1   
 30  12  13  1   
 31  12  37  1   
 32  12  38  1   
 33  13  39  1   
 34  13  40  1   
 35  14  15  1   
 36  14  41  1   
 37  14  42  1   
 38  15  16  1   
 39  15  17  2   
 40  16  18  1   
 41  17  19  1   
 42  17  43  1   
 43  18  19  2   
 44  18  20  1   
 45  19  44  1   
 46  20  45  1   
 47  20  46  1   
 48  20  47  1   
@<TRIPOS>SUBSTRUCTURE
  1 ****  11 GROUP 4 **** **** 0

# MOE 2024.06 (io_trps.svl 2023.06)
