@<TRIPOS>MOLECULE
NONAME
43 44 1 0 0 
SMALL
USER_CHARGES


@<TRIPOS>ATOM
  1 S        0.1790    -0.1190     1.0170 S.o2  1 <1>   1.3330 
  2 O       -0.2780     0.9380     1.8810 O.2   1 <1>  -0.6500 
  3 O        1.2330    -1.0180     1.4180 O.2   1 <1>  -0.6500 
  4 N       -1.2220    -1.0430     0.6590 N.am  1 <1>  -0.7570 
  5 C        0.5630     0.5840    -0.5710 C.3   1 <1>  -0.1350 
  6 C       -1.3860    -2.3090     0.1050 C.ar  1 <1>   0.1990 
  7 C       -2.6680    -2.8920     0.0450 C.ar  1 <1>   0.0860 
  8 C       -0.2980    -3.0160    -0.4060 C.ar  1 <1>  -0.1500 
  9 C       -3.8500    -2.1970     0.5180 C.2   1 <1>   0.5440 
 10 C       -2.7890    -4.1730    -0.5030 C.ar  1 <1>  -0.1500 
 11 C       -0.4480    -4.2730    -0.9540 C.ar  1 <1>  -0.1500 
 12 O       -3.8100    -1.4600     1.4870 O.2   1 <1>  -0.5700 
 13 N       -5.0440    -2.3470    -0.1330 N.am  1 <1>  -0.7300 
 14 C       -1.7000    -4.8570    -1.0000 C.ar  1 <1>  -0.1500 
 15 C       -6.3240    -1.7190     0.2460 C.3   1 <1>   0.2200 
 16 C       -7.3180    -2.8450     0.5510 C.3   1 <1>  -0.1600 
 17 C       -6.7420    -0.7770    -0.8910 C.3   1 <1>  -0.1600 
 18 C       -8.7450    -2.3810     0.8860 C.3   1 <1>  -0.1600 
 19 C       -7.8800     0.1700    -0.4780 C.3   1 <1>  -0.1600 
 20 C       -9.5040    -1.8780    -0.3500 C.3   1 <1>  -0.1600 
 21 C       -9.2960    -0.3910    -0.6760 C.3   1 <1>  -0.1600 
 22 H       -2.0180    -0.7010     1.2160 H     1 <1>   0.4200 
 23 H       -0.2670     1.1620    -0.9290 H     1 <1>   0.0800 
 24 H        0.7770    -0.1920    -1.2800 H     1 <1>   0.0800 
 25 H        1.4190     1.2240    -0.4910 H     1 <1>   0.0800 
 26 H        0.6880    -2.5940    -0.3750 H     1 <1>   0.1500 
 27 H       -3.7550    -4.6470    -0.5330 H     1 <1>   0.1500 
 28 H        0.4080    -4.8020    -1.3390 H     1 <1>   0.1500 
 29 H       -5.0760    -2.8760    -1.0030 H     1 <1>   0.3700 
 30 H       -1.8170    -5.8430    -1.4180 H     1 <1>   0.1500 
 31 H       -6.1800    -1.1360     1.1420 H     1 <1>   0.0800 
 32 H       -6.9400    -3.3870     1.4010 H     1 <1>   0.0800 
 33 H       -7.3570    -3.5280    -0.2790 H     1 <1>   0.0800 
 34 H       -7.0150    -1.3330    -1.7710 H     1 <1>   0.0800 
 35 H       -5.8910    -0.1650    -1.1340 H     1 <1>   0.0800 
 36 H       -8.7330    -1.6320     1.6590 H     1 <1>   0.0800 
 37 H       -9.2780    -3.2310     1.2770 H     1 <1>   0.0800 
 38 H       -7.8020     1.0740    -1.0580 H     1 <1>   0.0800 
 39 H       -7.7490     0.4550     0.5520 H     1 <1>   0.0800 
 40 H      -10.5580    -2.0330    -0.1930 H     1 <1>   0.0800 
 41 H       -9.2310    -2.4730    -1.2050 H     1 <1>   0.0800 
 42 H       -9.5890    -0.2350    -1.7010 H     1 <1>   0.0800 
 43 H       -9.9680     0.1920    -0.0690 H     1 <1>   0.0800 
@<TRIPOS>BOND
  1   1   2  2   
  2   1   3  2   
  3   1   4  am  
  4   1   5  1   
  5   4   6  1   
  6   4  22  1   
  7   5  23  1   
  8   5  24  1   
  9   5  25  1   
 10   6   7  ar  
 11   6   8  ar  
 12   7   9  1   
 13   7  10  ar  
 14   8  11  ar  
 15   8  26  1   
 16   9  12  2   
 17   9  13  am  
 18  10  14  ar  
 19  10  27  1   
 20  11  14  ar  
 21  11  28  1   
 22  13  15  1   
 23  13  29  1   
 24  14  30  1   
 25  15  16  1   
 26  15  17  1   
 27  15  31  1   
 28  16  18  1   
 29  16  32  1   
 30  16  33  1   
 31  17  19  1   
 32  17  34  1   
 33  17  35  1   
 34  18  20  1   
 35  18  36  1   
 36  18  37  1   
 37  19  21  1   
 38  19  38  1   
 39  19  39  1   
 40  20  21  1   
 41  20  40  1   
 42  20  41  1   
 43  21  42  1   
 44  21  43  1   
@<TRIPOS>SUBSTRUCTURE
  1 ****   9 GROUP 4 **** **** 0

# MOE 2024.06 (io_trps.svl 2023.06)
