@<TRIPOS>MOLECULE
NONAME
36 37 1 0 0 
SMALL
USER_CHARGES


@<TRIPOS>ATOM
  1 S        0.8090     0.6420    -0.0700 S.3   1 <1>  -0.3320 
  2 C       -0.9400     1.0670    -0.1700 C.ar  1 <1>   0.1020 
  3 C        1.4280     1.3210     1.5510 C.3   1 <1>   0.1310 
  4 C       -1.6190     0.6610    -1.3040 C.ar  1 <1>  -0.1500 
  5 C       -1.5910     1.7680     0.8330 C.ar  1 <1>  -0.1500 
  6 C        2.9070     1.0320     1.7680 C.2   1 <1>   0.5690 
  7 C       -2.9640     0.9580    -1.4390 C.ar  1 <1>  -0.1500 
  8 C       -2.9370     2.0610     0.6900 C.ar  1 <1>  -0.1500 
  9 O        3.4200     1.4240     2.7880 O.2   1 <1>  -0.5700 
 10 N        3.6080     0.3510     0.8270 N.am  1 <1>  -0.7300 
 11 C       -3.6280     1.6600    -0.4440 C.ar  1 <1>  -0.1430 
 12 C        5.0340    -0.0040     0.8890 C.3   1 <1>   0.2200 
 13 C       -5.1040     1.9830    -0.5950 C.3   1 <1>  -0.0970 
 14 C        5.7290     0.5480    -0.3480 C.3   1 <1>  -0.1600 
 15 C        5.1690    -1.5120     0.7240 C.3   1 <1>  -0.1600 
 16 C        5.4350    -0.4520    -1.4720 C.3   1 <1>  -0.1600 
 17 C        5.0760    -1.7760    -0.7840 C.3   1 <1>  -0.1600 
 18 H        0.8500     0.8640     2.3320 H     1 <1>   0.0800 
 19 H        1.2630     2.3820     1.5380 H     1 <1>   0.0800 
 20 H       -1.1000     0.1170    -2.0720 H     1 <1>   0.1500 
 21 H       -1.0800     2.0900     1.7180 H     1 <1>   0.1500 
 22 H       -3.4920     0.6390    -2.3210 H     1 <1>   0.1500 
 23 H       -3.4470     2.6040     1.4660 H     1 <1>   0.1500 
 24 H        3.1240     0.0420    -0.0190 H     1 <1>   0.3700 
 25 H        5.4770     0.3530     1.8060 H     1 <1>   0.0800 
 26 H       -5.6950     1.1800    -0.1930 H     1 <1>   0.0800 
 27 H       -5.3560     2.1140    -1.6320 H     1 <1>   0.0800 
 28 H       -5.3480     2.8900    -0.0710 H     1 <1>   0.0800 
 29 H        6.7890     0.5650    -0.1630 H     1 <1>   0.0800 
 30 H        5.4060     1.5480    -0.5840 H     1 <1>   0.0800 
 31 H        4.4280    -2.0510     1.2890 H     1 <1>   0.0800 
 32 H        6.1440    -1.8050     1.0700 H     1 <1>   0.0800 
 33 H        6.2880    -0.5640    -2.1190 H     1 <1>   0.0800 
 34 H        4.5990    -0.1100    -2.0570 H     1 <1>   0.0800 
 35 H        4.0690    -2.0570    -1.0440 H     1 <1>   0.0800 
 36 H        5.7440    -2.5670    -1.0770 H     1 <1>   0.0800 
@<TRIPOS>BOND
  1   1   2  1   
  2   1   3  1   
  3   2   4  ar  
  4   2   5  ar  
  5   3   6  1   
  6   3  18  1   
  7   3  19  1   
  8   4   7  ar  
  9   4  20  1   
 10   5   8  ar  
 11   5  21  1   
 12   6   9  2   
 13   6  10  am  
 14   7  11  ar  
 15   7  22  1   
 16   8  11  ar  
 17   8  23  1   
 18  10  12  1   
 19  10  24  1   
 20  11  13  1   
 21  12  14  1   
 22  12  15  1   
 23  12  25  1   
 24  13  26  1   
 25  13  27  1   
 26  13  28  1   
 27  14  16  1   
 28  14  29  1   
 29  14  30  1   
 30  15  17  1   
 31  15  31  1   
 32  15  32  1   
 33  16  17  1   
 34  16  33  1   
 35  16  34  1   
 36  17  35  1   
 37  17  36  1   
@<TRIPOS>SUBSTRUCTURE
  1 ****   1 GROUP 4 **** **** 0

# MOE 2024.06 (io_trps.svl 2023.06)
