@<TRIPOS>MOLECULE
NONAME
47 49 1 0 0 
SMALL
USER_CHARGES


@<TRIPOS>ATOM
  1 F        0.5270    -0.2200    -0.8050 F     1 <1>  -0.1900 
  2 C        1.6890    -0.7780    -0.6110 C.ar  1 <1>   0.1900 
  3 C        2.1590    -0.9110     0.6820 C.ar  1 <1>  -0.1500 
  4 C        2.4120    -1.2180    -1.7030 C.ar  1 <1>  -0.1500 
  5 C        3.3960    -1.5010     0.8790 C.ar  1 <1>  -0.1500 
  6 C        3.6460    -1.8050    -1.4860 C.ar  1 <1>  -0.1500 
  7 C        4.1660    -1.9520    -0.1980 C.ar  1 <1>   0.0860 
  8 C        5.4650    -2.5620     0.0080 C.2   1 <1>   0.5440 
  9 O        5.6530    -3.6910    -0.4060 O.2   1 <1>  -0.5700 
 10 N        6.4940    -1.9010     0.6520 N.am  1 <1>  -0.6600 
 11 C        7.7680    -2.5930     0.9940 C.3   1 <1>   0.1400 
 12 C        6.5080    -0.4310     0.8900 C.3   1 <1>   0.1400 
 13 C        8.9180    -1.9770     0.1940 C.3   1 <1>  -0.1600 
 14 C        7.6550     0.2040     0.0990 C.3   1 <1>  -0.1600 
 15 C        9.0140    -0.4560     0.4190 C.3   1 <1>  -0.0190 
 16 C       10.1730     0.1450    -0.3800 C.2   1 <1>   0.5690 
 17 O        9.9460     0.7420    -1.4040 O.2   1 <1>  -0.5700 
 18 N       11.4330    -0.0450     0.1220 N.am  1 <1>  -0.5470 
 19 C       12.6940     0.3580    -0.3470 C.ar  1 <1>   0.1170 
 20 C       13.8170    -0.2930     0.1450 C.ar  1 <1>  -0.1500 
 21 C       12.8780     1.3850    -1.2680 C.ar  1 <1>  -0.1500 
 22 C       15.0910     0.0580    -0.2650 C.ar  1 <1>   0.0830 
 23 C       14.1470     1.7450    -1.6860 C.ar  1 <1>  -0.1500 
 24 O       16.1190    -0.6430     0.2770 O.3   1 <1>  -0.3620 
 25 C       15.2570     1.0850    -1.1890 C.ar  1 <1>  -0.1500 
 26 C       17.4560    -0.3780    -0.0850 C.3   1 <1>   0.0400 
 27 H        1.5650    -0.5630     1.5080 H     1 <1>   0.1500 
 28 H        2.0130    -1.1040    -2.6950 H     1 <1>   0.1500 
 29 H        3.7780    -1.6230     1.8780 H     1 <1>   0.1500 
 30 H        4.2260    -2.1640    -2.3200 H     1 <1>   0.1500 
 31 H        7.7020    -3.6470     0.7790 H     1 <1>   0.0800 
 32 H        7.9510    -2.4860     2.0490 H     1 <1>   0.0800 
 33 H        6.6400    -0.2470     1.9430 H     1 <1>   0.0800 
 34 H        5.5820     0.0220     0.5840 H     1 <1>   0.0800 
 35 H        8.7580    -2.1800    -0.8520 H     1 <1>   0.0800 
 36 H        9.8370    -2.4550     0.4800 H     1 <1>   0.0800 
 37 H        7.7040     1.2550     0.3220 H     1 <1>   0.0800 
 38 H        7.4420     0.1060    -0.9520 H     1 <1>   0.0800 
 39 H        9.2190    -0.2810     1.4600 H     1 <1>   0.0800 
 40 H       11.4740    -0.6260     0.9550 H     1 <1>   0.3700 
 41 H       13.7140    -1.0890     0.8560 H     1 <1>   0.1500 
 42 H       12.0310     1.9150    -1.6630 H     1 <1>   0.1500 
 43 H       14.2680     2.5400    -2.4010 H     1 <1>   0.1500 
 44 H       16.2300     1.3830    -1.5300 H     1 <1>   0.1500 
 45 H       18.0900    -1.0530     0.4600 H     1 <1>   0.0800 
 46 H       17.6940     0.6380     0.1760 H     1 <1>   0.0800 
 47 H       17.5700    -0.5420    -1.1420 H     1 <1>   0.0800 
@<TRIPOS>BOND
  1   1   2  1   
  2   2   3  ar  
  3   2   4  ar  
  4   3   5  ar  
  5   3  27  1   
  6   4   6  ar  
  7   4  28  1   
  8   5   7  ar  
  9   5  29  1   
 10   6   7  ar  
 11   6  30  1   
 12   7   8  1   
 13   8   9  2   
 14   8  10  am  
 15  10  11  1   
 16  10  12  1   
 17  11  13  1   
 18  11  31  1   
 19  11  32  1   
 20  12  14  1   
 21  12  33  1   
 22  12  34  1   
 23  13  15  1   
 24  13  35  1   
 25  13  36  1   
 26  14  15  1   
 27  14  37  1   
 28  14  38  1   
 29  15  16  1   
 30  15  39  1   
 31  16  17  2   
 32  16  18  am  
 33  18  19  1   
 34  18  40  1   
 35  19  20  ar  
 36  19  21  ar  
 37  20  22  ar  
 38  20  41  1   
 39  21  23  ar  
 40  21  42  1   
 41  22  24  1   
 42  22  25  ar  
 43  23  25  ar  
 44  23  43  1   
 45  24  26  1   
 46  25  44  1   
 47  26  45  1   
 48  26  46  1   
 49  26  47  1   
@<TRIPOS>SUBSTRUCTURE
  1 ****  15 GROUP 4 **** **** 0

# MOE 2024.06 (io_trps.svl 2023.06)
