@<TRIPOS>MOLECULE
NONAME
42 43 1 0 0 
SMALL
USER_CHARGES


@<TRIPOS>ATOM
  1 N        0.0450     0.1000    -0.2840 N.4   1 <1>  -0.9590 
  2 C        1.3270     0.8500    -0.2290 C.3   1 <1>   0.4230 
  3 C       -0.9480     0.3990     0.8050 C.3   1 <1>   0.3430 
  4 C        0.2130    -1.3810    -0.4620 C.3   1 <1>   0.3430 
  5 C        2.1330     0.4960     1.0380 C.3   1 <1>  -0.1600 
  6 C        1.0510     2.3530    -0.3730 C.3   1 <1>  -0.1600 
  7 C       -2.2990    -0.3070     0.5330 C.3   1 <1>   0.1100 
  8 C       -1.1530    -2.0730    -0.6950 C.3   1 <1>   0.1100 
  9 C        3.4620    -0.1900     0.6920 C.3   1 <1>  -0.1600 
 10 C        2.1580     3.0990    -1.1370 C.3   1 <1>  -0.1600 
 11 N       -2.2760    -1.1060    -0.7160 N.3   1 <1>  -0.8100 
 12 C        4.5960     0.7840     0.3330 C.3   1 <1>  -0.1600 
 13 C        3.5630     3.0030    -0.5200 C.3   1 <1>  -0.1600 
 14 C       -3.5610    -1.7810    -0.9430 C.3   1 <1>   0.0300 
 15 C        4.3330     1.7120    -0.8670 C.3   1 <1>  -0.1600 
 16 H       -0.4630     0.3740    -1.1380 H     1 <1>   0.4500 
 17 H        1.9090     0.5550    -1.0870 H     1 <1>   0.0800 
 18 H       -1.1170     1.4610     0.8680 H     1 <1>   0.0800 
 19 H       -0.5650     0.0720     1.7570 H     1 <1>   0.0800 
 20 H        0.6840    -1.8080     0.4070 H     1 <1>   0.0800 
 21 H        0.8500    -1.5760    -1.3090 H     1 <1>   0.0800 
 22 H        1.5750    -0.1670     1.6730 H     1 <1>   0.0800 
 23 H        2.3430     1.3740     1.6230 H     1 <1>   0.0800 
 24 H        0.9170     2.8060     0.5930 H     1 <1>   0.0800 
 25 H        0.1430     2.5020    -0.9300 H     1 <1>   0.0800 
 26 H       -3.0720     0.4400     0.4610 H     1 <1>   0.0800 
 27 H       -2.5410    -0.9400     1.3700 H     1 <1>   0.0800 
 28 H       -1.3140    -2.8040     0.0800 H     1 <1>   0.0800 
 29 H       -1.1200    -2.6000    -1.6330 H     1 <1>   0.0800 
 30 H        3.3240    -0.8960    -0.1090 H     1 <1>   0.0800 
 31 H        3.7860    -0.7520     1.5520 H     1 <1>   0.0800 
 32 H        1.8830     4.1410    -1.1650 H     1 <1>   0.0800 
 33 H        2.1910     2.7640    -2.1600 H     1 <1>   0.0800 
 34 H        5.4640     0.1890     0.1020 H     1 <1>   0.0800 
 35 H        4.8560     1.3740     1.1960 H     1 <1>   0.0800 
 36 H        3.5200     3.1650     0.5440 H     1 <1>   0.0800 
 37 H        4.1340     3.8260    -0.9200 H     1 <1>   0.0800 
 38 H       -4.3540    -1.0550    -0.9960 H     1 <1>   0.0800 
 39 H       -3.7750    -2.4740    -0.1460 H     1 <1>   0.0800 
 40 H       -3.5350    -2.3180    -1.8760 H     1 <1>   0.0800 
 41 H        3.8700     1.1710    -1.6740 H     1 <1>   0.0800 
 42 H        5.2990     2.0170    -1.2340 H     1 <1>   0.0800 
@<TRIPOS>BOND
  1   1   2  1   
  2   1   3  1   
  3   1   4  1   
  4   1  16  1   
  5   2   5  1   
  6   2   6  1   
  7   2  17  1   
  8   3   7  1   
  9   3  18  1   
 10   3  19  1   
 11   4   8  1   
 12   4  20  1   
 13   4  21  1   
 14   5   9  1   
 15   5  22  1   
 16   5  23  1   
 17   6  10  1   
 18   6  24  1   
 19   6  25  1   
 20   7  11  1   
 21   7  26  1   
 22   7  27  1   
 23   8  11  1   
 24   8  28  1   
 25   8  29  1   
 26   9  12  1   
 27   9  30  1   
 28   9  31  1   
 29  10  13  1   
 30  10  32  1   
 31  10  33  1   
 32  11  14  1   
 33  12  15  1   
 34  12  34  1   
 35  12  35  1   
 36  13  15  1   
 37  13  36  1   
 38  13  37  1   
 39  14  38  1   
 40  14  39  1   
 41  14  40  1   
 42  15  41  1   
 43  15  42  1   
@<TRIPOS>SUBSTRUCTURE
  1 ****   2 GROUP 4 **** **** 0

# MOE 2024.06 (io_trps.svl 2023.06)
