@<TRIPOS>MOLECULE
NONAME
54 56 1 0 0 
SMALL
USER_CHARGES


@<TRIPOS>ATOM
  1 CL       7.0670     0.5400    -3.1180 Cl    1 <1>  -0.1770 
  2 C        6.1100     0.5230    -1.6550 C.ar  1 <1>   0.1770 
  3 C        5.9590    -0.6520    -0.9300 C.ar  1 <1>   0.0820 
  4 C        5.5570     1.7110    -1.2200 C.ar  1 <1>  -0.1500 
  5 O        6.5840    -1.7770    -1.3530 O.3   1 <1>  -0.3630 
  6 C        5.2030    -0.6210     0.2350 C.ar  1 <1>  -0.1500 
  7 C        4.8550     1.7650    -0.0220 C.ar  1 <1>  -0.0090 
  8 C        5.9010    -3.0120    -1.2680 C.3   1 <1>   0.0400 
  9 C        4.6630     0.5760     0.6770 C.ar  1 <1>  -0.1500 
 10 S        4.3140     3.3620     0.6510 S.o2  1 <1>   1.4470 
 11 O        4.0600     3.2270     2.0680 O.2   1 <1>  -0.6500 
 12 O        3.3340     3.9620    -0.2250 O.2   1 <1>  -0.6500 
 13 N        5.7450     4.2600     0.5020 N.am  1 <1>  -0.8490 
 14 C        6.8510     3.6950     1.2810 C.3   1 <1>   0.1960 
 15 C        5.5470     5.6670     0.8750 C.3   1 <1>   0.1960 
 16 C        8.1500     4.3640     0.8410 C.3   1 <1>  -0.0190 
 17 C        6.8240     6.4830     0.6000 C.3   1 <1>  -0.1600 
 18 C        9.3190     3.5750     1.4240 C.2   1 <1>   0.5690 
 19 C        8.0830     5.8530     1.2280 C.3   1 <1>  -0.1600 
 20 O        9.7160     3.8820     2.5210 O.2   1 <1>  -0.5700 
 21 N        9.8750     2.5070     0.7480 N.am  1 <1>  -0.6600 
 22 C       11.0860     1.8140     1.2990 C.3   1 <1>   0.1400 
 23 C        9.3850     1.9210    -0.5470 C.3   1 <1>   0.1400 
 24 C       10.8620     0.2940     1.4020 C.3   1 <1>   0.3430 
 25 C        9.2080     0.3900    -0.4490 C.3   1 <1>   0.3430 
 26 N       10.4290    -0.3030     0.0880 N.4   1 <1>  -0.9590 
 27 C       10.1740    -1.7710     0.2100 C.3   1 <1>   0.2630 
 28 H        5.6910     2.6080    -1.8020 H     1 <1>   0.1500 
 29 H        5.0420    -1.5140     0.8140 H     1 <1>   0.1500 
 30 H        6.4330    -3.7330    -1.8630 H     1 <1>   0.0800 
 31 H        4.9040    -2.8900    -1.6560 H     1 <1>   0.0800 
 32 H        5.8730    -3.3350    -0.2430 H     1 <1>   0.0800 
 33 H        4.0960     0.5940     1.5960 H     1 <1>   0.1500 
 34 H        6.9330     2.6370     1.1100 H     1 <1>   0.0800 
 35 H        6.6860     3.8450     2.3370 H     1 <1>   0.0800 
 36 H        5.2860     5.7330     1.9190 H     1 <1>   0.0800 
 37 H        4.7340     6.0830     0.3020 H     1 <1>   0.0800 
 38 H        8.2200     4.3300    -0.2290 H     1 <1>   0.0800 
 39 H        6.6930     7.4810     0.9790 H     1 <1>   0.0800 
 40 H        6.9530     6.5580    -0.4650 H     1 <1>   0.0800 
 41 H        8.9650     6.3660     0.8850 H     1 <1>   0.0800 
 42 H        8.0370     5.9490     2.3000 H     1 <1>   0.0800 
 43 H       11.3310     2.1910     2.2780 H     1 <1>   0.0800 
 44 H       11.9290     2.0150     0.6620 H     1 <1>   0.0800 
 45 H       10.0910     2.1510    -1.3270 H     1 <1>   0.0800 
 46 H        8.4400     2.3420    -0.8340 H     1 <1>   0.0800 
 47 H       10.1080     0.1120     2.1510 H     1 <1>   0.0800 
 48 H       11.7750    -0.1740     1.7340 H     1 <1>   0.0800 
 49 H        8.9690    -0.0010    -1.4250 H     1 <1>   0.0800 
 50 H        8.3680     0.1860     0.1950 H     1 <1>   0.0800 
 51 H       11.1910    -0.1580    -0.5900 H     1 <1>   0.4500 
 52 H        9.3800    -1.9560     0.9160 H     1 <1>   0.0800 
 53 H       11.0630    -2.2800     0.5480 H     1 <1>   0.0800 
 54 H        9.8850    -2.1810    -0.7440 H     1 <1>   0.0800 
@<TRIPOS>BOND
  1   1   2  1   
  2   2   3  ar  
  3   2   4  ar  
  4   3   5  1   
  5   3   6  ar  
  6   4   7  ar  
  7   4  28  1   
  8   5   8  1   
  9   6   9  ar  
 10   6  29  1   
 11   7   9  ar  
 12   7  10  1   
 13   8  30  1   
 14   8  31  1   
 15   8  32  1   
 16   9  33  1   
 17  10  11  2   
 18  10  12  2   
 19  10  13  am  
 20  13  14  1   
 21  13  15  1   
 22  14  16  1   
 23  14  34  1   
 24  14  35  1   
 25  15  17  1   
 26  15  36  1   
 27  15  37  1   
 28  16  18  1   
 29  16  19  1   
 30  16  38  1   
 31  17  19  1   
 32  17  39  1   
 33  17  40  1   
 34  18  20  2   
 35  18  21  am  
 36  19  41  1   
 37  19  42  1   
 38  21  22  1   
 39  21  23  1   
 40  22  24  1   
 41  22  43  1   
 42  22  44  1   
 43  23  25  1   
 44  23  45  1   
 45  23  46  1   
 46  24  26  1   
 47  24  47  1   
 48  24  48  1   
 49  25  26  1   
 50  25  49  1   
 51  25  50  1   
 52  26  27  1   
 53  26  51  1   
 54  27  52  1   
 55  27  53  1   
 56  27  54  1   
@<TRIPOS>SUBSTRUCTURE
  1 ****  14 GROUP 4 **** **** 0

# MOE 2024.06 (io_trps.svl 2023.06)
