@<TRIPOS>MOLECULE
NONAME
48 50 1 0 0 
SMALL
USER_CHARGES


@<TRIPOS>ATOM
  1 S        0.5390    -0.0020    -0.0440 S.o2  1 <1>   1.4470 
  2 O        0.5870     0.4640    -1.4140 O.2   1 <1>  -0.6500 
  3 O        0.6620     0.9540     1.0350 O.2   1 <1>  -0.6500 
  4 N        1.8120    -1.1070     0.1360 N.am  1 <1>  -0.8490 
  5 C       -0.9350    -1.0260     0.2250 C.ar  1 <1>  -0.0090 
  6 C        1.8760    -2.0700    -0.9800 C.3   1 <1>   0.1960 
  7 C        3.1030    -0.4110     0.2700 C.3   1 <1>   0.1960 
  8 C       -1.9200    -1.1460    -0.7490 C.ar  1 <1>  -0.1500 
  9 C       -1.1080    -1.7250     1.4140 C.ar  1 <1>  -0.1500 
 10 C        2.9840    -3.1140    -0.7670 C.3   1 <1>   0.1400 
 11 C        4.2690    -1.3880     0.5010 C.3   1 <1>   0.1400 
 12 C       -3.0370    -1.9380    -0.5470 C.ar  1 <1>  -0.1500 
 13 C       -2.2220    -2.5190     1.6260 C.ar  1 <1>  -0.1500 
 14 N        4.3050    -2.4510    -0.5500 N.am  1 <1>  -0.6600 
 15 C       -3.1880    -2.6260     0.6430 C.ar  1 <1>  -0.1500 
 16 C        5.4330    -2.7930    -1.2680 C.2   1 <1>   0.5440 
 17 O        5.3300    -3.6190    -2.1560 O.2   1 <1>  -0.5700 
 18 C        6.7260    -2.1920    -1.0180 C.ar  1 <1>   0.0860 
 19 C        7.4060    -2.3170     0.2030 C.ar  1 <1>   0.0830 
 20 C        7.3320    -1.4390    -2.0230 C.ar  1 <1>  -0.1500 
 21 O        6.8950    -3.0570     1.2110 O.3   1 <1>  -0.3630 
 22 C        8.6190    -1.6680     0.4180 C.ar  1 <1>  -0.1430 
 23 C        8.5420    -0.8070    -1.8200 C.ar  1 <1>  -0.1500 
 24 C        6.8760    -4.4600     1.0500 C.3   1 <1>   0.0400 
 25 C        9.1820    -0.9160    -0.5980 C.ar  1 <1>  -0.1500 
 26 C        9.3350    -1.7830     1.7570 C.3   1 <1>  -0.0970 
 27 H        2.0610    -1.5540    -1.9080 H     1 <1>   0.0800 
 28 H        0.9350    -2.5850    -1.0700 H     1 <1>   0.0800 
 29 H        3.0620     0.2680     1.1050 H     1 <1>   0.0800 
 30 H        3.2990     0.1700    -0.6170 H     1 <1>   0.0800 
 31 H       -1.8140    -0.6110    -1.6790 H     1 <1>   0.1500 
 32 H       -0.3580    -1.6430     2.1830 H     1 <1>   0.1500 
 33 H        3.0210    -3.7650    -1.6230 H     1 <1>   0.0800 
 34 H        2.7460    -3.7140     0.0940 H     1 <1>   0.0800 
 35 H        4.1550    -1.8530     1.4650 H     1 <1>   0.0800 
 36 H        5.1870    -0.8290     0.5130 H     1 <1>   0.0800 
 37 H       -3.7890    -2.0160    -1.3130 H     1 <1>   0.1500 
 38 H       -2.3370    -3.0510     2.5550 H     1 <1>   0.1500 
 39 H       -4.0560    -3.2420     0.8040 H     1 <1>   0.1500 
 40 H        6.8360    -1.3540    -2.9750 H     1 <1>   0.1500 
 41 H        8.9900    -0.2290    -2.6100 H     1 <1>   0.1500 
 42 H        6.1380    -4.7280     0.3150 H     1 <1>   0.0800 
 43 H        6.6230    -4.9030     1.9960 H     1 <1>   0.0800 
 44 H        7.8520    -4.7880     0.7380 H     1 <1>   0.0800 
 45 H       10.1220    -0.4130    -0.4490 H     1 <1>   0.1500 
 46 H        9.6150    -2.8050     1.9340 H     1 <1>   0.0800 
 47 H        8.6830    -1.4620     2.5490 H     1 <1>   0.0800 
 48 H       10.2220    -1.1750     1.7780 H     1 <1>   0.0800 
@<TRIPOS>BOND
  1   1   2  2   
  2   1   3  2   
  3   1   4  am  
  4   1   5  1   
  5   4   6  1   
  6   4   7  1   
  7   5   8  ar  
  8   5   9  ar  
  9   6  10  1   
 10   6  27  1   
 11   6  28  1   
 12   7  11  1   
 13   7  29  1   
 14   7  30  1   
 15   8  12  ar  
 16   8  31  1   
 17   9  13  ar  
 18   9  32  1   
 19  10  14  1   
 20  10  33  1   
 21  10  34  1   
 22  11  14  1   
 23  11  35  1   
 24  11  36  1   
 25  12  15  ar  
 26  12  37  1   
 27  13  15  ar  
 28  13  38  1   
 29  14  16  am  
 30  15  39  1   
 31  16  17  2   
 32  16  18  1   
 33  18  19  ar  
 34  18  20  ar  
 35  19  21  1   
 36  19  22  ar  
 37  20  23  ar  
 38  20  40  1   
 39  21  24  1   
 40  22  25  ar  
 41  22  26  1   
 42  23  25  ar  
 43  23  41  1   
 44  24  42  1   
 45  24  43  1   
 46  24  44  1   
 47  25  45  1   
 48  26  46  1   
 49  26  47  1   
 50  26  48  1   
@<TRIPOS>SUBSTRUCTURE
  1 ****  11 GROUP 4 **** **** 0

# MOE 2024.06 (io_trps.svl 2023.06)
