@<TRIPOS>MOLECULE
NONAME
42 43 1 0 0 
SMALL
USER_CHARGES


@<TRIPOS>ATOM
  1 O       -0.3500     0.1800    -0.0070 O.2   1 <1>  -0.5700 
  2 C       -1.3530     0.7970     0.2470 C.2   1 <1>   0.5690 
  3 N       -2.4440     0.0900     0.6430 N.am  1 <1>  -0.7300 
  4 C       -1.3110     2.3250     0.0980 C.3   1 <1>  -0.0190 
  5 C       -3.8130     0.5230     1.0210 C.3   1 <1>   0.1400 
  6 C       -1.4120     3.0660     1.4490 C.3   1 <1>  -0.1600 
  7 C       -2.3130     2.8710    -0.9410 C.3   1 <1>  -0.1600 
  8 C       -4.8180     0.1290    -0.0660 C.3   1 <1>   0.1200 
  9 C       -1.3250     4.5890     1.2700 C.3   1 <1>  -0.1600 
 10 C       -2.2070     4.3940    -1.0920 C.3   1 <1>  -0.1600 
 11 O       -6.0580     0.7590     0.1930 O.3   1 <1>  -0.3630 
 12 C       -2.3680     5.0920     0.2640 C.3   1 <1>  -0.1600 
 13 C       -6.1500     2.0800    -0.0760 C.ar  1 <1>   0.0820 
 14 C       -5.9950     2.5620    -1.3680 C.ar  1 <1>  -0.1500 
 15 C       -6.3920     2.9580     0.9670 C.ar  1 <1>  -0.1500 
 16 C       -6.0460     3.9240    -1.6050 C.ar  1 <1>  -0.1500 
 17 C       -6.4430     4.3200     0.7250 C.ar  1 <1>  -0.1500 
 18 C       -6.2640     4.8090    -0.5600 C.ar  1 <1>  -0.1440 
 19 C       -6.3070     6.3030    -0.8240 C.3   1 <1>  -0.0970 
 20 H       -2.2770    -0.9180     0.6940 H     1 <1>   0.3700 
 21 H       -0.3320     2.5500    -0.2900 H     1 <1>   0.0800 
 22 H       -3.8380     1.5850     1.1620 H     1 <1>   0.0800 
 23 H       -4.0870     0.0540     1.9500 H     1 <1>   0.0800 
 24 H       -0.6130     2.7380     2.0920 H     1 <1>   0.0800 
 25 H       -2.3370     2.8320     1.9410 H     1 <1>   0.0800 
 26 H       -3.3170     2.6370    -0.6490 H     1 <1>   0.0800 
 27 H       -2.1310     2.4030    -1.8930 H     1 <1>   0.0800 
 28 H       -4.9840    -0.9330    -0.0560 H     1 <1>   0.0800 
 29 H       -4.4690     0.4280    -1.0380 H     1 <1>   0.0800 
 30 H       -0.3400     4.8510     0.9210 H     1 <1>   0.0800 
 31 H       -1.4770     5.0720     2.2190 H     1 <1>   0.0800 
 32 H       -2.9700     4.7410    -1.7670 H     1 <1>   0.0800 
 33 H       -1.2500     4.6470    -1.5140 H     1 <1>   0.0800 
 34 H       -2.2620     6.1550     0.1360 H     1 <1>   0.0800 
 35 H       -3.3580     4.9030     0.6470 H     1 <1>   0.0800 
 36 H       -5.8360     1.8800    -2.1820 H     1 <1>   0.1500 
 37 H       -6.5330     2.5740     1.9600 H     1 <1>   0.1500 
 38 H       -5.9160     4.2940    -2.6070 H     1 <1>   0.1500 
 39 H       -6.6210     4.9970     1.5420 H     1 <1>   0.1500 
 40 H       -5.3120     6.7070    -0.7860 H     1 <1>   0.0800 
 41 H       -6.9120     6.8000    -0.0870 H     1 <1>   0.0800 
 42 H       -6.7260     6.5010    -1.7940 H     1 <1>   0.0800 
@<TRIPOS>BOND
  1   1   2  2   
  2   2   3  am  
  3   2   4  1   
  4   3   5  1   
  5   3  20  1   
  6   4   6  1   
  7   4   7  1   
  8   4  21  1   
  9   5   8  1   
 10   5  22  1   
 11   5  23  1   
 12   6   9  1   
 13   6  24  1   
 14   6  25  1   
 15   7  10  1   
 16   7  26  1   
 17   7  27  1   
 18   8  11  1   
 19   8  28  1   
 20   8  29  1   
 21   9  12  1   
 22   9  30  1   
 23   9  31  1   
 24  10  12  1   
 25  10  32  1   
 26  10  33  1   
 27  11  13  1   
 28  12  34  1   
 29  12  35  1   
 30  13  14  ar  
 31  13  15  ar  
 32  14  16  ar  
 33  14  36  1   
 34  15  17  ar  
 35  15  37  1   
 36  16  18  ar  
 37  16  38  1   
 38  17  18  ar  
 39  17  39  1   
 40  18  19  1   
 41  19  40  1   
 42  19  41  1   
 43  19  42  1   
@<TRIPOS>SUBSTRUCTURE
  1 ****   7 GROUP 4 **** **** 0

# MOE 2024.06 (io_trps.svl 2023.06)
