@<TRIPOS>MOLECULE
NONAME
39 39 1 0 0 
SMALL
USER_CHARGES


@<TRIPOS>ATOM
  1 F       -0.1530    -0.2630     0.7160 F     1 <1>  -0.3400 
  2 C       -0.7700     0.6380     1.4670 C.3   1 <1>   1.1640 
  3 F       -1.6890    -0.0220     2.1650 F     1 <1>  -0.3400 
  4 F        0.1200     1.0820     2.3450 F     1 <1>  -0.3400 
  5 C       -1.4040     1.7550     0.6190 C.ar  1 <1>  -0.1440 
  6 C       -2.6340     1.5530     0.0020 C.ar  1 <1>  -0.1500 
  7 C       -0.7690     2.9800     0.4460 C.ar  1 <1>  -0.1500 
  8 C       -3.2320     2.5510    -0.7550 C.ar  1 <1>  -0.1440 
  9 C       -1.3510     3.9740    -0.3200 C.ar  1 <1>  -0.1500 
 10 C       -2.5790     3.7630    -0.9190 C.ar  1 <1>  -0.1500 
 11 C       -4.5900     2.3170    -1.3830 C.3   1 <1>   0.4870 
 12 N       -5.6000     2.3710    -0.2800 N.4   1 <1>  -0.9590 
 13 C       -6.8630     1.6330    -0.6500 C.3   1 <1>   0.3430 
 14 C       -5.8220     3.8030     0.1240 C.3   1 <1>   0.2630 
 15 C       -7.8390     1.4070     0.5420 C.3   1 <1>   0.3430 
 16 N       -9.0850     0.6230     0.2000 N.4   1 <1>  -0.9590 
 17 C      -10.0320     0.6240     1.3670 C.3   1 <1>   0.2630 
 18 C       -8.8150    -0.8030    -0.1960 C.3   1 <1>   0.2630 
 19 H       -3.1180     0.5960     0.1160 H     1 <1>   0.1500 
 20 H        0.1900     3.1710     0.9030 H     1 <1>   0.1500 
 21 H       -0.8410     4.9150    -0.4490 H     1 <1>   0.1500 
 22 H       -3.0050     4.5540    -1.5140 H     1 <1>   0.1500 
 23 H       -4.5920     1.3470    -1.8540 H     1 <1>   0.0800 
 24 H       -4.7950     3.0650    -2.1320 H     1 <1>   0.0800 
 25 H       -5.1180     1.9070     0.5070 H     1 <1>   0.4500 
 26 H       -6.5920     0.6700    -1.0500 H     1 <1>   0.0800 
 27 H       -7.3750     2.1830    -1.4230 H     1 <1>   0.0800 
 28 H       -6.2580     4.3640    -0.6870 H     1 <1>   0.0800 
 29 H       -4.8830     4.2650     0.3890 H     1 <1>   0.0800 
 30 H       -6.4750     3.8650     0.9790 H     1 <1>   0.0800 
 31 H       -8.1360     2.3710     0.9230 H     1 <1>   0.0800 
 32 H       -7.3120     0.8890     1.3270 H     1 <1>   0.0800 
 33 H       -9.5920     1.0800    -0.5790 H     1 <1>   0.4500 
 34 H       -9.5860     0.1360     2.2190 H     1 <1>   0.0800 
 35 H      -10.9410     0.0990     1.1130 H     1 <1>   0.0800 
 36 H      -10.2920     1.6330     1.6450 H     1 <1>   0.0800 
 37 H       -8.3130    -1.3280     0.6010 H     1 <1>   0.0800 
 38 H       -8.2030    -0.8470    -1.0820 H     1 <1>   0.0800 
 39 H       -9.7430    -1.3130    -0.4050 H     1 <1>   0.0800 
@<TRIPOS>BOND
  1   1   2  1   
  2   2   3  1   
  3   2   4  1   
  4   2   5  1   
  5   5   6  ar  
  6   5   7  ar  
  7   6   8  ar  
  8   6  19  1   
  9   7   9  ar  
 10   7  20  1   
 11   8  10  ar  
 12   8  11  1   
 13   9  10  ar  
 14   9  21  1   
 15  10  22  1   
 16  11  12  1   
 17  11  23  1   
 18  11  24  1   
 19  12  13  1   
 20  12  14  1   
 21  12  25  1   
 22  13  15  1   
 23  13  26  1   
 24  13  27  1   
 25  14  28  1   
 26  14  29  1   
 27  14  30  1   
 28  15  16  1   
 29  15  31  1   
 30  15  32  1   
 31  16  17  1   
 32  16  18  1   
 33  16  33  1   
 34  17  34  1   
 35  17  35  1   
 36  17  36  1   
 37  18  37  1   
 38  18  38  1   
 39  18  39  1   
@<TRIPOS>SUBSTRUCTURE
  1 ****   6 GROUP 4 **** **** 0

# MOE 2024.06 (io_trps.svl 2023.06)
