@<TRIPOS>MOLECULE
NONAME
41 43 1 0 0 
SMALL
USER_CHARGES


@<TRIPOS>ATOM
  1 S       -0.2700     0.1050     0.6730 S.o2  1 <1>   1.4470 
  2 O       -0.4050    -0.0790     2.1030 O.2   1 <1>  -0.6500 
  3 O        0.9400    -0.3350     0.0140 O.2   1 <1>  -0.6500 
  4 N       -1.5550    -0.7360    -0.0470 N.am  1 <1>  -0.8490 
  5 C       -0.6020     1.8310     0.2200 C.ar  1 <1>  -0.0090 
  6 C       -2.8440    -0.4220     0.5900 C.3   1 <1>   0.1960 
  7 C       -1.3110    -2.1810    -0.0280 C.3   1 <1>   0.1960 
  8 C       -0.9700     2.7730     1.1750 C.ar  1 <1>  -0.1500 
  9 C       -0.5160     2.2470    -1.1040 C.ar  1 <1>  -0.1500 
 10 C       -3.9940    -1.0600    -0.2010 C.3   1 <1>  -0.0190 
 11 C       -2.4060    -2.9160    -0.8120 C.3   1 <1>  -0.1600 
 12 C       -1.2430     4.0830     0.8220 C.ar  1 <1>  -0.1500 
 13 C       -0.7870     3.5550    -1.4650 C.ar  1 <1>  -0.1500 
 14 C       -5.3310    -0.6910     0.4230 C.2   1 <1>   0.5690 
 15 C       -3.8070    -2.5850    -0.2790 C.3   1 <1>  -0.1600 
 16 C       -1.1510     4.4760    -0.5000 C.ar  1 <1>  -0.1500 
 17 O       -5.4390    -0.6850     1.6260 O.2   1 <1>  -0.5700 
 18 N       -6.3640    -0.3790    -0.4040 N.am  1 <1>  -0.5790 
 19 C       -7.7130     0.0080     0.0290 C.3   1 <1>   0.0490 
 20 C       -8.8680    -0.4050    -0.8220 C.3   1 <1>  -0.2000 
 21 C       -8.4400     1.0320    -0.7770 C.3   1 <1>  -0.2000 
 22 H       -2.9920     0.6440     0.6150 H     1 <1>   0.0800 
 23 H       -2.8510    -0.7830     1.6070 H     1 <1>   0.0800 
 24 H       -1.2830    -2.5340     0.9910 H     1 <1>   0.0800 
 25 H       -0.3580    -2.3970    -0.4820 H     1 <1>   0.0800 
 26 H       -1.0430     2.4780     2.2090 H     1 <1>   0.1500 
 27 H       -0.2320     1.5330    -1.8590 H     1 <1>   0.1500 
 28 H       -3.9630    -0.6530    -1.1950 H     1 <1>   0.0800 
 29 H       -2.2360    -3.9760    -0.7480 H     1 <1>   0.0800 
 30 H       -2.3320    -2.6350    -1.8480 H     1 <1>   0.0800 
 31 H       -1.5250     4.7970     1.5780 H     1 <1>   0.1500 
 32 H       -0.7120     3.8560    -2.4960 H     1 <1>   0.1500 
 33 H       -4.5560    -3.0200    -0.9170 H     1 <1>   0.0800 
 34 H       -3.9220    -3.0070     0.7060 H     1 <1>   0.0800 
 35 H       -1.3620     5.4940    -0.7770 H     1 <1>   0.1500 
 36 H       -6.2330    -0.4080    -1.4140 H     1 <1>   0.3700 
 37 H       -7.8360     0.0100     1.1020 H     1 <1>   0.1000 
 38 H       -9.7900    -0.6750    -0.3390 H     1 <1>   0.1000 
 39 H       -8.6840    -0.9790    -1.7130 H     1 <1>   0.1000 
 40 H       -7.9550     1.4620    -1.6350 H     1 <1>   0.1000 
 41 H       -9.0740     1.7340    -0.2650 H     1 <1>   0.1000 
@<TRIPOS>BOND
  1   1   2  2   
  2   1   3  2   
  3   1   4  am  
  4   1   5  1   
  5   4   6  1   
  6   4   7  1   
  7   5   8  ar  
  8   5   9  ar  
  9   6  10  1   
 10   6  22  1   
 11   6  23  1   
 12   7  11  1   
 13   7  24  1   
 14   7  25  1   
 15   8  12  ar  
 16   8  26  1   
 17   9  13  ar  
 18   9  27  1   
 19  10  14  1   
 20  10  15  1   
 21  10  28  1   
 22  11  15  1   
 23  11  29  1   
 24  11  30  1   
 25  12  16  ar  
 26  12  31  1   
 27  13  16  ar  
 28  13  32  1   
 29  14  17  2   
 30  14  18  am  
 31  15  33  1   
 32  15  34  1   
 33  16  35  1   
 34  18  19  1   
 35  18  36  1   
 36  19  20  1   
 37  19  21  1   
 38  19  37  1   
 39  20  21  1   
 40  20  38  1   
 41  20  39  1   
 42  21  40  1   
 43  21  41  1   
@<TRIPOS>SUBSTRUCTURE
  1 ****   6 GROUP 4 **** **** 0

# MOE 2024.06 (io_trps.svl 2023.06)
