@<TRIPOS>MOLECULE
NONAME
49 51 1 0 0 
SMALL
USER_CHARGES


@<TRIPOS>ATOM
  1 O       -2.4350     0.2130    -2.0370 O.3   1 <1>  -0.3630 
  2 C       -2.5850    -0.7220    -1.0540 C.ar  1 <1>   0.0820 
  3 C       -1.2720     0.3120    -2.8250 C.3   1 <1>   0.0400 
  4 C       -1.7290    -1.7950    -0.7640 C.ar  1 <1>   0.0820 
  5 C       -3.7250    -0.5600    -0.2840 C.ar  1 <1>  -0.1500 
  6 O       -0.5930    -2.0620    -1.4500 O.3   1 <1>  -0.5330 
  7 C       -2.0270    -2.6710     0.2790 C.ar  1 <1>   0.0820 
  8 C       -4.0400    -1.4310     0.7470 C.ar  1 <1>  -0.1430 
  9 O       -1.1450    -3.6900     0.5100 O.3   1 <1>  -0.3630 
 10 C       -3.1850    -2.4850     1.0290 C.ar  1 <1>  -0.1500 
 11 C       -5.3180    -1.2240     1.5500 C.3   1 <1>   0.2530 
 12 C       -1.2910    -4.5500     1.6200 C.3   1 <1>   0.0400 
 13 N       -6.5020    -1.1080     0.6600 N.3   1 <1>  -0.8100 
 14 C       -7.7760    -0.8240     1.3660 C.3   1 <1>   0.1900 
 15 C       -6.6420    -2.3080    -0.2000 C.3   1 <1>   0.1100 
 16 C       -8.9790    -0.7010     0.3710 C.3   1 <1>   0.4230 
 17 C       -7.6600     0.4470     2.2220 C.3   1 <1>  -0.2400 
 18 C       -7.7530    -2.1250    -1.2460 C.3   1 <1>   0.3430 
 19 N       -9.0870    -1.8160    -0.6210 N.4   1 <1>  -0.9590 
 20 C       -8.9890     0.5520    -0.5050 C.3   1 <1>  -0.1600 
 21 C      -10.0420    -1.3350    -1.6520 C.3   1 <1>   0.3430 
 22 C       -9.8260     0.1760    -1.7310 C.3   1 <1>  -0.1600 
 23 H       -1.3670     1.1750    -3.4580 H     1 <1>   0.0800 
 24 H       -1.1830    -0.5750    -3.4270 H     1 <1>   0.0800 
 25 H       -0.4200     0.4240    -2.1780 H     1 <1>   0.0800 
 26 H       -4.3800     0.2650    -0.5050 H     1 <1>   0.1500 
 27 H       -0.1770    -2.8570    -1.0590 H     1 <1>   0.4500 
 28 H       -3.4320    -3.1520     1.8320 H     1 <1>   0.1500 
 29 H       -5.1890    -0.3180     2.1140 H     1 <1>   0.0800 
 30 H       -5.4600    -2.0360     2.2430 H     1 <1>   0.0800 
 31 H       -0.4580    -5.2300     1.6280 H     1 <1>   0.0800 
 32 H       -2.2090    -5.1010     1.5180 H     1 <1>   0.0800 
 33 H       -1.2900    -3.9620     2.5210 H     1 <1>   0.0800 
 34 H       -7.9920    -1.6450     2.0300 H     1 <1>   0.0800 
 35 H       -6.8420    -3.1780     0.4030 H     1 <1>   0.0800 
 36 H       -5.7270    -2.4870    -0.7380 H     1 <1>   0.0800 
 37 H       -9.8830    -0.6830     0.9570 H     1 <1>   0.0800 
 38 H       -7.2400     1.2560     1.6510 H     1 <1>   0.0800 
 39 H       -7.0480     0.2720     3.0890 H     1 <1>   0.0800 
 40 H       -8.6280     0.7470     2.5800 H     1 <1>   0.0800 
 41 H       -7.8260    -3.0160    -1.8480 H     1 <1>   0.0800 
 42 H       -7.4600    -1.3140    -1.8930 H     1 <1>   0.0800 
 43 H       -9.4380    -2.6580    -0.1520 H     1 <1>   0.4500 
 44 H       -7.9830     0.7990    -0.8030 H     1 <1>   0.0800 
 45 H       -9.4040     1.3930     0.0230 H     1 <1>   0.0800 
 46 H      -11.0520    -1.5330    -1.3320 H     1 <1>   0.0800 
 47 H       -9.8740    -1.8110    -2.6060 H     1 <1>   0.0800 
 48 H       -9.3090     0.4360    -2.6390 H     1 <1>   0.0800 
 49 H      -10.7780     0.6800    -1.7260 H     1 <1>   0.0800 
@<TRIPOS>BOND
  1   1   2  1   
  2   1   3  1   
  3   2   4  ar  
  4   2   5  ar  
  5   3  23  1   
  6   3  24  1   
  7   3  25  1   
  8   4   6  1   
  9   4   7  ar  
 10   5   8  ar  
 11   5  26  1   
 12   6  27  1   
 13   7   9  1   
 14   7  10  ar  
 15   8  10  ar  
 16   8  11  1   
 17   9  12  1   
 18  10  28  1   
 19  11  13  1   
 20  11  29  1   
 21  11  30  1   
 22  12  31  1   
 23  12  32  1   
 24  12  33  1   
 25  13  14  1   
 26  13  15  1   
 27  14  16  1   
 28  14  17  1   
 29  14  34  1   
 30  15  18  1   
 31  15  35  1   
 32  15  36  1   
 33  16  19  1   
 34  16  20  1   
 35  16  37  1   
 36  17  38  1   
 37  17  39  1   
 38  17  40  1   
 39  18  19  1   
 40  18  41  1   
 41  18  42  1   
 42  19  21  1   
 43  19  43  1   
 44  20  22  1   
 45  20  44  1   
 46  20  45  1   
 47  21  22  1   
 48  21  46  1   
 49  21  47  1   
 50  22  48  1   
 51  22  49  1   
@<TRIPOS>SUBSTRUCTURE
  1 ****   8 GROUP 4 **** **** 0

# MOE 2024.06 (io_trps.svl 2023.06)
