@<TRIPOS>MOLECULE
NONAME
42 43 1 0 0 
SMALL
USER_CHARGES


@<TRIPOS>ATOM
  1 S       -0.2180    -0.0390    -0.2140 S.o2  1 <1>   1.4470 
  2 O       -0.3330    -1.1110     0.7510 O.2   1 <1>  -0.6500 
  3 O       -0.4180    -0.3080    -1.6190 O.2   1 <1>  -0.6500 
  4 N       -1.4430     1.0560     0.1270 N.am  1 <1>  -0.9140 
  5 C        1.3020     0.9080     0.0790 C.ar  1 <1>  -0.0090 
  6 C       -2.7300     0.4320     0.3730 C.3   1 <1>   0.2760 
  7 C        2.5260     0.4170    -0.3690 C.ar  1 <1>   0.0830 
  8 C        1.2970     2.1180     0.7700 C.ar  1 <1>  -0.1500 
  9 C       -3.8360     1.2640    -0.3240 C.3   1 <1>   0.2000 
 10 C       -2.9460     0.3170     1.8850 C.3   1 <1>  -0.2400 
 11 O        2.5180    -0.7760    -1.0160 O.3   1 <1>  -0.3630 
 12 C        3.6990     1.1330    -0.1490 C.ar  1 <1>  -0.1500 
 13 C        2.4610     2.8310     0.9930 C.ar  1 <1>  -0.1500 
 14 O       -3.4370     1.5830    -1.6230 O.3   1 <1>  -0.5600 
 15 C       -4.1500     2.6250     0.2920 C.3   1 <1>  -0.1600 
 16 C        3.6890    -1.3500    -1.5540 C.3   1 <1>   0.0400 
 17 C        3.6740     2.3380     0.5280 C.ar  1 <1>   0.0830 
 18 C       -4.1880     2.6470    -2.1120 C.3   1 <1>   0.1200 
 19 C       -4.6630     3.4310    -0.8910 C.3   1 <1>  -0.1600 
 20 O        4.8610     2.9700     0.6980 O.3   1 <1>  -0.3630 
 21 C        4.9480     4.1990     1.3840 C.3   1 <1>   0.0400 
 22 H       -1.6060     1.4770    -0.7960 H     1 <1>   0.4200 
 23 H       -2.7550    -0.5540    -0.0630 H     1 <1>   0.0800 
 24 H        0.3690     2.5140     1.1450 H     1 <1>   0.1500 
 25 H       -4.7390     0.6820    -0.3950 H     1 <1>   0.0800 
 26 H       -2.8480     1.2740     2.3620 H     1 <1>   0.0800 
 27 H       -2.2280    -0.3580     2.3140 H     1 <1>   0.0800 
 28 H       -3.9270    -0.0730     2.0860 H     1 <1>   0.0800 
 29 H        4.6520     0.7770    -0.4900 H     1 <1>   0.1500 
 30 H        2.4030     3.7600     1.5270 H     1 <1>   0.1500 
 31 H       -3.2480     3.0710     0.6750 H     1 <1>   0.0800 
 32 H       -4.8720     2.5500     1.0850 H     1 <1>   0.0800 
 33 H        3.4160    -2.2750    -2.0280 H     1 <1>   0.0800 
 34 H        4.3840    -1.5390    -0.7550 H     1 <1>   0.0800 
 35 H        4.1070    -0.6760    -2.2800 H     1 <1>   0.0800 
 36 H       -5.0170     2.2450    -2.6680 H     1 <1>   0.0800 
 37 H       -3.5620     3.2380    -2.7590 H     1 <1>   0.0800 
 38 H       -4.2650     4.4300    -0.8920 H     1 <1>   0.0800 
 39 H       -5.7380     3.4820    -0.8900 H     1 <1>   0.0800 
 40 H        5.9800     4.5030     1.3950 H     1 <1>   0.0800 
 41 H        4.5970     4.0630     2.3910 H     1 <1>   0.0800 
 42 H        4.3570     4.9320     0.8640 H     1 <1>   0.0800 
@<TRIPOS>BOND
  1   1   2  2   
  2   1   3  2   
  3   1   4  am  
  4   1   5  1   
  5   4   6  1   
  6   4  22  1   
  7   5   7  ar  
  8   5   8  ar  
  9   6   9  1   
 10   6  10  1   
 11   6  23  1   
 12   7  11  1   
 13   7  12  ar  
 14   8  13  ar  
 15   8  24  1   
 16   9  14  1   
 17   9  15  1   
 18   9  25  1   
 19  10  26  1   
 20  10  27  1   
 21  10  28  1   
 22  11  16  1   
 23  12  17  ar  
 24  12  29  1   
 25  13  17  ar  
 26  13  30  1   
 27  14  18  1   
 28  15  19  1   
 29  15  31  1   
 30  15  32  1   
 31  16  33  1   
 32  16  34  1   
 33  16  35  1   
 34  17  20  1   
 35  18  19  1   
 36  18  36  1   
 37  18  37  1   
 38  19  38  1   
 39  19  39  1   
 40  20  21  1   
 41  21  40  1   
 42  21  41  1   
 43  21  42  1   
@<TRIPOS>SUBSTRUCTURE
  1 ****   5 GROUP 4 **** **** 0

# MOE 2024.06 (io_trps.svl 2023.06)
