@<TRIPOS>MOLECULE
NONAME
48 49 1 0 0 
SMALL
USER_CHARGES


@<TRIPOS>ATOM
  1 O       -0.1140     1.1420     2.0210 O.2   1 <1>  -0.5700 
  2 C        0.2300     1.2820     0.8640 C.2   1 <1>   0.6900 
  3 N       -0.6720     1.4380    -0.1270 N.am  1 <1>  -0.7300 
  4 N        1.5320     1.2910     0.5230 N.am  1 <1>  -0.7300 
  5 C       -2.1320     1.4420     0.0480 C.3   1 <1>   0.2200 
  6 C        2.6280     1.3110     1.4920 C.3   1 <1>   0.3640 
  7 C       -2.7140     0.1880    -0.6100 C.3   1 <1>  -0.1600 
  8 C       -2.7010     2.7170    -0.5810 C.3   1 <1>  -0.1600 
  9 C        3.7450     2.1770     0.9180 C.ar  1 <1>  -0.1430 
 10 C        3.0910    -0.1200     1.7480 C.3   1 <1>  -0.2400 
 11 C       -4.2490     0.1930    -0.5530 C.3   1 <1>  -0.1600 
 12 C       -4.2360     2.7270    -0.5240 C.3   1 <1>  -0.1600 
 13 C        4.3560     1.8580    -0.2860 C.ar  1 <1>  -0.1500 
 14 C        4.1620     3.3100     1.5960 C.ar  1 <1>  -0.1500 
 15 C       -4.8240     1.4700    -1.1800 C.3   1 <1>  -0.1600 
 16 C        5.3640     2.6440    -0.8180 C.ar  1 <1>   0.0830 
 17 C        5.1640     4.1130     1.0780 C.ar  1 <1>  -0.1500 
 18 O        5.8690     2.1970    -2.0030 O.3   1 <1>  -0.3630 
 19 C        5.7730     3.8020    -0.1350 C.ar  1 <1>   0.0830 
 20 C        7.2220     2.4020    -2.3440 C.3   1 <1>   0.0400 
 21 O        6.7370     4.6070    -0.6710 O.3   1 <1>  -0.3630 
 22 C        7.0390     5.8760    -0.1330 C.3   1 <1>   0.0400 
 23 H       -0.3450     1.4370    -1.0870 H     1 <1>   0.3700 
 24 H        1.7920     1.6630    -0.3850 H     1 <1>   0.3700 
 25 H       -2.3730     1.4320     1.1000 H     1 <1>   0.0800 
 26 H        2.2780     1.7380     2.4180 H     1 <1>   0.0800 
 27 H       -2.3430    -0.6840    -0.1000 H     1 <1>   0.0800 
 28 H       -2.4020     0.1410    -1.6380 H     1 <1>   0.0800 
 29 H       -2.3900     2.7830    -1.6090 H     1 <1>   0.0800 
 30 H       -2.3200     3.5730    -0.0530 H     1 <1>   0.0800 
 31 H        3.3900    -0.5980     0.8340 H     1 <1>   0.0800 
 32 H        2.2920    -0.6820     2.1970 H     1 <1>   0.0800 
 33 H        3.9260    -0.1130     2.4240 H     1 <1>   0.0800 
 34 H       -4.5660     0.1270     0.4740 H     1 <1>   0.0800 
 35 H       -4.6330    -0.6690    -1.0720 H     1 <1>   0.0800 
 36 H       -4.6110     3.6040    -1.0230 H     1 <1>   0.0800 
 37 H       -4.5530     2.7720     0.5050 H     1 <1>   0.0800 
 38 H        4.0560     0.9820    -0.8320 H     1 <1>   0.1500 
 39 H        3.7030     3.5780     2.5330 H     1 <1>   0.1500 
 40 H       -5.8950     1.4740    -1.0710 H     1 <1>   0.0800 
 41 H       -4.6020     1.4810    -2.2340 H     1 <1>   0.0800 
 42 H        5.4500     4.9800     1.6410 H     1 <1>   0.1500 
 43 H        7.4900     1.6860    -3.0990 H     1 <1>   0.0800 
 44 H        7.8310     2.2620    -1.4680 H     1 <1>   0.0800 
 45 H        7.3350     3.3980    -2.7320 H     1 <1>   0.0800 
 46 H        7.7600     6.3480    -0.7760 H     1 <1>   0.0800 
 47 H        7.4560     5.7490     0.8500 H     1 <1>   0.0800 
 48 H        6.1390     6.4640    -0.1000 H     1 <1>   0.0800 
@<TRIPOS>BOND
  1   1   2  2   
  2   2   3  am  
  3   2   4  am  
  4   3   5  1   
  5   3  23  1   
  6   4   6  1   
  7   4  24  1   
  8   5   7  1   
  9   5   8  1   
 10   5  25  1   
 11   6   9  1   
 12   6  10  1   
 13   6  26  1   
 14   7  11  1   
 15   7  27  1   
 16   7  28  1   
 17   8  12  1   
 18   8  29  1   
 19   8  30  1   
 20   9  13  ar  
 21   9  14  ar  
 22  10  31  1   
 23  10  32  1   
 24  10  33  1   
 25  11  15  1   
 26  11  34  1   
 27  11  35  1   
 28  12  15  1   
 29  12  36  1   
 30  12  37  1   
 31  13  16  ar  
 32  13  38  1   
 33  14  17  ar  
 34  14  39  1   
 35  15  40  1   
 36  15  41  1   
 37  16  18  1   
 38  16  19  ar  
 39  17  19  ar  
 40  17  42  1   
 41  18  20  1   
 42  19  21  1   
 43  20  43  1   
 44  20  44  1   
 45  20  45  1   
 46  21  22  1   
 47  22  46  1   
 48  22  47  1   
 49  22  48  1   
@<TRIPOS>SUBSTRUCTURE
  1 ****   4 GROUP 4 **** **** 0

# MOE 2024.06 (io_trps.svl 2023.06)
