@<TRIPOS>MOLECULE
NONAME
37 37 1 0 0 
SMALL
USER_CHARGES


@<TRIPOS>ATOM
  1 O       -1.1040     0.4230     1.2480 O.2   1 <1>  -0.5700 
  2 C       -2.0050     0.8500     0.5560 C.2   1 <1>   0.7800 
  3 O       -2.8310     0.0270    -0.0960 O.3   1 <1>  -0.4300 
  4 N       -2.2150     2.1760     0.4180 N.am  1 <1>  -0.7300 
  5 C       -2.7860    -1.3810    -0.1290 C.3   1 <1>   0.2800 
  6 C       -3.1320     2.8190    -0.5390 C.3   1 <1>   0.2200 
  7 C       -3.9470    -1.7920    -1.0360 C.3   1 <1>  -0.2400 
  8 C       -1.4670    -1.8540    -0.7510 C.3   1 <1>  -0.2400 
  9 C       -3.0130    -1.9530     1.2750 C.3   1 <1>  -0.2400 
 10 C       -2.7580     4.2980    -0.6820 C.3   1 <1>  -0.1860 
 11 C       -4.5780     2.6730    -0.0370 C.3   1 <1>  -0.1600 
 12 C       -1.3170     4.4120    -1.1460 C.2   1 <1>   0.9060 
 13 C       -3.7570     5.0370    -1.6030 C.3   1 <1>  -0.1600 
 14 C       -5.5720     3.4030    -0.9530 C.3   1 <1>  -0.1600 
 15 O       -1.0610     4.5650    -2.3450 O.co2 1 <1>  -0.9000 
 16 O       -0.4350     4.3190    -0.2840 O.co2 1 <1>  -0.9000 
 17 C       -5.1990     4.8830    -1.1040 C.3   1 <1>  -0.1600 
 18 H       -1.3820     2.7650     0.5970 H     1 <1>   0.3700 
 19 H       -3.0290     2.3390    -1.4990 H     1 <1>   0.0800 
 20 H       -3.8160    -1.3740    -2.0170 H     1 <1>   0.0800 
 21 H       -4.8780    -1.4430    -0.6280 H     1 <1>   0.0800 
 22 H       -3.9920    -2.8620    -1.1240 H     1 <1>   0.0800 
 23 H       -1.4930    -2.9160    -0.9070 H     1 <1>   0.0800 
 24 H       -0.6360    -1.6400    -0.1030 H     1 <1>   0.0800 
 25 H       -1.3070    -1.3700    -1.6970 H     1 <1>   0.0800 
 26 H       -3.1190    -3.0200     1.2240 H     1 <1>   0.0800 
 27 H       -3.9070    -1.5380     1.7050 H     1 <1>   0.0800 
 28 H       -2.1800    -1.7380     1.9180 H     1 <1>   0.0800 
 29 H       -2.8070     4.7560     0.2880 H     1 <1>   0.0800 
 30 H       -4.8450     1.6330     0.0050 H     1 <1>   0.0800 
 31 H       -4.6470     3.0810     0.9560 H     1 <1>   0.0800 
 32 H       -3.4920     6.0790    -1.6480 H     1 <1>   0.0800 
 33 H       -3.6760     4.6400    -2.6010 H     1 <1>   0.0800 
 34 H       -5.5680     2.9360    -1.9230 H     1 <1>   0.0800 
 35 H       -6.5650     3.3200    -0.5470 H     1 <1>   0.0800 
 36 H       -5.2980     5.3760    -0.1520 H     1 <1>   0.0800 
 37 H       -5.8710     5.3580    -1.7970 H     1 <1>   0.0800 
@<TRIPOS>BOND
  1   1   2  2   
  2   2   3  1   
  3   2   4  am  
  4   3   5  1   
  5   4   6  1   
  6   4  18  1   
  7   5   7  1   
  8   5   8  1   
  9   5   9  1   
 10   6  10  1   
 11   6  11  1   
 12   6  19  1   
 13   7  20  1   
 14   7  21  1   
 15   7  22  1   
 16   8  23  1   
 17   8  24  1   
 18   8  25  1   
 19   9  26  1   
 20   9  27  1   
 21   9  28  1   
 22  10  12  1   
 23  10  13  1   
 24  10  29  1   
 25  11  14  1   
 26  11  30  1   
 27  11  31  1   
 28  12  15  ar  
 29  12  16  ar  
 30  13  17  1   
 31  13  32  1   
 32  13  33  1   
 33  14  17  1   
 34  14  34  1   
 35  14  35  1   
 36  17  36  1   
 37  17  37  1   
@<TRIPOS>SUBSTRUCTURE
  1 ****   6 GROUP 4 **** **** 0

# MOE 2024.06 (io_trps.svl 2023.06)
