@<TRIPOS>MOLECULE
NONAME
38 39 1 0 0 
SMALL
USER_CHARGES


@<TRIPOS>ATOM
  1 F        0.9420     0.9280     0.4760 F     1 <1>  -0.1900 
  2 C        1.7910    -0.0600     0.3870 C.ar  1 <1>   0.1900 
  3 C        3.0980     0.2180     0.0430 C.ar  1 <1>  -0.1500 
  4 C        1.3450    -1.3430     0.6410 C.ar  1 <1>  -0.1500 
  5 C        4.0130    -0.8240    -0.0550 C.ar  1 <1>   0.1170 
  6 C        2.2520    -2.3840     0.5420 C.ar  1 <1>  -0.1500 
  7 N        5.3350    -0.5300    -0.4190 N.am  1 <1>  -0.5470 
  8 C        3.5690    -2.1230     0.1960 C.ar  1 <1>  -0.1500 
  9 C        6.4960    -1.2030    -0.1780 C.2   1 <1>   0.6900 
 10 O        6.5390    -2.1780     0.5440 O.2   1 <1>  -0.5700 
 11 N        7.6210    -0.7340    -0.7720 N.am  1 <1>  -0.7300 
 12 C        8.9730    -1.3270    -0.6140 C.3   1 <1>   0.1400 
 13 C        9.9700    -0.2490    -0.1800 C.3   1 <1>  -0.0220 
 14 C       11.4100    -0.7460    -0.0500 C.2   1 <1>  -0.2760 
 15 C       11.8260    -1.9980    -0.2850 C.2   1 <1>  -0.2880 
 16 C       12.3680     0.3540     0.3990 C.3   1 <1>  -0.0220 
 17 C       13.2610    -2.4750    -0.1180 C.3   1 <1>  -0.0220 
 18 C       13.8390    -0.0360     0.1940 C.3   1 <1>  -0.1600 
 19 C       14.1010    -1.4670     0.6770 C.3   1 <1>  -0.1600 
 20 H        3.3930     1.2330    -0.1410 H     1 <1>   0.1500 
 21 H        0.3180    -1.5180     0.9080 H     1 <1>   0.1500 
 22 H        1.9370    -3.3960     0.7330 H     1 <1>   0.1500 
 23 H        5.4760     0.3830    -0.8350 H     1 <1>   0.3700 
 24 H        4.2580    -2.9440     0.1190 H     1 <1>   0.1500 
 25 H        7.5390    -0.0310    -1.5010 H     1 <1>   0.3700 
 26 H        9.2800    -1.7540    -1.5530 H     1 <1>   0.0800 
 27 H        8.9520    -2.1110     0.1250 H     1 <1>   0.0800 
 28 H        9.6530     0.1390     0.7720 H     1 <1>   0.0800 
 29 H        9.9480     0.5490    -0.9000 H     1 <1>   0.0800 
 30 H       11.1820    -2.7940    -0.6150 H     1 <1>   0.1500 
 31 H       12.1930     0.5590     1.4410 H     1 <1>   0.0800 
 32 H       12.1770     1.2580    -0.1530 H     1 <1>   0.0800 
 33 H       13.6920    -2.6200    -1.0930 H     1 <1>   0.0800 
 34 H       13.2690    -3.4200     0.3960 H     1 <1>   0.0800 
 35 H       14.4720     0.6540     0.7240 H     1 <1>   0.0800 
 36 H       14.0780     0.0300    -0.8530 H     1 <1>   0.0800 
 37 H       15.1450    -1.7070     0.5750 H     1 <1>   0.0800 
 38 H       13.8420    -1.5380     1.7190 H     1 <1>   0.0800 
@<TRIPOS>BOND
  1   1   2  1   
  2   2   3  ar  
  3   2   4  ar  
  4   3   5  ar  
  5   3  20  1   
  6   4   6  ar  
  7   4  21  1   
  8   5   7  1   
  9   5   8  ar  
 10   6   8  ar  
 11   6  22  1   
 12   7   9  am  
 13   7  23  1   
 14   8  24  1   
 15   9  10  2   
 16   9  11  am  
 17  11  12  1   
 18  11  25  1   
 19  12  13  1   
 20  12  26  1   
 21  12  27  1   
 22  13  14  1   
 23  13  28  1   
 24  13  29  1   
 25  14  15  2   
 26  14  16  1   
 27  15  17  1   
 28  15  30  1   
 29  16  18  1   
 30  16  31  1   
 31  16  32  1   
 32  17  19  1   
 33  17  33  1   
 34  17  34  1   
 35  18  19  1   
 36  18  35  1   
 37  18  36  1   
 38  19  37  1   
 39  19  38  1   
@<TRIPOS>SUBSTRUCTURE
  1 ****   9 GROUP 4 **** **** 0

# MOE 2024.06 (io_trps.svl 2023.06)
