@<TRIPOS>MOLECULE
NONAME
52 52 1 0 0 
SMALL
USER_CHARGES


@<TRIPOS>ATOM
  1 O       -1.1220    -1.1600    -0.6420 O.2   1 <1>  -0.5700 
  2 C       -2.1910    -0.7290    -1.0290 C.2   1 <1>   0.6900 
  3 N       -2.5090     0.5790    -0.9760 N.am  1 <1>  -0.7300 
  4 N       -3.1270    -1.5820    -1.5060 N.am  1 <1>  -0.7300 
  5 C       -1.6920     1.7280    -0.5710 C.3   1 <1>   0.4440 
  6 C       -2.8420    -2.9600    -1.9660 C.3   1 <1>   0.1400 
  7 C       -2.5080     2.9760    -0.9640 C.ar  1 <1>  -0.1430 
  8 C       -0.3600     1.7400    -1.3280 C.3   1 <1>  -0.2400 
  9 C       -1.4320     1.6130     0.9350 C.3   1 <1>  -0.2400 
 10 C       -3.0640    -3.9640    -0.8310 C.3   1 <1>  -0.1600 
 11 C       -2.8630     3.9740    -0.0600 C.ar  1 <1>  -0.1500 
 12 C       -2.9180     3.1240    -2.2850 C.ar  1 <1>  -0.1500 
 13 C       -2.1360    -3.6600     0.3480 C.3   1 <1>   0.3430 
 14 C       -3.6060     5.0920    -0.4330 C.ar  1 <1>   0.0280 
 15 C       -3.6550     4.2240    -2.6820 C.ar  1 <1>  -0.1500 
 16 N       -2.3160    -4.6410     1.4560 N.4   1 <1>  -0.9590 
 17 C       -3.9490     6.1020     0.5480 C.2   1 <1>  -0.1670 
 18 C       -3.9940     5.1970    -1.7640 C.ar  1 <1>  -0.1500 
 19 C       -1.6740    -4.1020     2.6940 C.3   1 <1>   0.2630 
 20 C       -1.7510    -5.9860     1.1210 C.3   1 <1>   0.2630 
 21 C       -3.0850     6.6060     1.4440 C.2   1 <1>  -0.3000 
 22 C       -5.3930     6.5830     0.5380 C.3   1 <1>  -0.1020 
 23 H       -3.4430     0.8720    -1.2460 H     1 <1>   0.3700 
 24 H       -3.9760    -1.1630    -1.8850 H     1 <1>   0.3700 
 25 H       -1.8230    -3.0160    -2.3150 H     1 <1>   0.0800 
 26 H       -3.4880    -3.1940    -2.7960 H     1 <1>   0.0800 
 27 H       -0.5180     1.6570    -2.3870 H     1 <1>   0.0800 
 28 H        0.2740     0.9340    -1.0080 H     1 <1>   0.0800 
 29 H        0.1550     2.6630    -1.1340 H     1 <1>   0.0800 
 30 H       -2.3610     1.5970     1.4770 H     1 <1>   0.0800 
 31 H       -0.8440     2.4460     1.2730 H     1 <1>   0.0800 
 32 H       -0.8840     0.7170     1.1570 H     1 <1>   0.0800 
 33 H       -2.8630    -4.9450    -1.2180 H     1 <1>   0.0800 
 34 H       -4.0910    -3.9160    -0.5190 H     1 <1>   0.0800 
 35 H       -2.5770     3.9120     0.9720 H     1 <1>   0.1500 
 36 H       -2.6620     2.3820    -3.0210 H     1 <1>   0.1500 
 37 H       -2.3620    -2.6690     0.7090 H     1 <1>   0.0800 
 38 H       -1.1100    -3.6540     0.0150 H     1 <1>   0.0800 
 39 H       -3.9620     4.3240    -3.7090 H     1 <1>   0.1500 
 40 H       -3.3280    -4.7330     1.6310 H     1 <1>   0.4500 
 41 H       -4.5580     6.0520    -2.0880 H     1 <1>   0.1500 
 42 H       -0.6150    -3.9730     2.5400 H     1 <1>   0.0800 
 43 H       -1.8250    -4.7770     3.5200 H     1 <1>   0.0800 
 44 H       -2.1010    -3.1450     2.9490 H     1 <1>   0.0800 
 45 H       -0.6980    -5.9050     0.9040 H     1 <1>   0.0800 
 46 H       -2.2490    -6.4000     0.2600 H     1 <1>   0.0800 
 47 H       -1.8820    -6.6630     1.9490 H     1 <1>   0.0800 
 48 H       -3.3360     7.3510     2.1780 H     1 <1>   0.1500 
 49 H       -2.0520     6.3130     1.5060 H     1 <1>   0.1500 
 50 H       -5.5920     7.1620    -0.3450 H     1 <1>   0.0800 
 51 H       -5.5970     7.1990     1.3950 H     1 <1>   0.0800 
 52 H       -6.0600     5.7400     0.5610 H     1 <1>   0.0800 
@<TRIPOS>BOND
  1   1   2  2   
  2   2   3  am  
  3   2   4  am  
  4   3   5  1   
  5   3  23  1   
  6   4   6  1   
  7   4  24  1   
  8   5   7  1   
  9   5   8  1   
 10   5   9  1   
 11   6  10  1   
 12   6  25  1   
 13   6  26  1   
 14   7  11  ar  
 15   7  12  ar  
 16   8  27  1   
 17   8  28  1   
 18   8  29  1   
 19   9  30  1   
 20   9  31  1   
 21   9  32  1   
 22  10  13  1   
 23  10  33  1   
 24  10  34  1   
 25  11  14  ar  
 26  11  35  1   
 27  12  15  ar  
 28  12  36  1   
 29  13  16  1   
 30  13  37  1   
 31  13  38  1   
 32  14  17  1   
 33  14  18  ar  
 34  15  18  ar  
 35  15  39  1   
 36  16  19  1   
 37  16  20  1   
 38  16  40  1   
 39  17  21  2   
 40  17  22  1   
 41  18  41  1   
 42  19  42  1   
 43  19  43  1   
 44  19  44  1   
 45  20  45  1   
 46  20  46  1   
 47  20  47  1   
 48  21  48  1   
 49  21  49  1   
 50  22  50  1   
 51  22  51  1   
 52  22  52  1   
@<TRIPOS>SUBSTRUCTURE
  1 ****   3 GROUP 4 **** **** 0

# MOE 2024.06 (io_trps.svl 2023.06)
