@<TRIPOS>MOLECULE
NONAME
47 49 1 0 0 
SMALL
USER_CHARGES


@<TRIPOS>ATOM
  1 O       -0.7570    -0.2900     1.4670 O.3   1 <1>  -0.3630 
  2 C       -1.8080    -0.7930     0.7720 C.ar  1 <1>   0.0830 
  3 C        0.1040    -1.0980     2.2400 C.3   1 <1>   0.0400 
  4 C       -2.5240     0.1090    -0.0550 C.ar  1 <1>   0.0000 
  5 C       -2.1800    -2.1130     0.8490 C.ar  1 <1>  -0.1500 
  6 C       -3.6190    -0.3690    -0.8150 C.ar  1 <1>   0.0000 
  7 C       -2.1810     1.4760    -0.1520 C.ar  1 <1>  -0.1500 
  8 C       -3.2840    -2.5760     0.1340 C.ar  1 <1>  -0.1500 
  9 C       -4.0050    -1.7260    -0.6640 C.ar  1 <1>  -0.1440 
 10 C       -4.2730     0.5430    -1.6820 C.ar  1 <1>  -0.1500 
 11 C       -2.8530     2.3320    -0.9760 C.ar  1 <1>  -0.1500 
 12 C       -5.2430    -2.2650    -1.3530 C.3   1 <1>   0.4860 
 13 C       -3.9060     1.8570    -1.7570 C.ar  1 <1>  -0.1500 
 14 N       -6.3640    -2.2840    -0.3540 N.4   1 <1>  -0.9590 
 15 C       -7.5010    -3.1410    -0.8570 C.3   1 <1>   0.3430 
 16 C       -6.7180    -0.8950     0.0810 C.3   1 <1>   0.3430 
 17 C       -8.7720    -3.2120     0.0400 C.3   1 <1>   0.3430 
 18 C       -7.4870    -0.9340     1.4000 C.3   1 <1>  -0.1600 
 19 N       -9.5100    -1.9000     0.1860 N.4   1 <1>  -0.9590 
 20 C       -9.0110    -1.0040     1.2790 C.3   1 <1>   0.3430 
 21 C      -10.9690    -2.1670     0.4340 C.3   1 <1>   0.2630 
 22 H        0.8740    -0.4680     2.6490 H     1 <1>   0.0800 
 23 H        0.5440    -1.8470     1.6060 H     1 <1>   0.0800 
 24 H       -0.4600    -1.5480     3.0380 H     1 <1>   0.0800 
 25 H       -1.6430    -2.8160     1.4590 H     1 <1>   0.1500 
 26 H       -1.3610     1.8450     0.4390 H     1 <1>   0.1500 
 27 H       -3.5370    -3.6180     0.2400 H     1 <1>   0.1500 
 28 H       -5.0720     0.2200    -2.3180 H     1 <1>   0.1500 
 29 H       -2.5740     3.3710    -1.0390 H     1 <1>   0.1500 
 30 H       -5.0340    -3.2680    -1.6910 H     1 <1>   0.0800 
 31 H       -5.5000    -1.6730    -2.2140 H     1 <1>   0.0800 
 32 H       -4.4080     2.5450    -2.4180 H     1 <1>   0.1500 
 33 H       -5.9320    -2.7320     0.4700 H     1 <1>   0.4500 
 34 H       -7.1360    -4.1480    -0.9840 H     1 <1>   0.0800 
 35 H       -7.8000    -2.7950    -1.8330 H     1 <1>   0.0800 
 36 H       -7.2770    -0.3770    -0.6810 H     1 <1>   0.0800 
 37 H       -5.8120    -0.3360     0.2570 H     1 <1>   0.0800 
 38 H       -8.5100    -3.5970     1.0120 H     1 <1>   0.0800 
 39 H       -9.4380    -3.9290    -0.4130 H     1 <1>   0.0800 
 40 H       -7.2670    -0.0220     1.9270 H     1 <1>   0.0800 
 41 H       -7.1260    -1.7290     2.0290 H     1 <1>   0.0800 
 42 H       -9.4700    -1.3800    -0.7050 H     1 <1>   0.4500 
 43 H       -9.3930    -0.0080     1.1100 H     1 <1>   0.0800 
 44 H       -9.4080    -1.3350     2.2270 H     1 <1>   0.0800 
 45 H      -11.1050    -2.7060     1.3590 H     1 <1>   0.0800 
 46 H      -11.3900    -2.7540    -0.3680 H     1 <1>   0.0800 
 47 H      -11.5180    -1.2400     0.4970 H     1 <1>   0.0800 
@<TRIPOS>BOND
  1   1   2  1   
  2   1   3  1   
  3   2   4  ar  
  4   2   5  ar  
  5   3  22  1   
  6   3  23  1   
  7   3  24  1   
  8   4   6  ar  
  9   4   7  ar  
 10   5   8  ar  
 11   5  25  1   
 12   6   9  ar  
 13   6  10  ar  
 14   7  11  ar  
 15   7  26  1   
 16   8   9  ar  
 17   8  27  1   
 18   9  12  1   
 19  10  13  ar  
 20  10  28  1   
 21  11  13  ar  
 22  11  29  1   
 23  12  14  1   
 24  12  30  1   
 25  12  31  1   
 26  13  32  1   
 27  14  15  1   
 28  14  16  1   
 29  14  33  1   
 30  15  17  1   
 31  15  34  1   
 32  15  35  1   
 33  16  18  1   
 34  16  36  1   
 35  16  37  1   
 36  17  19  1   
 37  17  38  1   
 38  17  39  1   
 39  18  20  1   
 40  18  40  1   
 41  18  41  1   
 42  19  20  1   
 43  19  21  1   
 44  19  42  1   
 45  20  43  1   
 46  20  44  1   
 47  21  45  1   
 48  21  46  1   
 49  21  47  1   
@<TRIPOS>SUBSTRUCTURE
  1 ****   9 GROUP 4 **** **** 0

# MOE 2024.06 (io_trps.svl 2023.06)
