@<TRIPOS>MOLECULE
NONAME
37 38 1 0 0 
SMALL
USER_CHARGES


@<TRIPOS>ATOM
  1 CL      -0.0550     5.2660     0.0620 Cl    1 <1>  -0.1770 
  2 C        0.5560     3.6570     0.3950 C.ar  1 <1>   0.1770 
  3 C       -0.2600     2.5540     0.1440 C.ar  1 <1>   0.1170 
  4 C        1.8350     3.5310     0.9020 C.ar  1 <1>  -0.1500 
  5 N       -1.5520     2.7640    -0.3760 N.am  1 <1>  -0.5470 
  6 C        0.2670     1.2950     0.4220 C.ar  1 <1>  -0.1500 
  7 C        2.3340     2.2690     1.1730 C.ar  1 <1>  -0.1500 
  8 C       -2.6240     1.9490    -0.5680 C.2   1 <1>   0.6900 
  9 C        1.5470     1.1550     0.9320 C.ar  1 <1>  -0.1500 
 10 O       -2.6060     0.7550    -0.3400 O.2   1 <1>  -0.5700 
 11 N       -3.7910     2.5200    -0.9790 N.am  1 <1>  -0.6600 
 12 C       -4.6690     1.7190    -1.8810 C.3   1 <1>   0.1400 
 13 C       -4.5550     3.3070     0.0280 C.3   1 <1>   0.1400 
 14 C       -5.5720     0.7810    -1.0550 C.3   1 <1>   0.3430 
 15 C       -5.4630     2.3710     0.8540 C.3   1 <1>   0.3430 
 16 N       -6.3700     1.5280    -0.0140 N.4   1 <1>  -0.9590 
 17 C       -7.1710     0.5700     0.7910 C.3   1 <1>   0.3430 
 18 C       -8.2440     1.3220     1.5700 C.3   1 <1>  -0.2400 
 19 H        2.4310     4.4070     1.0810 H     1 <1>   0.1500 
 20 H       -1.7190     3.7180    -0.6910 H     1 <1>   0.3700 
 21 H       -0.3130     0.4090     0.2420 H     1 <1>   0.1500 
 22 H        3.3290     2.1520     1.5690 H     1 <1>   0.1500 
 23 H        1.9330     0.1710     1.1410 H     1 <1>   0.1500 
 24 H       -4.0580     1.1280    -2.5430 H     1 <1>   0.0800 
 25 H       -5.2670     2.3780    -2.4860 H     1 <1>   0.0800 
 26 H       -5.1460     4.0560    -0.4690 H     1 <1>   0.0800 
 27 H       -3.8720     3.8120     0.6910 H     1 <1>   0.0800 
 28 H       -4.9400     0.0520    -0.5720 H     1 <1>   0.0800 
 29 H       -6.2360     0.2530    -1.7200 H     1 <1>   0.0800 
 30 H       -6.0520     2.9640     1.5340 H     1 <1>   0.0800 
 31 H       -4.8310     1.7250     1.4430 H     1 <1>   0.0800 
 32 H       -7.0190     2.1550    -0.5040 H     1 <1>   0.4500 
 33 H       -6.5320     0.0240     1.4670 H     1 <1>   0.0800 
 34 H       -7.6520    -0.1400     0.1360 H     1 <1>   0.0800 
 35 H       -7.8140     1.9740     2.3070 H     1 <1>   0.0800 
 36 H       -8.8620     0.6100     2.0890 H     1 <1>   0.0800 
 37 H       -8.8770     1.8860     0.9080 H     1 <1>   0.0800 
@<TRIPOS>BOND
  1   1   2  1   
  2   2   3  ar  
  3   2   4  ar  
  4   3   5  1   
  5   3   6  ar  
  6   4   7  ar  
  7   4  19  1   
  8   5   8  am  
  9   5  20  1   
 10   6   9  ar  
 11   6  21  1   
 12   7   9  ar  
 13   7  22  1   
 14   8  10  2   
 15   8  11  am  
 16   9  23  1   
 17  11  12  1   
 18  11  13  1   
 19  12  14  1   
 20  12  24  1   
 21  12  25  1   
 22  13  15  1   
 23  13  26  1   
 24  13  27  1   
 25  14  16  1   
 26  14  28  1   
 27  14  29  1   
 28  15  16  1   
 29  15  30  1   
 30  15  31  1   
 31  16  17  1   
 32  16  32  1   
 33  17  18  1   
 34  17  33  1   
 35  17  34  1   
 36  18  35  1   
 37  18  36  1   
 38  18  37  1   
@<TRIPOS>SUBSTRUCTURE
  1 ****   8 GROUP 4 **** **** 0

# MOE 2024.06 (io_trps.svl 2023.06)
