@<TRIPOS>MOLECULE
NONAME
37 38 1 0 0 
SMALL
USER_CHARGES


@<TRIPOS>ATOM
  1 F       -2.3300     1.5500     3.1970 F     1 <1>  -0.1900 
  2 C       -2.5680     1.5930     1.9130 C.ar  1 <1>   0.1900 
  3 C       -1.8090     2.3950     1.0800 C.ar  1 <1>   0.1900 
  4 C       -3.6000     0.8220     1.4090 C.ar  1 <1>  -0.1500 
  5 F       -0.8380     3.1250     1.5650 F     1 <1>  -0.1900 
  6 C       -2.0660     2.4400    -0.2770 C.ar  1 <1>  -0.1500 
  7 C       -3.8780     0.8690     0.0460 C.ar  1 <1>  -0.1440 
  8 C       -3.1030     1.6720    -0.7900 C.ar  1 <1>  -0.1500 
  9 C       -5.0190     0.0460    -0.5280 C.3   1 <1>   0.4870 
 10 N       -6.3140     0.6650    -0.0940 N.4   1 <1>  -0.9590 
 11 C       -7.4570    -0.2890    -0.3590 C.3   1 <1>   0.3430 
 12 C       -6.5050     1.9800    -0.7760 C.3   1 <1>   0.3430 
 13 C       -8.8320     0.0780     0.2790 C.3   1 <1>   0.3430 
 14 C       -7.2580     2.9790     0.1040 C.3   1 <1>  -0.1600 
 15 N       -9.2940     1.5110     0.1260 N.4   1 <1>  -0.9590 
 16 C       -8.4580     2.4710     0.9050 C.3   1 <1>   0.3430 
 17 C      -10.7180     1.6180     0.6000 C.3   1 <1>   0.2630 
 18 H       -4.1520     0.1990     2.0920 H     1 <1>   0.1500 
 19 H       -1.4600     3.0640    -0.9130 H     1 <1>   0.1500 
 20 H       -3.2850     1.7100    -1.8520 H     1 <1>   0.1500 
 21 H       -4.9410    -0.9630    -0.1550 H     1 <1>   0.0800 
 22 H       -4.9520     0.0170    -1.6040 H     1 <1>   0.0800 
 23 H       -6.1860     0.8320     0.9130 H     1 <1>   0.4500 
 24 H       -7.1860    -1.2690     0.0010 H     1 <1>   0.0800 
 25 H       -7.5950    -0.3820    -1.4240 H     1 <1>   0.0800 
 26 H       -7.0370     1.8330    -1.7030 H     1 <1>   0.0800 
 27 H       -5.5480     2.4140    -1.0230 H     1 <1>   0.0800 
 28 H       -8.7890    -0.1630     1.3290 H     1 <1>   0.0800 
 29 H       -9.5740    -0.5750    -0.1540 H     1 <1>   0.0800 
 30 H       -7.5870     3.7880    -0.5240 H     1 <1>   0.0800 
 31 H       -6.5590     3.4160     0.7960 H     1 <1>   0.0800 
 32 H       -9.3070     1.7940    -0.8660 H     1 <1>   0.4500 
 33 H       -9.0540     3.3250     1.1940 H     1 <1>   0.0800 
 34 H       -8.1200     1.9980     1.8140 H     1 <1>   0.0800 
 35 H      -10.7940     1.3540     1.6430 H     1 <1>   0.0800 
 36 H      -11.3570     0.9590     0.0320 H     1 <1>   0.0800 
 37 H      -11.0810     2.6270     0.4770 H     1 <1>   0.0800 
@<TRIPOS>BOND
  1   1   2  1   
  2   2   3  ar  
  3   2   4  ar  
  4   3   5  1   
  5   3   6  ar  
  6   4   7  ar  
  7   4  18  1   
  8   6   8  ar  
  9   6  19  1   
 10   7   8  ar  
 11   7   9  1   
 12   8  20  1   
 13   9  10  1   
 14   9  21  1   
 15   9  22  1   
 16  10  11  1   
 17  10  12  1   
 18  10  23  1   
 19  11  13  1   
 20  11  24  1   
 21  11  25  1   
 22  12  14  1   
 23  12  26  1   
 24  12  27  1   
 25  13  15  1   
 26  13  28  1   
 27  13  29  1   
 28  14  16  1   
 29  14  30  1   
 30  14  31  1   
 31  15  16  1   
 32  15  17  1   
 33  15  32  1   
 34  16  33  1   
 35  16  34  1   
 36  17  35  1   
 37  17  36  1   
 38  17  37  1   
@<TRIPOS>SUBSTRUCTURE
  1 ****  10 GROUP 4 **** **** 0

# MOE 2024.06 (io_trps.svl 2023.06)
