@<TRIPOS>MOLECULE
NONAME
43 45 1 0 0 
SMALL
USER_CHARGES


@<TRIPOS>ATOM
  1 N       -0.1530     0.1760     0.1580 N.pl3 1 <1>  -0.8410 
  2 C       -1.2090     0.7790     0.6000 C.cat 1 <1>   1.2010 
  3 C        1.1640     0.7260     0.0700 C.3   1 <1>   0.6600 
  4 N       -1.1190     2.0100     1.0210 N.pl3 1 <1>  -0.9140 
  5 N       -2.3690     0.1790     0.6310 N.pl3 1 <1>  -0.8240 
  6 N        1.0810     2.0690     0.5710 N.pl3 1 <1>  -0.8410 
  7 C        1.6210     0.7510    -1.3920 C.3   1 <1>  -0.1510 
  8 C        2.1270    -0.0880     0.9410 C.3   1 <1>  -0.1510 
  9 C        0.0140     2.6460     1.0070 C.cat 1 <1>   1.2010 
 10 C       -2.6490    -1.1330     0.2370 C.ar  1 <1>   0.3190 
 11 C        3.0820     1.2140    -1.5530 C.3   1 <1>  -0.1510 
 12 C        3.5920     0.3680     0.7980 C.3   1 <1>  -0.1510 
 13 N        0.0460     3.8600     1.4360 N.pl3 1 <1>  -0.9640 
 14 C       -3.1810    -1.3850    -1.0190 C.ar  1 <1>  -0.1410 
 15 C       -2.3780    -2.1950     1.0860 C.ar  1 <1>  -0.1410 
 16 C        4.0300     0.3840    -0.6740 C.3   1 <1>  -0.1510 
 17 C       -3.4230    -2.6850    -1.4260 C.ar  1 <1>  -0.1410 
 18 C       -2.6200    -3.4950     0.6790 C.ar  1 <1>  -0.1410 
 19 C       -3.1420    -3.7460    -0.5790 C.ar  1 <1>  -0.1340 
 20 C       -3.4100    -5.1730    -1.0270 C.3   1 <1>  -0.0870 
 21 H       -0.2450    -0.7820    -0.1740 H     1 <1>   0.4570 
 22 H       -1.9340     2.4800     1.3730 H     1 <1>   0.4570 
 23 H       -3.1840     0.6900     0.9620 H     1 <1>   0.4570 
 24 H        1.9720     2.5550     0.5540 H     1 <1>   0.4570 
 25 H        0.9760     1.3840    -1.9770 H     1 <1>   0.0900 
 26 H        1.5510    -0.2460    -1.7950 H     1 <1>   0.0900 
 27 H        2.0780    -1.1210     0.6400 H     1 <1>   0.0900 
 28 H        1.8330    -0.0370     1.9750 H     1 <1>   0.0900 
 29 H        3.1780     2.2570    -1.3040 H     1 <1>   0.0900 
 30 H        3.3790     1.1090    -2.5850 H     1 <1>   0.0900 
 31 H        4.2310    -0.3050     1.3470 H     1 <1>   0.0900 
 32 H        3.7260     1.3470     1.2260 H     1 <1>   0.0900 
 33 H        0.8990     4.4190     1.4540 H     1 <1>   0.4570 
 34 H       -0.7610     4.3690     1.7910 H     1 <1>   0.4570 
 35 H       -3.4100    -0.5730    -1.6860 H     1 <1>   0.1590 
 36 H       -1.9840    -2.0170     2.0710 H     1 <1>   0.1590 
 37 H        5.0300     0.7800    -0.7480 H     1 <1>   0.0900 
 38 H        4.0640    -0.6280    -1.0450 H     1 <1>   0.0900 
 39 H       -3.8350    -2.8730    -2.4050 H     1 <1>   0.1590 
 40 H       -2.4060    -4.3150     1.3460 H     1 <1>   0.1590 
 41 H       -4.2430    -5.2070    -1.7060 H     1 <1>   0.0900 
 42 H       -3.6410    -5.7990    -0.1830 H     1 <1>   0.0900 
 43 H       -2.5430    -5.5710    -1.5240 H     1 <1>   0.0900 
@<TRIPOS>BOND
  1   1   2  ar  
  2   1   3  1   
  3   1  21  1   
  4   2   4  ar  
  5   2   5  ar  
  6   3   6  1   
  7   3   7  1   
  8   3   8  1   
  9   4   9  ar  
 10   4  22  1   
 11   5  10  1   
 12   5  23  1   
 13   6   9  ar  
 14   6  24  1   
 15   7  11  1   
 16   7  25  1   
 17   7  26  1   
 18   8  12  1   
 19   8  27  1   
 20   8  28  1   
 21   9  13  ar  
 22  10  14  ar  
 23  10  15  ar  
 24  11  16  1   
 25  11  29  1   
 26  11  30  1   
 27  12  16  1   
 28  12  31  1   
 29  12  32  1   
 30  13  33  1   
 31  13  34  1   
 32  14  17  ar  
 33  14  35  1   
 34  15  18  ar  
 35  15  36  1   
 36  16  37  1   
 37  16  38  1   
 38  17  19  ar  
 39  17  39  1   
 40  18  19  ar  
 41  18  40  1   
 42  19  20  1   
 43  20  41  1   
 44  20  42  1   
 45  20  43  1   
@<TRIPOS>SUBSTRUCTURE
  1 ****   1 GROUP 4 **** **** 0

# MOE 2024.06 (io_trps.svl 2023.06)
