@<TRIPOS>MOLECULE
NONAME
31 31 1 0 0 
SMALL
USER_CHARGES


@<TRIPOS>ATOM
  1 S       -0.0520    -0.3460    -0.1190 S.3   1 <1>  -0.0800 
  2 C        0.6920     1.1440     0.4440 C.2   1 <1>   0.1040 
  3 C       -1.6600     0.3550    -0.0740 C.2   1 <1>  -0.1400 
  4 N        2.0620     1.2280     0.6600 N.am  1 <1>  -0.4940 
  5 C       -0.2600     2.1090     0.6240 C.2   1 <1>  -0.0860 
  6 C       -1.5900     1.6320     0.3360 C.2   1 <1>  -0.1500 
  7 C       -2.8290    -0.5260    -0.4760 C.3   1 <1>   0.0200 
  8 C        3.1500     0.4340     0.4410 C.2   1 <1>   0.5690 
  9 C        0.0160     3.4490     1.0660 C.2   1 <1>   0.8060 
 10 C       -3.0740    -1.6230     0.5630 C.3   1 <1>  -0.2400 
 11 O        4.2340     0.8150     0.7930 O.2   1 <1>  -0.5700 
 12 C        3.0600    -0.9090    -0.2450 C.3   1 <1>  -0.1790 
 13 O        1.0410     3.7600     1.6370 O.2   1 <1>  -0.5700 
 14 O       -0.8760     4.4180     0.8610 O.3   1 <1>  -0.4300 
 15 C       -1.2170     4.7970    -0.4520 C.3   1 <1>   0.1200 
 16 C       -2.3710     5.7900    -0.3690 C.3   1 <1>  -0.2400 
 17 H        2.3550     2.1010     1.1160 H     1 <1>   0.3700 
 18 H       -2.4430     2.2770     0.4600 H     1 <1>   0.1500 
 19 H       -2.6290    -0.9690    -1.4360 H     1 <1>   0.0800 
 20 H       -3.7130     0.0790    -0.5660 H     1 <1>   0.0800 
 21 H       -2.2170    -2.2690     0.6380 H     1 <1>   0.0800 
 22 H       -3.9260    -2.2150     0.2800 H     1 <1>   0.0800 
 23 H       -3.2630    -1.1850     1.5270 H     1 <1>   0.0800 
 24 H        2.5040    -1.5940     0.3660 H     1 <1>   0.0800 
 25 H        4.0480    -1.3060    -0.3920 H     1 <1>   0.0800 
 26 H        2.5890    -0.8020    -1.2030 H     1 <1>   0.0800 
 27 H       -1.5040     3.9280    -1.0190 H     1 <1>   0.0800 
 28 H       -0.3530     5.2540    -0.9050 H     1 <1>   0.0800 
 29 H       -3.2260     5.3310     0.0960 H     1 <1>   0.0800 
 30 H       -2.6490     6.1110    -1.3560 H     1 <1>   0.0800 
 31 H       -2.0750     6.6540     0.2000 H     1 <1>   0.0800 
@<TRIPOS>BOND
  1   1   2  1   
  2   1   3  1   
  3   2   4  1   
  4   2   5  2   
  5   3   6  2   
  6   3   7  1   
  7   4   8  am  
  8   4  17  1   
  9   5   6  1   
 10   5   9  1   
 11   6  18  1   
 12   7  10  1   
 13   7  19  1   
 14   7  20  1   
 15   8  11  2   
 16   8  12  1   
 17   9  13  2   
 18   9  14  1   
 19  10  21  1   
 20  10  22  1   
 21  10  23  1   
 22  12  24  1   
 23  12  25  1   
 24  12  26  1   
 25  14  15  1   
 26  15  16  1   
 27  15  27  1   
 28  15  28  1   
 29  16  29  1   
 30  16  30  1   
 31  16  31  1   
@<TRIPOS>SUBSTRUCTURE
  1 ****   5 GROUP 4 **** **** 0

# MOE 2024.06 (io_trps.svl 2023.06)
