@<TRIPOS>MOLECULE
NONAME
44 46 1 0 0 
SMALL
USER_CHARGES


@<TRIPOS>ATOM
  1 O        0.1510    -1.6310     2.8550 O.2   1 <1>  -0.5700 
  2 C       -0.1100    -1.7100     1.6690 C.2   1 <1>   0.5440 
  3 N        0.8910    -1.5040     0.7500 N.am  1 <1>  -0.5470 
  4 C       -1.4690    -2.0080     1.2390 C.ar  1 <1>   0.0860 
  5 C        2.2440    -1.1490     0.8730 C.ar  1 <1>   0.1170 
  6 C       -1.8130    -2.5260    -0.0270 C.ar  1 <1>   0.0830 
  7 C       -2.5190    -1.7690     2.1320 C.ar  1 <1>  -0.1500 
  8 C        3.1710    -1.5780    -0.0840 C.ar  1 <1>  -0.1440 
  9 C        2.6790    -0.3420     1.9190 C.ar  1 <1>  -0.1500 
 10 O       -0.8210    -2.7920    -0.9190 O.3   1 <1>  -0.3630 
 11 C       -3.1470    -2.7680    -0.3560 C.ar  1 <1>  -0.1500 
 12 C       -3.8350    -2.0130     1.8030 C.ar  1 <1>  -0.1500 
 13 C        4.5030    -1.1830     0.0140 C.ar  1 <1>  -0.1430 
 14 C        2.7040    -2.4700    -1.2390 C.3   1 <1>  -0.0170 
 15 C        4.0010     0.0400     2.0190 C.ar  1 <1>  -0.1500 
 16 C       -1.0390    -3.4420    -2.1550 C.3   1 <1>   0.0400 
 17 C       -4.1620    -2.5130     0.5560 C.ar  1 <1>   0.0830 
 18 C        4.9090    -0.3780     1.0670 C.ar  1 <1>  -0.1500 
 19 C        5.5610    -1.6140    -0.9960 C.3   1 <1>  -0.0170 
 20 C        3.8510    -3.1360    -2.0090 C.3   1 <1>  -0.1600 
 21 O       -5.4750    -2.7220     0.3090 O.3   1 <1>  -0.3630 
 22 C        4.9540    -2.1210    -2.3070 C.3   1 <1>  -0.1600 
 23 C       -5.9380    -3.2320    -0.9210 C.3   1 <1>   0.0400 
 24 H        0.6080    -1.7710    -0.1940 H     1 <1>   0.3700 
 25 H       -2.2940    -1.3790     3.1110 H     1 <1>   0.1500 
 26 H        1.9770    -0.0060     2.6590 H     1 <1>   0.1500 
 27 H       -3.4040    -3.1530    -1.3190 H     1 <1>   0.1500 
 28 H       -4.6220    -1.8190     2.5110 H     1 <1>   0.1500 
 29 H        2.1340    -1.8640    -1.9200 H     1 <1>   0.0800 
 30 H        2.0620    -3.2470    -0.8630 H     1 <1>   0.0800 
 31 H        4.3200     0.6620     2.8360 H     1 <1>   0.1500 
 32 H       -0.0860    -3.5880    -2.6310 H     1 <1>   0.0800 
 33 H       -1.6630    -2.8210    -2.7730 H     1 <1>   0.0800 
 34 H       -1.5030    -4.3960    -1.9720 H     1 <1>   0.0800 
 35 H        5.9380    -0.0760     1.1520 H     1 <1>   0.1500 
 36 H        6.1490    -2.3980    -0.5520 H     1 <1>   0.0800 
 37 H        6.2180    -0.7890    -1.2090 H     1 <1>   0.0800 
 38 H        3.4750    -3.5530    -2.9270 H     1 <1>   0.0800 
 39 H        4.2560    -3.9390    -1.4170 H     1 <1>   0.0800 
 40 H        5.7230    -2.5750    -2.9070 H     1 <1>   0.0800 
 41 H        4.5440    -1.2910    -2.8560 H     1 <1>   0.0800 
 42 H       -7.0090    -3.3080    -0.8680 H     1 <1>   0.0800 
 43 H       -5.5110    -4.2070    -1.0780 H     1 <1>   0.0800 
 44 H       -5.6590    -2.5550    -1.7080 H     1 <1>   0.0800 
@<TRIPOS>BOND
  1   1   2  2   
  2   2   3  am  
  3   2   4  1   
  4   3   5  1   
  5   3  24  1   
  6   4   6  ar  
  7   4   7  ar  
  8   5   8  ar  
  9   5   9  ar  
 10   6  10  1   
 11   6  11  ar  
 12   7  12  ar  
 13   7  25  1   
 14   8  13  ar  
 15   8  14  1   
 16   9  15  ar  
 17   9  26  1   
 18  10  16  1   
 19  11  17  ar  
 20  11  27  1   
 21  12  17  ar  
 22  12  28  1   
 23  13  18  ar  
 24  13  19  1   
 25  14  20  1   
 26  14  29  1   
 27  14  30  1   
 28  15  18  ar  
 29  15  31  1   
 30  16  32  1   
 31  16  33  1   
 32  16  34  1   
 33  17  21  1   
 34  18  35  1   
 35  19  22  1   
 36  19  36  1   
 37  19  37  1   
 38  20  22  1   
 39  20  38  1   
 40  20  39  1   
 41  21  23  1   
 42  22  40  1   
 43  22  41  1   
 44  23  42  1   
 45  23  43  1   
 46  23  44  1   
@<TRIPOS>SUBSTRUCTURE
  1 ****   3 GROUP 4 **** **** 0

# MOE 2024.06 (io_trps.svl 2023.06)
