@<TRIPOS>MOLECULE
NONAME
46 47 1 0 0 
SMALL
USER_CHARGES


@<TRIPOS>ATOM
  1 S        0.4180     0.3300    -1.4200 S.o2  1 <1>   1.4470 
  2 O        1.1540    -0.6170    -2.2270 O.2   1 <1>  -0.6500 
  3 O       -0.2680     1.4290    -2.0670 O.2   1 <1>  -0.6500 
  4 N       -0.7470    -0.5360    -0.5460 N.am  1 <1>  -0.8490 
  5 C        1.5140     0.9710    -0.1230 C.ar  1 <1>  -0.0090 
  6 C       -1.5030    -1.4390    -1.4190 C.3   1 <1>   0.1960 
  7 C       -1.6480     0.3490     0.2000 C.3   1 <1>   0.1960 
  8 C        1.7540     2.3330     0.0100 C.ar  1 <1>  -0.1500 
  9 C        2.1320     0.1100     0.7740 C.ar  1 <1>  -0.1500 
 10 C       -2.4410    -2.3210    -0.5880 C.3   1 <1>  -0.1600 
 11 C       -2.5780    -0.4750     1.0950 C.3   1 <1>  -0.1600 
 12 C        2.5880     2.8580     0.9990 C.ar  1 <1>   0.0860 
 13 C        2.9580     0.5950     1.7710 C.ar  1 <1>  -0.1500 
 14 C       -3.3940    -1.4780     0.2700 C.3   1 <1>  -0.0800 
 15 C        2.8340     4.2850     1.1180 C.2   1 <1>   0.5440 
 16 C        3.1780     1.9540     1.8800 C.ar  1 <1>  -0.1500 
 17 C       -4.2450    -2.3710     1.1800 C.3   1 <1>  -0.2400 
 18 O        3.0920     4.7770     2.1990 O.2   1 <1>  -0.5700 
 19 N        2.7880     5.0940     0.0170 N.am  1 <1>  -0.7300 
 20 C        3.0040     6.5460     0.0110 C.3   1 <1>   0.2200 
 21 C        1.7940     7.2030    -0.6430 C.3   1 <1>  -0.2400 
 22 C        4.2810     6.8340    -0.7690 C.3   1 <1>  -0.2400 
 23 H       -0.8250    -2.0770    -1.9610 H     1 <1>   0.0800 
 24 H       -2.0700    -0.8660    -2.1360 H     1 <1>   0.0800 
 25 H       -2.2330     0.9430    -0.4840 H     1 <1>   0.0800 
 26 H       -1.0730     1.0170     0.8190 H     1 <1>   0.0800 
 27 H        1.2690     3.0080    -0.6750 H     1 <1>   0.1500 
 28 H        1.9600    -0.9510     0.6890 H     1 <1>   0.1500 
 29 H       -1.8430    -2.9580     0.0400 H     1 <1>   0.0800 
 30 H       -3.0090    -2.9510    -1.2500 H     1 <1>   0.0800 
 31 H       -3.2420     0.1890     1.6200 H     1 <1>   0.0800 
 32 H       -1.9820    -0.9930     1.8260 H     1 <1>   0.0800 
 33 H        3.4270    -0.0850     2.4620 H     1 <1>   0.1500 
 34 H       -4.0520    -0.9310    -0.3850 H     1 <1>   0.0800 
 35 H        3.8190     2.3310     2.6600 H     1 <1>   0.1500 
 36 H       -3.6210    -2.9350     1.8500 H     1 <1>   0.0800 
 37 H       -4.8250    -3.0590     0.5900 H     1 <1>   0.0800 
 38 H       -4.9210    -1.7720     1.7630 H     1 <1>   0.0800 
 39 H        2.6750     4.6790    -0.9060 H     1 <1>   0.3700 
 40 H        3.1080     6.9090     1.0210 H     1 <1>   0.0800 
 41 H        1.6700     6.8610    -1.6550 H     1 <1>   0.0800 
 42 H        1.9210     8.2700    -0.6550 H     1 <1>   0.0800 
 43 H        0.9070     6.9770    -0.0790 H     1 <1>   0.0800 
 44 H        4.2000     6.4860    -1.7830 H     1 <1>   0.0800 
 45 H        5.1150     6.3530    -0.2910 H     1 <1>   0.0800 
 46 H        4.4680     7.8930    -0.7830 H     1 <1>   0.0800 
@<TRIPOS>BOND
  1   1   2  2   
  2   1   3  2   
  3   1   4  am  
  4   1   5  1   
  5   4   6  1   
  6   4   7  1   
  7   5   8  ar  
  8   5   9  ar  
  9   6  10  1   
 10   6  23  1   
 11   6  24  1   
 12   7  11  1   
 13   7  25  1   
 14   7  26  1   
 15   8  12  ar  
 16   8  27  1   
 17   9  13  ar  
 18   9  28  1   
 19  10  14  1   
 20  10  29  1   
 21  10  30  1   
 22  11  14  1   
 23  11  31  1   
 24  11  32  1   
 25  12  15  1   
 26  12  16  ar  
 27  13  16  ar  
 28  13  33  1   
 29  14  17  1   
 30  14  34  1   
 31  15  18  2   
 32  15  19  am  
 33  16  35  1   
 34  17  36  1   
 35  17  37  1   
 36  17  38  1   
 37  19  20  1   
 38  19  39  1   
 39  20  21  1   
 40  20  22  1   
 41  20  40  1   
 42  21  41  1   
 43  21  42  1   
 44  21  43  1   
 45  22  44  1   
 46  22  45  1   
 47  22  46  1   
@<TRIPOS>SUBSTRUCTURE
  1 ****   5 GROUP 4 **** **** 0

# MOE 2024.06 (io_trps.svl 2023.06)
