@<TRIPOS>MOLECULE
NONAME
48 50 1 0 0 
SMALL
USER_CHARGES


@<TRIPOS>ATOM
  1 S       -0.3320    -0.7740     0.0020 S.3   1 <1>  -0.0800 
  2 C        1.1010     0.1610     0.4210 C.2   1 <1>   0.1040 
  3 C       -1.3580     0.6660    -0.0740 C.2   1 <1>  -0.0450 
  4 N        2.3200    -0.4940     0.5930 N.am  1 <1>  -0.4940 
  5 C        0.7980     1.4960     0.5090 C.2   1 <1>  -0.0860 
  6 C       -2.7420     0.6030    -0.3740 C.2   1 <1>   0.4740 
  7 C       -0.5850     1.7560     0.2050 C.2   1 <1>  -0.1810 
  8 C        2.6780    -1.8060     0.7380 C.2   1 <1>   0.5690 
  9 C        1.7510     2.5100     0.8860 C.2   1 <1>   0.8060 
 10 N       -3.4030    -0.5070    -0.6140 N.2   1 <1>  -0.8000 
 11 C       -3.4440     1.9680    -0.3680 C.3   1 <1>  -0.0990 
 12 C       -1.2280     3.1390     0.1830 C.3   1 <1>   0.0210 
 13 O        1.9080    -2.7310     0.8170 O.2   1 <1>  -0.5700 
 14 C        4.1760    -2.1030     0.8320 C.3   1 <1>   0.1710 
 15 O        1.4550     3.6220     1.2830 O.2   1 <1>  -0.5700 
 16 O        3.0550     2.2080     0.8040 O.3   1 <1>  -0.4300 
 17 O       -4.6070    -0.3730    -0.8100 O.3   1 <1>  -0.6500 
 18 C       -2.4970     3.1440    -0.6850 C.3   1 <1>  -0.1600 
 19 N        5.0540    -1.1270     0.1200 N.3   1 <1>  -0.8100 
 20 C        4.0550     3.1220     1.1950 C.3   1 <1>   0.1200 
 21 C        4.8790    -1.2420    -1.3470 C.3   1 <1>   0.1100 
 22 C        6.4710    -1.3830     0.4550 C.3   1 <1>   0.1100 
 23 C        5.4080     2.4570     0.9750 C.3   1 <1>  -0.2400 
 24 C        5.8670    -0.3360    -2.1030 C.3   1 <1>   0.1200 
 25 C        7.4180    -0.4790    -0.3570 C.3   1 <1>   0.1200 
 26 O        7.1820    -0.6250    -1.7270 O.3   1 <1>  -0.5600 
 27 H        3.1470     0.1160     0.5810 H     1 <1>   0.3700 
 28 H       -4.2330     1.9670    -1.0970 H     1 <1>   0.0800 
 29 H       -3.8920     2.0940     0.5990 H     1 <1>   0.0800 
 30 H       -1.4720     3.4260     1.1910 H     1 <1>   0.0800 
 31 H       -0.5460     3.8650    -0.2220 H     1 <1>   0.0800 
 32 H        4.3490    -3.0950     0.4510 H     1 <1>   0.0800 
 33 H        4.4290    -2.1070     1.8770 H     1 <1>   0.0800 
 34 H       -2.2040     3.0620    -1.7170 H     1 <1>   0.0800 
 35 H       -3.0220     4.0750    -0.5630 H     1 <1>   0.0800 
 36 H        3.9600     4.0130     0.5970 H     1 <1>   0.0800 
 37 H        3.9080     3.3650     2.2340 H     1 <1>   0.0800 
 38 H        5.0380    -2.2600    -1.6620 H     1 <1>   0.0800 
 39 H        3.8750    -0.9640    -1.6210 H     1 <1>   0.0800 
 40 H        6.6290    -1.2020     1.5040 H     1 <1>   0.0800 
 41 H        6.7200    -2.4100     0.2500 H     1 <1>   0.0800 
 42 H        5.5430     2.2330    -0.0670 H     1 <1>   0.0800 
 43 H        5.4760     1.5510     1.5510 H     1 <1>   0.0800 
 44 H        6.1930     3.1210     1.2860 H     1 <1>   0.0800 
 45 H        5.6670     0.7000    -1.8960 H     1 <1>   0.0800 
 46 H        5.7860    -0.5000    -3.1630 H     1 <1>   0.0800 
 47 H        8.4410    -0.7510    -0.1710 H     1 <1>   0.0800 
 48 H        7.2810     0.5530    -0.0910 H     1 <1>   0.0800 
@<TRIPOS>BOND
  1   1   2  1   
  2   1   3  1   
  3   2   4  1   
  4   2   5  2   
  5   3   6  1   
  6   3   7  2   
  7   4   8  am  
  8   4  27  1   
  9   5   7  1   
 10   5   9  1   
 11   6  10  2   
 12   6  11  1   
 13   7  12  1   
 14   8  13  2   
 15   8  14  1   
 16   9  15  2   
 17   9  16  1   
 18  10  17  1   
 19  11  18  1   
 20  11  28  1   
 21  11  29  1   
 22  12  18  1   
 23  12  30  1   
 24  12  31  1   
 25  14  19  1   
 26  14  32  1   
 27  14  33  1   
 28  16  20  1   
 29  18  34  1   
 30  18  35  1   
 31  19  21  1   
 32  19  22  1   
 33  20  23  1   
 34  20  36  1   
 35  20  37  1   
 36  21  24  1   
 37  21  38  1   
 38  21  39  1   
 39  22  25  1   
 40  22  40  1   
 41  22  41  1   
 42  23  42  1   
 43  23  43  1   
 44  23  44  1   
 45  24  26  1   
 46  24  45  1   
 47  24  46  1   
 48  25  26  1   
 49  25  47  1   
 50  25  48  1   
@<TRIPOS>SUBSTRUCTURE
  1 ****   2 GROUP 4 **** **** 0

# MOE 2024.06 (io_trps.svl 2023.06)
