@<TRIPOS>MOLECULE
NONAME
28 28 1 0 0 
SMALL
USER_CHARGES


@<TRIPOS>ATOM
  1 S       -0.0670     0.2090     0.0350 S.3   1 <1>  -0.0800 
  2 C        1.1040    -1.0880     0.0460 C.2   1 <1>   0.1040 
  3 C       -1.4580    -0.8820     0.0170 C.2   1 <1>  -0.0450 
  4 N        2.4220    -0.6470     0.0620 N.am  1 <1>  -0.4940 
  5 C        0.4460    -2.2840     0.0370 C.2   1 <1>   0.0190 
  6 C       -0.9810    -2.1630     0.0200 C.2   1 <1>  -0.1810 
  7 C       -2.7670    -0.2810     0.0020 C.2   1 <1>   0.8050 
  8 C        3.6760    -1.1790     0.0760 C.2   1 <1>   0.6900 
  9 C        1.0900    -3.5580     0.0420 C.1   1 <1>   0.5380 
 10 C       -1.8530    -3.4190     0.0080 C.3   1 <1>  -0.0590 
 11 O       -3.8020    -0.9190    -0.0110 O.2   1 <1>  -0.5700 
 12 O       -2.8470     1.0540     0.0030 O.3   1 <1>  -0.4300 
 13 O        4.6080    -0.4110     0.0880 O.2   1 <1>  -0.5700 
 14 N        3.9400    -2.4920     0.0780 N.am  1 <1>  -0.8000 
 15 N        1.6490    -4.5530     0.0470 N.1   1 <1>  -0.5570 
 16 C       -4.0860     1.7260    -0.0100 C.3   1 <1>   0.1200 
 17 C       -3.8090     3.2250    -0.0040 C.3   1 <1>  -0.2400 
 18 H        2.5200     0.3690     0.0650 H     1 <1>   0.3700 
 19 H       -2.9000    -3.1870    -0.0040 H     1 <1>   0.0800 
 20 H       -1.6590    -4.0140     0.8830 H     1 <1>   0.0800 
 21 H       -1.6390    -4.0110    -0.8650 H     1 <1>   0.0800 
 22 H        4.9150    -2.7870     0.0890 H     1 <1>   0.3700 
 23 H        3.2500    -3.2440     0.0680 H     1 <1>   0.3700 
 24 H       -4.6450     1.4330     0.8640 H     1 <1>   0.0800 
 25 H       -4.6240     1.4360    -0.8970 H     1 <1>   0.0800 
 26 H       -3.2630     3.4990     0.8810 H     1 <1>   0.0800 
 27 H       -4.7380     3.7660    -0.0140 H     1 <1>   0.0800 
 28 H       -3.2430     3.5020    -0.8760 H     1 <1>   0.0800 
@<TRIPOS>BOND
  1   1   2  1   
  2   1   3  1   
  3   2   4  1   
  4   2   5  2   
  5   3   6  2   
  6   3   7  1   
  7   4   8  am  
  8   4  18  1   
  9   5   6  1   
 10   5   9  1   
 11   6  10  1   
 12   7  11  2   
 13   7  12  1   
 14   8  13  2   
 15   8  14  am  
 16   9  15  3   
 17  10  19  1   
 18  10  20  1   
 19  10  21  1   
 20  12  16  1   
 21  14  22  1   
 22  14  23  1   
 23  16  17  1   
 24  16  24  1   
 25  16  25  1   
 26  17  26  1   
 27  17  27  1   
 28  17  28  1   
@<TRIPOS>SUBSTRUCTURE
  1 ****   1 GROUP 4 **** **** 0

# MOE 2024.06 (io_trps.svl 2023.06)
