@<TRIPOS>MOLECULE
NONAME
32 32 1 0 0 
SMALL
USER_CHARGES


@<TRIPOS>ATOM
  1 CL       0.0400    -0.2250     1.1740 Cl    1 <1>  -0.1770 
  2 C        0.1920     1.3940     0.5330 C.ar  1 <1>   0.1770 
  3 C       -0.8990     2.0420    -0.0230 C.ar  1 <1>   0.1770 
  4 C        1.4230     2.0210     0.5890 C.ar  1 <1>  -0.1500 
  5 CL      -2.4630     1.2610    -0.1000 Cl    1 <1>  -0.1770 
  6 C       -0.7680     3.3230    -0.5270 C.ar  1 <1>  -0.1500 
  7 C        1.5650     3.3060     0.0850 C.ar  1 <1>   0.0830 
  8 C        0.4640     3.9580    -0.4740 C.ar  1 <1>  -0.1500 
  9 O        2.8020     3.8560     0.1750 O.3   1 <1>  -0.3630 
 10 C        3.0730     5.1570    -0.2900 C.3   1 <1>   0.1200 
 11 C        4.5610     5.4290    -0.0410 C.3   1 <1>   0.3430 
 12 N        4.9760     6.8010    -0.4630 N.4   1 <1>  -0.9060 
 13 C        4.4640     7.9160     0.3850 C.3   1 <1>   0.3430 
 14 C        5.4180     9.1130     0.2540 C.3   1 <1>   0.1200 
 15 O        6.7210     8.6190     0.1110 O.3   1 <1>  -0.5600 
 16 C        7.7010     9.6130     0.0730 C.3   1 <1>   0.0400 
 17 H        2.2640     1.5110     1.0210 H     1 <1>   0.1500 
 18 H       -1.6260     3.8130    -0.9560 H     1 <1>   0.1500 
 19 H        0.5390     4.9510    -0.8740 H     1 <1>   0.1500 
 20 H        2.4530     5.8410     0.2630 H     1 <1>   0.0800 
 21 H        2.8470     5.1910    -1.3410 H     1 <1>   0.0800 
 22 H        5.1350     4.7000    -0.5910 H     1 <1>   0.0800 
 23 H        4.7690     5.2980     1.0090 H     1 <1>   0.0800 
 24 H        4.7930     6.9770    -1.4570 H     1 <1>   0.4500 
 25 H        6.0070     6.9030    -0.3680 H     1 <1>   0.4500 
 26 H        4.4530     7.6090     1.4180 H     1 <1>   0.0800 
 27 H        3.4620     8.1960     0.1040 H     1 <1>   0.0800 
 28 H        5.3640     9.7360     1.1310 H     1 <1>   0.0800 
 29 H        5.1750     9.6980    -0.6170 H     1 <1>   0.0800 
 30 H        8.6610     9.1390    -0.0450 H     1 <1>   0.0800 
 31 H        7.6880    10.1670     0.9960 H     1 <1>   0.0800 
 32 H        7.5190    10.2680    -0.7630 H     1 <1>   0.0800 
@<TRIPOS>BOND
  1   1   2  1   
  2   2   3  ar  
  3   2   4  ar  
  4   3   5  1   
  5   3   6  ar  
  6   4   7  ar  
  7   4  17  1   
  8   6   8  ar  
  9   6  18  1   
 10   7   8  ar  
 11   7   9  1   
 12   8  19  1   
 13   9  10  1   
 14  10  11  1   
 15  10  20  1   
 16  10  21  1   
 17  11  12  1   
 18  11  22  1   
 19  11  23  1   
 20  12  13  1   
 21  12  24  1   
 22  12  25  1   
 23  13  14  1   
 24  13  26  1   
 25  13  27  1   
 26  14  15  1   
 27  14  28  1   
 28  14  29  1   
 29  15  16  1   
 30  16  30  1   
 31  16  31  1   
 32  16  32  1   
@<TRIPOS>SUBSTRUCTURE
  1 ****   9 GROUP 4 **** **** 0

# MOE 2024.06 (io_trps.svl 2023.06)
