@<TRIPOS>MOLECULE
NONAME
44 47 1 0 0 
SMALL
USER_CHARGES


@<TRIPOS>ATOM
  1 O       -3.5160    -1.7130    -1.0820 O.co2 1 <1>  -0.9000 
  2 C       -3.0210    -1.5170     0.0350 C.2   1 <1>   0.9060 
  3 O       -2.6670    -2.4470     0.7610 O.co2 1 <1>  -0.9000 
  4 C       -2.8640    -0.0930     0.5510 C.3   1 <1>  -0.1860 
  5 C       -4.1210     0.5710     1.2140 C.3   1 <1>  -0.0190 
  6 C       -2.2130     0.8860    -0.4640 C.3   1 <1>  -0.0800 
  7 C       -5.5280    -0.0160     1.0000 C.2   1 <1>   0.5690 
  8 C       -4.1320     2.0860     0.8670 C.3   1 <1>  -0.0800 
  9 C       -3.2810     1.4460    -1.4280 C.3   1 <1>  -0.1600 
 10 C       -1.6480     2.0760     0.3410 C.3   1 <1>  -0.1600 
 11 O       -6.3450     0.2020     1.8670 O.2   1 <1>  -0.5700 
 12 N       -5.8510    -0.6930    -0.1410 N.am  1 <1>  -0.5470 
 13 C       -4.3440     2.2570    -0.6530 C.3   1 <1>  -0.1600 
 14 C       -2.7590     2.7010     1.2170 C.3   1 <1>  -0.1600 
 15 C       -7.0620    -1.2180    -0.6090 C.ar  1 <1>   0.1170 
 16 C       -8.3030    -0.7000    -0.2550 C.ar  1 <1>  -0.1500 
 17 C       -7.0090    -2.2950    -1.4860 C.ar  1 <1>  -0.1500 
 18 C       -9.4650    -1.2470    -0.7690 C.ar  1 <1>   0.0820 
 19 C       -8.1660    -2.8480    -2.0090 C.ar  1 <1>  -0.1500 
 20 O      -10.6630    -0.7230    -0.3960 O.3   1 <1>  -0.3620 
 21 C       -9.3970    -2.3230    -1.6590 C.ar  1 <1>   0.0820 
 22 C      -11.8110    -1.5010    -0.6700 C.3   1 <1>   0.1200 
 23 O      -10.5230    -2.8680    -2.1970 O.3   1 <1>  -0.3630 
 24 C      -11.7120    -2.1110    -2.0750 C.3   1 <1>   0.1200 
 25 H       -2.1440    -0.2080     1.3410 H     1 <1>   0.0800 
 26 H       -3.9630     0.4930     2.2750 H     1 <1>   0.0800 
 27 H       -1.4290     0.3910    -1.0120 H     1 <1>   0.0800 
 28 H       -4.9140     2.5860     1.4130 H     1 <1>   0.0800 
 29 H       -3.7550     0.6360    -1.9540 H     1 <1>   0.0800 
 30 H       -2.8140     2.0740    -2.1660 H     1 <1>   0.0800 
 31 H       -1.2600     2.8140    -0.3390 H     1 <1>   0.0800 
 32 H       -0.8350     1.7460     0.9630 H     1 <1>   0.0800 
 33 H       -5.0240    -1.0170    -0.6790 H     1 <1>   0.3700 
 34 H       -4.2620     3.2980    -0.9100 H     1 <1>   0.0800 
 35 H       -5.3290     1.9320    -0.9380 H     1 <1>   0.0800 
 36 H       -2.5440     2.5230     2.2570 H     1 <1>   0.0800 
 37 H       -2.7840     3.7650     1.0650 H     1 <1>   0.0800 
 38 H       -8.3670     0.1310     0.4220 H     1 <1>   0.1500 
 39 H       -6.0440    -2.6980    -1.7520 H     1 <1>   0.1500 
 40 H       -8.1130    -3.6800    -2.6860 H     1 <1>   0.1500 
 41 H      -12.6710    -0.8610    -0.5900 H     1 <1>   0.0800 
 42 H      -11.8750    -2.2770     0.0720 H     1 <1>   0.0800 
 43 H      -11.6920    -1.3350    -2.8190 H     1 <1>   0.0800 
 44 H      -12.5420    -2.7660    -2.2670 H     1 <1>   0.0800 
@<TRIPOS>BOND
  1   1   2  ar  
  2   2   3  ar  
  3   2   4  1   
  4   4   5  1   
  5   4   6  1   
  6   4  25  1   
  7   5   7  1   
  8   5   8  1   
  9   5  26  1   
 10   6   9  1   
 11   6  10  1   
 12   6  27  1   
 13   7  11  2   
 14   7  12  am  
 15   8  13  1   
 16   8  14  1   
 17   8  28  1   
 18   9  13  1   
 19   9  29  1   
 20   9  30  1   
 21  10  14  1   
 22  10  31  1   
 23  10  32  1   
 24  12  15  1   
 25  12  33  1   
 26  13  34  1   
 27  13  35  1   
 28  14  36  1   
 29  14  37  1   
 30  15  16  ar  
 31  15  17  ar  
 32  16  18  ar  
 33  16  38  1   
 34  17  19  ar  
 35  17  39  1   
 36  18  20  1   
 37  18  21  ar  
 38  19  21  ar  
 39  19  40  1   
 40  20  22  1   
 41  21  23  1   
 42  22  24  1   
 43  22  41  1   
 44  22  42  1   
 45  23  24  1   
 46  24  43  1   
 47  24  44  1   
@<TRIPOS>SUBSTRUCTURE
  1 ****  12 GROUP 4 **** **** 0

# MOE 2024.06 (io_trps.svl 2023.06)
