@<TRIPOS>MOLECULE
NONAME
43 45 1 0 0 
SMALL
USER_CHARGES


@<TRIPOS>ATOM
  1 O       -0.2610     0.3440    -0.8720 O.3   1 <1>  -0.5600 
  2 C       -0.0830     1.2610     0.1770 C.3   1 <1>   0.2000 
  3 C       -1.3760    -0.4990    -0.8080 C.3   1 <1>   0.2000 
  4 C       -1.3070     2.1980     0.3250 C.3   1 <1>   0.0580 
  5 C        1.2250     2.0180    -0.1330 C.3   1 <1>  -0.1600 
  6 C       -2.6660     0.3670    -0.8270 C.3   1 <1>   0.0580 
  7 C       -1.2320    -1.5200     0.3530 C.3   1 <1>  -0.1600 
  8 C       -2.6380     1.4580     0.2430 C.2   1 <1>  -0.2760 
  9 C       -1.2450     3.3240    -0.7180 C.3   1 <1>  -0.1600 
 10 C        1.1520     3.5130     0.2140 C.3   1 <1>  -0.1600 
 11 C       -3.9700    -0.4650    -0.7520 C.3   1 <1>  -0.1600 
 12 C        0.0020    -2.4430     0.2800 C.3   1 <1>  -0.1600 
 13 C       -3.6880     1.7610     1.0150 C.2   1 <1>  -0.2880 
 14 C        0.0030     4.2120    -0.5360 C.3   1 <1>  -0.1600 
 15 C       -5.1920     0.4190    -0.4780 C.3   1 <1>  -0.1600 
 16 C        1.3080    -1.8090     0.7700 C.3   1 <1>  -0.2400 
 17 C       -5.0540     1.1110     0.8850 C.3   1 <1>  -0.0220 
 18 H        0.0400     0.7110     1.0910 H     1 <1>   0.0800 
 19 H       -1.3640    -1.0630    -1.7240 H     1 <1>   0.0800 
 20 H       -1.2540     2.6600     1.2940 H     1 <1>   0.0800 
 21 H        1.4460     1.9320    -1.1830 H     1 <1>   0.0800 
 22 H        2.0310     1.5610     0.4120 H     1 <1>   0.0800 
 23 H       -2.6760     0.8700    -1.7770 H     1 <1>   0.0800 
 24 H       -2.0750    -2.1800     0.3090 H     1 <1>   0.0800 
 25 H       -1.2880    -1.0250     1.3050 H     1 <1>   0.0800 
 26 H       -2.1330     3.9290    -0.6570 H     1 <1>   0.0800 
 27 H       -1.2200     2.8790    -1.6980 H     1 <1>   0.0800 
 28 H        2.0850     3.9920    -0.0290 H     1 <1>   0.0800 
 29 H        1.0020     3.6170     1.2750 H     1 <1>   0.0800 
 30 H       -3.9220    -1.1770     0.0480 H     1 <1>   0.0800 
 31 H       -4.1040    -1.0050    -1.6730 H     1 <1>   0.0800 
 32 H        0.1320    -2.7950    -0.7300 H     1 <1>   0.0800 
 33 H       -0.1910    -3.3050     0.8960 H     1 <1>   0.0800 
 34 H       -3.6540     2.5140     1.7840 H     1 <1>   0.1500 
 35 H       -0.2670     5.1030     0.0040 H     1 <1>   0.0800 
 36 H        0.3460     4.5170    -1.5100 H     1 <1>   0.0800 
 37 H       -6.0890    -0.1750    -0.4920 H     1 <1>   0.0800 
 38 H       -5.2710     1.1650    -1.2500 H     1 <1>   0.0800 
 39 H        1.6360    -1.0420     0.0920 H     1 <1>   0.0800 
 40 H        2.0790    -2.5560     0.8200 H     1 <1>   0.0800 
 41 H        1.1790    -1.3840     1.7490 H     1 <1>   0.0800 
 42 H       -5.8200     1.8620     0.9740 H     1 <1>   0.0800 
 43 H       -5.1840     0.4000     1.6810 H     1 <1>   0.0800 
@<TRIPOS>BOND
  1   1   2  1   
  2   1   3  1   
  3   2   4  1   
  4   2   5  1   
  5   2  18  1   
  6   3   6  1   
  7   3   7  1   
  8   3  19  1   
  9   4   8  1   
 10   4   9  1   
 11   4  20  1   
 12   5  10  1   
 13   5  21  1   
 14   5  22  1   
 15   6   8  1   
 16   6  11  1   
 17   6  23  1   
 18   7  12  1   
 19   7  24  1   
 20   7  25  1   
 21   8  13  2   
 22   9  14  1   
 23   9  26  1   
 24   9  27  1   
 25  10  14  1   
 26  10  28  1   
 27  10  29  1   
 28  11  15  1   
 29  11  30  1   
 30  11  31  1   
 31  12  16  1   
 32  12  32  1   
 33  12  33  1   
 34  13  17  1   
 35  13  34  1   
 36  14  35  1   
 37  14  36  1   
 38  15  17  1   
 39  15  37  1   
 40  15  38  1   
 41  16  39  1   
 42  16  40  1   
 43  16  41  1   
 44  17  42  1   
 45  17  43  1   
@<TRIPOS>SUBSTRUCTURE
  1 ****   8 GROUP 4 **** **** 0

# MOE 2024.06 (io_trps.svl 2023.06)
