@<TRIPOS>MOLECULE
NONAME
41 42 1 0 0 
SMALL
USER_CHARGES


@<TRIPOS>ATOM
  1 S       -0.6870     0.2500     1.3810 S.o2  1 <1>   1.4470 
  2 O        0.2900    -0.7590     1.7300 O.2   1 <1>  -0.6500 
  3 O       -1.1860     1.1150     2.4290 O.2   1 <1>  -0.6500 
  4 N        0.0430     1.2600     0.2350 N.am  1 <1>  -0.8490 
  5 C       -2.0750    -0.4880     0.4570 C.ar  1 <1>  -0.0090 
  6 C        1.3130     1.7970     0.6870 C.3   1 <1>   0.1960 
  7 C       -0.7520     2.4160    -0.1470 C.3   1 <1>   0.1960 
  8 C       -1.9070    -1.4260    -0.5660 C.ar  1 <1>  -0.1440 
  9 C       -3.3710    -0.0860     0.7570 C.ar  1 <1>  -0.1500 
 10 C        1.6030     2.9510    -0.2660 C.3   1 <1>  -0.1600 
 11 C        0.2410     3.3360    -0.8450 C.3   1 <1>  -0.1600 
 12 C       -3.0110    -1.9290    -1.2370 C.ar  1 <1>  -0.1500 
 13 C       -0.5270    -1.9230    -0.9810 C.3   1 <1>  -0.0970 
 14 C       -4.4960    -0.5740     0.0970 C.ar  1 <1>   0.0860 
 15 C       -4.2850    -1.5090    -0.9120 C.ar  1 <1>  -0.1500 
 16 C       -5.8270    -0.1150     0.4540 C.2   1 <1>   0.5440 
 17 O       -6.0060     1.0200     0.8480 O.2   1 <1>  -0.5700 
 18 N       -6.8990    -0.9520     0.3670 N.am  1 <1>  -0.7300 
 19 C       -8.2750    -0.5840     0.7170 C.3   1 <1>   0.2780 
 20 C       -9.1930    -1.4990    -0.0640 C.2   1 <1>  -0.2880 
 21 C      -10.0040    -2.4200     0.4660 C.2   1 <1>  -0.3000 
 22 H        2.0820     1.0420     0.6570 H     1 <1>   0.0800 
 23 H        1.2150     2.1690     1.6950 H     1 <1>   0.0800 
 24 H       -1.1440     2.9100     0.7280 H     1 <1>   0.0800 
 25 H       -1.5650     2.1340    -0.7960 H     1 <1>   0.0800 
 26 H       -3.5260     0.6420     1.5370 H     1 <1>   0.1500 
 27 H        2.2620     2.6190    -1.0490 H     1 <1>   0.0800 
 28 H        2.0640     3.7680     0.2590 H     1 <1>   0.0800 
 29 H       -0.0020     4.3690    -0.6650 H     1 <1>   0.0800 
 30 H        0.2200     3.1490    -1.9040 H     1 <1>   0.0800 
 31 H       -2.8820    -2.6520    -2.0240 H     1 <1>   0.1500 
 32 H       -0.0940    -2.5150    -0.1940 H     1 <1>   0.0800 
 33 H        0.1270    -1.0950    -1.1910 H     1 <1>   0.0800 
 34 H       -0.5810    -2.5310    -1.8650 H     1 <1>   0.0800 
 35 H       -5.1240    -1.9050    -1.4560 H     1 <1>   0.1500 
 36 H       -6.7670    -1.9430     0.1700 H     1 <1>   0.3700 
 37 H       -8.4630     0.4470     0.4640 H     1 <1>   0.0800 
 38 H       -8.4200    -0.7130     1.7760 H     1 <1>   0.0800 
 39 H       -9.1280    -1.3260    -1.1250 H     1 <1>   0.1500 
 40 H      -10.6490    -3.0570    -0.1150 H     1 <1>   0.1500 
 41 H      -10.0930    -2.6170     1.5210 H     1 <1>   0.1500 
@<TRIPOS>BOND
  1   1   2  2   
  2   1   3  2   
  3   1   4  am  
  4   1   5  1   
  5   4   6  1   
  6   4   7  1   
  7   5   8  ar  
  8   5   9  ar  
  9   6  10  1   
 10   6  22  1   
 11   6  23  1   
 12   7  11  1   
 13   7  24  1   
 14   7  25  1   
 15   8  12  ar  
 16   8  13  1   
 17   9  14  ar  
 18   9  26  1   
 19  10  11  1   
 20  10  27  1   
 21  10  28  1   
 22  11  29  1   
 23  11  30  1   
 24  12  15  ar  
 25  12  31  1   
 26  13  32  1   
 27  13  33  1   
 28  13  34  1   
 29  14  15  ar  
 30  14  16  1   
 31  15  35  1   
 32  16  17  2   
 33  16  18  am  
 34  18  19  1   
 35  18  36  1   
 36  19  20  1   
 37  19  37  1   
 38  19  38  1   
 39  20  21  2   
 40  20  39  1   
 41  21  40  1   
 42  21  41  1   
@<TRIPOS>SUBSTRUCTURE
  1 ****   9 GROUP 4 **** **** 0

# MOE 2024.06 (io_trps.svl 2023.06)
