@<TRIPOS>MOLECULE
NONAME
56 60 1 0 0 
SMALL
USER_CHARGES


@<TRIPOS>ATOM
  1 O       -1.7180    -2.6040    -2.5230 O.2   1 <1>  -0.5700 
  2 C       -1.6510    -2.6160    -1.3120 C.2   1 <1>   0.5440 
  3 N       -0.5450    -3.0160    -0.6090 N.am  1 <1>  -0.4200 
  4 C       -2.6740    -2.2320    -0.3810 C.ar  1 <1>   0.0860 
  5 C       -0.8140    -2.9060     0.7300 C.2   1 <1>   0.5440 
  6 C        0.7370    -3.4640    -1.1890 C.3   1 <1>   0.1400 
  7 C       -2.1520    -2.4120     0.8920 C.ar  1 <1>   0.0860 
  8 C       -3.9700    -1.7590    -0.5470 C.ar  1 <1>  -0.1500 
  9 O       -0.0250    -3.2010     1.6040 O.2   1 <1>  -0.5700 
 10 C        0.8450    -4.9880    -1.0850 C.3   1 <1>  -0.1600 
 11 C       -2.9200    -2.1210     2.0120 C.ar  1 <1>  -0.1500 
 12 C       -4.7340    -1.4700     0.5700 C.ar  1 <1>  -0.1500 
 13 C        2.2370    -5.4830    -1.5110 C.3   1 <1>  -0.0990 
 14 C       -4.2110    -1.6500     1.8450 C.ar  1 <1>  -0.1500 
 15 C        2.3760    -6.9860    -1.3720 C.2   1 <1>   0.5690 
 16 O        2.5660    -7.6550    -2.3530 O.2   1 <1>  -0.5700 
 17 N        2.2970    -7.5300    -0.1140 N.am  1 <1>  -0.5470 
 18 C        2.3650    -8.8580     0.2300 C.ar  1 <1>   0.1170 
 19 C        1.4500    -9.8330    -0.2210 C.ar  1 <1>  -0.1430 
 20 C        3.3940    -9.2960     1.0650 C.ar  1 <1>  -0.1430 
 21 C        1.6230   -11.1620     0.1320 C.ar  1 <1>   0.2180 
 22 C        0.2650    -9.4150    -1.0990 C.3   1 <1>  -0.0170 
 23 C        3.5220   -10.6090     1.3900 C.ar  1 <1>   0.2180 
 24 C        4.4910    -8.4670     1.6990 C.3   1 <1>  -0.0170 
 25 N        2.6550   -11.5300     0.9290 N.ar  1 <1>  -0.1790 
 26 C        0.6770   -12.2760    -0.3180 C.3   1 <1>  -0.0170 
 27 C       -0.8600   -10.4540    -1.1220 C.3   1 <1>  -0.1600 
 28 C        4.7090   -10.8700     2.2860 C.3   1 <1>  -0.0170 
 29 C        5.4410    -9.5140     2.3130 C.3   1 <1>  -0.1600 
 30 C       -0.2890   -11.8400    -1.4250 C.3   1 <1>  -0.1600 
 31 H        1.5410    -2.9970    -0.6460 H     1 <1>   0.0800 
 32 H        0.7960    -3.1550    -2.2200 H     1 <1>   0.0800 
 33 H       -4.3640    -1.6230    -1.5410 H     1 <1>   0.1500 
 34 H        0.0970    -5.4390    -1.7160 H     1 <1>   0.0800 
 35 H        0.6590    -5.2840    -0.0670 H     1 <1>   0.0800 
 36 H       -2.5030    -2.2640     2.9960 H     1 <1>   0.1500 
 37 H       -5.7410    -1.1030     0.4530 H     1 <1>   0.1500 
 38 H        2.9970    -5.0120    -0.9150 H     1 <1>   0.0800 
 39 H        2.4130    -5.2170    -2.5390 H     1 <1>   0.0800 
 40 H       -4.8160    -1.4210     2.7080 H     1 <1>   0.1500 
 41 H        2.3070    -6.8470     0.6450 H     1 <1>   0.3700 
 42 H        0.6150    -9.2690    -2.1070 H     1 <1>   0.0800 
 43 H       -0.1420    -8.4790    -0.7570 H     1 <1>   0.0800 
 44 H        4.0790    -7.8310     2.4640 H     1 <1>   0.0800 
 45 H        5.0000    -7.8650     0.9650 H     1 <1>   0.0800 
 46 H        2.7770   -12.5130     1.1820 H     1 <1>   0.4570 
 47 H        0.1000   -12.5960     0.5320 H     1 <1>   0.0800 
 48 H        1.2410   -13.1210    -0.6740 H     1 <1>   0.0800 
 49 H       -1.5780   -10.1830    -1.8770 H     1 <1>   0.0800 
 50 H       -1.3680   -10.4640    -0.1720 H     1 <1>   0.0800 
 51 H        5.3460   -11.6410     1.8900 H     1 <1>   0.0800 
 52 H        4.3760   -11.1390     3.2740 H     1 <1>   0.0800 
 53 H        5.7290    -9.2400     3.3140 H     1 <1>   0.0800 
 54 H        6.3300    -9.5770     1.7080 H     1 <1>   0.0800 
 55 H       -1.0890   -12.5550    -1.5140 H     1 <1>   0.0800 
 56 H        0.2300   -11.8090    -2.3690 H     1 <1>   0.0800 
@<TRIPOS>BOND
  1   1   2  2   
  2   2   3  am  
  3   2   4  1   
  4   3   5  am  
  5   3   6  1   
  6   4   7  ar  
  7   4   8  ar  
  8   5   7  1   
  9   5   9  2   
 10   6  10  1   
 11   6  31  1   
 12   6  32  1   
 13   7  11  ar  
 14   8  12  ar  
 15   8  33  1   
 16  10  13  1   
 17  10  34  1   
 18  10  35  1   
 19  11  14  ar  
 20  11  36  1   
 21  12  14  ar  
 22  12  37  1   
 23  13  15  1   
 24  13  38  1   
 25  13  39  1   
 26  14  40  1   
 27  15  16  2   
 28  15  17  am  
 29  17  18  1   
 30  17  41  1   
 31  18  19  ar  
 32  18  20  ar  
 33  19  21  ar  
 34  19  22  1   
 35  20  23  ar  
 36  20  24  1   
 37  21  25  ar  
 38  21  26  1   
 39  22  27  1   
 40  22  42  1   
 41  22  43  1   
 42  23  25  ar  
 43  23  28  1   
 44  24  29  1   
 45  24  44  1   
 46  24  45  1   
 47  25  46  1   
 48  26  30  1   
 49  26  47  1   
 50  26  48  1   
 51  27  30  1   
 52  27  49  1   
 53  27  50  1   
 54  28  29  1   
 55  28  51  1   
 56  28  52  1   
 57  29  53  1   
 58  29  54  1   
 59  30  55  1   
 60  30  56  1   
@<TRIPOS>SUBSTRUCTURE
  1 ****  10 GROUP 4 **** **** 0

# MOE 2024.06 (io_trps.svl 2023.06)
