@<TRIPOS>MOLECULE
NONAME
36 38 1 0 0 
SMALL
USER_CHARGES


@<TRIPOS>ATOM
  1 CL      -1.0640    -0.1210     2.4280 Cl    1 <1>  -0.1770 
  2 C       -2.3560     0.6470     1.5370 C.ar  1 <1>   0.1770 
  3 C       -3.6360     0.6200     2.0380 C.ar  1 <1>  -0.1500 
  4 C       -2.0460     1.2740     0.3250 C.ar  1 <1>  -0.1500 
  5 C       -4.6430     1.2410     1.3040 C.ar  1 <1>   0.2270 
  6 C       -3.0390     1.8900    -0.4050 C.ar  1 <1>  -0.1500 
  7 N       -5.9710     1.3490     1.5850 N.2   1 <1>  -0.5650 
  8 C       -4.3410     1.8650     0.1010 C.ar  1 <1>  -0.1520 
  9 C       -6.4310     2.0100     0.5860 C.2   1 <1>   0.2420 
 10 N       -5.5210     2.3620    -0.3530 N.pl3 1 <1>   0.0330 
 11 S       -8.1670     2.4360     0.4520 S.3   1 <1>  -0.2860 
 12 C       -8.3410     3.3790    -1.1420 C.3   1 <1>   0.1310 
 13 C       -9.7780     3.8120    -1.3950 C.2   1 <1>   0.5690 
 14 O      -10.0070     4.4330    -2.4050 O.2   1 <1>  -0.5700 
 15 N      -10.7510     3.5010    -0.5030 N.am  1 <1>  -0.7300 
 16 C      -12.1750     3.8500    -0.6130 C.3   1 <1>   0.2200 
 17 C      -12.5860     4.6160     0.6380 C.3   1 <1>  -0.1600 
 18 C      -12.9980     2.5710    -0.5250 C.3   1 <1>  -0.1600 
 19 C      -12.8300     3.5540     1.7160 C.3   1 <1>  -0.1600 
 20 C      -13.0950     2.2400     0.9690 C.3   1 <1>  -0.1600 
 21 H       -3.8740     0.1390     2.9670 H     1 <1>   0.1500 
 22 H       -1.0260     1.2640    -0.0180 H     1 <1>   0.1500 
 23 H       -2.8220     2.3790    -1.3400 H     1 <1>   0.1500 
 24 H       -5.6800     2.8840    -1.2150 H     1 <1>   0.2700 
 25 H       -8.0140     2.7340    -1.9350 H     1 <1>   0.0800 
 26 H       -7.7090     4.2440    -1.0750 H     1 <1>   0.0800 
 27 H      -10.5080     2.9730     0.3390 H     1 <1>   0.3700 
 28 H      -12.3660     4.4030    -1.5180 H     1 <1>   0.0800 
 29 H      -13.5110     5.1260     0.4340 H     1 <1>   0.0800 
 30 H      -11.8500     5.3450     0.9290 H     1 <1>   0.0800 
 31 H      -12.5700     1.7710    -1.1030 H     1 <1>   0.0800 
 32 H      -13.9850     2.7760    -0.9020 H     1 <1>   0.0800 
 33 H      -13.6630     3.8270     2.3420 H     1 <1>   0.0800 
 34 H      -11.9530     3.4500     2.3330 H     1 <1>   0.0800 
 35 H      -12.3430     1.5160     1.2340 H     1 <1>   0.0800 
 36 H      -14.0640     1.8370     1.2110 H     1 <1>   0.0800 
@<TRIPOS>BOND
  1   1   2  1   
  2   2   3  ar  
  3   2   4  ar  
  4   3   5  ar  
  5   3  21  1   
  6   4   6  ar  
  7   4  22  1   
  8   5   7  1   
  9   5   8  ar  
 10   6   8  ar  
 11   6  23  1   
 12   7   9  2   
 13   8  10  1   
 14   9  10  1   
 15   9  11  1   
 16  10  24  1   
 17  11  12  1   
 18  12  13  1   
 19  12  25  1   
 20  12  26  1   
 21  13  14  2   
 22  13  15  am  
 23  15  16  1   
 24  15  27  1   
 25  16  17  1   
 26  16  18  1   
 27  16  28  1   
 28  17  19  1   
 29  17  29  1   
 30  17  30  1   
 31  18  20  1   
 32  18  31  1   
 33  18  32  1   
 34  19  20  1   
 35  19  33  1   
 36  19  34  1   
 37  20  35  1   
 38  20  36  1   
@<TRIPOS>SUBSTRUCTURE
  1 ****  11 GROUP 4 **** **** 0

# MOE 2024.06 (io_trps.svl 2023.06)
