@<TRIPOS>MOLECULE
NONAME
34 35 1 0 0 
SMALL
USER_CHARGES


@<TRIPOS>ATOM
  1 S       -0.2430     0.8500     0.0750 S.3   1 <1>  -0.0800 
  2 C        1.0340    -0.3160     0.0170 C.2   1 <1>   0.4420 
  3 C       -1.3830    -0.4640     0.0270 C.2   1 <1>   0.3250 
  4 N        0.5860    -1.5160    -0.0310 N.2   1 <1>  -0.3380 
  5 N        2.3580     0.0440     0.0230 N.am  1 <1>  -0.4940 
  6 N       -0.7710    -1.5970    -0.0250 N.2   1 <1>  -0.3380 
  7 C       -2.8040    -0.1970     0.0480 C.ar  1 <1>   0.0530 
  8 C        2.9740     1.2510     0.0710 C.2   1 <1>   0.7800 
  9 C       -3.7140    -1.2550     0.0090 C.ar  1 <1>  -0.1500 
 10 C       -3.3430     1.0900     0.1060 C.ar  1 <1>  -0.1500 
 11 O        2.3990     2.3170     0.1200 O.2   1 <1>  -0.5700 
 12 O        4.3010     1.2020     0.0600 O.3   1 <1>  -0.4300 
 13 C       -5.0850    -1.0600     0.0270 C.ar  1 <1>  -0.1440 
 14 C       -4.7090     1.3000     0.1240 C.ar  1 <1>  -0.1500 
 15 C        5.0710     2.3830     0.1050 C.3   1 <1>   0.1200 
 16 C       -5.5910     0.2330     0.0850 C.ar  1 <1>  -0.1430 
 17 C       -6.0070    -2.2710    -0.0180 C.3   1 <1>  -0.0970 
 18 C        6.5440     1.9900     0.0780 C.3   1 <1>  -0.2400 
 19 C       -7.0880     0.5050     0.1060 C.3   1 <1>  -0.0970 
 20 H        3.0070    -0.7350    -0.0140 H     1 <1>   0.3700 
 21 H       -3.3270    -2.2590    -0.0360 H     1 <1>   0.1500 
 22 H       -2.7000     1.9500     0.1380 H     1 <1>   0.1500 
 23 H       -5.0840     2.3070     0.1690 H     1 <1>   0.1500 
 24 H        4.8290     2.9150     1.0100 H     1 <1>   0.0800 
 25 H        4.8170     2.9900    -0.7490 H     1 <1>   0.0800 
 26 H       -5.4420    -3.1850    -0.0600 H     1 <1>   0.0800 
 27 H       -6.6350    -2.2230    -0.8890 H     1 <1>   0.0800 
 28 H       -6.6240    -2.2960     0.8610 H     1 <1>   0.0800 
 29 H        6.7810     1.3780     0.9300 H     1 <1>   0.0800 
 30 H        7.1550     2.8740     0.1110 H     1 <1>   0.0800 
 31 H        6.7690     1.4530    -0.8260 H     1 <1>   0.0800 
 32 H       -7.5350     0.0400     0.9660 H     1 <1>   0.0800 
 33 H       -7.5470     0.1130    -0.7840 H     1 <1>   0.0800 
 34 H       -7.2890     1.5600     0.1520 H     1 <1>   0.0800 
@<TRIPOS>BOND
  1   1   2  1   
  2   1   3  1   
  3   2   4  2   
  4   2   5  1   
  5   3   6  2   
  6   3   7  1   
  7   4   6  1   
  8   5   8  am  
  9   5  20  1   
 10   7   9  ar  
 11   7  10  ar  
 12   8  11  2   
 13   8  12  1   
 14   9  13  ar  
 15   9  21  1   
 16  10  14  ar  
 17  10  22  1   
 18  12  15  1   
 19  13  16  ar  
 20  13  17  1   
 21  14  16  ar  
 22  14  23  1   
 23  15  18  1   
 24  15  24  1   
 25  15  25  1   
 26  16  19  1   
 27  17  26  1   
 28  17  27  1   
 29  17  28  1   
 30  18  29  1   
 31  18  30  1   
 32  18  31  1   
 33  19  32  1   
 34  19  33  1   
 35  19  34  1   
@<TRIPOS>SUBSTRUCTURE
  1 ****   1 GROUP 4 **** **** 0

# MOE 2024.06 (io_trps.svl 2023.06)
