@<TRIPOS>MOLECULE
NONAME
32 34 1 0 0 
SMALL
USER_CHARGES


@<TRIPOS>ATOM
  1 S        0.0150     0.2980    -0.1740 S.3   1 <1>  -0.2860 
  2 C       -1.6660     0.6530     0.2430 C.2   1 <1>   0.2420 
  3 C       -0.3900    -1.3690    -0.8570 C.3   1 <1>   0.1500 
  4 N       -2.2270     1.6310     0.8540 N.2   1 <1>  -0.3380 
  5 N       -2.4890    -0.2880    -0.1580 N.pl3 1 <1>   0.0480 
  6 C       -1.9400    -1.4410    -0.9050 C.3   1 <1>   0.0960 
  7 C        0.2350    -2.4020     0.0840 C.3   1 <1>  -0.2400 
  8 N       -3.5330     1.3200     0.8640 N.2   1 <1>  -0.3380 
  9 C       -3.6710     0.1800     0.2590 C.2   1 <1>   0.0070 
 10 C       -4.9800    -0.5600     0.0290 C.3   1 <1>   0.0200 
 11 C       -6.1960     0.1850     0.5910 C.3   1 <1>  -0.0160 
 12 C       -7.4650    -0.6090     0.3240 C.ar  1 <1>  -0.1440 
 13 C       -7.9140    -1.5420     1.2460 C.ar  1 <1>  -0.1500 
 14 C       -8.1800    -0.4120    -0.8480 C.ar  1 <1>  -0.1500 
 15 C       -9.0630    -2.2730     0.9980 C.ar  1 <1>  -0.1500 
 16 C       -9.3290    -1.1430    -1.0970 C.ar  1 <1>  -0.1500 
 17 C       -9.7710    -2.0740    -0.1740 C.ar  1 <1>  -0.1500 
 18 H        0.0400    -1.4310    -1.8410 H     1 <1>   0.0800 
 19 H       -2.3010    -2.3560    -0.4710 H     1 <1>   0.0800 
 20 H       -2.2770    -1.3780    -1.9240 H     1 <1>   0.0800 
 21 H       -0.1600    -2.2940     1.0790 H     1 <1>   0.0800 
 22 H        1.3010    -2.2660     0.1200 H     1 <1>   0.0800 
 23 H        0.0310    -3.3990    -0.2650 H     1 <1>   0.0800 
 24 H       -4.9210    -1.5280     0.4930 H     1 <1>   0.0800 
 25 H       -5.1190    -0.7030    -1.0280 H     1 <1>   0.0800 
 26 H       -6.2700     1.1570     0.1330 H     1 <1>   0.0800 
 27 H       -6.0730     0.3330     1.6500 H     1 <1>   0.0800 
 28 H       -7.3710    -1.7020     2.1610 H     1 <1>   0.1500 
 29 H       -7.8450     0.3110    -1.5710 H     1 <1>   0.1500 
 30 H       -9.4060    -2.9950     1.7180 H     1 <1>   0.1500 
 31 H       -9.8800    -0.9860    -2.0080 H     1 <1>   0.1500 
 32 H      -10.6640    -2.6420    -0.3670 H     1 <1>   0.1500 
@<TRIPOS>BOND
  1   1   2  1   
  2   1   3  1   
  3   2   4  2   
  4   2   5  1   
  5   3   6  1   
  6   3   7  1   
  7   3  18  1   
  8   4   8  1   
  9   5   6  1   
 10   5   9  1   
 11   6  19  1   
 12   6  20  1   
 13   7  21  1   
 14   7  22  1   
 15   7  23  1   
 16   8   9  2   
 17   9  10  1   
 18  10  11  1   
 19  10  24  1   
 20  10  25  1   
 21  11  12  1   
 22  11  26  1   
 23  11  27  1   
 24  12  13  ar  
 25  12  14  ar  
 26  13  15  ar  
 27  13  28  1   
 28  14  16  ar  
 29  14  29  1   
 30  15  17  ar  
 31  15  30  1   
 32  16  17  ar  
 33  16  31  1   
 34  17  32  1   
@<TRIPOS>SUBSTRUCTURE
  1 ****  10 GROUP 4 **** **** 0

# MOE 2024.06 (io_trps.svl 2023.06)
