@<TRIPOS>MOLECULE
NONAME
37 38 1 0 0 
SMALL
USER_CHARGES


@<TRIPOS>ATOM
  1 CL      -1.9040     1.2960    -1.9800 Cl    1 <1>  -0.1770 
  2 C       -0.9330     2.2350    -0.8690 C.ar  1 <1>   0.1770 
  3 C       -1.3060     2.3250     0.4640 C.ar  1 <1>  -0.1440 
  4 C        0.1850     2.8860    -1.3540 C.ar  1 <1>  -0.1500 
  5 C       -0.5270     3.0870     1.3240 C.ar  1 <1>  -0.1500 
  6 C       -2.5390     1.6030     0.9710 C.3   1 <1>   0.4870 
  7 C        0.9520     3.6460    -0.4890 C.ar  1 <1>  -0.1500 
  8 C        0.5950     3.7450     0.8460 C.ar  1 <1>  -0.1500 
  9 N       -3.7530     2.2050     0.3440 N.4   1 <1>  -0.9590 
 10 C       -3.9150     3.6390     0.7160 C.3   1 <1>   0.3430 
 11 C       -4.9660     1.3940     0.6230 C.3   1 <1>   0.3430 
 12 C       -5.0870     4.2380    -0.0690 C.3   1 <1>  -0.1600 
 13 C       -6.1610     1.9620    -0.1590 C.3   1 <1>  -0.1600 
 14 C       -6.4040     3.4600     0.1340 C.3   1 <1>  -0.0800 
 15 C       -7.5120     4.0830    -0.7440 C.3   1 <1>   0.3430 
 16 N       -8.8430     3.4690    -0.4880 N.4   1 <1>  -0.8530 
 17 H        0.4550     2.7990    -2.3920 H     1 <1>   0.1500 
 18 H       -0.7720     3.1770     2.3700 H     1 <1>   0.1500 
 19 H       -2.5950     1.6800     2.0450 H     1 <1>   0.0800 
 20 H       -2.4650     0.5600     0.7080 H     1 <1>   0.0800 
 21 H        1.8280     4.1590    -0.8520 H     1 <1>   0.1500 
 22 H        1.2010     4.3350     1.5150 H     1 <1>   0.1500 
 23 H       -3.5630     2.1660    -0.6700 H     1 <1>   0.4500 
 24 H       -3.0130     4.1870     0.4860 H     1 <1>   0.0800 
 25 H       -4.1010     3.7250     1.7750 H     1 <1>   0.0800 
 26 H       -5.1810     1.4110     1.6800 H     1 <1>   0.0800 
 27 H       -4.7990     0.3680     0.3290 H     1 <1>   0.0800 
 28 H       -4.8200     4.2620    -1.1130 H     1 <1>   0.0800 
 29 H       -5.2140     5.2590     0.2490 H     1 <1>   0.0800 
 30 H       -7.0300     1.3850     0.1070 H     1 <1>   0.0800 
 31 H       -5.9830     1.8110    -1.2100 H     1 <1>   0.0800 
 32 H       -6.6870     3.5720     1.1690 H     1 <1>   0.0800 
 33 H       -7.2520     3.9640    -1.7850 H     1 <1>   0.0800 
 34 H       -7.5660     5.1420    -0.5400 H     1 <1>   0.0800 
 35 H       -8.8600     2.4700    -0.7220 H     1 <1>   0.4500 
 36 H       -9.5650     3.9230    -1.0650 H     1 <1>   0.4500 
 37 H       -9.1340     3.5790     0.4910 H     1 <1>   0.4500 
@<TRIPOS>BOND
  1   1   2  1   
  2   2   3  ar  
  3   2   4  ar  
  4   3   5  ar  
  5   3   6  1   
  6   4   7  ar  
  7   4  17  1   
  8   5   8  ar  
  9   5  18  1   
 10   6   9  1   
 11   6  19  1   
 12   6  20  1   
 13   7   8  ar  
 14   7  21  1   
 15   8  22  1   
 16   9  10  1   
 17   9  11  1   
 18   9  23  1   
 19  10  12  1   
 20  10  24  1   
 21  10  25  1   
 22  11  13  1   
 23  11  26  1   
 24  11  27  1   
 25  12  14  1   
 26  12  28  1   
 27  12  29  1   
 28  13  14  1   
 29  13  30  1   
 30  13  31  1   
 31  14  15  1   
 32  14  32  1   
 33  15  16  1   
 34  15  33  1   
 35  15  34  1   
 36  16  35  1   
 37  16  36  1   
 38  16  37  1   
@<TRIPOS>SUBSTRUCTURE
  1 ****   9 GROUP 4 **** **** 0

# MOE 2024.06 (io_trps.svl 2023.06)
