@<TRIPOS>MOLECULE
NONAME
38 39 1 0 0 
SMALL
USER_CHARGES


@<TRIPOS>ATOM
  1 S        0.0460     0.0260     0.3460 S.o2  1 <1>   1.4470 
  2 O       -0.3180     0.1570     1.7410 O.2   1 <1>  -0.6500 
  3 O       -0.3820    -1.1440    -0.3900 O.2   1 <1>  -0.6500 
  4 N       -0.6040     1.3660    -0.4610 N.am  1 <1>  -0.8490 
  5 C        1.8320     0.2550     0.1310 C.ar  1 <1>  -0.0090 
  6 C       -2.0380     1.2660    -0.6530 C.3   1 <1>   0.1960 
  7 C       -0.3880     2.6390     0.2060 C.3   1 <1>   0.1960 
  8 C        2.3990     0.2860    -1.1370 C.ar  1 <1>  -0.1500 
  9 C        2.6820     0.4160     1.2190 C.ar  1 <1>  -0.1500 
 10 C       -2.4770     2.6820    -1.0100 C.3   1 <1>  -0.1600 
 11 C       -1.3660     3.5870    -0.4760 C.3   1 <1>  -0.1600 
 12 C        3.7580     0.4740    -1.3140 C.ar  1 <1>  -0.1500 
 13 C        4.0420     0.6040     1.0480 C.ar  1 <1>  -0.1500 
 14 C        4.6030     0.6400    -0.2240 C.ar  1 <1>   0.1170 
 15 N        5.9720     0.8240    -0.4560 N.am  1 <1>  -0.5470 
 16 C        6.9730     1.3020     0.3310 C.2   1 <1>   0.7800 
 17 O        6.8290     1.7050     1.4670 O.2   1 <1>  -0.5700 
 18 O        8.1740     1.3160    -0.2400 O.3   1 <1>  -0.4300 
 19 C        9.3010     1.7930     0.4600 C.3   1 <1>   0.1200 
 20 C       10.5130     1.6780    -0.4580 C.3   1 <1>  -0.2400 
 21 H       -2.5110     0.9570     0.2660 H     1 <1>   0.0800 
 22 H       -2.2740     0.5600    -1.4320 H     1 <1>   0.0800 
 23 H        0.6330     2.9680     0.1000 H     1 <1>   0.0800 
 24 H       -0.6360     2.5620     1.2530 H     1 <1>   0.0800 
 25 H        1.7590     0.1620    -1.9960 H     1 <1>   0.1500 
 26 H        2.2750     0.3930     2.2160 H     1 <1>   0.1500 
 27 H       -3.4300     2.9060    -0.5640 H     1 <1>   0.0800 
 28 H       -2.5580     2.7790    -2.0780 H     1 <1>   0.0800 
 29 H       -0.8720     4.0880    -1.2900 H     1 <1>   0.0800 
 30 H       -1.7360     4.3210     0.2170 H     1 <1>   0.0800 
 31 H        4.1610     0.4940    -2.3100 H     1 <1>   0.1500 
 32 H        4.6640     0.7190     1.9170 H     1 <1>   0.1500 
 33 H        6.3030     0.5970    -1.3890 H     1 <1>   0.3700 
 34 H        9.4290     1.1960     1.3480 H     1 <1>   0.0800 
 35 H        9.1220     2.8190     0.7380 H     1 <1>   0.0800 
 36 H       10.6730     0.6510    -0.7340 H     1 <1>   0.0800 
 37 H       11.3890     2.0360     0.0530 H     1 <1>   0.0800 
 38 H       10.3670     2.2720    -1.3420 H     1 <1>   0.0800 
@<TRIPOS>BOND
  1   1   2  2   
  2   1   3  2   
  3   1   4  am  
  4   1   5  1   
  5   4   6  1   
  6   4   7  1   
  7   5   8  ar  
  8   5   9  ar  
  9   6  10  1   
 10   6  21  1   
 11   6  22  1   
 12   7  11  1   
 13   7  23  1   
 14   7  24  1   
 15   8  12  ar  
 16   8  25  1   
 17   9  13  ar  
 18   9  26  1   
 19  10  11  1   
 20  10  27  1   
 21  10  28  1   
 22  11  29  1   
 23  11  30  1   
 24  12  14  ar  
 25  12  31  1   
 26  13  14  ar  
 27  13  32  1   
 28  14  15  1   
 29  15  16  am  
 30  15  33  1   
 31  16  17  2   
 32  16  18  1   
 33  18  19  1   
 34  19  20  1   
 35  19  34  1   
 36  19  35  1   
 37  20  36  1   
 38  20  37  1   
 39  20  38  1   
@<TRIPOS>SUBSTRUCTURE
  1 ****   9 GROUP 4 **** **** 0

# MOE 2024.06 (io_trps.svl 2023.06)
