@<TRIPOS>MOLECULE
NONAME
48 50 1 0 0 
SMALL
USER_CHARGES


@<TRIPOS>ATOM
  1 O       -2.3040     2.8810    -0.5930 O.2   1 <1>  -0.5700 
  2 C       -1.3960     3.2440     0.1330 C.2   1 <1>   0.7060 
  3 O       -0.2130     3.4800    -0.4360 O.3   1 <1>  -0.2330 
  4 C       -1.5450     3.4820     1.5400 C.2   1 <1>   0.0290 
  5 C        0.8660     3.9510     0.2380 C.ar  1 <1>   0.0830 
  6 C       -2.8180     3.1840     2.1380 C.2   1 <1>   0.6160 
  7 C       -0.4790     3.9360     2.2530 C.2   1 <1>  -0.1780 
  8 C        2.0580     4.1890    -0.4460 C.ar  1 <1>   0.0830 
  9 C        0.7650     4.1940     1.6120 C.ar  1 <1>   0.0280 
 10 O       -2.8500     2.3550     3.0250 O.2   1 <1>  -0.5700 
 11 N       -4.0080     3.7950     1.7780 N.am  1 <1>  -0.6600 
 12 O        2.0820     3.9350    -1.7830 O.3   1 <1>  -0.3630 
 13 C        3.1590     4.6710     0.2540 C.ar  1 <1>  -0.1500 
 14 C        1.8850     4.6750     2.2890 C.ar  1 <1>  -0.1500 
 15 C       -4.1480     4.8800     0.7560 C.3   1 <1>   0.1400 
 16 C       -5.3240     3.2350     2.2200 C.3   1 <1>   0.1400 
 17 C        3.2600     4.0850    -2.5440 C.3   1 <1>   0.0400 
 18 C        3.0670     4.9110     1.6170 C.ar  1 <1>  -0.1500 
 19 C       -4.9600     4.3790    -0.4600 C.3   1 <1>   0.3430 
 20 C       -6.1060     2.7120     1.0030 C.3   1 <1>   0.3430 
 21 N       -6.2770     3.7710    -0.0580 N.4   1 <1>  -0.9590 
 22 C       -6.9830     3.2130    -1.2310 C.3   1 <1>   0.4810 
 23 C       -8.4610     3.0250    -0.9020 C.2   1 <1>  -0.2760 
 24 C       -9.1320     3.5010     0.1580 C.2   1 <1>  -0.3000 
 25 C       -9.1780     2.2000    -1.9630 C.3   1 <1>  -0.1020 
 26 H       -0.5450     4.1020     3.3160 H     1 <1>   0.1500 
 27 H        4.0940     4.8670    -0.2360 H     1 <1>   0.1500 
 28 H        1.8250     4.8630     3.3470 H     1 <1>   0.1500 
 29 H       -3.1840     5.2260     0.4270 H     1 <1>   0.0800 
 30 H       -4.6510     5.7200     1.2020 H     1 <1>   0.0800 
 31 H       -5.8890     3.9990     2.7240 H     1 <1>   0.0800 
 32 H       -5.1870     2.4250     2.9180 H     1 <1>   0.0800 
 33 H        3.0400     3.8040    -3.5580 H     1 <1>   0.0800 
 34 H        4.0200     3.4390    -2.1430 H     1 <1>   0.0800 
 35 H        3.5690     5.1150    -2.5110 H     1 <1>   0.0800 
 36 H        3.9250     5.2830     2.1510 H     1 <1>   0.1500 
 37 H       -4.3730     3.6440    -0.9840 H     1 <1>   0.0800 
 38 H       -5.1260     5.2030    -1.1350 H     1 <1>   0.0800 
 39 H       -7.0710     2.3560     1.3260 H     1 <1>   0.0800 
 40 H       -5.5670     1.8730     0.5930 H     1 <1>   0.0800 
 41 H       -6.8900     4.5050     0.3130 H     1 <1>   0.4500 
 42 H       -6.5430     2.2670    -1.5040 H     1 <1>   0.0800 
 43 H       -6.8960     3.8820    -2.0720 H     1 <1>   0.0800 
 44 H      -10.1850     3.3260     0.3160 H     1 <1>   0.1500 
 45 H       -8.7350     4.1000     0.9580 H     1 <1>   0.1500 
 46 H       -9.1170     2.6830    -2.9230 H     1 <1>   0.0800 
 47 H      -10.2200     2.0810    -1.7190 H     1 <1>   0.0800 
 48 H       -8.7420     1.2190    -2.0410 H     1 <1>   0.0800 
@<TRIPOS>BOND
  1   1   2  2   
  2   2   3  1   
  3   2   4  1   
  4   3   5  1   
  5   4   6  1   
  6   4   7  2   
  7   5   8  ar  
  8   5   9  ar  
  9   6  10  2   
 10   6  11  am  
 11   7   9  1   
 12   7  26  1   
 13   8  12  1   
 14   8  13  ar  
 15   9  14  ar  
 16  11  15  1   
 17  11  16  1   
 18  12  17  1   
 19  13  18  ar  
 20  13  27  1   
 21  14  18  ar  
 22  14  28  1   
 23  15  19  1   
 24  15  29  1   
 25  15  30  1   
 26  16  20  1   
 27  16  31  1   
 28  16  32  1   
 29  17  33  1   
 30  17  34  1   
 31  17  35  1   
 32  18  36  1   
 33  19  21  1   
 34  19  37  1   
 35  19  38  1   
 36  20  21  1   
 37  20  39  1   
 38  20  40  1   
 39  21  22  1   
 40  21  41  1   
 41  22  23  1   
 42  22  42  1   
 43  22  43  1   
 44  23  24  2   
 45  23  25  1   
 46  24  44  1   
 47  24  45  1   
 48  25  46  1   
 49  25  47  1   
 50  25  48  1   
@<TRIPOS>SUBSTRUCTURE
  1 ****   2 GROUP 4 **** **** 0

# MOE 2024.06 (io_trps.svl 2023.06)
