@<TRIPOS>MOLECULE
NONAME
43 43 1 0 0 
SMALL
USER_CHARGES


@<TRIPOS>ATOM
  1 BR      -0.1660    -0.3800     0.0050 Br    1 <1>  -0.1110 
  2 C       -1.9600    -1.0840     0.0510 C.ar  1 <1>   0.1110 
  3 C       -2.8060    -0.8250    -1.0100 C.ar  1 <1>  -0.1500 
  4 C       -2.3560    -1.8310     1.1430 C.ar  1 <1>  -0.1500 
  5 C       -4.0920    -1.3330    -0.9710 C.ar  1 <1>  -0.1500 
  6 C       -3.6460    -2.3310     1.1680 C.ar  1 <1>  -0.1500 
  7 C       -4.5280    -2.0890     0.1180 C.ar  1 <1>   0.1000 
  8 N       -5.8170    -2.6070     0.1970 N.pl3 1 <1>  -0.7760 
  9 P       -7.0780    -2.5730    -0.9490 P.3   1 <1>   1.5180 
 10 O       -6.8470    -3.4350    -2.1000 O.2   1 <1>  -0.7000 
 11 O       -7.3100    -1.0180    -1.2540 O.3   1 <1>  -0.5510 
 12 O       -8.3380    -2.9860    -0.0570 O.3   1 <1>  -0.5510 
 13 C       -7.5170    -0.1080    -0.2270 C.3   1 <1>   0.1200 
 14 C       -9.5790    -3.0930    -0.6660 C.3   1 <1>   0.1200 
 15 C       -7.6550     1.3020    -0.8200 C.3   1 <1>  -0.0800 
 16 C      -10.6480    -3.3600     0.4040 C.3   1 <1>  -0.0800 
 17 C       -6.3840     1.7270    -1.5710 C.3   1 <1>  -0.2400 
 18 C       -7.9610     2.3120     0.2930 C.3   1 <1>  -0.2400 
 19 C      -12.0180    -3.5500    -0.2590 C.3   1 <1>  -0.2400 
 20 C      -10.7240    -2.2190     1.4300 C.3   1 <1>  -0.2400 
 21 H       -2.4640    -0.2410    -1.8460 H     1 <1>   0.1500 
 22 H       -1.6700    -2.0140     1.9510 H     1 <1>   0.1500 
 23 H       -4.7510    -1.1370    -1.7970 H     1 <1>   0.1500 
 24 H       -3.9730    -2.9110     2.0120 H     1 <1>   0.1500 
 25 H       -5.9270    -3.4230     0.7890 H     1 <1>   0.4000 
 26 H       -6.6770    -0.1460     0.4470 H     1 <1>   0.0800 
 27 H       -8.4120    -0.3850     0.3020 H     1 <1>   0.0800 
 28 H       -9.5380    -3.9040    -1.3750 H     1 <1>   0.0800 
 29 H       -9.7900    -2.1740    -1.1870 H     1 <1>   0.0800 
 30 H       -8.4840     1.2980    -1.5080 H     1 <1>   0.0800 
 31 H      -10.3930    -4.2740     0.9140 H     1 <1>   0.0800 
 32 H       -5.5320     1.7070    -0.9150 H     1 <1>   0.0800 
 33 H       -6.4960     2.7220    -1.9630 H     1 <1>   0.0800 
 34 H       -6.1970     1.0620    -2.3950 H     1 <1>   0.0800 
 35 H       -7.1550     2.3470     1.0050 H     1 <1>   0.0800 
 36 H       -8.8650     2.0390     0.8080 H     1 <1>   0.0800 
 37 H       -8.0940     3.2950    -0.1230 H     1 <1>   0.0800 
 38 H      -12.3150    -2.6580    -0.7830 H     1 <1>   0.0800 
 39 H      -12.7640    -3.7740     0.4840 H     1 <1>   0.0800 
 40 H      -11.9850    -4.3660    -0.9590 H     1 <1>   0.0800 
 41 H      -10.9580    -1.2870     0.9450 H     1 <1>   0.0800 
 42 H       -9.7850    -2.1130     1.9440 H     1 <1>   0.0800 
 43 H      -11.4840    -2.4260     2.1630 H     1 <1>   0.0800 
@<TRIPOS>BOND
  1   1   2  1   
  2   2   3  ar  
  3   2   4  ar  
  4   3   5  ar  
  5   3  21  1   
  6   4   6  ar  
  7   4  22  1   
  8   5   7  ar  
  9   5  23  1   
 10   6   7  ar  
 11   6  24  1   
 12   7   8  1   
 13   8   9  1   
 14   8  25  1   
 15   9  10  2   
 16   9  11  1   
 17   9  12  1   
 18  11  13  1   
 19  12  14  1   
 20  13  15  1   
 21  13  26  1   
 22  13  27  1   
 23  14  16  1   
 24  14  28  1   
 25  14  29  1   
 26  15  17  1   
 27  15  18  1   
 28  15  30  1   
 29  16  19  1   
 30  16  20  1   
 31  16  31  1   
 32  17  32  1   
 33  17  33  1   
 34  17  34  1   
 35  18  35  1   
 36  18  36  1   
 37  18  37  1   
 38  19  38  1   
 39  19  39  1   
 40  19  40  1   
 41  20  41  1   
 42  20  42  1   
 43  20  43  1   
@<TRIPOS>SUBSTRUCTURE
  1 ****   8 GROUP 4 **** **** 0

# MOE 2024.06 (io_trps.svl 2023.06)
