@<TRIPOS>MOLECULE
NONAME
57 60 1 0 0 
SMALL
USER_CHARGES


@<TRIPOS>ATOM
  1 O       -0.8600     1.5410    -0.7540 O.3   1 <1>  -0.3630 
  2 C       -1.4000     1.8460     0.4560 C.ar  1 <1>   0.0830 
  3 C        0.5230     1.2970    -0.8980 C.3   1 <1>   0.2640 
  4 C       -0.7750     2.5910     1.4670 C.ar  1 <1>   0.0830 
  5 C       -2.6820     1.3660     0.6470 C.ar  1 <1>  -0.1500 
  6 C        0.7300     0.4370    -2.1350 C.ar  1 <1>  -0.1440 
  7 O        0.4790     3.0870     1.2630 O.3   1 <1>  -0.3630 
  8 C       -1.4680     2.8190     2.6540 C.ar  1 <1>  -0.1500 
  9 C       -3.3740     1.6130     1.8220 C.ar  1 <1>  -0.1440 
 10 C        0.5920     0.9920    -3.3980 C.ar  1 <1>  -0.1500 
 11 C        1.0570    -0.9050    -2.0140 C.ar  1 <1>  -0.1500 
 12 C        1.1580     3.8550     2.2340 C.3   1 <1>   0.0400 
 13 C       -2.7540     2.3360     2.8290 C.ar  1 <1>  -0.1500 
 14 C       -4.7900     1.0990     1.9860 C.3   1 <1>   0.4860 
 15 C        0.7810     0.2150    -4.5280 C.ar  1 <1>  -0.1500 
 16 C        1.2460    -1.6830    -3.1430 C.ar  1 <1>  -0.1500 
 17 N       -5.7340     2.1940     1.6430 N.4   1 <1>  -0.9590 
 18 C        1.1090    -1.1230    -4.4010 C.ar  1 <1>  -0.1500 
 19 C       -7.1520     1.8150     1.9890 C.3   1 <1>   0.3430 
 20 C       -5.6270     2.5620     0.1790 C.3   1 <1>   0.3430 
 21 C       -8.1810     2.8920     1.5790 C.3   1 <1>   0.2090 
 22 C       -6.6460     3.6420    -0.2470 C.3   1 <1>   0.2090 
 23 N       -8.0370     3.2650     0.1410 N.pl3 1 <1>  -0.8380 
 24 C       -8.6940     2.4440    -0.7510 C.ar  1 <1>   0.4100 
 25 N       -8.2330     1.2010    -0.8550 N.ar  1 <1>  -0.6200 
 26 C       -9.7720     2.9360    -1.4770 C.ar  1 <1>  -0.1500 
 27 C       -8.8770     0.4300    -1.7200 C.ar  1 <1>   0.1600 
 28 C      -10.4280     2.1210    -2.3690 C.ar  1 <1>  -0.1500 
 29 C       -9.9570     0.8290    -2.4870 C.ar  1 <1>  -0.1500 
 30 H        1.0250     2.2410    -1.0080 H     1 <1>   0.0800 
 31 H        0.8790     0.7940    -0.0170 H     1 <1>   0.0800 
 32 H       -3.1250     0.7920    -0.1490 H     1 <1>   0.1500 
 33 H       -1.0240     3.3760     3.4580 H     1 <1>   0.1500 
 34 H        0.3320     2.0310    -3.5030 H     1 <1>   0.1500 
 35 H        1.1630    -1.3510    -1.0410 H     1 <1>   0.1500 
 36 H        2.1180     4.1260     1.8340 H     1 <1>   0.0800 
 37 H        0.5870     4.7430     2.4410 H     1 <1>   0.0800 
 38 H        1.2890     3.2620     3.1220 H     1 <1>   0.0800 
 39 H       -3.2580     2.5320     3.7610 H     1 <1>   0.1500 
 40 H       -4.9390     0.7840     3.0060 H     1 <1>   0.0800 
 41 H       -4.9520     0.2510     1.3390 H     1 <1>   0.0800 
 42 H        0.6720     0.6520    -5.5050 H     1 <1>   0.1500 
 43 H        1.4990    -2.7240    -3.0430 H     1 <1>   0.1500 
 44 H       -5.4620     3.0210     2.1850 H     1 <1>   0.4500 
 45 H        1.2560    -1.7270    -5.2790 H     1 <1>   0.1500 
 46 H       -7.2380     1.6340     3.0480 H     1 <1>   0.0800 
 47 H       -7.4130     0.9030     1.4770 H     1 <1>   0.0800 
 48 H       -5.8050     1.6870    -0.4240 H     1 <1>   0.0800 
 49 H       -4.6340     2.9160    -0.0410 H     1 <1>   0.0800 
 50 H       -8.0580     3.7710     2.1880 H     1 <1>   0.0800 
 51 H       -9.1740     2.5130     1.7490 H     1 <1>   0.0800 
 52 H       -6.5960     3.7680    -1.3160 H     1 <1>   0.0800 
 53 H       -6.3920     4.5860     0.2030 H     1 <1>   0.0800 
 54 H      -10.0780     3.9540    -1.3290 H     1 <1>   0.1500 
 55 H       -8.5250    -0.5820    -1.8280 H     1 <1>   0.1500 
 56 H      -11.2670     2.4710    -2.9470 H     1 <1>   0.1500 
 57 H      -10.4260     0.1400    -3.1670 H     1 <1>   0.1500 
@<TRIPOS>BOND
  1   1   2  1   
  2   1   3  1   
  3   2   4  ar  
  4   2   5  ar  
  5   3   6  1   
  6   3  30  1   
  7   3  31  1   
  8   4   7  1   
  9   4   8  ar  
 10   5   9  ar  
 11   5  32  1   
 12   6  10  ar  
 13   6  11  ar  
 14   7  12  1   
 15   8  13  ar  
 16   8  33  1   
 17   9  13  ar  
 18   9  14  1   
 19  10  15  ar  
 20  10  34  1   
 21  11  16  ar  
 22  11  35  1   
 23  12  36  1   
 24  12  37  1   
 25  12  38  1   
 26  13  39  1   
 27  14  17  1   
 28  14  40  1   
 29  14  41  1   
 30  15  18  ar  
 31  15  42  1   
 32  16  18  ar  
 33  16  43  1   
 34  17  19  1   
 35  17  20  1   
 36  17  44  1   
 37  18  45  1   
 38  19  21  1   
 39  19  46  1   
 40  19  47  1   
 41  20  22  1   
 42  20  48  1   
 43  20  49  1   
 44  21  23  1   
 45  21  50  1   
 46  21  51  1   
 47  22  23  1   
 48  22  52  1   
 49  22  53  1   
 50  23  24  1   
 51  24  25  ar  
 52  24  26  ar  
 53  25  27  ar  
 54  26  28  ar  
 55  26  54  1   
 56  27  29  ar  
 57  27  55  1   
 58  28  29  ar  
 59  28  56  1   
 60  29  57  1   
@<TRIPOS>SUBSTRUCTURE
  1 ****   5 GROUP 4 **** **** 0

# MOE 2024.06 (io_trps.svl 2023.06)
