@<TRIPOS>MOLECULE
NONAME
36 38 1 0 0 
SMALL
USER_CHARGES


@<TRIPOS>ATOM
  1 S       -0.3730     0.7080    -1.5690 S.2   1 <1>  -0.3800 
  2 C       -0.8350     1.6390    -0.3510 C.2   1 <1>   0.6710 
  3 S        0.3910     2.2780     0.7480 S.3   1 <1>  -0.3710 
  4 O       -2.0570     2.0080    -0.0470 O.3   1 <1>  -0.4300 
  5 C        2.0200     1.6410     0.1410 C.3   1 <1>  -0.0100 
  6 C       -3.0550     1.5000    -0.9240 C.3   1 <1>   0.1200 
  7 C       -4.4500     1.9880    -0.4840 C.3   1 <1>   0.0000 
  8 C       -5.5150     1.4230    -1.4530 C.3   1 <1>  -0.1600 
  9 C       -4.7830     1.5000     0.9460 C.3   1 <1>  -0.1600 
 10 C       -4.5330     3.5320    -0.5130 C.3   1 <1>  -0.1600 
 11 C       -6.9260     1.8880    -1.0460 C.3   1 <1>  -0.0800 
 12 C       -6.1890     1.9670     1.3660 C.3   1 <1>  -0.0800 
 13 C       -5.9390     4.0080    -0.1000 C.3   1 <1>  -0.0800 
 14 C       -7.2280     1.3970     0.3820 C.3   1 <1>  -0.1600 
 15 C       -6.9790     3.4270    -1.0750 C.3   1 <1>  -0.1600 
 16 C       -6.2430     3.5060     1.3240 C.3   1 <1>  -0.1600 
 17 H        2.7830     2.0190     0.7970 H     1 <1>   0.0800 
 18 H        2.1670     2.0000    -0.8620 H     1 <1>   0.0800 
 19 H        1.9900     0.5670     0.1680 H     1 <1>   0.0800 
 20 H       -3.0240     0.4240    -0.8990 H     1 <1>   0.0800 
 21 H       -2.8500     1.8490    -1.9220 H     1 <1>   0.0800 
 22 H       -5.3090     1.7510    -2.4560 H     1 <1>   0.0800 
 23 H       -5.4810     0.3470    -1.4480 H     1 <1>   0.0800 
 24 H       -4.0600     1.8860     1.6440 H     1 <1>   0.0800 
 25 H       -4.7330     0.4260     0.9890 H     1 <1>   0.0800 
 26 H       -4.3080     3.8940    -1.5010 H     1 <1>   0.0800 
 27 H       -3.8060     3.9520     0.1600 H     1 <1>   0.0800 
 28 H       -7.6540     1.4860    -1.7300 H     1 <1>   0.0800 
 29 H       -6.4040     1.6230     2.3630 H     1 <1>   0.0800 
 30 H       -5.9800     5.0840    -0.1220 H     1 <1>   0.0800 
 31 H       -7.2040     0.3210     0.4110 H     1 <1>   0.0800 
 32 H       -8.2150     1.7100     0.6740 H     1 <1>   0.0800 
 33 H       -7.9630     3.7620    -0.8000 H     1 <1>   0.0800 
 34 H       -6.7800     3.7800    -2.0720 H     1 <1>   0.0800 
 35 H       -7.2180     3.8440     1.6290 H     1 <1>   0.0800 
 36 H       -5.5260     3.9140     2.0150 H     1 <1>   0.0800 
@<TRIPOS>BOND
  1   1   2  2   
  2   2   3  1   
  3   2   4  1   
  4   3   5  1   
  5   4   6  1   
  6   5  17  1   
  7   5  18  1   
  8   5  19  1   
  9   6   7  1   
 10   6  20  1   
 11   6  21  1   
 12   7   8  1   
 13   7   9  1   
 14   7  10  1   
 15   8  11  1   
 16   8  22  1   
 17   8  23  1   
 18   9  12  1   
 19   9  24  1   
 20   9  25  1   
 21  10  13  1   
 22  10  26  1   
 23  10  27  1   
 24  11  14  1   
 25  11  15  1   
 26  11  28  1   
 27  12  14  1   
 28  12  16  1   
 29  12  29  1   
 30  13  15  1   
 31  13  16  1   
 32  13  30  1   
 33  14  31  1   
 34  14  32  1   
 35  15  33  1   
 36  15  34  1   
 37  16  35  1   
 38  16  36  1   
@<TRIPOS>SUBSTRUCTURE
  1 ****   7 GROUP 4 **** **** 0

# MOE 2024.06 (io_trps.svl 2023.06)
