@<TRIPOS>MOLECULE
NONAME
37 37 1 0 0 
SMALL
USER_CHARGES


@<TRIPOS>ATOM
  1 O       -0.0320     0.3870    -0.5260 O.2   1 <1>  -0.5700 
  2 C       -0.7980     1.1460     0.0350 C.2   1 <1>   0.6900 
  3 N       -2.1240     0.8650     0.1680 N.am  1 <1>  -0.5470 
  4 N       -0.3700     2.3250     0.5550 N.am  1 <1>  -0.7300 
  5 C       -2.9190    -0.2430    -0.1730 C.ar  1 <1>   0.1170 
  6 C        0.9960     2.8890     0.5400 C.3   1 <1>   0.2200 
  7 C       -4.3100    -0.0900    -0.1390 C.ar  1 <1>   0.0830 
  8 C       -2.3910    -1.4800    -0.5290 C.ar  1 <1>  -0.1500 
  9 C        1.4770     3.0880    -0.9070 C.3   1 <1>  -0.1600 
 10 C        1.9210     2.0060     1.3770 C.3   1 <1>  -0.2400 
 11 O       -4.7920     1.1380     0.2270 O.3   1 <1>  -0.3630 
 12 C       -5.1390    -1.1590    -0.4660 C.ar  1 <1>  -0.1500 
 13 C       -3.2200    -2.5400    -0.8540 C.ar  1 <1>  -0.1500 
 14 C        2.7510     3.9390    -1.0080 C.3   1 <1>  -0.2400 
 15 C       -6.1740     1.4120     0.2200 C.3   1 <1>   0.1200 
 16 C       -4.5930    -2.3800    -0.8230 C.ar  1 <1>  -0.1500 
 17 C       -6.3670     2.8690     0.6310 C.3   1 <1>  -0.2400 
 18 H       -2.6930     1.6520     0.4680 H     1 <1>   0.3700 
 19 H       -1.0260     2.8470     1.1290 H     1 <1>   0.3700 
 20 H        0.9460     3.8580     1.0070 H     1 <1>   0.0800 
 21 H       -1.3280    -1.6260    -0.5540 H     1 <1>   0.1500 
 22 H        0.6980     3.5770    -1.4650 H     1 <1>   0.0800 
 23 H        1.6610     2.1310    -1.3630 H     1 <1>   0.0800 
 24 H        2.0660     1.0520     0.9010 H     1 <1>   0.0800 
 25 H        1.5030     1.8510     2.3550 H     1 <1>   0.0800 
 26 H        2.8810     2.4740     1.4930 H     1 <1>   0.0800 
 27 H       -6.2080    -1.0690    -0.4490 H     1 <1>   0.1500 
 28 H       -2.7910    -3.4880    -1.1300 H     1 <1>   0.1500 
 29 H        2.6050     4.8970    -0.5420 H     1 <1>   0.0800 
 30 H        3.0010     4.0960    -2.0420 H     1 <1>   0.0800 
 31 H        3.5810     3.4420    -0.5360 H     1 <1>   0.0800 
 32 H       -6.6560     0.7530     0.9210 H     1 <1>   0.0800 
 33 H       -6.5500     1.2450    -0.7740 H     1 <1>   0.0800 
 34 H       -5.2350    -3.2060    -1.0770 H     1 <1>   0.1500 
 35 H       -5.9760     3.0290     1.6200 H     1 <1>   0.0800 
 36 H       -7.4140     3.1090     0.6340 H     1 <1>   0.0800 
 37 H       -5.8680     3.5190    -0.0650 H     1 <1>   0.0800 
@<TRIPOS>BOND
  1   1   2  2   
  2   2   3  am  
  3   2   4  am  
  4   3   5  1   
  5   3  18  1   
  6   4   6  1   
  7   4  19  1   
  8   5   7  ar  
  9   5   8  ar  
 10   6   9  1   
 11   6  10  1   
 12   6  20  1   
 13   7  11  1   
 14   7  12  ar  
 15   8  13  ar  
 16   8  21  1   
 17   9  14  1   
 18   9  22  1   
 19   9  23  1   
 20  10  24  1   
 21  10  25  1   
 22  10  26  1   
 23  11  15  1   
 24  12  16  ar  
 25  12  27  1   
 26  13  16  ar  
 27  13  28  1   
 28  14  29  1   
 29  14  30  1   
 30  14  31  1   
 31  15  17  1   
 32  15  32  1   
 33  15  33  1   
 34  16  34  1   
 35  17  35  1   
 36  17  36  1   
 37  17  37  1   
@<TRIPOS>SUBSTRUCTURE
  1 ****   3 GROUP 4 **** **** 0

# MOE 2024.06 (io_trps.svl 2023.06)
