@<TRIPOS>MOLECULE
NONAME
44 46 1 0 0 
SMALL
USER_CHARGES


@<TRIPOS>ATOM
  1 S       -0.1690    -0.1060     0.4290 S.3   1 <1>  -0.3320 
  2 C       -1.7180    -0.8910    -0.0460 C.ar  1 <1>   0.1020 
  3 C        0.3770    -0.8960     2.0070 C.3   1 <1>  -0.0100 
  4 C       -2.3380    -1.8440     0.7450 C.ar  1 <1>  -0.1500 
  5 C       -2.2730    -0.5010    -1.2490 C.ar  1 <1>  -0.1500 
  6 C       -3.5320    -2.4040     0.3230 C.ar  1 <1>  -0.1500 
  7 C       -3.4660    -1.0630    -1.6690 C.ar  1 <1>  -0.1500 
  8 C       -4.1050    -2.0120    -0.8810 C.ar  1 <1>  -0.1430 
  9 C       -5.4240    -2.6090    -1.3340 C.3   1 <1>   0.4860 
 10 N       -6.5210    -1.9860    -0.5450 N.4   1 <1>  -0.9590 
 11 C       -7.8470    -2.6610    -0.8030 C.3   1 <1>   0.3430 
 12 C       -6.6100    -0.4960    -0.7950 C.3   1 <1>   0.3430 
 13 C       -9.0100    -2.0070    -0.0260 C.3   1 <1>   0.2090 
 14 C       -7.7660     0.1720    -0.0210 C.3   1 <1>   0.2090 
 15 N       -9.0520    -0.5390    -0.2800 N.pl3 1 <1>  -0.8380 
 16 C      -10.2110     0.1220     0.1120 C.ar  1 <1>   0.1000 
 17 C      -11.0770     0.6120    -0.8610 C.ar  1 <1>  -0.1500 
 18 C      -10.5230     0.3020     1.4590 C.ar  1 <1>  -0.1500 
 19 C      -12.2400     1.2740    -0.5040 C.ar  1 <1>  -0.1500 
 20 C      -11.6820     0.9610     1.8310 C.ar  1 <1>  -0.1500 
 21 C      -12.5200     1.4350     0.8390 C.ar  1 <1>   0.1900 
 22 F      -13.6170     2.0590     1.1850 F     1 <1>  -0.1900 
 23 H        1.3180    -0.4540     2.2800 H     1 <1>   0.0800 
 24 H        0.4900    -1.9500     1.8300 H     1 <1>   0.0800 
 25 H       -0.3680    -0.6970     2.7560 H     1 <1>   0.0800 
 26 H       -1.9050    -2.1540     1.6770 H     1 <1>   0.1500 
 27 H       -1.7670     0.2360    -1.8490 H     1 <1>   0.1500 
 28 H       -3.9990    -3.1500     0.9440 H     1 <1>   0.1500 
 29 H       -3.8790    -0.7510    -2.6140 H     1 <1>   0.1500 
 30 H       -5.4050    -3.6750    -1.1700 H     1 <1>   0.0800 
 31 H       -5.5690    -2.4270    -2.3860 H     1 <1>   0.0800 
 32 H       -6.2800    -2.1030     0.4460 H     1 <1>   0.4500 
 33 H       -7.7890    -3.7030    -0.5330 H     1 <1>   0.0800 
 34 H       -8.0800    -2.6040    -1.8530 H     1 <1>   0.0800 
 35 H       -6.7670    -0.3160    -1.8460 H     1 <1>   0.0800 
 36 H       -5.6840    -0.0200    -0.5150 H     1 <1>   0.0800 
 37 H       -8.8970    -2.1900     1.0290 H     1 <1>   0.0800 
 38 H       -9.9420    -2.4470    -0.3400 H     1 <1>   0.0800 
 39 H       -7.8590     1.1980    -0.3340 H     1 <1>   0.0800 
 40 H       -7.5530     0.1660     1.0330 H     1 <1>   0.0800 
 41 H      -10.8330     0.4720    -1.8970 H     1 <1>   0.1500 
 42 H       -9.8600    -0.0730     2.2150 H     1 <1>   0.1500 
 43 H      -12.9170     1.6570    -1.2460 H     1 <1>   0.1500 
 44 H      -11.9380     1.1080     2.8650 H     1 <1>   0.1500 
@<TRIPOS>BOND
  1   1   2  1   
  2   1   3  1   
  3   2   4  ar  
  4   2   5  ar  
  5   3  23  1   
  6   3  24  1   
  7   3  25  1   
  8   4   6  ar  
  9   4  26  1   
 10   5   7  ar  
 11   5  27  1   
 12   6   8  ar  
 13   6  28  1   
 14   7   8  ar  
 15   7  29  1   
 16   8   9  1   
 17   9  10  1   
 18   9  30  1   
 19   9  31  1   
 20  10  11  1   
 21  10  12  1   
 22  10  32  1   
 23  11  13  1   
 24  11  33  1   
 25  11  34  1   
 26  12  14  1   
 27  12  35  1   
 28  12  36  1   
 29  13  15  1   
 30  13  37  1   
 31  13  38  1   
 32  14  15  1   
 33  14  39  1   
 34  14  40  1   
 35  15  16  1   
 36  16  17  ar  
 37  16  18  ar  
 38  17  19  ar  
 39  17  41  1   
 40  18  20  ar  
 41  18  42  1   
 42  19  21  ar  
 43  19  43  1   
 44  20  21  ar  
 45  20  44  1   
 46  21  22  1   
@<TRIPOS>SUBSTRUCTURE
  1 ****  12 GROUP 4 **** **** 0

# MOE 2024.06 (io_trps.svl 2023.06)
