@<TRIPOS>MOLECULE
NONAME
36 36 1 0 0 
SMALL
USER_CHARGES


@<TRIPOS>ATOM
  1 O       -0.2410    -0.5340    -0.5830 O.2   1 <1>  -0.5700 
  2 C       -0.0620    -1.3810     0.2680 C.2   1 <1>   0.6900 
  3 N        1.1870    -1.7980     0.6200 N.am  1 <1>  -0.5470 
  4 N       -1.1050    -1.9690     0.9120 N.am  1 <1>  -0.7300 
  5 C        2.4560    -1.3100     0.2750 C.ar  1 <1>   0.1170 
  6 C       -2.5490    -1.7320     0.7080 C.3   1 <1>   0.2200 
  7 C        2.6760     0.0020    -0.1310 C.ar  1 <1>  -0.1500 
  8 C        3.5480    -2.1650     0.3640 C.ar  1 <1>  -0.1500 
  9 C       -2.9480    -2.0490    -0.7420 C.3   1 <1>  -0.1600 
 10 C       -2.8960    -0.3070     1.1410 C.3   1 <1>  -0.2400 
 11 C        3.9480     0.4500    -0.4460 C.ar  1 <1>  -0.1430 
 12 C        4.8260    -1.7320     0.0540 C.ar  1 <1>  -0.1430 
 13 C       -4.4680    -2.1220    -0.9480 C.3   1 <1>  -0.2400 
 14 C        5.0200    -0.4210    -0.3500 C.ar  1 <1>  -0.1500 
 15 C        4.1690     1.8840    -0.8910 C.3   1 <1>  -0.0970 
 16 C        6.0140    -2.6720     0.1520 C.3   1 <1>  -0.0970 
 17 H        1.1940    -2.6740     1.1260 H     1 <1>   0.3700 
 18 H       -0.8930    -2.4950     1.7540 H     1 <1>   0.3700 
 19 H       -3.0780    -2.4150     1.3520 H     1 <1>   0.0800 
 20 H        1.8450     0.6790    -0.1980 H     1 <1>   0.1500 
 21 H        3.3940    -3.1810     0.6750 H     1 <1>   0.1500 
 22 H       -2.5230    -2.9990    -1.0170 H     1 <1>   0.0800 
 23 H       -2.5440    -1.3020    -1.4030 H     1 <1>   0.0800 
 24 H       -2.4520     0.4090     0.4730 H     1 <1>   0.0800 
 25 H       -2.5420    -0.1250     2.1390 H     1 <1>   0.0800 
 26 H       -3.9600    -0.1630     1.1310 H     1 <1>   0.0800 
 27 H       -4.9050    -2.8500    -0.2870 H     1 <1>   0.0800 
 28 H       -4.6830    -2.4090    -1.9620 H     1 <1>   0.0800 
 29 H       -4.9250    -1.1660    -0.7670 H     1 <1>   0.0800 
 30 H        6.0100    -0.0770    -0.5910 H     1 <1>   0.1500 
 31 H        3.2470     2.3220    -1.2290 H     1 <1>   0.0800 
 32 H        4.8760     1.9160    -1.7000 H     1 <1>   0.0800 
 33 H        4.5500     2.4650    -0.0710 H     1 <1>   0.0800 
 34 H        5.6910    -3.6850     0.3090 H     1 <1>   0.0800 
 35 H        6.6430    -2.3780     0.9720 H     1 <1>   0.0800 
 36 H        6.5870    -2.6340    -0.7570 H     1 <1>   0.0800 
@<TRIPOS>BOND
  1   1   2  2   
  2   2   3  am  
  3   2   4  am  
  4   3   5  1   
  5   3  17  1   
  6   4   6  1   
  7   4  18  1   
  8   5   7  ar  
  9   5   8  ar  
 10   6   9  1   
 11   6  10  1   
 12   6  19  1   
 13   7  11  ar  
 14   7  20  1   
 15   8  12  ar  
 16   8  21  1   
 17   9  13  1   
 18   9  22  1   
 19   9  23  1   
 20  10  24  1   
 21  10  25  1   
 22  10  26  1   
 23  11  14  ar  
 24  11  15  1   
 25  12  14  ar  
 26  12  16  1   
 27  13  27  1   
 28  13  28  1   
 29  13  29  1   
 30  14  30  1   
 31  15  31  1   
 32  15  32  1   
 33  15  33  1   
 34  16  34  1   
 35  16  35  1   
 36  16  36  1   
@<TRIPOS>SUBSTRUCTURE
  1 ****   3 GROUP 4 **** **** 0

# MOE 2024.06 (io_trps.svl 2023.06)
