@<TRIPOS>MOLECULE
NONAME
38 39 1 0 0 
SMALL
USER_CHARGES


@<TRIPOS>ATOM
  1 O       -0.0460    -0.3160    -1.5800 O.2   1 <1>  -0.5700 
  2 C       -0.8470    -0.8010    -0.8130 C.2   1 <1>   0.5690 
  3 N       -0.4780    -1.5120     0.2890 N.am  1 <1>  -0.4930 
  4 C       -2.3430    -0.6140    -1.0960 C.3   1 <1>   0.2610 
  5 C        0.7830    -1.8540     0.7710 C.2   1 <1>   0.3520 
  6 O       -3.0950    -0.9390     0.0680 O.3   1 <1>  -0.3630 
  7 C       -2.8210    -1.5160    -2.2440 C.3   1 <1>  -0.2400 
  8 N        0.9280    -2.5380     1.8510 N.2   1 <1>  -0.4100 
  9 C        2.0250    -1.5430     0.2140 C.2   1 <1>  -0.1500 
 10 C       -4.3540    -0.4820     0.2940 C.ar  1 <1>   0.0830 
 11 O        2.2190    -2.6830     2.0170 O.3   1 <1>  -0.0190 
 12 C        2.8980    -2.1040     1.0610 C.2   1 <1>  -0.0400 
 13 C       -5.0410     0.3860    -0.5500 C.ar  1 <1>  -0.1500 
 14 C       -4.9700    -0.9260     1.4510 C.ar  1 <1>  -0.1500 
 15 C        4.4110    -2.1560     1.0690 C.3   1 <1>  -0.0600 
 16 C       -6.3270     0.8040    -0.2410 C.ar  1 <1>  -0.1430 
 17 C       -6.2510    -0.5120     1.7640 C.ar  1 <1>  -0.1500 
 18 C       -6.9380     0.3510     0.9250 C.ar  1 <1>  -0.1430 
 19 C       -7.0450     1.7530    -1.1910 C.3   1 <1>  -0.0970 
 20 C       -8.3480     0.7830     1.3050 C.3   1 <1>  -0.0970 
 21 H       -1.2450    -1.8330     0.8810 H     1 <1>   0.3700 
 22 H       -2.4970     0.4230    -1.3270 H     1 <1>   0.0800 
 23 H       -2.6520    -2.5490    -1.9990 H     1 <1>   0.0800 
 24 H       -2.2690    -1.2850    -3.1380 H     1 <1>   0.0800 
 25 H       -3.8660    -1.3650    -2.4440 H     1 <1>   0.0800 
 26 H        2.1960    -0.9830    -0.6850 H     1 <1>   0.1500 
 27 H       -4.5900     0.7460    -1.4530 H     1 <1>   0.1500 
 28 H       -4.4440    -1.5950     2.1070 H     1 <1>   0.1500 
 29 H        4.8040    -1.6330     0.2170 H     1 <1>   0.0800 
 30 H        4.7400    -3.1790     1.0340 H     1 <1>   0.0800 
 31 H        4.7870    -1.6980     1.9660 H     1 <1>   0.0800 
 32 H       -6.7100    -0.8700     2.6680 H     1 <1>   0.1500 
 33 H       -6.4280     1.9990    -2.0360 H     1 <1>   0.0800 
 34 H       -7.2940     2.6660    -0.6800 H     1 <1>   0.0800 
 35 H       -7.9470     1.2970    -1.5540 H     1 <1>   0.0800 
 36 H       -8.3880     1.8510     1.4180 H     1 <1>   0.0800 
 37 H       -8.6520     0.3350     2.2330 H     1 <1>   0.0800 
 38 H       -9.0430     0.4820     0.5430 H     1 <1>   0.0800 
@<TRIPOS>BOND
  1   1   2  2   
  2   2   3  am  
  3   2   4  1   
  4   3   5  1   
  5   3  21  1   
  6   4   6  1   
  7   4   7  1   
  8   4  22  1   
  9   5   8  2   
 10   5   9  1   
 11   6  10  1   
 12   7  23  1   
 13   7  24  1   
 14   7  25  1   
 15   8  11  1   
 16   9  12  2   
 17   9  26  1   
 18  10  13  ar  
 19  10  14  ar  
 20  11  12  1   
 21  12  15  1   
 22  13  16  ar  
 23  13  27  1   
 24  14  17  ar  
 25  14  28  1   
 26  15  29  1   
 27  15  30  1   
 28  15  31  1   
 29  16  18  ar  
 30  16  19  1   
 31  17  18  ar  
 32  17  32  1   
 33  18  20  1   
 34  19  33  1   
 35  19  34  1   
 36  19  35  1   
 37  20  36  1   
 38  20  37  1   
 39  20  38  1   
@<TRIPOS>SUBSTRUCTURE
  1 ****   6 GROUP 4 **** **** 0

# MOE 2024.06 (io_trps.svl 2023.06)
