@<TRIPOS>MOLECULE
NONAME
40 41 1 0 0 
SMALL
USER_CHARGES


@<TRIPOS>ATOM
  1 O        0.2780    -0.6760    -0.7030 O.2   1 <1>  -0.5700 
  2 C       -0.2210    -1.4780     0.0580 C.2   1 <1>   0.6340 
  3 O        0.3990    -1.7470     1.2120 O.3   1 <1>  -0.4300 
  4 C       -1.4710    -2.1640    -0.2220 C.ar  1 <1>   0.0860 
  5 C        1.6200    -1.1260     1.5640 C.3   1 <1>   0.0400 
  6 C       -2.0480    -3.0590     0.6810 C.ar  1 <1>  -0.1500 
  7 C       -2.1530    -1.9510    -1.4210 C.ar  1 <1>  -0.1500 
  8 C       -3.2430    -3.7010     0.4070 C.ar  1 <1>  -0.1500 
  9 C       -3.3470    -2.5870    -1.7050 C.ar  1 <1>  -0.1500 
 10 C       -3.9060    -3.4640    -0.7880 C.ar  1 <1>  -0.1440 
 11 C       -5.2260    -4.1500    -1.0870 C.3   1 <1>   0.4860 
 12 N       -6.2910    -3.5130    -0.2670 N.4   1 <1>  -0.9590 
 13 C       -7.5630    -4.3010    -0.2970 C.3   1 <1>   0.3430 
 14 C       -6.5130    -2.0840    -0.6240 C.3   1 <1>   0.3430 
 15 C       -8.7490    -3.5280     0.3190 C.3   1 <1>  -0.0800 
 16 C       -7.3570    -1.4120     0.4670 C.3   1 <1>  -0.1600 
 17 C       -8.2900    -2.3750     1.2270 C.3   1 <1>  -0.1600 
 18 C       -9.6690    -4.4810     1.0940 C.3   1 <1>  -0.2400 
 19 H        1.9270    -1.4950     2.5260 H     1 <1>   0.0800 
 20 H        1.4690    -0.0610     1.6060 H     1 <1>   0.0800 
 21 H        2.3600    -1.3660     0.8200 H     1 <1>   0.0800 
 22 H       -1.5490    -3.2580     1.6150 H     1 <1>   0.1500 
 23 H       -1.7300    -1.2710    -2.1440 H     1 <1>   0.1500 
 24 H       -3.6400    -4.3870     1.1360 H     1 <1>   0.1500 
 25 H       -3.8270    -2.3890    -2.6490 H     1 <1>   0.1500 
 26 H       -5.1440    -5.1960    -0.8400 H     1 <1>   0.0800 
 27 H       -5.4600    -4.0630    -2.1350 H     1 <1>   0.0800 
 28 H       -5.9530    -3.5030     0.7030 H     1 <1>   0.4500 
 29 H       -7.4200    -5.2180     0.2520 H     1 <1>   0.0800 
 30 H       -7.8140    -4.5620    -1.3130 H     1 <1>   0.0800 
 31 H       -7.0320    -2.0280    -1.5680 H     1 <1>   0.0800 
 32 H       -5.5750    -1.5610    -0.7200 H     1 <1>   0.0800 
 33 H       -9.3250    -3.1090    -0.4900 H     1 <1>   0.0800 
 34 H       -7.9440    -0.6410    -0.0010 H     1 <1>   0.0800 
 35 H       -6.7060    -0.9210     1.1690 H     1 <1>   0.0800 
 36 H       -7.7670    -2.7790     2.0780 H     1 <1>   0.0800 
 37 H       -9.1410    -1.8300     1.6020 H     1 <1>   0.0800 
 38 H       -9.1510    -4.9280     1.9250 H     1 <1>   0.0800 
 39 H      -10.0310    -5.2660     0.4530 H     1 <1>   0.0800 
 40 H      -10.5210    -3.9470     1.4770 H     1 <1>   0.0800 
@<TRIPOS>BOND
  1   1   2  2   
  2   2   3  1   
  3   2   4  1   
  4   3   5  1   
  5   4   6  ar  
  6   4   7  ar  
  7   5  19  1   
  8   5  20  1   
  9   5  21  1   
 10   6   8  ar  
 11   6  22  1   
 12   7   9  ar  
 13   7  23  1   
 14   8  10  ar  
 15   8  24  1   
 16   9  10  ar  
 17   9  25  1   
 18  10  11  1   
 19  11  12  1   
 20  11  26  1   
 21  11  27  1   
 22  12  13  1   
 23  12  14  1   
 24  12  28  1   
 25  13  15  1   
 26  13  29  1   
 27  13  30  1   
 28  14  16  1   
 29  14  31  1   
 30  14  32  1   
 31  15  17  1   
 32  15  18  1   
 33  15  33  1   
 34  16  17  1   
 35  16  34  1   
 36  16  35  1   
 37  17  36  1   
 38  17  37  1   
 39  18  38  1   
 40  18  39  1   
 41  18  40  1   
@<TRIPOS>SUBSTRUCTURE
  1 ****  10 GROUP 4 **** **** 0

# MOE 2024.06 (io_trps.svl 2023.06)
