@<TRIPOS>MOLECULE
NONAME
54 56 1 0 0 
SMALL
USER_CHARGES


@<TRIPOS>ATOM
  1 S       -0.0550     0.2240    -0.7750 S.o2  1 <1>   1.4470 
  2 O       -0.1910     1.0070     0.4340 O.2   1 <1>  -0.6500 
  3 O        0.0970     0.9010    -2.0440 O.2   1 <1>  -0.6500 
  4 N        1.3130    -0.7490    -0.5680 N.am  1 <1>  -0.8490 
  5 C       -1.3990    -0.9830    -0.8970 C.ar  1 <1>  -0.0090 
  6 C        1.3110    -1.5190     0.6980 C.3   1 <1>   0.1960 
  7 C        2.5570     0.0120    -0.7220 C.3   1 <1>   0.1960 
  8 C       -2.2850    -1.1870     0.1490 C.ar  1 <1>  -0.1500 
  9 C       -1.5600    -1.7600    -2.0380 C.ar  1 <1>  -0.1500 
 10 C        2.7220    -1.8030     1.2760 C.3   1 <1>   0.2000 
 11 C        3.8080    -0.9010    -0.6310 C.3   1 <1>   0.2000 
 12 C       -3.3120    -2.1270     0.0950 C.ar  1 <1>   0.0860 
 13 C       -2.5630    -2.7030    -2.1180 C.ar  1 <1>  -0.1500 
 14 O        3.6520    -1.9810     0.2520 O.3   1 <1>  -0.5600 
 15 C        2.7570    -3.0630     2.1380 C.3   1 <1>  -0.2400 
 16 C        5.0580    -0.1330    -0.2010 C.3   1 <1>  -0.2400 
 17 C       -3.4430    -2.9120    -1.0630 C.ar  1 <1>   0.1000 
 18 C       -4.2100    -2.2420     1.2150 C.2   1 <1>   0.5440 
 19 N       -4.4030    -3.9040    -1.2120 N.pl3 1 <1>  -0.8380 
 20 O       -3.9050    -2.8990     2.1920 O.2   1 <1>  -0.5700 
 21 N       -5.4050    -1.5760     1.2040 N.am  1 <1>  -0.7300 
 22 C       -4.5310    -5.0420    -0.2480 C.3   1 <1>   0.2090 
 23 C       -5.5630    -3.7420    -2.1320 C.3   1 <1>   0.2090 
 24 C       -6.4110    -1.5760     2.2960 C.3   1 <1>   0.0600 
 25 C       -5.9350    -5.0920     0.3840 C.3   1 <1>   0.1200 
 26 C       -6.8910    -3.8460    -1.3600 C.3   1 <1>   0.1200 
 27 O       -6.9390    -5.0170    -0.5940 O.3   1 <1>  -0.5600 
 28 H        0.8100    -2.4550     0.5190 H     1 <1>   0.0800 
 29 H        0.7520    -1.0030     1.4600 H     1 <1>   0.0800 
 30 H        2.6060     0.7720     0.0400 H     1 <1>   0.0800 
 31 H        2.5670     0.5110    -1.6760 H     1 <1>   0.0800 
 32 H       -2.1840    -0.5990     1.0460 H     1 <1>   0.1500 
 33 H       -0.8850    -1.6220    -2.8670 H     1 <1>   0.1500 
 34 H        3.0420    -0.9630     1.8690 H     1 <1>   0.0800 
 35 H        3.9820    -1.3320    -1.6020 H     1 <1>   0.0800 
 36 H       -2.6690    -3.3040    -3.0030 H     1 <1>   0.1500 
 37 H        2.4840    -3.9220     1.5520 H     1 <1>   0.0800 
 38 H        2.0700    -2.9700     2.9600 H     1 <1>   0.0800 
 39 H        3.7460    -3.2050     2.5340 H     1 <1>   0.0800 
 40 H        4.9260     0.2910     0.7780 H     1 <1>   0.0800 
 41 H        5.2580     0.6620    -0.8970 H     1 <1>   0.0800 
 42 H        5.9040    -0.7960    -0.1900 H     1 <1>   0.0800 
 43 H       -5.6470    -1.0410     0.3680 H     1 <1>   0.3700 
 44 H       -3.7890    -4.9580     0.5260 H     1 <1>   0.0800 
 45 H       -4.3530    -5.9640    -0.7730 H     1 <1>   0.0800 
 46 H       -5.5290    -4.5120    -2.8830 H     1 <1>   0.0800 
 47 H       -5.5060    -2.7880    -2.6270 H     1 <1>   0.0800 
 48 H       -6.0530    -2.1440     3.1380 H     1 <1>   0.0800 
 49 H       -7.3290    -2.0160     1.9460 H     1 <1>   0.0800 
 50 H       -6.6000    -0.5660     2.6160 H     1 <1>   0.0800 
 51 H       -6.0670    -4.2790     1.0740 H     1 <1>   0.0800 
 52 H       -6.0650    -6.0150     0.9190 H     1 <1>   0.0800 
 53 H       -7.7180    -3.8700    -2.0470 H     1 <1>   0.0800 
 54 H       -7.0100    -3.0030    -0.7030 H     1 <1>   0.0800 
@<TRIPOS>BOND
  1   1   2  2   
  2   1   3  2   
  3   1   4  am  
  4   1   5  1   
  5   4   6  1   
  6   4   7  1   
  7   5   8  ar  
  8   5   9  ar  
  9   6  10  1   
 10   6  28  1   
 11   6  29  1   
 12   7  11  1   
 13   7  30  1   
 14   7  31  1   
 15   8  12  ar  
 16   8  32  1   
 17   9  13  ar  
 18   9  33  1   
 19  10  14  1   
 20  10  15  1   
 21  10  34  1   
 22  11  14  1   
 23  11  16  1   
 24  11  35  1   
 25  12  17  ar  
 26  12  18  1   
 27  13  17  ar  
 28  13  36  1   
 29  15  37  1   
 30  15  38  1   
 31  15  39  1   
 32  16  40  1   
 33  16  41  1   
 34  16  42  1   
 35  17  19  1   
 36  18  20  2   
 37  18  21  am  
 38  19  22  1   
 39  19  23  1   
 40  21  24  1   
 41  21  43  1   
 42  22  25  1   
 43  22  44  1   
 44  22  45  1   
 45  23  26  1   
 46  23  46  1   
 47  23  47  1   
 48  24  48  1   
 49  24  49  1   
 50  24  50  1   
 51  25  27  1   
 52  25  51  1   
 53  25  52  1   
 54  26  27  1   
 55  26  53  1   
 56  26  54  1   
@<TRIPOS>SUBSTRUCTURE
  1 ****   8 GROUP 4 **** **** 0

# MOE 2024.06 (io_trps.svl 2023.06)
