@<TRIPOS>MOLECULE
NONAME
27 27 1 0 0 
SMALL
USER_CHARGES


@<TRIPOS>ATOM
  1 CL       1.0630     1.0720     2.6520 Cl    1 <1>  -0.1770 
  2 C        2.1770     1.5820     1.4110 C.ar  1 <1>   0.1770 
  3 C        3.3370     0.8620     1.2010 C.ar  1 <1>  -0.1500 
  4 C        1.8860     2.6980     0.6520 C.ar  1 <1>  -0.1500 
  5 C        4.2180     1.2730     0.2150 C.ar  1 <1>  -0.1500 
  6 C        2.7760     3.0980    -0.3310 C.ar  1 <1>  -0.1500 
  7 C        3.9570     2.3970    -0.5650 C.ar  1 <1>  -0.0090 
  8 S        5.1370     2.9470    -1.8230 S.o2  1 <1>   1.2040 
  9 O        4.5090     3.9330    -2.6750 O.2   1 <1>  -0.6500 
 10 O        5.7750     1.7900    -2.4080 O.2   1 <1>  -0.6500 
 11 C        6.3820     3.7950    -0.8500 C.3   1 <1>  -0.0550 
 12 C        5.8610     5.0510    -0.1340 C.3   1 <1>  -0.0990 
 13 C        6.9610     5.6920     0.6760 C.2   1 <1>   0.6590 
 14 O        7.0670     5.4850     1.8550 O.2   1 <1>  -0.5700 
 15 O        7.8030     6.4640     0.0040 O.3   1 <1>  -0.4300 
 16 C        8.8830     7.1130     0.6430 C.3   1 <1>   0.0400 
 17 H        3.5420    -0.0070     1.8010 H     1 <1>   0.1500 
 18 H        0.9750     3.2420     0.8300 H     1 <1>   0.1500 
 19 H        5.1200     0.7070     0.0450 H     1 <1>   0.1500 
 20 H        2.5460     3.9660    -0.9280 H     1 <1>   0.1500 
 21 H        7.1870     4.0830    -1.4990 H     1 <1>   0.0800 
 22 H        6.7850     3.1170    -0.1210 H     1 <1>   0.0800 
 23 H        5.0570     4.7950     0.5320 H     1 <1>   0.0800 
 24 H        5.4950     5.7640    -0.8510 H     1 <1>   0.0800 
 25 H        9.4240     7.6820    -0.0920 H     1 <1>   0.0800 
 26 H        9.5250     6.3700     1.0850 H     1 <1>   0.0800 
 27 H        8.4940     7.7660     1.4050 H     1 <1>   0.0800 
@<TRIPOS>BOND
  1   1   2  1   
  2   2   3  ar  
  3   2   4  ar  
  4   3   5  ar  
  5   3  17  1   
  6   4   6  ar  
  7   4  18  1   
  8   5   7  ar  
  9   5  19  1   
 10   6   7  ar  
 11   6  20  1   
 12   7   8  1   
 13   8   9  2   
 14   8  10  2   
 15   8  11  1   
 16  11  12  1   
 17  11  21  1   
 18  11  22  1   
 19  12  13  1   
 20  12  23  1   
 21  12  24  1   
 22  13  14  2   
 23  13  15  1   
 24  15  16  1   
 25  16  25  1   
 26  16  26  1   
 27  16  27  1   
@<TRIPOS>SUBSTRUCTURE
  1 ****   7 GROUP 4 **** **** 0

# MOE 2024.06 (io_trps.svl 2023.06)
