@<TRIPOS>MOLECULE
NONAME
40 41 1 0 0 
SMALL
USER_CHARGES


@<TRIPOS>ATOM
  1 BR      -0.0650    -0.4450     1.7820 Br    1 <1>  -0.1110 
  2 C       -1.6970    -1.0620     0.9710 C.ar  1 <1>   0.1110 
  3 C       -2.3250    -2.1720     1.5000 C.ar  1 <1>  -0.1500 
  4 C       -2.1980    -0.3810    -0.1200 C.ar  1 <1>  -0.1500 
  5 C       -3.5010    -2.6110     0.9150 C.ar  1 <1>  -0.1500 
  6 C       -3.3740    -0.8260    -0.6980 C.ar  1 <1>  -0.1500 
  7 C       -4.0340    -1.9370    -0.1800 C.ar  1 <1>  -0.1430 
  8 C       -5.3310    -2.4090    -0.8090 C.3   1 <1>   0.4870 
  9 N       -6.4690    -2.0680     0.1100 N.4   1 <1>  -0.9590 
 10 C       -7.7640    -2.7460    -0.2410 C.3   1 <1>   0.4230 
 11 C       -6.5740    -0.5670     0.1960 C.3   1 <1>   0.2630 
 12 C       -8.8720    -2.3360     0.7430 C.3   1 <1>  -0.1600 
 13 C       -7.5990    -4.2760    -0.2180 C.3   1 <1>  -0.1600 
 14 C      -10.1800    -3.0870     0.4850 C.3   1 <1>   0.3430 
 15 C       -8.9250    -5.0010    -0.4620 C.3   1 <1>   0.3430 
 16 N       -9.9420    -4.5560     0.5290 N.4   1 <1>  -0.9590 
 17 C      -11.2310    -5.2950     0.3160 C.3   1 <1>   0.2630 
 18 H       -1.8950    -2.6790     2.3470 H     1 <1>   0.1500 
 19 H       -1.6720     0.4760    -0.5060 H     1 <1>   0.1500 
 20 H       -3.9800    -3.4850     1.3240 H     1 <1>   0.1500 
 21 H       -3.7580    -0.2970    -1.5550 H     1 <1>   0.1500 
 22 H       -5.2610    -3.4730    -0.9580 H     1 <1>   0.0800 
 23 H       -5.4680    -1.9390    -1.7690 H     1 <1>   0.0800 
 24 H       -6.1610    -2.3880     1.0390 H     1 <1>   0.4500 
 25 H       -8.0590    -2.4450    -1.2350 H     1 <1>   0.0800 
 26 H       -6.8810    -0.1520    -0.7500 H     1 <1>   0.0800 
 27 H       -5.6210    -0.1370     0.4630 H     1 <1>   0.0800 
 28 H       -7.2850    -0.2740     0.9510 H     1 <1>   0.0800 
 29 H       -9.0940    -1.2900     0.6400 H     1 <1>   0.0800 
 30 H       -8.5630    -2.5170     1.7570 H     1 <1>   0.0800 
 31 H       -7.1980    -4.5970     0.7270 H     1 <1>   0.0800 
 32 H       -6.9280    -4.5940    -0.9940 H     1 <1>   0.0800 
 33 H      -10.5740    -2.8120    -0.4810 H     1 <1>   0.0800 
 34 H      -10.9080    -2.8110     1.2320 H     1 <1>   0.0800 
 35 H       -8.7730    -6.0670    -0.3780 H     1 <1>   0.0800 
 36 H       -9.2760    -4.7940    -1.4610 H     1 <1>   0.0800 
 37 H       -9.6130    -4.8070     1.4760 H     1 <1>   0.4500 
 38 H      -11.6360    -5.0780    -0.6590 H     1 <1>   0.0800 
 39 H      -11.9570    -5.0070     1.0600 H     1 <1>   0.0800 
 40 H      -11.0720    -6.3590     0.3920 H     1 <1>   0.0800 
@<TRIPOS>BOND
  1   1   2  1   
  2   2   3  ar  
  3   2   4  ar  
  4   3   5  ar  
  5   3  18  1   
  6   4   6  ar  
  7   4  19  1   
  8   5   7  ar  
  9   5  20  1   
 10   6   7  ar  
 11   6  21  1   
 12   7   8  1   
 13   8   9  1   
 14   8  22  1   
 15   8  23  1   
 16   9  10  1   
 17   9  11  1   
 18   9  24  1   
 19  10  12  1   
 20  10  13  1   
 21  10  25  1   
 22  11  26  1   
 23  11  27  1   
 24  11  28  1   
 25  12  14  1   
 26  12  29  1   
 27  12  30  1   
 28  13  15  1   
 29  13  31  1   
 30  13  32  1   
 31  14  16  1   
 32  14  33  1   
 33  14  34  1   
 34  15  16  1   
 35  15  35  1   
 36  15  36  1   
 37  16  17  1   
 38  16  37  1   
 39  17  38  1   
 40  17  39  1   
 41  17  40  1   
@<TRIPOS>SUBSTRUCTURE
  1 ****   9 GROUP 4 **** **** 0

# MOE 2024.06 (io_trps.svl 2023.06)
