@<TRIPOS>MOLECULE
NONAME
38 40 1 0 0 
SMALL
USER_CHARGES


@<TRIPOS>ATOM
  1 CL       1.2840     0.4850    -3.0680 Cl    1 <1>  -0.1770 
  2 C        2.3180     1.0430    -1.7780 C.ar  1 <1>   0.1770 
  3 C        3.5890     0.5230    -1.6560 C.ar  1 <1>  -0.1500 
  4 C        1.8380     2.0030    -0.9000 C.ar  1 <1>  -0.1500 
  5 C        4.4240     0.9630    -0.6290 C.ar  1 <1>   0.0280 
  6 C        2.6540     2.4470     0.1230 C.ar  1 <1>  -0.1500 
  7 C        3.9370     1.9320     0.2580 C.ar  1 <1>   0.0830 
  8 C        5.7470     0.4810    -0.4280 C.2   1 <1>  -0.1780 
  9 O        4.7190     2.3790     1.2630 O.3   1 <1>  -0.2320 
 10 C        6.5150     0.9610     0.5890 C.2   1 <1>   0.0290 
 11 C        5.9700     1.9500     1.4760 C.2   1 <1>   0.7060 
 12 C        7.8500     0.4880     0.8360 C.2   1 <1>   0.6160 
 13 O        6.5690     2.4510     2.4050 O.2   1 <1>  -0.5700 
 14 O        8.0050    -0.7070     0.9990 O.2   1 <1>  -0.5700 
 15 N        8.9610     1.3080     0.8330 N.am  1 <1>  -0.6600 
 16 C       10.2720     0.8440     1.3690 C.3   1 <1>   0.1400 
 17 C        8.9580     2.7300     0.3890 C.3   1 <1>   0.1400 
 18 C       11.3510     1.0130     0.2970 C.3   1 <1>  -0.1600 
 19 C       10.0250     2.9310    -0.6900 C.3   1 <1>  -0.1600 
 20 C       11.4140     2.4660    -0.2110 C.3   1 <1>  -0.0190 
 21 C       12.4720     2.6540    -1.2950 C.2   1 <1>   0.5690 
 22 O       13.3290     3.4860    -1.1530 O.2   1 <1>  -0.5700 
 23 N       12.4480     1.8980    -2.4090 N.am  1 <1>  -0.8000 
 24 H        3.9300    -0.2210    -2.3520 H     1 <1>   0.1500 
 25 H        0.8410     2.3880    -1.0230 H     1 <1>   0.1500 
 26 H        2.3040     3.1910     0.8190 H     1 <1>   0.1500 
 27 H        6.1190    -0.2780    -1.0960 H     1 <1>   0.1500 
 28 H       10.2220    -0.1890     1.6720 H     1 <1>   0.0800 
 29 H       10.5210     1.4290     2.2370 H     1 <1>   0.0800 
 30 H        9.1650     3.3610     1.2380 H     1 <1>   0.0800 
 31 H        7.9990     3.0100    -0.0090 H     1 <1>   0.0800 
 32 H       11.1330     0.3380    -0.5120 H     1 <1>   0.0800 
 33 H       12.3040     0.7340     0.7100 H     1 <1>   0.0800 
 34 H       10.0690     3.9730    -0.9530 H     1 <1>   0.0800 
 35 H        9.7350     2.3830    -1.5700 H     1 <1>   0.0800 
 36 H       11.7000     3.0900     0.6180 H     1 <1>   0.0800 
 37 H       13.1680     2.0370    -3.1190 H     1 <1>   0.3700 
 38 H       11.7600     1.1680    -2.5850 H     1 <1>   0.3700 
@<TRIPOS>BOND
  1   1   2  1   
  2   2   3  ar  
  3   2   4  ar  
  4   3   5  ar  
  5   3  24  1   
  6   4   6  ar  
  7   4  25  1   
  8   5   7  ar  
  9   5   8  1   
 10   6   7  ar  
 11   6  26  1   
 12   7   9  1   
 13   8  10  2   
 14   8  27  1   
 15   9  11  1   
 16  10  11  1   
 17  10  12  1   
 18  11  13  2   
 19  12  14  2   
 20  12  15  am  
 21  15  16  1   
 22  15  17  1   
 23  16  18  1   
 24  16  28  1   
 25  16  29  1   
 26  17  19  1   
 27  17  30  1   
 28  17  31  1   
 29  18  20  1   
 30  18  32  1   
 31  18  33  1   
 32  19  20  1   
 33  19  34  1   
 34  19  35  1   
 35  20  21  1   
 36  20  36  1   
 37  21  22  2   
 38  21  23  am  
 39  23  37  1   
 40  23  38  1   
@<TRIPOS>SUBSTRUCTURE
  1 ****  10 GROUP 4 **** **** 0

# MOE 2024.06 (io_trps.svl 2023.06)
