@<TRIPOS>MOLECULE
NONAME
43 44 1 0 0 
SMALL
USER_CHARGES


@<TRIPOS>ATOM
  1 S        0.2010    -0.6330     1.0590 S.o2  1 <1>   1.3330 
  2 O        1.2400    -1.1530     1.9240 O.2   1 <1>  -0.6500 
  3 O       -1.0760    -0.2850     1.6330 O.2   1 <1>  -0.6500 
  4 N        0.0300    -1.7220    -0.2360 N.am  1 <1>  -0.8490 
  5 C        0.8060     0.8260     0.2370 C.3   1 <1>  -0.1350 
  6 C       -1.2420    -2.4410    -0.4080 C.3   1 <1>   0.2760 
  7 C        1.1990    -2.6290    -0.4330 C.3   1 <1>   0.2570 
  8 C       -2.3680    -1.5180    -0.8980 C.3   1 <1>  -0.1600 
  9 C       -1.6580    -3.2720     0.8190 C.3   1 <1>  -0.1600 
 10 C        2.5350    -1.9530    -0.7750 C.2   1 <1>   0.5690 
 11 C       -3.6420    -2.3260    -1.1880 C.3   1 <1>  -0.1600 
 12 C       -2.9380    -4.0690     0.5220 C.3   1 <1>  -0.1600 
 13 O        2.8070    -1.7520    -1.9340 O.2   1 <1>  -0.5700 
 14 N        3.3750    -1.5850     0.2380 N.am  1 <1>  -0.5470 
 15 C       -4.0670    -3.1470     0.0380 C.3   1 <1>  -0.1600 
 16 C        4.6570    -1.0090     0.1120 C.ar  1 <1>   0.1170 
 17 C        4.9490     0.2410     0.6540 C.ar  1 <1>   0.1900 
 18 C        5.7160    -1.6340    -0.5480 C.ar  1 <1>   0.1900 
 19 F        4.0100     0.8880     1.3000 F     1 <1>  -0.1900 
 20 C        6.1890     0.8470     0.5440 C.ar  1 <1>  -0.1500 
 21 F        5.5450    -2.8320    -1.0520 F     1 <1>  -0.1900 
 22 C        6.9680    -1.0590    -0.6830 C.ar  1 <1>  -0.1500 
 23 C        7.2070     0.1920    -0.1340 C.ar  1 <1>  -0.1500 
 24 H        1.7130     0.6190    -0.2940 H     1 <1>   0.0800 
 25 H        0.9970     1.5980     0.9550 H     1 <1>   0.0800 
 26 H        0.0750     1.1800    -0.4620 H     1 <1>   0.0800 
 27 H       -1.1020    -3.1440    -1.2120 H     1 <1>   0.0800 
 28 H        0.9930    -3.2980    -1.2490 H     1 <1>   0.0800 
 29 H        1.3350    -3.2350     0.4460 H     1 <1>   0.0800 
 30 H       -2.0520    -1.0160    -1.7950 H     1 <1>   0.0800 
 31 H       -2.6080    -0.7760    -0.1610 H     1 <1>   0.0800 
 32 H       -1.8540    -2.6330     1.6600 H     1 <1>   0.0800 
 33 H       -0.8750    -3.9560     1.0880 H     1 <1>   0.0800 
 34 H       -3.4670    -2.9890    -2.0190 H     1 <1>   0.0800 
 35 H       -4.4370    -1.6550    -1.4640 H     1 <1>   0.0800 
 36 H       -3.2540    -4.5850     1.4130 H     1 <1>   0.0800 
 37 H       -2.7350    -4.8090    -0.2330 H     1 <1>   0.0800 
 38 H        2.9330    -1.5190     1.1690 H     1 <1>   0.3700 
 39 H       -4.9340    -3.7360    -0.2060 H     1 <1>   0.0800 
 40 H       -4.3410    -2.4750     0.8350 H     1 <1>   0.0800 
 41 H        6.3530     1.8160     0.9800 H     1 <1>   0.1500 
 42 H        7.7440    -1.5880    -1.2080 H     1 <1>   0.1500 
 43 H        8.1770     0.6500    -0.2320 H     1 <1>   0.1500 
@<TRIPOS>BOND
  1   1   2  2   
  2   1   3  2   
  3   1   4  am  
  4   1   5  1   
  5   4   6  1   
  6   4   7  1   
  7   5  24  1   
  8   5  25  1   
  9   5  26  1   
 10   6   8  1   
 11   6   9  1   
 12   6  27  1   
 13   7  10  1   
 14   7  28  1   
 15   7  29  1   
 16   8  11  1   
 17   8  30  1   
 18   8  31  1   
 19   9  12  1   
 20   9  32  1   
 21   9  33  1   
 22  10  13  2   
 23  10  14  am  
 24  11  15  1   
 25  11  34  1   
 26  11  35  1   
 27  12  15  1   
 28  12  36  1   
 29  12  37  1   
 30  14  16  1   
 31  14  38  1   
 32  15  39  1   
 33  15  40  1   
 34  16  17  ar  
 35  16  18  ar  
 36  17  19  1   
 37  17  20  ar  
 38  18  21  1   
 39  18  22  ar  
 40  20  23  ar  
 41  20  41  1   
 42  22  23  ar  
 43  22  42  1   
 44  23  43  1   
@<TRIPOS>SUBSTRUCTURE
  1 ****  10 GROUP 4 **** **** 0

# MOE 2024.06 (io_trps.svl 2023.06)
