@<TRIPOS>MOLECULE
NONAME
37 39 1 0 0 
SMALL
USER_CHARGES


@<TRIPOS>ATOM
  1 CL      -0.6660    -0.9390     2.0820 Cl    1 <1>  -0.1770 
  2 C       -1.6700    -1.3680     0.7080 C.ar  1 <1>   0.1770 
  3 C       -1.2490    -2.3420    -0.2070 C.ar  1 <1>   0.1000 
  4 C       -2.8780    -0.7120     0.5690 C.ar  1 <1>  -0.1500 
  5 N       -0.0390    -3.0420    -0.1230 N.pl3 1 <1>  -0.8380 
  6 C       -2.0970    -2.6300    -1.2710 C.ar  1 <1>  -0.1500 
  7 C       -3.7030    -1.0180    -0.5000 C.ar  1 <1>  -0.1500 
  8 C        0.0770    -4.0220     0.9980 C.3   1 <1>   0.2090 
  9 C        1.1990    -2.2460    -0.3830 C.3   1 <1>   0.2090 
 10 C       -3.3090    -1.9770    -1.4180 C.ar  1 <1>  -0.1500 
 11 C        1.3130    -4.9280     0.8150 C.3   1 <1>   0.3430 
 12 C        2.4230    -3.1680    -0.5510 C.3   1 <1>   0.3430 
 13 N        2.5800    -4.1390     0.5970 N.4   1 <1>  -0.9590 
 14 C        3.7590    -5.0260     0.4260 C.3   1 <1>   0.5240 
 15 C        5.0070    -4.1690     0.4460 C.2   1 <1>  -0.1810 
 16 C        5.6480    -3.7540     1.5560 C.2   1 <1>  -0.1100 
 17 C        5.6270    -3.7190    -0.7690 C.2   1 <1>  -0.1500 
 18 S        7.0370    -2.7670     1.1440 S.3   1 <1>  -0.0800 
 19 C        6.7190    -2.9580    -0.5690 C.2   1 <1>  -0.1100 
 20 H       -3.1700     0.0310     1.2890 H     1 <1>   0.1500 
 21 H       -1.7990    -3.3730    -1.9880 H     1 <1>   0.1500 
 22 H       -4.6470    -0.5130    -0.6180 H     1 <1>   0.1500 
 23 H       -0.8110    -4.6310     1.0270 H     1 <1>   0.0800 
 24 H        0.1480    -3.5010     1.9370 H     1 <1>   0.0800 
 25 H        1.3740    -1.5610     0.4270 H     1 <1>   0.0800 
 26 H        1.0630    -1.6660    -1.2810 H     1 <1>   0.0800 
 27 H       -3.9500    -2.2160    -2.2500 H     1 <1>   0.1500 
 28 H        1.1330    -5.5630    -0.0370 H     1 <1>   0.0800 
 29 H        1.4140    -5.5570     1.6830 H     1 <1>   0.0800 
 30 H        3.3060    -2.5560    -0.6390 H     1 <1>   0.0800 
 31 H        2.3060    -3.7140    -1.4730 H     1 <1>   0.0800 
 32 H        2.7570    -3.5720     1.4350 H     1 <1>   0.4500 
 33 H        3.6970    -5.5740    -0.5000 H     1 <1>   0.0800 
 34 H        3.8060    -5.7310     1.2400 H     1 <1>   0.0800 
 35 H        5.4710    -3.9110     2.6070 H     1 <1>   0.1500 
 36 H        5.2450    -3.9830    -1.7410 H     1 <1>   0.1500 
 37 H        7.4000    -2.4780    -1.2520 H     1 <1>   0.1500 
@<TRIPOS>BOND
  1   1   2  1   
  2   2   3  ar  
  3   2   4  ar  
  4   3   5  1   
  5   3   6  ar  
  6   4   7  ar  
  7   4  20  1   
  8   5   8  1   
  9   5   9  1   
 10   6  10  ar  
 11   6  21  1   
 12   7  10  ar  
 13   7  22  1   
 14   8  11  1   
 15   8  23  1   
 16   8  24  1   
 17   9  12  1   
 18   9  25  1   
 19   9  26  1   
 20  10  27  1   
 21  11  13  1   
 22  11  28  1   
 23  11  29  1   
 24  12  13  1   
 25  12  30  1   
 26  12  31  1   
 27  13  14  1   
 28  13  32  1   
 29  14  15  1   
 30  14  33  1   
 31  14  34  1   
 32  15  16  2   
 33  15  17  1   
 34  16  18  1   
 35  16  35  1   
 36  17  19  2   
 37  17  36  1   
 38  18  19  1   
 39  19  37  1   
@<TRIPOS>SUBSTRUCTURE
  1 ****   9 GROUP 4 **** **** 0

# MOE 2024.06 (io_trps.svl 2023.06)
