@<TRIPOS>MOLECULE
NONAME
62 65 1 0 0 
SMALL
USER_CHARGES


@<TRIPOS>ATOM
  1 O       -0.9130     1.5170    -1.8160 O.2   1 <1>  -0.5700 
  2 C       -1.3930     2.2670    -0.9510 C.2   1 <1>   0.6160 
  3 N       -0.8000     3.4210    -0.5110 N.am  1 <1>  -0.1570 
  4 C       -2.5950     2.0760    -0.2420 C.2   1 <1>  -0.1240 
  5 N       -1.6710     3.9600     0.4840 N.pl3 1 <1>  -0.4890 
  6 C        0.5970     3.5900    -0.4360 C.ar  1 <1>   0.1170 
  7 C       -2.7290     3.1240     0.6220 C.2   1 <1>  -0.0380 
  8 C       -3.4830     0.8720    -0.5550 C.3   1 <1>   0.1960 
  9 C       -1.5990     5.4000     0.8310 C.3   1 <1>   0.1290 
 10 C        1.2610     3.6270     0.7870 C.ar  1 <1>  -0.1500 
 11 C        1.3450     3.7290    -1.6000 C.ar  1 <1>  -0.1500 
 12 C       -3.8440     3.4430     1.6020 C.3   1 <1>  -0.1020 
 13 C       -4.9600     1.1370    -0.2420 C.2   1 <1>  -0.1240 
 14 C       -2.8780    -0.4140     0.0400 C.3   1 <1>  -0.1600 
 15 C        2.6310     3.8110     0.8460 C.ar  1 <1>  -0.1500 
 16 C        2.7150     3.9120    -1.5470 C.ar  1 <1>  -0.1500 
 17 C       -5.7110     1.9060    -1.1530 C.2   1 <1>   0.6160 
 18 C       -5.8000     0.7850     0.7790 C.2   1 <1>  -0.0380 
 19 C       -3.6210    -1.6900    -0.3910 C.3   1 <1>  -0.1600 
 20 C        3.3600     3.9550    -0.3220 C.ar  1 <1>  -0.1500 
 21 O       -5.3120     2.4010    -2.2180 O.2   1 <1>  -0.5700 
 22 N       -6.9880     2.0400    -0.6770 N.am  1 <1>  -0.1570 
 23 N       -7.0330     1.2940     0.5380 N.pl3 1 <1>  -0.4890 
 24 C       -5.5610    -0.0290     2.0410 C.3   1 <1>  -0.1020 
 25 C       -2.9960    -2.9310     0.2510 C.3   1 <1>  -0.2400 
 26 C       -7.7260     3.2320    -0.8270 C.ar  1 <1>   0.1170 
 27 C       -8.3400     0.9000     1.1220 C.3   1 <1>   0.1290 
 28 C       -7.9230     4.1040     0.2400 C.ar  1 <1>  -0.1500 
 29 C       -8.2750     3.5600    -2.0610 C.ar  1 <1>  -0.1500 
 30 C       -8.6600     5.2640     0.0820 C.ar  1 <1>  -0.1500 
 31 C       -9.0130     4.7190    -2.2250 C.ar  1 <1>  -0.1500 
 32 C       -9.2070     5.5720    -1.1520 C.ar  1 <1>  -0.1500 
 33 H       -3.4340     0.7380    -1.6230 H     1 <1>   0.0800 
 34 H       -1.0550     5.5210     1.7500 H     1 <1>   0.0800 
 35 H       -2.5890     5.8040     0.9420 H     1 <1>   0.0800 
 36 H       -1.0920     5.9360     0.0480 H     1 <1>   0.0800 
 37 H        0.6960     3.5060     1.6930 H     1 <1>   0.1500 
 38 H        0.8420     3.6860    -2.5500 H     1 <1>   0.1500 
 39 H       -3.4680     4.0240     2.4230 H     1 <1>   0.0800 
 40 H       -4.2560     2.5420     2.0100 H     1 <1>   0.0800 
 41 H       -4.6210     3.9950     1.1040 H     1 <1>   0.0800 
 42 H       -2.8260    -0.3400     1.1080 H     1 <1>   0.0800 
 43 H       -1.8620    -0.4960    -0.3060 H     1 <1>   0.0800 
 44 H        3.1310     3.8380     1.7980 H     1 <1>   0.1500 
 45 H        3.2790     4.0170    -2.4570 H     1 <1>   0.1500 
 46 H       -3.5700    -1.7850    -1.4630 H     1 <1>   0.0800 
 47 H       -4.6590    -1.6380    -0.1180 H     1 <1>   0.0800 
 48 H        4.4260     4.0970    -0.2790 H     1 <1>   0.1500 
 49 H       -5.8920    -1.0410     1.8960 H     1 <1>   0.0800 
 50 H       -6.1090     0.3990     2.8600 H     1 <1>   0.0800 
 51 H       -4.5280    -0.0310     2.3190 H     1 <1>   0.0800 
 52 H       -1.9630    -3.0220    -0.0360 H     1 <1>   0.0800 
 53 H       -3.5190    -3.8140    -0.0710 H     1 <1>   0.0800 
 54 H       -3.0550    -2.8710     1.3240 H     1 <1>   0.0800 
 55 H       -8.2520    -0.0410     1.6330 H     1 <1>   0.0800 
 56 H       -9.0690     0.8030     0.3370 H     1 <1>   0.0800 
 57 H       -8.6660     1.6550     1.8150 H     1 <1>   0.0800 
 58 H       -7.4920     3.8700     1.1960 H     1 <1>   0.1500 
 59 H       -8.1150     2.9000    -2.8950 H     1 <1>   0.1500 
 60 H       -8.8070     5.9290     0.9150 H     1 <1>   0.1500 
 61 H       -9.4310     4.9580    -3.1870 H     1 <1>   0.1500 
 62 H       -9.7810     6.4740    -1.2790 H     1 <1>   0.1500 
@<TRIPOS>BOND
  1   1   2  2   
  2   2   3  am  
  3   2   4  1   
  4   3   5  1   
  5   3   6  1   
  6   4   7  2   
  7   4   8  1   
  8   5   7  1   
  9   5   9  1   
 10   6  10  ar  
 11   6  11  ar  
 12   7  12  1   
 13   8  13  1   
 14   8  14  1   
 15   8  33  1   
 16   9  34  1   
 17   9  35  1   
 18   9  36  1   
 19  10  15  ar  
 20  10  37  1   
 21  11  16  ar  
 22  11  38  1   
 23  12  39  1   
 24  12  40  1   
 25  12  41  1   
 26  13  17  1   
 27  13  18  2   
 28  14  19  1   
 29  14  42  1   
 30  14  43  1   
 31  15  20  ar  
 32  15  44  1   
 33  16  20  ar  
 34  16  45  1   
 35  17  21  2   
 36  17  22  am  
 37  18  23  1   
 38  18  24  1   
 39  19  25  1   
 40  19  46  1   
 41  19  47  1   
 42  20  48  1   
 43  22  23  1   
 44  22  26  1   
 45  23  27  1   
 46  24  49  1   
 47  24  50  1   
 48  24  51  1   
 49  25  52  1   
 50  25  53  1   
 51  25  54  1   
 52  26  28  ar  
 53  26  29  ar  
 54  27  55  1   
 55  27  56  1   
 56  27  57  1   
 57  28  30  ar  
 58  28  58  1   
 59  29  31  ar  
 60  29  59  1   
 61  30  32  ar  
 62  30  60  1   
 63  31  32  ar  
 64  31  61  1   
 65  32  62  1   
@<TRIPOS>SUBSTRUCTURE
  1 ****   4 GROUP 4 **** **** 0

# MOE 2024.06 (io_trps.svl 2023.06)
