@<TRIPOS>MOLECULE
NONAME
40 42 1 0 0 
SMALL
USER_CHARGES


@<TRIPOS>ATOM
  1 O       -0.3620    -0.6750     1.0940 O.2   1 <1>  -0.5700 
  2 C       -0.9140    -1.6990     0.6680 C.2   1 <1>   0.5330 
  3 C       -0.0770    -2.8690     0.4810 C.ar  1 <1>   0.0860 
  4 C       -2.3280    -1.6690     0.4210 C.cat 1 <1>   0.7510 
  5 C        1.2150    -2.7330    -0.0330 C.ar  1 <1>  -0.1500 
  6 C       -0.4860    -4.1550     0.8350 C.ar  1 <1>  -0.1500 
  7 N       -3.1370    -0.6300     0.8250 N.pl3 1 <1>  -0.7000 
  8 N       -3.1390    -2.5570    -0.2190 N.pl3 1 <1>  -0.8080 
  9 C        2.0630    -3.8220    -0.1950 C.ar  1 <1>   0.0830 
 10 C        0.3400    -5.2510     0.6780 C.ar  1 <1>  -0.1500 
 11 C       -4.4130    -0.8910     0.4360 C.2   1 <1>   0.1820 
 12 O       -2.8090    -3.6250    -0.8380 O.3   1 <1>  -0.4420 
 13 C       -4.4170    -2.0740    -0.1970 C.2   1 <1>   0.1820 
 14 O        3.3270    -3.6980    -0.6930 O.3   1 <1>  -0.3630 
 15 C        1.6220    -5.0990     0.1620 C.ar  1 <1>   0.0830 
 16 C       -5.6400    -0.0280     0.6520 C.3   1 <1>   0.0080 
 17 C       -5.6320    -2.7460    -0.7950 C.3   1 <1>   0.0080 
 18 C        3.8430    -2.4570    -1.1180 C.3   1 <1>   0.0400 
 19 O        2.4690    -6.1500    -0.0130 O.3   1 <1>  -0.3630 
 20 C       -6.7900    -0.5140    -0.2580 C.3   1 <1>  -0.1600 
 21 C       -6.9170    -2.0550    -0.2870 C.3   1 <1>  -0.1600 
 22 C        2.0480    -7.4830     0.1660 C.3   1 <1>   0.0400 
 23 H        1.5390    -1.7450    -0.2970 H     1 <1>   0.1500 
 24 H       -1.4780    -4.3060     1.2280 H     1 <1>   0.1500 
 25 H       -2.7450     0.1830     1.2990 H     1 <1>   0.4500 
 26 H       -0.0390    -6.2150     0.9600 H     1 <1>   0.1500 
 27 H       -5.4100     0.9990     0.4300 H     1 <1>   0.0800 
 28 H       -5.9330    -0.1000     1.6840 H     1 <1>   0.0800 
 29 H       -5.6310    -3.7870    -0.5240 H     1 <1>   0.0800 
 30 H       -5.5600    -2.6780    -1.8650 H     1 <1>   0.0800 
 31 H        4.8410    -2.6190    -1.4830 H     1 <1>   0.0800 
 32 H        3.8650    -1.7830    -0.2810 H     1 <1>   0.0800 
 33 H        3.2230    -2.0740    -1.9090 H     1 <1>   0.0800 
 34 H       -6.6090    -0.1680    -1.2620 H     1 <1>   0.0800 
 35 H       -7.7170    -0.0790     0.0740 H     1 <1>   0.0800 
 36 H       -7.1250    -2.4050     0.7100 H     1 <1>   0.0800 
 37 H       -7.7430    -2.3440    -0.9130 H     1 <1>   0.0800 
 38 H        2.8680    -8.1280    -0.0960 H     1 <1>   0.0800 
 39 H        1.2110    -7.6740    -0.4820 H     1 <1>   0.0800 
 40 H        1.7820    -7.6290     1.1970 H     1 <1>   0.0800 
@<TRIPOS>BOND
  1   1   2  2   
  2   2   3  1   
  3   2   4  1   
  4   3   5  ar  
  5   3   6  ar  
  6   4   7  ar  
  7   4   8  ar  
  8   5   9  ar  
  9   5  23  1   
 10   6  10  ar  
 11   6  24  1   
 12   7  11  1   
 13   7  25  1   
 14   8  12  1   
 15   8  13  1   
 16   9  14  1   
 17   9  15  ar  
 18  10  15  ar  
 19  10  26  1   
 20  11  13  2   
 21  11  16  1   
 22  13  17  1   
 23  14  18  1   
 24  15  19  1   
 25  16  20  1   
 26  16  27  1   
 27  16  28  1   
 28  17  21  1   
 29  17  29  1   
 30  17  30  1   
 31  18  31  1   
 32  18  32  1   
 33  18  33  1   
 34  19  22  1   
 35  20  21  1   
 36  20  34  1   
 37  20  35  1   
 38  21  36  1   
 39  21  37  1   
 40  22  38  1   
 41  22  39  1   
 42  22  40  1   
@<TRIPOS>SUBSTRUCTURE
  1 ****   3 GROUP 4 **** **** 0

# MOE 2024.06 (io_trps.svl 2023.06)
