@<TRIPOS>MOLECULE
NONAME
24 24 1 0 0 
SMALL
USER_CHARGES


@<TRIPOS>ATOM
  1 S        0.0840    -0.0010    -0.4940 S.3   1 <1>  -0.4600 
  2 C       -1.6560     0.0170     0.0090 C.3   1 <1>   0.0700 
  3 C        0.8060     1.3530     0.4660 C.3   1 <1>   0.0700 
  4 C       -2.3790    -1.0970    -0.7450 C.3   1 <1>  -0.0170 
  5 C        2.2880     1.4270     0.1140 C.3   1 <1>  -0.2400 
  6 C       -3.8480    -1.1250    -0.3570 C.ar  1 <1>  -0.1440 
  7 C       -4.3080    -1.8840     0.7000 C.ar  1 <1>  -0.1500 
  8 C       -4.7960    -0.3900    -1.0390 C.ar  1 <1>  -0.1500 
  9 C       -5.6570    -1.8700     1.0170 C.ar  1 <1>   0.1600 
 10 C       -6.1220    -0.4460    -0.6410 C.ar  1 <1>   0.1600 
 11 N       -6.5750    -1.1670     0.3720 N.ar  1 <1>  -0.6200 
 12 H       -2.0570     0.9840    -0.2380 H     1 <1>   0.0800 
 13 H       -1.6890    -0.1410     1.0720 H     1 <1>   0.0800 
 14 H        0.6550     1.1290     1.5080 H     1 <1>   0.0800 
 15 H        0.2870     2.2560     0.1960 H     1 <1>   0.0800 
 16 H       -1.9230    -2.0430    -0.5120 H     1 <1>   0.0800 
 17 H       -2.2850    -0.9340    -1.8040 H     1 <1>   0.0800 
 18 H        2.7740     0.4990     0.3610 H     1 <1>   0.0800 
 19 H        2.7580     2.2210     0.6650 H     1 <1>   0.0800 
 20 H        2.4090     1.6160    -0.9380 H     1 <1>   0.0800 
 21 H       -3.6320    -2.4850     1.2800 H     1 <1>   0.1500 
 22 H       -4.5180     0.2250    -1.8750 H     1 <1>   0.1500 
 23 H       -5.9980    -2.4680     1.8440 H     1 <1>   0.1500 
 24 H       -6.8480     0.1340    -1.1840 H     1 <1>   0.1500 
@<TRIPOS>BOND
  1   1   2  1   
  2   1   3  1   
  3   2   4  1   
  4   2  12  1   
  5   2  13  1   
  6   3   5  1   
  7   3  14  1   
  8   3  15  1   
  9   4   6  1   
 10   4  16  1   
 11   4  17  1   
 12   5  18  1   
 13   5  19  1   
 14   5  20  1   
 15   6   7  ar  
 16   6   8  ar  
 17   7   9  ar  
 18   7  21  1   
 19   8  10  ar  
 20   8  22  1   
 21   9  11  ar  
 22   9  23  1   
 23  10  11  ar  
 24  10  24  1   
@<TRIPOS>SUBSTRUCTURE
  1 ****   4 GROUP 4 **** **** 0

# MOE 2024.06 (io_trps.svl 2023.06)
