@<TRIPOS>MOLECULE
NONAME
44 45 1 0 0 
SMALL
USER_CHARGES


@<TRIPOS>ATOM
  1 S        0.1670     1.9100     0.6140 S.3   1 <1>  -0.2860 
  2 C       -1.4910     1.3000     0.9360 C.2   1 <1>   0.2420 
  3 C        1.2320     0.5550     1.3210 C.3   1 <1>   0.1310 
  4 N       -1.7310     0.1610     1.4790 N.2   1 <1>  -0.3380 
  5 N       -2.5900     1.9900     0.6290 N.pl3 1 <1>   0.0480 
  6 C        2.7100     0.8230     1.0860 C.2   1 <1>   0.5690 
  7 N       -3.0620     0.0660     1.5420 N.2   1 <1>  -0.3380 
  8 C       -3.5540     1.1480     1.0340 C.2   1 <1>   0.0060 
  9 C       -2.6840     3.3260     0.0070 C.3   1 <1>   0.0160 
 10 O        3.5040     0.2900     1.8210 O.2   1 <1>  -0.5700 
 11 N        3.0700     1.6500     0.0550 N.am  1 <1>  -0.5470 
 12 C       -5.0490     1.4180     0.9200 C.3   1 <1>   0.0200 
 13 C        4.3220     2.0720    -0.4210 C.ar  1 <1>   0.1170 
 14 C       -5.5620     1.3660    -0.5330 C.3   1 <1>  -0.0800 
 15 C        4.4090     3.2480    -1.1770 C.ar  1 <1>  -0.1430 
 16 C        5.4820     1.3430    -0.1780 C.ar  1 <1>  -0.1500 
 17 C       -7.0540     1.7200    -0.5830 C.3   1 <1>  -0.2400 
 18 C       -5.3390    -0.0160    -1.1620 C.3   1 <1>  -0.2400 
 19 C        5.6340     3.6780    -1.6710 C.ar  1 <1>  -0.1500 
 20 C        3.1700     4.0860    -1.4720 C.3   1 <1>  -0.0970 
 21 C        6.6830     1.7950    -0.6800 C.ar  1 <1>   0.1900 
 22 C        6.7850     2.9520    -1.4250 C.ar  1 <1>  -0.1500 
 23 F        7.7670     1.1030    -0.4480 F     1 <1>  -0.1900 
 24 H        0.9390    -0.3630     0.8470 H     1 <1>   0.0800 
 25 H        1.0220     0.5030     2.3730 H     1 <1>   0.0800 
 26 H       -2.5620     3.2310    -1.0560 H     1 <1>   0.0800 
 27 H       -1.9110     3.9610     0.4020 H     1 <1>   0.0800 
 28 H       -3.6410     3.7640     0.2230 H     1 <1>   0.0800 
 29 H        2.2780     2.0990    -0.4040 H     1 <1>   0.3700 
 30 H       -5.2630     2.3790     1.3510 H     1 <1>   0.0800 
 31 H       -5.5730     0.6820     1.5060 H     1 <1>   0.0800 
 32 H       -5.0280     2.0930    -1.1200 H     1 <1>   0.0800 
 33 H        5.4620     0.4330     0.3900 H     1 <1>   0.1500 
 34 H       -7.6310     1.0090    -0.0170 H     1 <1>   0.0800 
 35 H       -7.4060     1.7110    -1.6000 H     1 <1>   0.0800 
 36 H       -7.2230     2.7020    -0.1770 H     1 <1>   0.0800 
 37 H       -5.8450    -0.7770    -0.5940 H     1 <1>   0.0800 
 38 H       -4.2910    -0.2580    -1.1900 H     1 <1>   0.0800 
 39 H       -5.7140    -0.0360    -2.1710 H     1 <1>   0.0800 
 40 H        5.7020     4.5820    -2.2520 H     1 <1>   0.1500 
 41 H        2.6890     4.3700    -0.5530 H     1 <1>   0.0800 
 42 H        2.4790     3.5250    -2.0760 H     1 <1>   0.0800 
 43 H        3.4290     4.9840    -2.0040 H     1 <1>   0.0800 
 44 H        7.7410     3.2710    -1.7990 H     1 <1>   0.1500 
@<TRIPOS>BOND
  1   1   2  1   
  2   1   3  1   
  3   2   4  2   
  4   2   5  1   
  5   3   6  1   
  6   3  24  1   
  7   3  25  1   
  8   4   7  1   
  9   5   8  1   
 10   5   9  1   
 11   6  10  2   
 12   6  11  am  
 13   7   8  2   
 14   8  12  1   
 15   9  26  1   
 16   9  27  1   
 17   9  28  1   
 18  11  13  1   
 19  11  29  1   
 20  12  14  1   
 21  12  30  1   
 22  12  31  1   
 23  13  15  ar  
 24  13  16  ar  
 25  14  17  1   
 26  14  18  1   
 27  14  32  1   
 28  15  19  ar  
 29  15  20  1   
 30  16  21  ar  
 31  16  33  1   
 32  17  34  1   
 33  17  35  1   
 34  17  36  1   
 35  18  37  1   
 36  18  38  1   
 37  18  39  1   
 38  19  22  ar  
 39  19  40  1   
 40  20  41  1   
 41  20  42  1   
 42  20  43  1   
 43  21  22  ar  
 44  21  23  1   
 45  22  44  1   
@<TRIPOS>SUBSTRUCTURE
  1 ****   1 GROUP 4 **** **** 0

# MOE 2024.06 (io_trps.svl 2023.06)
