@<TRIPOS>MOLECULE
NONAME
45 48 1 0 0 
SMALL
USER_CHARGES


@<TRIPOS>ATOM
  1 CL       0.5820     0.1530    -1.7540 Cl    1 <1>  -0.1770 
  2 C        2.0490    -0.4450    -1.0210 C.ar  1 <1>   0.1770 
  3 C        3.2340     0.2300    -1.2290 C.ar  1 <1>  -0.1500 
  4 C        1.9960    -1.5870    -0.2440 C.ar  1 <1>  -0.1500 
  5 C        4.4090    -0.2340    -0.6510 C.ar  1 <1>   0.1000 
  6 C        3.1620    -2.0580     0.3370 C.ar  1 <1>  -0.1500 
  7 N        5.5960     0.4630    -0.8650 N.pl3 1 <1>  -0.8380 
  8 C        4.3540    -1.3840     0.1340 C.ar  1 <1>  -0.1500 
  9 C        6.8830    -0.2560    -1.1020 C.3   1 <1>   0.2090 
 10 C        5.7570     1.8030    -0.2270 C.3   1 <1>   0.2090 
 11 C        7.7980    -0.2290     0.1390 C.3   1 <1>   0.1100 
 12 C        6.6950     1.7400     0.9950 C.3   1 <1>   0.1100 
 13 N        8.0090     1.1450     0.6630 N.3   1 <1>  -0.8100 
 14 C        8.8830     1.1130     1.8550 C.3   1 <1>   0.2900 
 15 C       10.3050     0.7640     1.4530 C.2   1 <1>   0.0070 
 16 N       10.8400     1.2660     0.3120 N.pl3 1 <1>   0.0330 
 17 N       11.1040    -0.0160     2.1020 N.2   1 <1>  -0.5650 
 18 C       12.0740     0.7490     0.2440 C.2   1 <1>  -0.0880 
 19 C       12.2450    -0.0390     1.3460 C.2   1 <1>   0.1410 
 20 N       13.0740     0.9040    -0.7260 N.am  1 <1>  -0.4240 
 21 C       13.4980    -0.7280     1.5220 C.2   1 <1>   0.7160 
 22 C       14.2790     0.2340    -0.5470 C.2   1 <1>   0.6900 
 23 C       12.8400     1.7760    -1.9070 C.3   1 <1>   0.0600 
 24 O       13.7830    -1.4610     2.4530 O.2   1 <1>  -0.5700 
 25 N       14.4490    -0.5470     0.5580 N.am  1 <1>  -0.4900 
 26 O       15.1920     0.3170    -1.3420 O.2   1 <1>  -0.5700 
 27 H        3.2550     1.1100    -1.8420 H     1 <1>   0.1500 
 28 H        1.0590    -2.0940    -0.0990 H     1 <1>   0.1500 
 29 H        3.1400    -2.9450     0.9460 H     1 <1>   0.1500 
 30 H        5.2510    -1.7520     0.5930 H     1 <1>   0.1500 
 31 H        7.3940     0.2130    -1.9240 H     1 <1>   0.0800 
 32 H        6.6830    -1.2750    -1.3830 H     1 <1>   0.0800 
 33 H        4.7970     2.1760     0.0830 H     1 <1>   0.0800 
 34 H        6.1610     2.4900    -0.9500 H     1 <1>   0.0800 
 35 H        8.7440    -0.6670    -0.1300 H     1 <1>   0.0800 
 36 H        7.3610    -0.8460     0.9040 H     1 <1>   0.0800 
 37 H        6.2130     1.1620     1.7650 H     1 <1>   0.0800 
 38 H        6.8380     2.7390     1.3670 H     1 <1>   0.0800 
 39 H        8.5200     0.3970     2.5720 H     1 <1>   0.0800 
 40 H        8.8940     2.0830     2.3210 H     1 <1>   0.0800 
 41 H       10.3370     1.8590    -0.3520 H     1 <1>   0.2700 
 42 H       11.9440     1.4650    -2.4150 H     1 <1>   0.0800 
 43 H       13.6630     1.7140    -2.5980 H     1 <1>   0.0800 
 44 H       12.7350     2.7960    -1.5860 H     1 <1>   0.0800 
 45 H       15.3340    -1.0240     0.6720 H     1 <1>   0.3700 
@<TRIPOS>BOND
  1   1   2  1   
  2   2   3  ar  
  3   2   4  ar  
  4   3   5  ar  
  5   3  27  1   
  6   4   6  ar  
  7   4  28  1   
  8   5   7  1   
  9   5   8  ar  
 10   6   8  ar  
 11   6  29  1   
 12   7   9  1   
 13   7  10  1   
 14   8  30  1   
 15   9  11  1   
 16   9  31  1   
 17   9  32  1   
 18  10  12  1   
 19  10  33  1   
 20  10  34  1   
 21  11  13  1   
 22  11  35  1   
 23  11  36  1   
 24  12  13  1   
 25  12  37  1   
 26  12  38  1   
 27  13  14  1   
 28  14  15  1   
 29  14  39  1   
 30  14  40  1   
 31  15  16  1   
 32  15  17  2   
 33  16  18  1   
 34  16  41  1   
 35  17  19  1   
 36  18  19  2   
 37  18  20  1   
 38  19  21  1   
 39  20  22  am  
 40  20  23  1   
 41  21  24  2   
 42  21  25  am  
 43  22  25  am  
 44  22  26  2   
 45  23  42  1   
 46  23  43  1   
 47  23  44  1   
 48  25  45  1   
@<TRIPOS>SUBSTRUCTURE
  1 ****  11 GROUP 4 **** **** 0

# MOE 2024.06 (io_trps.svl 2023.06)
