@<TRIPOS>MOLECULE
NONAME
40 40 1 0 0 
SMALL
USER_CHARGES


@<TRIPOS>ATOM
  1 N        0.7620     0.0560     0.0500 N.1   1 <1>  -0.5570 
  2 C        1.7650     0.5960     0.0630 C.1   1 <1>   0.6830 
  3 N        2.9690     1.3160     0.0720 N.pl3 1 <1>  -0.6810 
  4 C        4.1630     0.6700     0.1320 C.ar  1 <1>   0.8190 
  5 C        2.8430     2.8000     0.0100 C.3   1 <1>   0.2760 
  6 N        4.1510    -0.6460     0.2160 N.ar  1 <1>  -0.6200 
  7 N        5.2630     1.3950     0.0970 N.ar  1 <1>  -0.6200 
  8 C        2.0520     3.3210     1.2120 C.3   1 <1>  -0.2400 
  9 C        2.1940     3.2220    -1.3110 C.3   1 <1>  -0.2400 
 10 C        5.3220    -1.1950     0.2760 C.ar  1 <1>   0.7200 
 11 C        6.3610     0.7100     0.1660 C.ar  1 <1>   0.7200 
 12 N        6.4730    -0.5850     0.2500 N.ar  1 <1>  -0.6200 
 13 N        5.3010    -2.5450     0.3680 N.pl3 1 <1>  -0.8690 
 14 N        7.4930     1.4520     0.1340 N.pl3 1 <1>  -0.8690 
 15 C        6.4350    -3.4490     0.1690 C.3   1 <1>   0.2890 
 16 C        8.8260     0.9070    -0.1700 C.3   1 <1>   0.2090 
 17 C        6.3690    -3.9840    -1.2560 C.3   1 <1>  -0.2400 
 18 C        6.3170    -4.5730     1.1910 C.3   1 <1>  -0.2400 
 19 C        9.8320     2.0480    -0.1280 C.3   1 <1>  -0.2400 
 20 H        3.8130     3.2650     0.0490 H     1 <1>   0.0800 
 21 H        1.0290     2.9910     1.1840 H     1 <1>   0.0800 
 22 H        2.0550     4.3960     1.2080 H     1 <1>   0.0800 
 23 H        2.5110     2.9880     2.1250 H     1 <1>   0.0800 
 24 H        1.1780     2.8770    -1.3760 H     1 <1>   0.0800 
 25 H        2.7580     2.8300    -2.1380 H     1 <1>   0.0800 
 26 H        2.1890     4.2940    -1.3850 H     1 <1>   0.0800 
 27 H        4.3740    -2.9520     0.2660 H     1 <1>   0.4000 
 28 H        7.3360     2.4260    -0.1140 H     1 <1>   0.4000 
 29 H        7.3650    -2.9260     0.3200 H     1 <1>   0.0800 
 30 H        8.8150     0.4500    -1.1460 H     1 <1>   0.0800 
 31 H        9.0820     0.1570     0.5610 H     1 <1>   0.0800 
 32 H        5.4460    -4.5110    -1.4230 H     1 <1>   0.0800 
 33 H        7.1870    -4.6580    -1.4320 H     1 <1>   0.0800 
 34 H        6.4450    -3.1700    -1.9530 H     1 <1>   0.0800 
 35 H        5.3980    -5.1140     1.0580 H     1 <1>   0.0800 
 36 H        6.3490    -4.1640     2.1840 H     1 <1>   0.0800 
 37 H        7.1390    -5.2560     1.0790 H     1 <1>   0.0800 
 38 H        9.5920     2.7880    -0.8700 H     1 <1>   0.0800 
 39 H       10.8160     1.6670    -0.3320 H     1 <1>   0.0800 
 40 H        9.8370     2.5010     0.8470 H     1 <1>   0.0800 
@<TRIPOS>BOND
  1   1   2  3   
  2   2   3  1   
  3   3   4  1   
  4   3   5  1   
  5   4   6  ar  
  6   4   7  ar  
  7   5   8  1   
  8   5   9  1   
  9   5  20  1   
 10   6  10  ar  
 11   7  11  ar  
 12   8  21  1   
 13   8  22  1   
 14   8  23  1   
 15   9  24  1   
 16   9  25  1   
 17   9  26  1   
 18  10  12  ar  
 19  10  13  1   
 20  11  12  ar  
 21  11  14  1   
 22  13  15  1   
 23  13  27  1   
 24  14  16  1   
 25  14  28  1   
 26  15  17  1   
 27  15  18  1   
 28  15  29  1   
 29  16  19  1   
 30  16  30  1   
 31  16  31  1   
 32  17  32  1   
 33  17  33  1   
 34  17  34  1   
 35  18  35  1   
 36  18  36  1   
 37  18  37  1   
 38  19  38  1   
 39  19  39  1   
 40  19  40  1   
@<TRIPOS>SUBSTRUCTURE
  1 ****   4 GROUP 4 **** **** 0

# MOE 2024.06 (io_trps.svl 2023.06)
