@<TRIPOS>MOLECULE
NONAME
44 46 1 0 0 
SMALL
USER_CHARGES


@<TRIPOS>ATOM
  1 N       -0.0210     0.2710     0.2880 N.4   1 <1>  -0.9590 
  2 C       -1.0550    -0.6140     0.9200 C.3   1 <1>   0.3430 
  3 C       -0.5220     0.7770    -1.0350 C.3   1 <1>   0.3430 
  4 C        1.2980    -0.4560     0.2000 C.3   1 <1>   0.3430 
  5 C       -2.3310     0.1880     1.1830 C.3   1 <1>  -0.1600 
  6 C       -1.7820     1.6170    -0.8210 C.3   1 <1>  -0.1600 
  7 C        2.5020     0.4350    -0.2250 C.3   1 <1>   0.3430 
  8 C       -2.8780     0.8210    -0.1020 C.3   1 <1>  -0.1600 
  9 N        3.8210    -0.2900    -0.2510 N.4   1 <1>  -0.9060 
 10 C        4.9550     0.5930    -0.6490 C.3   1 <1>   0.4230 
 11 C        6.3410    -0.2570    -0.8320 C.3   1 <1>  -0.0800 
 12 C        5.2330     1.7690     0.5060 C.3   1 <1>  -0.1600 
 13 C        6.5860     0.7680    -0.0060 C.3   1 <1>  -0.1600 
 14 C        7.9450    -0.2480    -0.5140 C.3   1 <1>  -0.1600 
 15 C        6.8330     1.7620     0.8510 C.3   1 <1>  -0.0800 
 16 C        8.2310     0.9410     0.6260 C.3   1 <1>  -0.1600 
 17 H        0.0460     1.0870     0.9150 H     1 <1>   0.4500 
 18 H       -0.6910    -1.0100     1.8550 H     1 <1>   0.0800 
 19 H       -1.2840    -1.4420     0.2670 H     1 <1>   0.0800 
 20 H       -0.7550    -0.0530    -1.6830 H     1 <1>   0.0800 
 21 H        0.2250     1.3880    -1.5160 H     1 <1>   0.0800 
 22 H        1.1980    -1.2680    -0.5020 H     1 <1>   0.0800 
 23 H        1.5170    -0.8790     1.1670 H     1 <1>   0.0800 
 24 H       -2.1340     0.9520     1.9150 H     1 <1>   0.0800 
 25 H       -3.0780    -0.4660     1.5990 H     1 <1>   0.0800 
 26 H       -2.1550     1.9430    -1.7770 H     1 <1>   0.0800 
 27 H       -1.5400     2.5000    -0.2560 H     1 <1>   0.0800 
 28 H        2.5750     1.2620     0.4640 H     1 <1>   0.0800 
 29 H        2.3080     0.8360    -1.2060 H     1 <1>   0.0800 
 30 H       -3.7080     1.4680     0.1330 H     1 <1>   0.0800 
 31 H       -3.2470     0.0460    -0.7550 H     1 <1>   0.0800 
 32 H        3.8170    -1.0780    -0.9150 H     1 <1>   0.4500 
 33 H        4.0730    -0.6760     0.6700 H     1 <1>   0.4500 
 34 H        4.7320     1.0750    -1.5890 H     1 <1>   0.0800 
 35 H        6.0740    -1.2350    -0.4560 H     1 <1>   0.0800 
 36 H        4.6760     1.5860     1.4120 H     1 <1>   0.0800 
 37 H        4.9430     2.7380     0.1280 H     1 <1>   0.0800 
 38 H        6.8360     1.4830    -0.9100 H     1 <1>   0.0800 
 39 H        6.3650     0.0580     0.9100 H     1 <1>   0.0800 
 40 H        8.5050    -0.0380    -1.4140 H     1 <1>   0.0800 
 41 H        8.2800    -1.2070    -0.1480 H     1 <1>   0.0800 
 42 H        7.1240     2.7490     0.5130 H     1 <1>   0.0800 
 43 H        9.0200     1.5980     0.2950 H     1 <1>   0.0800 
 44 H        8.5550     0.4970     1.5560 H     1 <1>   0.0800 
@<TRIPOS>BOND
  1   1   2  1   
  2   1   3  1   
  3   1   4  1   
  4   1  17  1   
  5   2   5  1   
  6   2  18  1   
  7   2  19  1   
  8   3   6  1   
  9   3  20  1   
 10   3  21  1   
 11   4   7  1   
 12   4  22  1   
 13   4  23  1   
 14   5   8  1   
 15   5  24  1   
 16   5  25  1   
 17   6   8  1   
 18   6  26  1   
 19   6  27  1   
 20   7   9  1   
 21   7  28  1   
 22   7  29  1   
 23   8  30  1   
 24   8  31  1   
 25   9  10  1   
 26   9  32  1   
 27   9  33  1   
 28  10  11  1   
 29  10  12  1   
 30  10  34  1   
 31  11  13  1   
 32  11  14  1   
 33  11  35  1   
 34  12  15  1   
 35  12  36  1   
 36  12  37  1   
 37  13  15  1   
 38  13  38  1   
 39  13  39  1   
 40  14  16  1   
 41  14  40  1   
 42  14  41  1   
 43  15  16  1   
 44  15  42  1   
 45  16  43  1   
 46  16  44  1   
@<TRIPOS>SUBSTRUCTURE
  1 ****   7 GROUP 4 **** **** 0

# MOE 2024.06 (io_trps.svl 2023.06)
