@<TRIPOS>MOLECULE
NONAME
47 48 1 0 0 
SMALL
USER_CHARGES


@<TRIPOS>ATOM
  1 F        1.0090    -1.2660    -0.4970 F     1 <1>  -0.1900 
  2 C        0.5310    -2.4160    -0.1080 C.ar  1 <1>   0.1900 
  3 C       -0.0750    -3.2360    -1.0390 C.ar  1 <1>  -0.1500 
  4 C        0.6730    -2.7780     1.2180 C.ar  1 <1>  -0.1500 
  5 C       -0.5430    -4.4730    -0.6270 C.ar  1 <1>  -0.1500 
  6 C        0.2090    -4.0200     1.6160 C.ar  1 <1>  -0.1500 
  7 C       -0.3910    -4.8720     0.6960 C.ar  1 <1>  -0.1430 
  8 C       -0.8740    -6.2410     1.1490 C.3   1 <1>   0.2640 
  9 O        0.2840    -7.0440     1.2440 O.3   1 <1>  -0.3630 
 10 C        0.3130    -8.1800     0.5160 C.ar  1 <1>   0.0830 
 11 C        1.0420    -8.2370    -0.6700 C.ar  1 <1>  -0.1430 
 12 C       -0.3650    -9.2940     0.9860 C.ar  1 <1>  -0.1500 
 13 C        1.0770    -9.4300    -1.3780 C.ar  1 <1>  -0.1500 
 14 C        1.7770    -7.0270    -1.2130 C.3   1 <1>   0.4860 
 15 C       -0.3240   -10.4750     0.2690 C.ar  1 <1>  -0.1500 
 16 C        0.3970   -10.5420    -0.9100 C.ar  1 <1>  -0.1500 
 17 N        2.6010    -6.4490    -0.1260 N.4   1 <1>  -0.9060 
 18 C        3.1800    -5.1060    -0.4600 C.3   1 <1>   0.3430 
 19 C        3.8970    -4.4230     0.7400 C.3   1 <1>   0.3430 
 20 N        4.7500    -3.2300     0.3720 N.4   1 <1>  -0.9590 
 21 C        5.5140    -2.7500     1.5740 C.3   1 <1>   0.2630 
 22 C        3.9710    -2.0740    -0.1920 C.3   1 <1>   0.2630 
 23 H       -0.1930    -2.9040    -2.0580 H     1 <1>   0.1500 
 24 H        1.1160    -2.0960     1.9230 H     1 <1>   0.1500 
 25 H       -1.0380    -5.1150    -1.3380 H     1 <1>   0.1500 
 26 H        0.3000    -4.3170     2.6490 H     1 <1>   0.1500 
 27 H       -1.5670    -6.6730     0.4450 H     1 <1>   0.0800 
 28 H       -1.3350    -6.1940     2.1200 H     1 <1>   0.0800 
 29 H       -0.9170    -9.2440     1.9080 H     1 <1>   0.1500 
 30 H        1.6240    -9.5180    -2.3020 H     1 <1>   0.1500 
 31 H        1.0540    -6.3060    -1.5570 H     1 <1>   0.0800 
 32 H        2.3980    -7.3170    -2.0450 H     1 <1>   0.0800 
 33 H       -0.8500   -11.3440     0.6290 H     1 <1>   0.1500 
 34 H        0.4250   -11.4660    -1.4640 H     1 <1>   0.1500 
 35 H        3.2950    -7.1610     0.1390 H     1 <1>   0.4500 
 36 H        1.9330    -6.4010     0.6680 H     1 <1>   0.4500 
 37 H        2.3870    -4.4570    -0.7980 H     1 <1>   0.0800 
 38 H        3.8870    -5.2260    -1.2650 H     1 <1>   0.0800 
 39 H        4.5300    -5.1560     1.2130 H     1 <1>   0.0800 
 40 H        3.1530    -4.1150     1.4580 H     1 <1>   0.0800 
 41 H        5.4620    -3.5040    -0.3280 H     1 <1>   0.4500 
 42 H        4.8380    -2.4220     2.3470 H     1 <1>   0.0800 
 43 H        6.1530    -1.9230     1.3070 H     1 <1>   0.0800 
 44 H        6.1330    -3.5400     1.9710 H     1 <1>   0.0800 
 45 H        3.2550    -1.7130     0.5290 H     1 <1>   0.0800 
 46 H        3.4430    -2.3630    -1.0860 H     1 <1>   0.0800 
 47 H        4.6350    -1.2620    -0.4420 H     1 <1>   0.0800 
@<TRIPOS>BOND
  1   1   2  1   
  2   2   3  ar  
  3   2   4  ar  
  4   3   5  ar  
  5   3  23  1   
  6   4   6  ar  
  7   4  24  1   
  8   5   7  ar  
  9   5  25  1   
 10   6   7  ar  
 11   6  26  1   
 12   7   8  1   
 13   8   9  1   
 14   8  27  1   
 15   8  28  1   
 16   9  10  1   
 17  10  11  ar  
 18  10  12  ar  
 19  11  13  ar  
 20  11  14  1   
 21  12  15  ar  
 22  12  29  1   
 23  13  16  ar  
 24  13  30  1   
 25  14  17  1   
 26  14  31  1   
 27  14  32  1   
 28  15  16  ar  
 29  15  33  1   
 30  16  34  1   
 31  17  18  1   
 32  17  35  1   
 33  17  36  1   
 34  18  19  1   
 35  18  37  1   
 36  18  38  1   
 37  19  20  1   
 38  19  39  1   
 39  19  40  1   
 40  20  21  1   
 41  20  22  1   
 42  20  41  1   
 43  21  42  1   
 44  21  43  1   
 45  21  44  1   
 46  22  45  1   
 47  22  46  1   
 48  22  47  1   
@<TRIPOS>SUBSTRUCTURE
  1 ****  17 GROUP 4 **** **** 0

# MOE 2024.06 (io_trps.svl 2023.06)
