@<TRIPOS>MOLECULE
NONAME
32 32 1 0 0 
SMALL
USER_CHARGES


@<TRIPOS>ATOM
  1 O       -0.2250    -0.2470    -0.4040 O.2   1 <1>  -0.5700 
  2 C       -0.0640    -1.4240    -0.1290 C.2   1 <1>   0.7200 
  3 O        1.1880    -1.8730     0.0340 O.3   1 <1>  -0.4300 
  4 C       -1.1910    -2.3520     0.0280 C.2   1 <1>   0.6300 
  5 C        2.3120    -1.0320    -0.1010 C.3   1 <1>   0.1200 
  6 O       -1.0310    -3.5210     0.3390 O.2   1 <1>  -0.5700 
  7 N       -2.4730    -1.8720    -0.1750 N.am  1 <1>  -0.5470 
  8 C        3.5610    -1.8710     0.1500 C.3   1 <1>  -0.2400 
  9 C       -3.7380    -2.4790    -0.1090 C.ar  1 <1>   0.1170 
 10 C       -3.9390    -3.8500    -0.2460 C.ar  1 <1>  -0.1500 
 11 C       -4.8500    -1.6680     0.0850 C.ar  1 <1>  -0.1500 
 12 C       -5.2090    -4.3970    -0.1830 C.ar  1 <1>  -0.1500 
 13 C       -6.1220    -2.2080     0.1470 C.ar  1 <1>  -0.1500 
 14 C       -6.3130    -3.5730     0.0150 C.ar  1 <1>   0.0820 
 15 O       -7.5940    -4.0210     0.0890 O.3   1 <1>  -0.3630 
 16 C       -7.8890    -5.3940    -0.0110 C.3   1 <1>   0.1200 
 17 C       -9.3990    -5.5630     0.1230 C.3   1 <1>  -0.2400 
 18 H        2.2320    -0.2350     0.6190 H     1 <1>   0.0800 
 19 H        2.3160    -0.6220    -1.0970 H     1 <1>   0.0800 
 20 H       -2.4920    -0.8680    -0.3710 H     1 <1>   0.3700 
 21 H        3.5370    -2.2830     1.1430 H     1 <1>   0.0800 
 22 H        4.4370    -1.2560     0.0540 H     1 <1>   0.0800 
 23 H        3.6220    -2.6690    -0.5680 H     1 <1>   0.0800 
 24 H       -3.1020    -4.5040    -0.4070 H     1 <1>   0.1500 
 25 H       -4.7260    -0.6060     0.1920 H     1 <1>   0.1500 
 26 H       -5.3150    -5.4590    -0.2910 H     1 <1>   0.1500 
 27 H       -6.9780    -1.5750     0.2990 H     1 <1>   0.1500 
 28 H       -7.3770    -5.9120     0.7810 H     1 <1>   0.0800 
 29 H       -7.5510    -5.7470    -0.9700 H     1 <1>   0.0800 
 30 H       -9.7280    -5.1920     1.0770 H     1 <1>   0.0800 
 31 H       -9.6570    -6.6040     0.0500 H     1 <1>   0.0800 
 32 H       -9.9010    -5.0280    -0.6630 H     1 <1>   0.0800 
@<TRIPOS>BOND
  1   1   2  2   
  2   2   3  1   
  3   2   4  1   
  4   3   5  1   
  5   4   6  2   
  6   4   7  am  
  7   5   8  1   
  8   5  18  1   
  9   5  19  1   
 10   7   9  1   
 11   7  20  1   
 12   8  21  1   
 13   8  22  1   
 14   8  23  1   
 15   9  10  ar  
 16   9  11  ar  
 17  10  12  ar  
 18  10  24  1   
 19  11  13  ar  
 20  11  25  1   
 21  12  14  ar  
 22  12  26  1   
 23  13  14  ar  
 24  13  27  1   
 25  14  15  1   
 26  15  16  1   
 27  16  17  1   
 28  16  28  1   
 29  16  29  1   
 30  17  30  1   
 31  17  31  1   
 32  17  32  1   
@<TRIPOS>SUBSTRUCTURE
  1 ****   9 GROUP 4 **** **** 0

# MOE 2024.06 (io_trps.svl 2023.06)
