@<TRIPOS>MOLECULE
NONAME
42 43 1 0 0 
SMALL
USER_CHARGES


@<TRIPOS>ATOM
  1 S        0.1390    -0.3560    -0.7870 S.3   1 <1>  -0.3320 
  2 C        0.4890    -1.9240     0.0320 C.ar  1 <1>   0.1020 
  3 C        0.1630     0.8450     0.6120 C.3   1 <1>  -0.0100 
  4 C        1.7220    -2.5620    -0.1200 C.ar  1 <1>   0.1170 
  5 C       -0.5200    -2.4770     0.8000 C.ar  1 <1>  -0.1500 
  6 N        2.7900    -2.0400    -0.8570 N.am  1 <1>  -0.5470 
  7 C        1.9000    -3.7920     0.5000 C.ar  1 <1>  -0.1500 
  8 C       -0.3160    -3.6980     1.4220 C.ar  1 <1>  -0.1500 
  9 C        3.5880    -0.9800    -0.5430 C.2   1 <1>   0.5690 
 10 C        0.8940    -4.3550     1.2670 C.ar  1 <1>  -0.1500 
 11 O        3.3140    -0.2080     0.3500 O.2   1 <1>  -0.5700 
 12 C        4.8600    -0.7960    -1.3860 C.3   1 <1>  -0.0190 
 13 C        5.9550    -1.8470    -1.0730 C.3   1 <1>  -0.1860 
 14 C        5.4600     0.6210    -1.2930 C.3   1 <1>  -0.0220 
 15 C        5.4910    -3.2790    -1.3110 C.2   1 <1>   0.9060 
 16 C        6.4920    -1.6460     0.3540 C.3   1 <1>  -0.0220 
 17 C        6.3900     0.8310    -0.0970 C.2   1 <1>  -0.2760 
 18 O        5.9080    -4.1960    -0.6000 O.co2 1 <1>  -0.9000 
 19 O        4.6650    -3.4870    -2.2090 O.co2 1 <1>  -0.9000 
 20 C        6.8390    -0.1880     0.6540 C.2   1 <1>  -0.2760 
 21 C        6.7010     2.3100     0.0980 C.3   1 <1>  -0.1020 
 22 C        7.7170    -0.0870     1.8960 C.3   1 <1>  -0.1020 
 23 H        0.0860     1.8330     0.1970 H     1 <1>   0.0800 
 24 H        1.0960     0.7190     1.1320 H     1 <1>   0.0800 
 25 H       -0.6680     0.6230     1.2540 H     1 <1>   0.0800 
 26 H       -1.4560    -1.9600     0.9020 H     1 <1>   0.1500 
 27 H        3.2540    -2.7140    -1.4990 H     1 <1>   0.3700 
 28 H        2.8440    -4.3000     0.3790 H     1 <1>   0.1500 
 29 H       -1.0960    -4.1370     2.0200 H     1 <1>   0.1500 
 30 H        1.0590    -5.3070     1.7410 H     1 <1>   0.1500 
 31 H        4.5560    -0.9310    -2.4080 H     1 <1>   0.0800 
 32 H        6.7700    -1.6880    -1.7520 H     1 <1>   0.0800 
 33 H        4.6550     1.3350    -1.2620 H     1 <1>   0.0800 
 34 H        6.0250     0.8120    -2.1880 H     1 <1>   0.0800 
 35 H        7.3670    -2.2620     0.4700 H     1 <1>   0.0800 
 36 H        5.7600    -1.9860     1.0670 H     1 <1>   0.0800 
 37 H        7.0790     2.7270    -0.8180 H     1 <1>   0.0800 
 38 H        7.4350     2.4830     0.8590 H     1 <1>   0.0800 
 39 H        5.8030     2.8340     0.3710 H     1 <1>   0.0800 
 40 H        8.6680    -0.5510     1.7070 H     1 <1>   0.0800 
 41 H        7.2410    -0.5990     2.7120 H     1 <1>   0.0800 
 42 H        7.8880     0.9240     2.2040 H     1 <1>   0.0800 
@<TRIPOS>BOND
  1   1   2  1   
  2   1   3  1   
  3   2   4  ar  
  4   2   5  ar  
  5   3  23  1   
  6   3  24  1   
  7   3  25  1   
  8   4   6  1   
  9   4   7  ar  
 10   5   8  ar  
 11   5  26  1   
 12   6   9  am  
 13   6  27  1   
 14   7  10  ar  
 15   7  28  1   
 16   8  10  ar  
 17   8  29  1   
 18   9  11  2   
 19   9  12  1   
 20  10  30  1   
 21  12  13  1   
 22  12  14  1   
 23  12  31  1   
 24  13  15  1   
 25  13  16  1   
 26  13  32  1   
 27  14  17  1   
 28  14  33  1   
 29  14  34  1   
 30  15  18  ar  
 31  15  19  ar  
 32  16  20  1   
 33  16  35  1   
 34  16  36  1   
 35  17  20  2   
 36  17  21  1   
 37  20  22  1   
 38  21  37  1   
 39  21  38  1   
 40  21  39  1   
 41  22  40  1   
 42  22  41  1   
 43  22  42  1   
@<TRIPOS>SUBSTRUCTURE
  1 ****   9 GROUP 4 **** **** 0

# MOE 2024.06 (io_trps.svl 2023.06)
