@<TRIPOS>MOLECULE
NONAME
31 32 1 0 0 
SMALL
USER_CHARGES


@<TRIPOS>ATOM
  1 O       -0.3650     0.3090    -0.0800 O.3   1 <1>  -0.5600 
  2 C       -1.5580    -0.3590     0.2260 C.3   1 <1>   0.1200 
  3 C       -0.3970     1.6740     0.2300 C.3   1 <1>   0.1200 
  4 C       -2.7430     0.2300    -0.5590 C.3   1 <1>   0.2090 
  5 C       -1.5050     2.3960    -0.5580 C.3   1 <1>   0.2090 
  6 N       -2.8250     1.7140    -0.3730 N.pl3 1 <1>  -0.8380 
  7 C       -4.0120     2.3870    -0.1750 C.ar  1 <1>   0.7200 
  8 N       -3.9520     3.6930    -0.0670 N.ar  1 <1>  -0.6200 
  9 N       -5.1090     1.6760    -0.1130 N.ar  1 <1>  -0.6200 
 10 C       -5.1150     4.2630     0.1180 C.ar  1 <1>   0.7030 
 11 C       -6.1890     2.3750     0.0760 C.ar  1 <1>   0.7200 
 12 O       -5.1580     5.6010     0.2410 O.3   1 <1>  -0.3630 
 13 N       -6.2690     3.6710     0.2000 N.ar  1 <1>  -0.6200 
 14 N       -7.3280     1.6460     0.1420 N.pl3 1 <1>  -0.8690 
 15 C       -3.9950     6.4020     0.1740 C.3   1 <1>   0.0400 
 16 C       -8.7170     2.1560     0.2790 C.3   1 <1>   0.1290 
 17 H       -1.7360    -0.2800     1.2840 H     1 <1>   0.0800 
 18 H       -1.4270    -1.3960    -0.0250 H     1 <1>   0.0800 
 19 H        0.5630     2.0900    -0.0180 H     1 <1>   0.0800 
 20 H       -0.5600     1.7840     1.2880 H     1 <1>   0.0800 
 21 H       -3.6440    -0.2570    -0.2290 H     1 <1>   0.0800 
 22 H       -2.6160     0.0130    -1.6050 H     1 <1>   0.0800 
 23 H       -1.2520     2.3950    -1.6030 H     1 <1>   0.0800 
 24 H       -1.5440     3.4200    -0.2300 H     1 <1>   0.0800 
 25 H       -7.1970     0.6480    -0.0150 H     1 <1>   0.4000 
 26 H       -4.2860     7.4300     0.2980 H     1 <1>   0.0800 
 27 H       -3.5310     6.2630    -0.7870 H     1 <1>   0.0800 
 28 H       -3.3250     6.1100     0.9630 H     1 <1>   0.0800 
 29 H       -8.7190     3.2040     0.5230 H     1 <1>   0.0800 
 30 H       -9.2230     1.6200     1.0630 H     1 <1>   0.0800 
 31 H       -9.2470     2.0150    -0.6470 H     1 <1>   0.0800 
@<TRIPOS>BOND
  1   1   2  1   
  2   1   3  1   
  3   2   4  1   
  4   2  17  1   
  5   2  18  1   
  6   3   5  1   
  7   3  19  1   
  8   3  20  1   
  9   4   6  1   
 10   4  21  1   
 11   4  22  1   
 12   5   6  1   
 13   5  23  1   
 14   5  24  1   
 15   6   7  1   
 16   7   8  ar  
 17   7   9  ar  
 18   8  10  ar  
 19   9  11  ar  
 20  10  12  1   
 21  10  13  ar  
 22  11  13  ar  
 23  11  14  1   
 24  12  15  1   
 25  14  16  1   
 26  14  25  1   
 27  15  26  1   
 28  15  27  1   
 29  15  28  1   
 30  16  29  1   
 31  16  30  1   
 32  16  31  1   
@<TRIPOS>SUBSTRUCTURE
  1 ****   7 GROUP 4 **** **** 0

# MOE 2024.06 (io_trps.svl 2023.06)
