@<TRIPOS>MOLECULE
NONAME
49 50 1 0 0 
SMALL
USER_CHARGES


@<TRIPOS>ATOM
  1 O       -0.3570    -0.8760    -1.6360 O.2   1 <1>  -0.5700 
  2 C        0.3080    -0.0530    -1.0540 C.2   1 <1>   0.5690 
  3 N       -0.1920     1.1140    -0.5450 N.am  1 <1>  -0.5470 
  4 C        1.7930    -0.3360    -0.8660 C.3   1 <1>   0.1810 
  5 C       -1.4810     1.6720    -0.5380 C.ar  1 <1>   0.1170 
  6 O        2.4240     0.7090    -0.1340 O.3   1 <1>  -0.3630 
  7 C       -1.7480     2.7190     0.3350 C.ar  1 <1>  -0.1500 
  8 C       -2.5070     1.2370    -1.3710 C.ar  1 <1>  -0.1500 
  9 C        3.7540     0.6800     0.1450 C.ar  1 <1>   0.0830 
 10 C       -2.9970     3.3100     0.3800 C.ar  1 <1>  -0.1500 
 11 C       -3.7560     1.8290    -1.3260 C.ar  1 <1>  -0.1500 
 12 C        4.2900     1.7620     0.8370 C.ar  1 <1>  -0.1430 
 13 C        4.5830    -0.3740    -0.2310 C.ar  1 <1>  -0.1500 
 14 C       -4.0230     2.8760    -0.4520 C.ar  1 <1>   0.1170 
 15 C        5.6420     1.7770     1.1420 C.ar  1 <1>  -0.1500 
 16 C        3.4110     2.9300     1.2620 C.3   1 <1>  -0.0970 
 17 C        5.9300    -0.3460     0.0800 C.ar  1 <1>  -0.1500 
 18 N       -5.3140     3.4320    -0.4420 N.am  1 <1>  -0.5470 
 19 C        6.4670     0.7300     0.7670 C.ar  1 <1>  -0.1430 
 20 C       -5.7810     4.6250     0.0330 C.2   1 <1>   0.5690 
 21 C        7.9450     0.7620     1.1110 C.3   1 <1>  -0.0970 
 22 O       -5.0880     5.4700     0.5430 O.2   1 <1>  -0.5700 
 23 C       -7.2670     4.8980    -0.1070 C.3   1 <1>  -0.0990 
 24 C       -8.1060     4.0690     0.8790 C.3   1 <1>  -0.1600 
 25 C       -9.6010     4.3640     0.7230 C.3   1 <1>  -0.2400 
 26 H        0.5190     1.6620    -0.0560 H     1 <1>   0.3700 
 27 H        2.2650    -0.4110    -1.8280 H     1 <1>   0.0800 
 28 H        1.9130    -1.2540    -0.3210 H     1 <1>   0.0800 
 29 H       -0.9750     3.0760     0.9900 H     1 <1>   0.1500 
 30 H       -2.3350     0.4340    -2.0630 H     1 <1>   0.1500 
 31 H       -3.1690     4.1130     1.0730 H     1 <1>   0.1500 
 32 H       -4.5270     1.4710    -1.9820 H     1 <1>   0.1500 
 33 H        4.2060    -1.2260    -0.7640 H     1 <1>   0.1500 
 34 H        6.0610     2.6100     1.6780 H     1 <1>   0.1500 
 35 H        2.6330     2.5800     1.9170 H     1 <1>   0.0800 
 36 H        2.9620     3.3820     0.3960 H     1 <1>   0.0800 
 37 H        3.9830     3.6780     1.7800 H     1 <1>   0.0800 
 38 H        6.5610    -1.1660    -0.2140 H     1 <1>   0.1500 
 39 H       -6.0210     2.8490    -0.8830 H     1 <1>   0.3700 
 40 H        8.3180     1.7690     1.0630 H     1 <1>   0.0800 
 41 H        8.5080     0.1600     0.4210 H     1 <1>   0.0800 
 42 H        8.0950     0.3830     2.1060 H     1 <1>   0.0800 
 43 H       -7.5660     4.6860    -1.1170 H     1 <1>   0.0800 
 44 H       -7.4370     5.9450     0.0720 H     1 <1>   0.0800 
 45 H       -7.8010     4.3030     1.8860 H     1 <1>   0.0800 
 46 H       -7.9340     3.0190     0.7180 H     1 <1>   0.0800 
 47 H       -9.8000     5.4050     0.9090 H     1 <1>   0.0800 
 48 H      -10.1670     3.7790     1.4270 H     1 <1>   0.0800 
 49 H       -9.9350     4.1200    -0.2700 H     1 <1>   0.0800 
@<TRIPOS>BOND
  1   1   2  2   
  2   2   3  am  
  3   2   4  1   
  4   3   5  1   
  5   3  26  1   
  6   4   6  1   
  7   4  27  1   
  8   4  28  1   
  9   5   7  ar  
 10   5   8  ar  
 11   6   9  1   
 12   7  10  ar  
 13   7  29  1   
 14   8  11  ar  
 15   8  30  1   
 16   9  12  ar  
 17   9  13  ar  
 18  10  14  ar  
 19  10  31  1   
 20  11  14  ar  
 21  11  32  1   
 22  12  15  ar  
 23  12  16  1   
 24  13  17  ar  
 25  13  33  1   
 26  14  18  1   
 27  15  19  ar  
 28  15  34  1   
 29  16  35  1   
 30  16  36  1   
 31  16  37  1   
 32  17  19  ar  
 33  17  38  1   
 34  18  20  am  
 35  18  39  1   
 36  19  21  1   
 37  20  22  2   
 38  20  23  1   
 39  21  40  1   
 40  21  41  1   
 41  21  42  1   
 42  23  24  1   
 43  23  43  1   
 44  23  44  1   
 45  24  25  1   
 46  24  45  1   
 47  24  46  1   
 48  25  47  1   
 49  25  48  1   
 50  25  49  1   
@<TRIPOS>SUBSTRUCTURE
  1 ****   3 GROUP 4 **** **** 0

# MOE 2024.06 (io_trps.svl 2023.06)
