@<TRIPOS>MOLECULE
NONAME
40 41 1 0 0 
SMALL
USER_CHARGES


@<TRIPOS>ATOM
  1 S       -0.1770    -0.1650     0.9210 S.2   1 <1>  -0.3800 
  2 C       -1.0340    -1.1230    -0.0430 C.2   1 <1>   0.5810 
  3 S       -0.1950    -2.5470    -0.6890 S.3   1 <1>  -0.3710 
  4 N       -2.3350    -0.9270    -0.3680 N.am  1 <1>  -0.6600 
  5 C        1.5680    -2.4210    -0.1280 C.3   1 <1>   0.0700 
  6 C       -3.1400    -1.8320    -1.2540 C.3   1 <1>   0.1400 
  7 C       -3.1300     0.2380     0.1400 C.3   1 <1>   0.1400 
  8 C        2.3310    -3.6280    -0.6670 C.3   1 <1>   0.1400 
  9 C       -4.4190    -2.3060    -0.5350 C.3   1 <1>   0.3430 
 10 C       -4.4070    -0.2420     0.8580 C.3   1 <1>   0.3430 
 11 N        3.7350    -3.5940    -0.1930 N.am  1 <1>  -0.6600 
 12 N       -5.2380    -1.1540    -0.0090 N.4   1 <1>  -0.9590 
 13 C        4.7840    -3.1260    -0.9040 C.2   1 <1>   0.5690 
 14 C        4.1160    -4.0860     1.1410 C.3   1 <1>   0.1400 
 15 C       -6.4370    -1.6490     0.7350 C.3   1 <1>   0.2630 
 16 O        4.7350    -2.6620    -2.0160 O.2   1 <1>  -0.5700 
 17 C        6.0580    -3.2440    -0.1150 C.3   1 <1>  -0.0990 
 18 C        5.6520    -4.0750     1.1150 C.3   1 <1>  -0.1600 
 19 H        1.5660    -2.4080     0.9470 H     1 <1>   0.0800 
 20 H        1.9710    -1.5040    -0.5230 H     1 <1>   0.0800 
 21 H       -2.5820    -2.7000    -1.5550 H     1 <1>   0.0800 
 22 H       -3.4050    -1.3020    -2.1520 H     1 <1>   0.0800 
 23 H       -3.3950     0.8730    -0.6870 H     1 <1>   0.0800 
 24 H       -2.5570     0.8340     0.8280 H     1 <1>   0.0800 
 25 H        2.3200    -3.6040    -1.7440 H     1 <1>   0.0800 
 26 H        1.8650    -4.5410    -0.3400 H     1 <1>   0.0800 
 27 H       -4.1280    -2.9470     0.2810 H     1 <1>   0.0800 
 28 H       -5.0090    -2.8920    -1.2200 H     1 <1>   0.0800 
 29 H       -4.9890     0.6160     1.1510 H     1 <1>   0.0800 
 30 H       -4.1130    -0.7620     1.7550 H     1 <1>   0.0800 
 31 H       -5.5590    -0.6050    -0.8190 H     1 <1>   0.4500 
 32 H        3.7350    -5.0800     1.3050 H     1 <1>   0.0800 
 33 H        3.7390    -3.4160     1.8950 H     1 <1>   0.0800 
 34 H       -6.1350    -2.2290     1.5920 H     1 <1>   0.0800 
 35 H       -7.0450    -2.2700     0.0960 H     1 <1>   0.0800 
 36 H       -7.0370    -0.8190     1.0750 H     1 <1>   0.0800 
 37 H        6.3830    -2.2600     0.1680 H     1 <1>   0.0800 
 38 H        6.8180    -3.7320    -0.6970 H     1 <1>   0.0800 
 39 H        6.0060    -5.0850     1.0030 H     1 <1>   0.0800 
 40 H        6.0550    -3.6680     2.0260 H     1 <1>   0.0800 
@<TRIPOS>BOND
  1   1   2  2   
  2   2   3  1   
  3   2   4  am  
  4   3   5  1   
  5   4   6  1   
  6   4   7  1   
  7   5   8  1   
  8   5  19  1   
  9   5  20  1   
 10   6   9  1   
 11   6  21  1   
 12   6  22  1   
 13   7  10  1   
 14   7  23  1   
 15   7  24  1   
 16   8  11  1   
 17   8  25  1   
 18   8  26  1   
 19   9  12  1   
 20   9  27  1   
 21   9  28  1   
 22  10  12  1   
 23  10  29  1   
 24  10  30  1   
 25  11  13  am  
 26  11  14  1   
 27  12  15  1   
 28  12  31  1   
 29  13  16  2   
 30  13  17  1   
 31  14  18  1   
 32  14  32  1   
 33  14  33  1   
 34  15  34  1   
 35  15  35  1   
 36  15  36  1   
 37  17  18  1   
 38  17  37  1   
 39  17  38  1   
 40  18  39  1   
 41  18  40  1   
@<TRIPOS>SUBSTRUCTURE
  1 ****   3 GROUP 4 **** **** 0

# MOE 2024.06 (io_trps.svl 2023.06)
