@<TRIPOS>MOLECULE
NONAME
35 36 1 0 0 
SMALL
USER_CHARGES


@<TRIPOS>ATOM
  1 CL      -1.1160     0.7250    -2.1360 Cl    1 <1>  -0.1770 
  2 C       -0.7490     1.9730    -0.9690 C.ar  1 <1>   0.1770 
  3 C       -1.4500     2.0450     0.2270 C.ar  1 <1>  -0.1440 
  4 C        0.2460     2.8830    -1.2770 C.ar  1 <1>  -0.1500 
  5 C       -1.1420     3.0640     1.1160 C.ar  1 <1>  -0.1500 
  6 C       -2.5400     1.0460     0.5740 C.3   1 <1>   0.2840 
  7 C        0.5490     3.8910    -0.3790 C.ar  1 <1>  -0.1500 
  8 C       -0.1470     3.9810     0.8150 C.ar  1 <1>  -0.1500 
  9 N       -3.8130     1.5330     0.0140 N.am  1 <1>  -0.7300 
 10 C       -4.9120     1.8410     0.7470 C.2   1 <1>   0.5690 
 11 O       -4.9390     1.6790     1.9430 O.2   1 <1>  -0.5700 
 12 C       -6.1310     2.4170     0.0260 C.3   1 <1>  -0.0190 
 13 C       -6.3540     3.8920     0.4090 C.3   1 <1>  -0.1600 
 14 C       -7.4000     1.5870     0.3020 C.3   1 <1>  -0.1600 
 15 C       -7.5800     4.4820    -0.3040 C.3   1 <1>  -0.1600 
 16 C       -8.6250     2.1760    -0.4130 C.3   1 <1>  -0.1600 
 17 C       -8.8370     3.6460    -0.0280 C.3   1 <1>  -0.1600 
 18 H        0.7740     2.8010    -2.2100 H     1 <1>   0.1500 
 19 H       -1.6810     3.1490     2.0450 H     1 <1>   0.1500 
 20 H       -2.6170     0.9450     1.6430 H     1 <1>   0.0800 
 21 H       -2.3150     0.0750     0.1680 H     1 <1>   0.0800 
 22 H        1.3220     4.6050    -0.6080 H     1 <1>   0.1500 
 23 H        0.0840     4.7670     1.5140 H     1 <1>   0.1500 
 24 H       -3.7930     1.7250    -0.9870 H     1 <1>   0.3700 
 25 H       -5.9390     2.3770    -1.0310 H     1 <1>   0.0800 
 26 H       -5.4800     4.4670     0.1570 H     1 <1>   0.0800 
 27 H       -6.4960     3.9620     1.4750 H     1 <1>   0.0800 
 28 H       -7.5860     1.5660     1.3630 H     1 <1>   0.0800 
 29 H       -7.2450     0.5730    -0.0230 H     1 <1>   0.0800 
 30 H       -7.3980     4.5110    -1.3650 H     1 <1>   0.0800 
 31 H       -7.7390     5.4920     0.0310 H     1 <1>   0.0800 
 32 H       -9.5010     1.6060    -0.1520 H     1 <1>   0.0800 
 33 H       -8.4890     2.1020    -1.4780 H     1 <1>   0.0800 
 34 H       -9.6670     4.0480    -0.5820 H     1 <1>   0.0800 
 35 H       -9.0790     3.7060     1.0200 H     1 <1>   0.0800 
@<TRIPOS>BOND
  1   1   2  1   
  2   2   3  ar  
  3   2   4  ar  
  4   3   5  ar  
  5   3   6  1   
  6   4   7  ar  
  7   4  18  1   
  8   5   8  ar  
  9   5  19  1   
 10   6   9  1   
 11   6  20  1   
 12   6  21  1   
 13   7   8  ar  
 14   7  22  1   
 15   8  23  1   
 16   9  10  am  
 17   9  24  1   
 18  10  11  2   
 19  10  12  1   
 20  12  13  1   
 21  12  14  1   
 22  12  25  1   
 23  13  15  1   
 24  13  26  1   
 25  13  27  1   
 26  14  16  1   
 27  14  28  1   
 28  14  29  1   
 29  15  17  1   
 30  15  30  1   
 31  15  31  1   
 32  16  17  1   
 33  16  32  1   
 34  16  33  1   
 35  17  34  1   
 36  17  35  1   
@<TRIPOS>SUBSTRUCTURE
  1 ****   9 GROUP 4 **** **** 0

# MOE 2024.06 (io_trps.svl 2023.06)
