@<TRIPOS>MOLECULE
NONAME
54 56 1 0 0 
SMALL
USER_CHARGES


@<TRIPOS>ATOM
  1 O       -0.9720     1.4370     2.3570 O.2   1 <1>  -0.5700 
  2 C       -1.6950     1.9380     1.5230 C.2   1 <1>   0.7060 
  3 O       -2.8500     1.3360     1.2320 O.3   1 <1>  -0.2330 
  4 C       -1.3740     3.1380     0.8250 C.2   1 <1>  -0.1360 
  5 C       -3.7230     1.8020     0.3110 C.ar  1 <1>   0.0820 
  6 C       -2.1940     3.6570    -0.1150 C.2   1 <1>  -0.1670 
  7 C       -4.9040     1.0800     0.1000 C.ar  1 <1>   0.0860 
  8 C       -3.4240     2.9710    -0.4070 C.ar  1 <1>   0.0280 
  9 C       -1.8310     4.9410    -0.8500 C.3   1 <1>  -0.1020 
 10 C       -5.7920     1.5480    -0.8760 C.ar  1 <1>   0.0830 
 11 C       -5.1650    -0.1050     0.8740 C.2   1 <1>   0.3980 
 12 C       -4.3400     3.3960    -1.3720 C.ar  1 <1>  -0.1500 
 13 O       -6.9280     0.9040    -1.2000 O.3   1 <1>  -0.3630 
 14 C       -5.5000     2.6910    -1.6040 C.ar  1 <1>  -0.1500 
 15 O       -5.6230     0.0280     1.9910 O.2   1 <1>  -0.5700 
 16 C       -4.8950    -1.4280     0.3390 C.ar  1 <1>   0.0860 
 17 C       -7.9810     0.7170    -0.2580 C.3   1 <1>   0.2610 
 18 C       -4.7970    -2.5290     1.1910 C.ar  1 <1>  -0.1500 
 19 C       -4.7320    -1.6700    -1.0290 C.ar  1 <1>  -0.1500 
 20 C       -8.5060    -0.7190    -0.3910 C.2   1 <1>   0.6590 
 21 C       -9.0350     1.8140    -0.5110 C.3   1 <1>  -0.1600 
 22 C       -4.5510    -3.8030     0.7130 C.ar  1 <1>  -0.1500 
 23 C       -4.4870    -2.9410    -1.5150 C.ar  1 <1>  -0.1500 
 24 O       -9.2540    -1.0650    -1.2730 O.2   1 <1>  -0.5700 
 25 O       -8.0690    -1.5800     0.5220 O.3   1 <1>  -0.4300 
 26 C       -9.9320     2.1220     0.7060 C.3   1 <1>  -0.0800 
 27 C       -4.3950    -4.0120    -0.6450 C.ar  1 <1>  -0.1500 
 28 C       -8.3880    -2.9530     0.4740 C.3   1 <1>   0.0400 
 29 C      -10.7680     0.9160     1.1540 C.3   1 <1>  -0.2400 
 30 C      -10.8680     3.2880     0.3660 C.3   1 <1>  -0.2400 
 31 H       -0.4400     3.5890     1.1000 H     1 <1>   0.1500 
 32 H       -1.7490     4.7550    -1.9060 H     1 <1>   0.0800 
 33 H       -0.8890     5.3270    -0.5040 H     1 <1>   0.0800 
 34 H       -2.5830     5.6910    -0.6810 H     1 <1>   0.0800 
 35 H       -4.1470     4.2810    -1.9510 H     1 <1>   0.1500 
 36 H       -6.1940     3.0200    -2.3580 H     1 <1>   0.1500 
 37 H       -7.5840     0.8490     0.7300 H     1 <1>   0.0800 
 38 H       -4.9180    -2.3780     2.2510 H     1 <1>   0.1500 
 39 H       -4.8040    -0.8620    -1.7330 H     1 <1>   0.1500 
 40 H       -9.6450     1.5360    -1.3530 H     1 <1>   0.0800 
 41 H       -8.5170     2.7210    -0.7680 H     1 <1>   0.0800 
 42 H       -4.4790    -4.6300     1.3970 H     1 <1>   0.1500 
 43 H       -4.3690    -3.0990    -2.5730 H     1 <1>   0.1500 
 44 H       -9.3070     2.4270     1.5300 H     1 <1>   0.0800 
 45 H       -4.2030    -5.0010    -1.0220 H     1 <1>   0.1500 
 46 H       -7.9250    -3.4380     1.3150 H     1 <1>   0.0800 
 47 H       -8.0070    -3.3640    -0.4450 H     1 <1>   0.0800 
 48 H       -9.4570    -3.0650     0.5200 H     1 <1>   0.0800 
 49 H      -11.3190     0.5050     0.3260 H     1 <1>   0.0800 
 50 H      -11.4680     1.2100     1.9160 H     1 <1>   0.0800 
 51 H      -10.1440     0.1470     1.5730 H     1 <1>   0.0800 
 52 H      -11.5220     3.0240    -0.4470 H     1 <1>   0.0800 
 53 H      -10.3000     4.1560     0.0840 H     1 <1>   0.0800 
 54 H      -11.4700     3.5450     1.2200 H     1 <1>   0.0800 
@<TRIPOS>BOND
  1   1   2  2   
  2   2   3  1   
  3   2   4  1   
  4   3   5  1   
  5   4   6  2   
  6   4  31  1   
  7   5   7  ar  
  8   5   8  ar  
  9   6   8  1   
 10   6   9  1   
 11   7  10  ar  
 12   7  11  1   
 13   8  12  ar  
 14   9  32  1   
 15   9  33  1   
 16   9  34  1   
 17  10  13  1   
 18  10  14  ar  
 19  11  15  2   
 20  11  16  1   
 21  12  14  ar  
 22  12  35  1   
 23  13  17  1   
 24  14  36  1   
 25  16  18  ar  
 26  16  19  ar  
 27  17  20  1   
 28  17  21  1   
 29  17  37  1   
 30  18  22  ar  
 31  18  38  1   
 32  19  23  ar  
 33  19  39  1   
 34  20  24  2   
 35  20  25  1   
 36  21  26  1   
 37  21  40  1   
 38  21  41  1   
 39  22  27  ar  
 40  22  42  1   
 41  23  27  ar  
 42  23  43  1   
 43  25  28  1   
 44  26  29  1   
 45  26  30  1   
 46  26  44  1   
 47  27  45  1   
 48  28  46  1   
 49  28  47  1   
 50  28  48  1   
 51  29  49  1   
 52  29  50  1   
 53  29  51  1   
 54  30  52  1   
 55  30  53  1   
 56  30  54  1   
@<TRIPOS>SUBSTRUCTURE
  1 ****   7 GROUP 4 **** **** 0

# MOE 2024.06 (io_trps.svl 2023.06)
