@<TRIPOS>MOLECULE
NONAME
45 47 1 0 0 
SMALL
USER_CHARGES


@<TRIPOS>ATOM
  1 O       -0.0660    -0.4680     0.8360 O.2   1 <1>  -0.5700 
  2 C        0.0730    -1.6550     0.6850 C.2   1 <1>   0.5690 
  3 N        1.2530    -2.3180     0.4720 N.am  1 <1>  -0.2370 
  4 C       -1.1050    -2.6110     0.7180 C.3   1 <1>  -0.0190 
  5 C        2.5310    -1.7100     0.4280 C.ar  1 <1>   0.1170 
  6 C        1.0110    -3.6570     0.3160 C.2   1 <1>   0.5690 
  7 C       -0.4640    -3.9690     0.3850 C.3   1 <1>  -0.0990 
  8 C       -2.2210    -2.1970    -0.2560 C.3   1 <1>  -0.0170 
  9 C        3.6040    -2.2510     1.1300 C.ar  1 <1>  -0.1500 
 10 C        2.7460    -0.5530    -0.3170 C.ar  1 <1>  -0.1500 
 11 O        1.8290    -4.5220     0.1410 O.2   1 <1>  -0.5700 
 12 C       -3.3710    -3.1930    -0.2300 C.ar  1 <1>  -0.1430 
 13 C        4.8510    -1.6540     1.0890 C.ar  1 <1>  -0.1500 
 14 C        3.9920     0.0480    -0.3600 C.ar  1 <1>  -0.1500 
 15 C       -4.2430    -3.2190     0.8460 C.ar  1 <1>  -0.1500 
 16 C       -3.5620    -4.0820    -1.2760 C.ar  1 <1>  -0.1500 
 17 C        5.0560    -0.5030     0.3470 C.ar  1 <1>   0.0830 
 18 C       -5.2870    -4.1270     0.8810 C.ar  1 <1>  -0.1500 
 19 C       -4.6060    -4.9910    -1.2400 C.ar  1 <1>  -0.1500 
 20 O        6.3090     0.0200     0.3640 O.3   1 <1>  -0.3630 
 21 C       -5.4740    -5.0190    -0.1620 C.ar  1 <1>  -0.1440 
 22 C        6.6140     1.1990    -0.3440 C.3   1 <1>   0.1200 
 23 C       -6.6180    -6.0160    -0.1240 C.3   1 <1>  -0.0970 
 24 C        8.0870     1.5190    -0.1130 C.3   1 <1>  -0.2400 
 25 H       -1.4890    -2.6270     1.7230 H     1 <1>   0.0800 
 26 H       -0.7840    -4.3550    -0.5660 H     1 <1>   0.0800 
 27 H       -0.6590    -4.6960     1.1530 H     1 <1>   0.0800 
 28 H       -1.8270    -2.1140    -1.2540 H     1 <1>   0.0800 
 29 H       -2.5950    -1.2260     0.0210 H     1 <1>   0.0800 
 30 H        3.4680    -3.1470     1.7090 H     1 <1>   0.1500 
 31 H        1.9310    -0.1150    -0.8640 H     1 <1>   0.1500 
 32 H        5.6760    -2.0790     1.6320 H     1 <1>   0.1500 
 33 H        4.1110     0.9400    -0.9450 H     1 <1>   0.1500 
 34 H       -4.1170    -2.5310     1.6640 H     1 <1>   0.1500 
 35 H       -2.9020    -4.0760    -2.1260 H     1 <1>   0.1500 
 36 H       -5.9540    -4.1370     1.7250 H     1 <1>   0.1500 
 37 H       -4.7400    -5.6770    -2.0580 H     1 <1>   0.1500 
 38 H        5.9890     1.9920     0.0300 H     1 <1>   0.0800 
 39 H        6.4210     1.0290    -1.3890 H     1 <1>   0.0800 
 40 H       -7.4410    -5.6250     0.4470 H     1 <1>   0.0800 
 41 H       -6.2860    -6.9330     0.3280 H     1 <1>   0.0800 
 42 H       -6.9670    -6.2260    -1.1200 H     1 <1>   0.0800 
 43 H        8.2720     1.6700     0.9360 H     1 <1>   0.0800 
 44 H        8.3530     2.4160    -0.6410 H     1 <1>   0.0800 
 45 H        8.7010     0.7130    -0.4730 H     1 <1>   0.0800 
@<TRIPOS>BOND
  1   1   2  2   
  2   2   3  am  
  3   2   4  1   
  4   3   5  1   
  5   3   6  am  
  6   4   7  1   
  7   4   8  1   
  8   4  25  1   
  9   5   9  ar  
 10   5  10  ar  
 11   6   7  1   
 12   6  11  2   
 13   7  26  1   
 14   7  27  1   
 15   8  12  1   
 16   8  28  1   
 17   8  29  1   
 18   9  13  ar  
 19   9  30  1   
 20  10  14  ar  
 21  10  31  1   
 22  12  15  ar  
 23  12  16  ar  
 24  13  17  ar  
 25  13  32  1   
 26  14  17  ar  
 27  14  33  1   
 28  15  18  ar  
 29  15  34  1   
 30  16  19  ar  
 31  16  35  1   
 32  17  20  1   
 33  18  21  ar  
 34  18  36  1   
 35  19  21  ar  
 36  19  37  1   
 37  20  22  1   
 38  21  23  1   
 39  22  24  1   
 40  22  38  1   
 41  22  39  1   
 42  23  40  1   
 43  23  41  1   
 44  23  42  1   
 45  24  43  1   
 46  24  44  1   
 47  24  45  1   
@<TRIPOS>SUBSTRUCTURE
  1 ****   3 GROUP 4 **** **** 0

# MOE 2024.06 (io_trps.svl 2023.06)
