@<TRIPOS>MOLECULE
NONAME
59 61 1 0 0 
SMALL
USER_CHARGES


@<TRIPOS>ATOM
  1 S        0.0820    -0.3540    -0.8460 S.3   1 <1>  -0.0800 
  2 C       -0.1530     1.3760    -0.6530 C.2   1 <1>   0.1040 
  3 C        1.8170    -0.1750    -0.7540 C.2   1 <1>  -0.1400 
  4 N       -1.4350     1.9110    -0.6440 N.am  1 <1>  -0.4940 
  5 C        1.0470     2.0280    -0.5140 C.2   1 <1>  -0.0860 
  6 C        2.1680     1.1110    -0.6030 C.2   1 <1>  -0.1810 
  7 C        2.6980    -1.4000    -0.8530 C.3   1 <1>   0.0200 
  8 C       -2.6850     1.3650    -0.8100 C.2   1 <1>   0.5690 
  9 C        1.1310     3.4510    -0.2910 C.2   1 <1>   0.8060 
 10 C        3.6470     1.4890    -0.5360 C.3   1 <1>   0.0210 
 11 C        4.1230    -1.0280    -0.4110 C.3   1 <1>  -0.1600 
 12 O       -2.8780     0.1970    -1.0520 O.2   1 <1>  -0.5700 
 13 C       -3.8840     2.3240    -0.6680 C.3   1 <1>   0.1710 
 14 O        0.1450     4.1710    -0.2860 O.2   1 <1>  -0.5700 
 15 O        2.3240     4.0100    -0.0640 O.3   1 <1>  -0.4300 
 16 C        4.5590     0.3310    -0.9920 C.3   1 <1>  -0.1600 
 17 N       -5.2080     1.6920    -0.3840 N.3   1 <1>  -0.8100 
 18 C        2.5010     5.3820     0.2000 C.3   1 <1>   0.2000 
 19 C       -5.2290     0.9170     0.8830 C.3   1 <1>   0.1100 
 20 C       -6.3410     2.6410    -0.4400 C.3   1 <1>   0.1100 
 21 C        3.9240     5.7380    -0.2230 C.3   1 <1>  -0.2400 
 22 C        2.2890     5.6190     1.6950 C.3   1 <1>  -0.2400 
 23 C       -6.5650     0.1580     1.0720 C.3   1 <1>   0.3430 
 24 C       -7.7010     1.9310    -0.2140 C.3   1 <1>   0.3430 
 25 N       -7.5190     0.4470    -0.0500 N.4   1 <1>  -0.9590 
 26 C       -8.7700    -0.3420     0.0350 C.3   1 <1>   0.3430 
 27 C       -9.4970    -0.3030    -1.3040 C.3   1 <1>  -0.2400 
 28 H       -1.4210     2.9280    -0.5060 H     1 <1>   0.3700 
 29 H        2.7010    -1.7440    -1.8710 H     1 <1>   0.0800 
 30 H        2.3130    -2.1840    -0.2260 H     1 <1>   0.0800 
 31 H        3.8880     1.7620     0.4760 H     1 <1>   0.0800 
 32 H        3.8410     2.3350    -1.1710 H     1 <1>   0.0800 
 33 H        4.8070    -1.7980    -0.7190 H     1 <1>   0.0800 
 34 H        4.1510    -0.9700     0.6640 H     1 <1>   0.0800 
 35 H       -3.9580     2.8650    -1.5950 H     1 <1>   0.0800 
 36 H       -3.6620     3.0330     0.1090 H     1 <1>   0.0800 
 37 H        5.5730     0.5430    -0.7030 H     1 <1>   0.0800 
 38 H        4.5300     0.2710    -2.0660 H     1 <1>   0.0800 
 39 H        1.7960     5.9510    -0.3860 H     1 <1>   0.0800 
 40 H       -5.0700     1.5760     1.7190 H     1 <1>   0.0800 
 41 H       -4.4320     0.1940     0.8870 H     1 <1>   0.0800 
 42 H       -6.3570     3.1180    -1.4060 H     1 <1>   0.0800 
 43 H       -6.2130     3.4120     0.3010 H     1 <1>   0.0800 
 44 H        4.6390     5.1610     0.3350 H     1 <1>   0.0800 
 45 H        4.1100     6.7820    -0.0420 H     1 <1>   0.0800 
 46 H        4.0540     5.5500    -1.2730 H     1 <1>   0.0800 
 47 H        2.9710     5.0220     2.2730 H     1 <1>   0.0800 
 48 H        1.2780     5.3760     1.9710 H     1 <1>   0.0800 
 49 H        2.4580     6.6550     1.9280 H     1 <1>   0.0800 
 50 H       -7.0030     0.4400     2.0150 H     1 <1>   0.0800 
 51 H       -6.3560    -0.8980     1.1090 H     1 <1>   0.0800 
 52 H       -8.3390     2.1340    -1.0580 H     1 <1>   0.0800 
 53 H       -8.1750     2.3420     0.6610 H     1 <1>   0.0800 
 54 H       -6.9810     0.1700    -0.8880 H     1 <1>   0.4500 
 55 H       -9.4050     0.0470     0.8150 H     1 <1>   0.0800 
 56 H       -8.5330    -1.3680     0.2720 H     1 <1>   0.0800 
 57 H       -9.8440     0.6870    -1.5350 H     1 <1>   0.0800 
 58 H      -10.3570    -0.9480    -1.2560 H     1 <1>   0.0800 
 59 H       -8.8600    -0.6600    -2.0940 H     1 <1>   0.0800 
@<TRIPOS>BOND
  1   1   2  1   
  2   1   3  1   
  3   2   4  1   
  4   2   5  2   
  5   3   6  2   
  6   3   7  1   
  7   4   8  am  
  8   4  28  1   
  9   5   6  1   
 10   5   9  1   
 11   6  10  1   
 12   7  11  1   
 13   7  29  1   
 14   7  30  1   
 15   8  12  2   
 16   8  13  1   
 17   9  14  2   
 18   9  15  1   
 19  10  16  1   
 20  10  31  1   
 21  10  32  1   
 22  11  16  1   
 23  11  33  1   
 24  11  34  1   
 25  13  17  1   
 26  13  35  1   
 27  13  36  1   
 28  15  18  1   
 29  16  37  1   
 30  16  38  1   
 31  17  19  1   
 32  17  20  1   
 33  18  21  1   
 34  18  22  1   
 35  18  39  1   
 36  19  23  1   
 37  19  40  1   
 38  19  41  1   
 39  20  24  1   
 40  20  42  1   
 41  20  43  1   
 42  21  44  1   
 43  21  45  1   
 44  21  46  1   
 45  22  47  1   
 46  22  48  1   
 47  22  49  1   
 48  23  25  1   
 49  23  50  1   
 50  23  51  1   
 51  24  25  1   
 52  24  52  1   
 53  24  53  1   
 54  25  26  1   
 55  25  54  1   
 56  26  27  1   
 57  26  55  1   
 58  26  56  1   
 59  27  57  1   
 60  27  58  1   
 61  27  59  1   
@<TRIPOS>SUBSTRUCTURE
  1 ****   4 GROUP 4 **** **** 0

# MOE 2024.06 (io_trps.svl 2023.06)
