@<TRIPOS>MOLECULE
NONAME
33 33 1 0 0 
SMALL
USER_CHARGES


@<TRIPOS>ATOM
  1 O        2.9310     4.7170     0.6530 O.2   1 <1>  -0.5700 
  2 C        2.7190     3.5420     0.4290 C.2   1 <1>   0.8050 
  3 O        3.7580     2.7030     0.3290 O.3   1 <1>  -0.4300 
  4 C        1.4000     2.9790     0.2590 C.2   1 <1>   0.0550 
  5 C        5.0920     3.1510     0.4780 C.3   1 <1>   0.0400 
  6 O        0.3080     3.7350     0.3410 O.3   1 <1>  -0.2800 
  7 C        1.0040     1.6990     0.0070 C.2   1 <1>  -0.1500 
  8 C       -0.7570     2.9930     0.1520 C.2   1 <1>  -0.0400 
  9 C       -0.3900     1.7070    -0.0630 C.2   1 <1>  -0.1500 
 10 C       -2.1000     3.6960     0.2110 C.3   1 <1>   0.5230 
 11 N       -3.1920     2.7160    -0.0220 N.4   1 <1>  -0.9060 
 12 C       -4.5590     3.2310     0.0020 C.3   1 <1>   0.5030 
 13 C       -5.4690     2.0360    -0.2600 C.3   1 <1>  -0.2400 
 14 C       -4.7390     4.2730    -1.1000 C.3   1 <1>  -0.2400 
 15 C       -4.8650     3.8250     1.3770 C.3   1 <1>  -0.2400 
 16 H        5.7500     2.3090     0.3590 H     1 <1>   0.0800 
 17 H        5.2110     3.5770     1.4600 H     1 <1>   0.0800 
 18 H        5.2990     3.8920    -0.2750 H     1 <1>   0.0800 
 19 H        1.6360     0.8360    -0.1180 H     1 <1>   0.1500 
 20 H       -0.9850     0.8310    -0.2520 H     1 <1>   0.1500 
 21 H       -2.1220     4.4680    -0.5400 H     1 <1>   0.0800 
 22 H       -2.2090     4.1570     1.1780 H     1 <1>   0.0800 
 23 H       -3.1120     1.9820     0.6870 H     1 <1>   0.4500 
 24 H       -3.0300     2.2760    -0.9310 H     1 <1>   0.4500 
 25 H       -5.2710     1.5980    -1.2220 H     1 <1>   0.0800 
 26 H       -6.4980     2.3530    -0.2550 H     1 <1>   0.0800 
 27 H       -5.3580     1.2850     0.5020 H     1 <1>   0.0800 
 28 H       -4.4770     3.8720    -2.0630 H     1 <1>   0.0800 
 29 H       -4.1590     5.1590    -0.9130 H     1 <1>   0.0800 
 30 H       -5.7710     4.5770    -1.1450 H     1 <1>   0.0800 
 31 H       -4.6900     3.1070     2.1590 H     1 <1>   0.0800 
 32 H       -5.9010     4.1110     1.4240 H     1 <1>   0.0800 
 33 H       -4.2850     4.7090     1.5690 H     1 <1>   0.0800 
@<TRIPOS>BOND
  1   1   2  2   
  2   2   3  1   
  3   2   4  1   
  4   3   5  1   
  5   4   6  1   
  6   4   7  2   
  7   5  16  1   
  8   5  17  1   
  9   5  18  1   
 10   6   8  1   
 11   7   9  1   
 12   7  19  1   
 13   8   9  2   
 14   8  10  1   
 15   9  20  1   
 16  10  11  1   
 17  10  21  1   
 18  10  22  1   
 19  11  12  1   
 20  11  23  1   
 21  11  24  1   
 22  12  13  1   
 23  12  14  1   
 24  12  15  1   
 25  13  25  1   
 26  13  26  1   
 27  13  27  1   
 28  14  28  1   
 29  14  29  1   
 30  14  30  1   
 31  15  31  1   
 32  15  32  1   
 33  15  33  1   
@<TRIPOS>SUBSTRUCTURE
  1 ****   8 GROUP 4 **** **** 0

# MOE 2024.06 (io_trps.svl 2023.06)
