@<TRIPOS>MOLECULE
NONAME
52 53 1 0 0 
SMALL
USER_CHARGES


@<TRIPOS>ATOM
  1 S        0.3880     0.1220     1.0870 S.o2  1 <1>   1.3330 
  2 O        1.7070    -0.2300     1.5640 O.2   1 <1>  -0.6500 
  3 O       -0.7840    -0.4110     1.7330 O.2   1 <1>  -0.6500 
  4 N        0.3060     1.8480     1.1280 N.am  1 <1>  -0.6930 
  5 C        0.2980    -0.1940    -0.6620 C.3   1 <1>  -0.1350 
  6 C       -0.8400     2.5440     0.7520 C.ar  1 <1>   0.1990 
  7 C        1.5810     2.5940     1.3620 C.3   1 <1>   0.2570 
  8 C       -0.8250     3.4070    -0.3400 C.ar  1 <1>  -0.1500 
  9 C       -2.0280     2.3920     1.4570 C.ar  1 <1>  -0.1500 
 10 C        2.6550     2.3950     0.2860 C.2   1 <1>   0.5690 
 11 C       -1.9590     4.1020    -0.7220 C.ar  1 <1>  -0.1440 
 12 C       -3.1670     3.0800     1.0830 C.ar  1 <1>  -0.1500 
 13 O        2.5770     3.0340    -0.7360 O.2   1 <1>  -0.5700 
 14 N        3.6700     1.5100     0.5260 N.am  1 <1>  -0.5470 
 15 C       -3.1330     3.9340    -0.0050 C.ar  1 <1>  -0.1500 
 16 C       -1.9300     5.0410    -1.9150 C.3   1 <1>  -0.0970 
 17 C        4.8740     1.3300    -0.1780 C.ar  1 <1>   0.1170 
 18 C        5.8310     2.3510    -0.2670 C.ar  1 <1>  -0.1430 
 19 C        5.1420     0.0910    -0.7710 C.ar  1 <1>  -0.1430 
 20 C        7.0110     2.1260    -0.9600 C.ar  1 <1>  -0.1500 
 21 C        5.6610     3.7190     0.3920 C.3   1 <1>  -0.0170 
 22 C        6.3300    -0.1080    -1.4550 C.ar  1 <1>  -0.1500 
 23 C        4.1690    -1.0820    -0.6980 C.3   1 <1>  -0.0170 
 24 C        7.2620     0.9060    -1.5550 C.ar  1 <1>  -0.1500 
 25 C        5.9330     3.6440     1.8970 C.3   1 <1>  -0.2400 
 26 C        4.4080    -1.9090     0.5680 C.3   1 <1>  -0.2400 
 27 H        0.3990    -1.2430    -0.8540 H     1 <1>   0.0800 
 28 H        1.0760     0.3330    -1.1790 H     1 <1>   0.0800 
 29 H       -0.6490     0.1360    -1.0450 H     1 <1>   0.0800 
 30 H        1.9830     2.2980     2.3140 H     1 <1>   0.0800 
 31 H        1.3650     3.6460     1.4210 H     1 <1>   0.0800 
 32 H        0.0850     3.5290    -0.8990 H     1 <1>   0.1500 
 33 H       -2.0570     1.7320     2.3050 H     1 <1>   0.1500 
 34 H       -4.0800     2.9510     1.6380 H     1 <1>   0.1500 
 35 H        3.4300     0.7480     1.1730 H     1 <1>   0.3700 
 36 H       -4.0230     4.4680    -0.2920 H     1 <1>   0.1500 
 37 H       -0.9320     5.1440    -2.2990 H     1 <1>   0.0800 
 38 H       -2.2860     6.0130    -1.6260 H     1 <1>   0.0800 
 39 H       -2.5620     4.6570    -2.6960 H     1 <1>   0.0800 
 40 H        7.7510     2.9020    -1.0380 H     1 <1>   0.1500 
 41 H        4.6780     4.1100     0.2130 H     1 <1>   0.0800 
 42 H        6.3480     4.4210    -0.0480 H     1 <1>   0.0800 
 43 H        6.5410    -1.0570    -1.9150 H     1 <1>   0.1500 
 44 H        4.2980    -1.7130    -1.5590 H     1 <1>   0.0800 
 45 H        3.1560    -0.7280    -0.7210 H     1 <1>   0.0800 
 46 H        8.1810     0.7450    -2.0900 H     1 <1>   0.1500 
 47 H        5.2390     2.9740     2.3710 H     1 <1>   0.0800 
 48 H        5.8340     4.6180     2.3400 H     1 <1>   0.0800 
 49 H        6.9310     3.2820     2.0720 H     1 <1>   0.0800 
 50 H        5.4080    -2.3030     0.5710 H     1 <1>   0.0800 
 51 H        3.7120    -2.7270     0.6130 H     1 <1>   0.0800 
 52 H        4.2770    -1.3000     1.4450 H     1 <1>   0.0800 
@<TRIPOS>BOND
  1   1   2  2   
  2   1   3  2   
  3   1   4  am  
  4   1   5  1   
  5   4   6  1   
  6   4   7  1   
  7   5  27  1   
  8   5  28  1   
  9   5  29  1   
 10   6   8  ar  
 11   6   9  ar  
 12   7  10  1   
 13   7  30  1   
 14   7  31  1   
 15   8  11  ar  
 16   8  32  1   
 17   9  12  ar  
 18   9  33  1   
 19  10  13  2   
 20  10  14  am  
 21  11  15  ar  
 22  11  16  1   
 23  12  15  ar  
 24  12  34  1   
 25  14  17  1   
 26  14  35  1   
 27  15  36  1   
 28  16  37  1   
 29  16  38  1   
 30  16  39  1   
 31  17  18  ar  
 32  17  19  ar  
 33  18  20  ar  
 34  18  21  1   
 35  19  22  ar  
 36  19  23  1   
 37  20  24  ar  
 38  20  40  1   
 39  21  25  1   
 40  21  41  1   
 41  21  42  1   
 42  22  24  ar  
 43  22  43  1   
 44  23  26  1   
 45  23  44  1   
 46  23  45  1   
 47  24  46  1   
 48  25  47  1   
 49  25  48  1   
 50  25  49  1   
 51  26  50  1   
 52  26  51  1   
 53  26  52  1   
@<TRIPOS>SUBSTRUCTURE
  1 ****  10 GROUP 4 **** **** 0

# MOE 2024.06 (io_trps.svl 2023.06)
