@<TRIPOS>MOLECULE
NONAME
41 43 1 0 0 
SMALL
USER_CHARGES


@<TRIPOS>ATOM
  1 N        0.8400     0.5790    -1.6240 N.1   1 <1>  -0.5570 
  2 C        1.7800     1.1020    -1.2460 C.1   1 <1>   0.4840 
  3 C        2.9440     1.7610    -0.7580 C.ar  1 <1>   0.0730 
  4 C        3.9410     1.0910    -0.0630 C.ar  1 <1>   0.4100 
  5 C        3.1450     3.1050    -0.9440 C.ar  1 <1>   0.1600 
  6 N        5.0060     1.6940     0.3930 N.ar  1 <1>  -0.6200 
  7 N        3.9070    -0.2440     0.2100 N.pl3 1 <1>  -0.9000 
  8 N        4.2060     3.7350    -0.4990 N.ar  1 <1>  -0.6200 
  9 C        5.1030     2.9960     0.1560 C.ar  1 <1>   0.7200 
 10 N        6.2260     3.6440     0.6290 N.pl3 1 <1>  -0.8380 
 11 C        7.4630     2.9240     1.0440 C.3   1 <1>   0.2090 
 12 C        6.3430     5.1270     0.7010 C.3   1 <1>   0.2090 
 13 C        8.6300     3.3660     0.1580 C.3   1 <1>  -0.1600 
 14 C        7.4890     5.5850    -0.2050 C.3   1 <1>  -0.1600 
 15 C        8.8160     4.8960     0.1610 C.3   1 <1>  -0.0800 
 16 C        9.9350     5.3390    -0.7990 C.3   1 <1>  -0.0170 
 17 C       11.2890     4.7620    -0.4100 C.ar  1 <1>  -0.1430 
 18 C       12.0060     5.3160     0.6390 C.ar  1 <1>  -0.1500 
 19 C       11.8190     3.6810    -1.0980 C.ar  1 <1>  -0.1500 
 20 C       13.2370     4.7950     0.9990 C.ar  1 <1>  -0.1500 
 21 C       13.0490     3.1580    -0.7400 C.ar  1 <1>  -0.1500 
 22 C       13.7590     3.7150     0.3100 C.ar  1 <1>  -0.1500 
 23 H        2.4110     3.6860    -1.4760 H     1 <1>   0.1500 
 24 H        4.6370    -0.5900     0.8370 H     1 <1>   0.4000 
 25 H        3.0430    -0.7910     0.1950 H     1 <1>   0.4000 
 26 H        7.3480     1.8570     0.9650 H     1 <1>   0.0800 
 27 H        7.6750     3.1570     2.0730 H     1 <1>   0.0800 
 28 H        6.5480     5.4100     1.7190 H     1 <1>   0.0800 
 29 H        5.4310     5.6140     0.4060 H     1 <1>   0.0800 
 30 H        8.4450     3.0210    -0.8440 H     1 <1>   0.0800 
 31 H        9.5250     2.8870     0.5110 H     1 <1>   0.0800 
 32 H        7.5950     6.6510    -0.1180 H     1 <1>   0.0800 
 33 H        7.2240     5.3610    -1.2230 H     1 <1>   0.0800 
 34 H        9.0890     5.1990     1.1580 H     1 <1>   0.0800 
 35 H       10.0060     6.4120    -0.7950 H     1 <1>   0.0800 
 36 H        9.6880     5.0390    -1.8030 H     1 <1>   0.0800 
 37 H       11.6080     6.1560     1.1810 H     1 <1>   0.1500 
 38 H       11.2730     3.2400    -1.9130 H     1 <1>   0.1500 
 39 H       13.7880     5.2300     1.8140 H     1 <1>   0.1500 
 40 H       13.4540     2.3190    -1.2770 H     1 <1>   0.1500 
 41 H       14.7160     3.3090     0.5880 H     1 <1>   0.1500 
@<TRIPOS>BOND
  1   1   2  3   
  2   2   3  1   
  3   3   4  ar  
  4   3   5  ar  
  5   4   6  ar  
  6   4   7  1   
  7   5   8  ar  
  8   5  23  1   
  9   6   9  ar  
 10   7  24  1   
 11   7  25  1   
 12   8   9  ar  
 13   9  10  1   
 14  10  11  1   
 15  10  12  1   
 16  11  13  1   
 17  11  26  1   
 18  11  27  1   
 19  12  14  1   
 20  12  28  1   
 21  12  29  1   
 22  13  15  1   
 23  13  30  1   
 24  13  31  1   
 25  14  15  1   
 26  14  32  1   
 27  14  33  1   
 28  15  16  1   
 29  15  34  1   
 30  16  17  1   
 31  16  35  1   
 32  16  36  1   
 33  17  18  ar  
 34  17  19  ar  
 35  18  20  ar  
 36  18  37  1   
 37  19  21  ar  
 38  19  38  1   
 39  20  22  ar  
 40  20  39  1   
 41  21  22  ar  
 42  21  40  1   
 43  22  41  1   
@<TRIPOS>SUBSTRUCTURE
  1 ****  11 GROUP 4 **** **** 0

# MOE 2024.06 (io_trps.svl 2023.06)
