@<TRIPOS>MOLECULE
NONAME
51 52 1 0 0 
SMALL
USER_CHARGES


@<TRIPOS>ATOM
  1 O        2.0660    -1.4710     1.9140 O.2   1 <1>  -0.5700 
  2 C        2.1760    -1.7210     0.7360 C.2   1 <1>   0.5690 
  3 N        1.2160    -2.4290     0.0550 N.am  1 <1>  -0.6600 
  4 C        3.4350    -1.2070     0.0390 C.3   1 <1>  -0.0190 
  5 C        1.2320    -2.7280    -1.4030 C.3   1 <1>   0.1400 
  6 C        0.0030    -2.9180     0.7710 C.3   1 <1>   0.1400 
  7 C        4.5700    -1.1380     1.0830 C.3   1 <1>   0.3430 
  8 C        3.1800     0.1550    -0.6520 C.3   1 <1>  -0.1600 
  9 C        1.8450    -4.1070    -1.6380 C.3   1 <1>  -0.2400 
 10 C       -1.1050    -1.8720     0.6750 C.3   1 <1>  -0.2400 
 11 N        5.6590    -0.1800     0.6950 N.4   1 <1>  -0.9590 
 12 C        3.6670     1.3190     0.2230 C.3   1 <1>  -0.1600 
 13 C        5.1660     1.2340     0.5530 C.3   1 <1>   0.3430 
 14 C        6.4150    -0.6370    -0.5040 C.3   1 <1>   0.4860 
 15 C        7.6820     0.1870    -0.6180 C.ar  1 <1>  -0.1440 
 16 C        8.7410    -0.0280     0.2550 C.ar  1 <1>  -0.1500 
 17 C        7.7870     1.1670    -1.5960 C.ar  1 <1>  -0.1500 
 18 C        9.8930     0.7470     0.1620 C.ar  1 <1>   0.0820 
 19 C        8.9320     1.9380    -1.6890 C.ar  1 <1>  -0.1500 
 20 O       10.9660     0.6040     0.9760 O.3   1 <1>  -0.3630 
 21 C        9.9780     1.7290    -0.8100 C.ar  1 <1>  -0.1500 
 22 C       11.0940    -0.4840     1.8650 C.3   1 <1>   0.0400 
 23 H        3.7200    -1.9280    -0.7020 H     1 <1>   0.0800 
 24 H        1.7900    -1.9790    -1.9370 H     1 <1>   0.0800 
 25 H        0.2260    -2.7100    -1.7870 H     1 <1>   0.0800 
 26 H        0.2360    -3.1000     1.8080 H     1 <1>   0.0800 
 27 H       -0.3280    -3.8480     0.3430 H     1 <1>   0.0800 
 28 H        4.9700    -2.1260     1.2460 H     1 <1>   0.0800 
 29 H        4.1560    -0.8030     2.0210 H     1 <1>   0.0800 
 30 H        2.1290     0.2750    -0.8600 H     1 <1>   0.0800 
 31 H        3.6970     0.1850    -1.5950 H     1 <1>   0.0800 
 32 H        2.8490    -4.1510    -1.2590 H     1 <1>   0.0800 
 33 H        1.8670    -4.3170    -2.6920 H     1 <1>   0.0800 
 34 H        1.2530    -4.8660    -1.1580 H     1 <1>   0.0800 
 35 H       -0.7820    -0.9500     1.1260 H     1 <1>   0.0800 
 36 H       -1.9740    -2.2190     1.2030 H     1 <1>   0.0800 
 37 H       -1.3780    -1.6950    -0.3490 H     1 <1>   0.0800 
 38 H        6.3500    -0.1610     1.4560 H     1 <1>   0.4500 
 39 H        3.1070     1.3280     1.1440 H     1 <1>   0.0800 
 40 H        3.4700     2.2550    -0.2680 H     1 <1>   0.0800 
 41 H        5.7250     1.7360    -0.2190 H     1 <1>   0.0800 
 42 H        5.3420     1.7720     1.4720 H     1 <1>   0.0800 
 43 H        5.8170    -0.5200    -1.3920 H     1 <1>   0.0800 
 44 H        6.6790    -1.6770    -0.4030 H     1 <1>   0.0800 
 45 H        8.6730    -0.7950     1.0030 H     1 <1>   0.1500 
 46 H        6.9880     1.3450    -2.2950 H     1 <1>   0.1500 
 47 H        9.0170     2.7000    -2.4460 H     1 <1>   0.1500 
 48 H       10.8720     2.3250    -0.8740 H     1 <1>   0.1500 
 49 H       12.0600    -0.4180     2.3330 H     1 <1>   0.0800 
 50 H       11.0230    -1.4010     1.3080 H     1 <1>   0.0800 
 51 H       10.3240    -0.4200     2.6120 H     1 <1>   0.0800 
@<TRIPOS>BOND
  1   1   2  2   
  2   2   3  am  
  3   2   4  1   
  4   3   5  1   
  5   3   6  1   
  6   4   7  1   
  7   4   8  1   
  8   4  23  1   
  9   5   9  1   
 10   5  24  1   
 11   5  25  1   
 12   6  10  1   
 13   6  26  1   
 14   6  27  1   
 15   7  11  1   
 16   7  28  1   
 17   7  29  1   
 18   8  12  1   
 19   8  30  1   
 20   8  31  1   
 21   9  32  1   
 22   9  33  1   
 23   9  34  1   
 24  10  35  1   
 25  10  36  1   
 26  10  37  1   
 27  11  13  1   
 28  11  14  1   
 29  11  38  1   
 30  12  13  1   
 31  12  39  1   
 32  12  40  1   
 33  13  41  1   
 34  13  42  1   
 35  14  15  1   
 36  14  43  1   
 37  14  44  1   
 38  15  16  ar  
 39  15  17  ar  
 40  16  18  ar  
 41  16  45  1   
 42  17  19  ar  
 43  17  46  1   
 44  18  20  1   
 45  18  21  ar  
 46  19  21  ar  
 47  19  47  1   
 48  20  22  1   
 49  21  48  1   
 50  22  49  1   
 51  22  50  1   
 52  22  51  1   
@<TRIPOS>SUBSTRUCTURE
  1 ****  11 GROUP 4 **** **** 0

# MOE 2024.06 (io_trps.svl 2023.06)
