@<TRIPOS>MOLECULE
NONAME
39 40 1 0 0 
SMALL
USER_CHARGES


@<TRIPOS>ATOM
  1 BR       1.6500    -0.5980     2.2940 Br    1 <1>  -0.1110 
  2 C        0.6680    -1.9800     1.3850 C.ar  1 <1>   0.1110 
  3 C       -0.5830    -2.3240     1.8580 C.ar  1 <1>  -0.1500 
  4 C        1.2380    -2.5910     0.2860 C.ar  1 <1>  -0.1500 
  5 C       -1.2960    -3.3180     1.2020 C.ar  1 <1>  -0.1430 
  6 C        0.5270    -3.5830    -0.3650 C.ar  1 <1>  -0.1500 
  7 C       -0.7410    -3.9500     0.0880 C.ar  1 <1>   0.0830 
  8 C       -2.6720    -3.7140     1.7020 C.3   1 <1>   0.4870 
  9 O       -1.4890    -4.9110    -0.5210 O.3   1 <1>  -0.3620 
 10 N       -3.6530    -3.4720     0.6160 N.4   1 <1>  -0.9590 
 11 C       -0.9180    -5.7730    -1.4880 C.3   1 <1>   0.0400 
 12 C       -3.7710    -2.0090     0.2760 C.3   1 <1>   0.3430 
 13 C       -4.9850    -4.1110     0.8920 C.3   1 <1>   0.3430 
 14 C       -4.7650    -1.7730    -0.8720 C.3   1 <1>   0.1400 
 15 C       -6.0010    -3.8630    -0.2440 C.3   1 <1>   0.1400 
 16 N       -6.0860    -2.4050    -0.5610 N.am  1 <1>  -0.6600 
 17 C       -7.2200    -1.6390    -0.4670 C.2   1 <1>   0.5690 
 18 O       -7.1660    -0.4360    -0.4990 O.2   1 <1>  -0.5700 
 19 C       -8.5790    -2.2760    -0.3010 C.3   1 <1>  -0.1790 
 20 H       -0.9710    -1.8150     2.7230 H     1 <1>   0.1500 
 21 H        2.2180    -2.2950    -0.0490 H     1 <1>   0.1500 
 22 H        0.9790    -4.0510    -1.2210 H     1 <1>   0.1500 
 23 H       -2.9330    -3.1450     2.5790 H     1 <1>   0.0800 
 24 H       -2.6580    -4.7610     1.9600 H     1 <1>   0.0800 
 25 H       -3.2240    -3.9410    -0.2010 H     1 <1>   0.4500 
 26 H       -1.6470    -6.5170    -1.7550 H     1 <1>   0.0800 
 27 H       -0.0510    -6.2520    -1.0660 H     1 <1>   0.0800 
 28 H       -0.6500    -5.2000    -2.3590 H     1 <1>   0.0800 
 29 H       -2.8080    -1.6180    -0.0080 H     1 <1>   0.0800 
 30 H       -4.1120    -1.4590     1.1380 H     1 <1>   0.0800 
 31 H       -5.3940    -3.7070     1.8040 H     1 <1>   0.0800 
 32 H       -4.8610    -5.1730     1.0270 H     1 <1>   0.0800 
 33 H       -4.3760    -2.1910    -1.7840 H     1 <1>   0.0800 
 34 H       -4.8750    -0.7120    -1.0280 H     1 <1>   0.0800 
 35 H       -6.9590    -4.2480     0.0570 H     1 <1>   0.0800 
 36 H       -5.6960    -4.3990    -1.1260 H     1 <1>   0.0800 
 37 H       -8.7230    -3.0400    -1.0410 H     1 <1>   0.0800 
 38 H       -9.3420    -1.5300    -0.4320 H     1 <1>   0.0800 
 39 H       -8.6740    -2.6920     0.6830 H     1 <1>   0.0800 
@<TRIPOS>BOND
  1   1   2  1   
  2   2   3  ar  
  3   2   4  ar  
  4   3   5  ar  
  5   3  20  1   
  6   4   6  ar  
  7   4  21  1   
  8   5   7  ar  
  9   5   8  1   
 10   6   7  ar  
 11   6  22  1   
 12   7   9  1   
 13   8  10  1   
 14   8  23  1   
 15   8  24  1   
 16   9  11  1   
 17  10  12  1   
 18  10  13  1   
 19  10  25  1   
 20  11  26  1   
 21  11  27  1   
 22  11  28  1   
 23  12  14  1   
 24  12  29  1   
 25  12  30  1   
 26  13  15  1   
 27  13  31  1   
 28  13  32  1   
 29  14  16  1   
 30  14  33  1   
 31  14  34  1   
 32  15  16  1   
 33  15  35  1   
 34  15  36  1   
 35  16  17  am  
 36  17  18  2   
 37  17  19  1   
 38  19  37  1   
 39  19  38  1   
 40  19  39  1   
@<TRIPOS>SUBSTRUCTURE
  1 ****  10 GROUP 4 **** **** 0

# MOE 2024.06 (io_trps.svl 2023.06)
