@<TRIPOS>MOLECULE
NONAME
55 57 1 0 0 
SMALL
USER_CHARGES


@<TRIPOS>ATOM
  1 S        0.1860     0.4990     0.8710 S.o2  1 <1>   1.4470 
  2 O       -0.1060     1.3750     1.9830 O.2   1 <1>  -0.6500 
  3 O       -0.0690    -0.9200     0.9650 O.2   1 <1>  -0.6500 
  4 N       -0.7430     0.9970    -0.4330 N.am  1 <1>  -0.9140 
  5 C        1.8780     0.7970     0.2970 C.ar  1 <1>  -0.0090 
  6 C       -2.0580     1.5020    -0.1010 C.3   1 <1>   0.2760 
  7 C        2.8270    -0.2180     0.2830 C.ar  1 <1>  -0.1500 
  8 C        2.2660     2.0570    -0.1410 C.ar  1 <1>  -0.1500 
  9 C       -2.9820     0.3640     0.3620 C.3   1 <1>  -0.1600 
 10 C       -2.6180     2.1760    -1.3590 C.3   1 <1>  -0.1600 
 11 C        4.1250     0.0060    -0.1470 C.ar  1 <1>  -0.1430 
 12 C        3.5560     2.3020    -0.5740 C.ar  1 <1>  -0.1500 
 13 C       -4.4180     0.8620     0.5810 C.3   1 <1>  -0.1600 
 14 C       -4.0510     2.6820    -1.1380 C.3   1 <1>  -0.1600 
 15 C        4.4960     1.2770    -0.5710 C.ar  1 <1>   0.0830 
 16 C        5.1290    -1.1380    -0.1490 C.3   1 <1>  -0.0970 
 17 C       -4.9710     1.5450    -0.6760 C.3   1 <1>  -0.1600 
 18 O        5.7800     1.4600    -0.9620 O.3   1 <1>  -0.3630 
 19 C        6.3260     2.7600    -1.1280 C.3   1 <1>   0.1810 
 20 C        7.8460     2.7090    -1.2510 C.2   1 <1>   0.5690 
 21 O        8.3340     3.2150    -2.2350 O.2   1 <1>  -0.5700 
 22 N        8.6300     2.1410    -0.2740 N.am  1 <1>  -0.6600 
 23 C        8.1250     1.5220     0.9910 C.3   1 <1>   0.1400 
 24 C       10.1100     2.0200    -0.4350 C.3   1 <1>   0.1400 
 25 C        8.9750     1.9640     2.1950 C.3   1 <1>   0.1200 
 26 C       10.8380     2.4400     0.8520 C.3   1 <1>   0.1200 
 27 O       10.3350     1.7400     1.9550 O.3   1 <1>  -0.5600 
 28 H       -0.8850     0.1450    -0.9690 H     1 <1>   0.4200 
 29 H       -1.9830     2.2480     0.6750 H     1 <1>   0.0800 
 30 H        2.5390    -1.2010     0.6170 H     1 <1>   0.1500 
 31 H        1.5420     2.8550    -0.1420 H     1 <1>   0.1500 
 32 H       -2.6240    -0.0470     1.2900 H     1 <1>   0.0800 
 33 H       -2.9930    -0.4180    -0.3760 H     1 <1>   0.0800 
 34 H       -2.6180     1.4740    -2.1740 H     1 <1>   0.0800 
 35 H       -1.9880     3.0060    -1.6260 H     1 <1>   0.0800 
 36 H        3.8020     3.2910    -0.9110 H     1 <1>   0.1500 
 37 H       -4.4310     1.5600     1.4010 H     1 <1>   0.0800 
 38 H       -5.0500     0.0320     0.8480 H     1 <1>   0.0800 
 39 H       -4.4300     3.1030    -2.0540 H     1 <1>   0.0800 
 40 H       -4.0450     3.4610    -0.3950 H     1 <1>   0.0800 
 41 H        4.6630    -2.0670     0.1250 H     1 <1>   0.0800 
 42 H        5.9200    -0.9320     0.5490 H     1 <1>   0.0800 
 43 H        5.5560    -1.2470    -1.1300 H     1 <1>   0.0800 
 44 H       -5.9530     1.9370    -0.4710 H     1 <1>   0.0800 
 45 H       -5.0660     0.8190    -1.4650 H     1 <1>   0.0800 
 46 H        6.0630     3.3590    -0.2770 H     1 <1>   0.0800 
 47 H        5.9070     3.1860    -2.0210 H     1 <1>   0.0800 
 48 H        8.1730     0.4510     0.9000 H     1 <1>   0.0800 
 49 H        7.1020     1.7930     1.1740 H     1 <1>   0.0800 
 50 H       10.4540     2.6340    -1.2500 H     1 <1>   0.0800 
 51 H       10.3570     0.9990    -0.6640 H     1 <1>   0.0800 
 52 H        8.7000     1.4020     3.0700 H     1 <1>   0.0800 
 53 H        8.8300     3.0110     2.3970 H     1 <1>   0.0800 
 54 H       10.7180     3.4950     1.0270 H     1 <1>   0.0800 
 55 H       11.8870     2.2190     0.7730 H     1 <1>   0.0800 
@<TRIPOS>BOND
  1   1   2  2   
  2   1   3  2   
  3   1   4  am  
  4   1   5  1   
  5   4   6  1   
  6   4  28  1   
  7   5   7  ar  
  8   5   8  ar  
  9   6   9  1   
 10   6  10  1   
 11   6  29  1   
 12   7  11  ar  
 13   7  30  1   
 14   8  12  ar  
 15   8  31  1   
 16   9  13  1   
 17   9  32  1   
 18   9  33  1   
 19  10  14  1   
 20  10  34  1   
 21  10  35  1   
 22  11  15  ar  
 23  11  16  1   
 24  12  15  ar  
 25  12  36  1   
 26  13  17  1   
 27  13  37  1   
 28  13  38  1   
 29  14  17  1   
 30  14  39  1   
 31  14  40  1   
 32  15  18  1   
 33  16  41  1   
 34  16  42  1   
 35  16  43  1   
 36  17  44  1   
 37  17  45  1   
 38  18  19  1   
 39  19  20  1   
 40  19  46  1   
 41  19  47  1   
 42  20  21  2   
 43  20  22  am  
 44  22  23  1   
 45  22  24  1   
 46  23  25  1   
 47  23  48  1   
 48  23  49  1   
 49  24  26  1   
 50  24  50  1   
 51  24  51  1   
 52  25  27  1   
 53  25  52  1   
 54  25  53  1   
 55  26  27  1   
 56  26  54  1   
 57  26  55  1   
@<TRIPOS>SUBSTRUCTURE
  1 ****  12 GROUP 4 **** **** 0

# MOE 2024.06 (io_trps.svl 2023.06)
