@<TRIPOS>MOLECULE
NONAME
30 31 1 0 0 
SMALL
USER_CHARGES


@<TRIPOS>ATOM
  1 O       -0.0300    -0.7920     1.4670 O.2   1 <1>  -0.5700 
  2 C       -0.7430    -1.1290     0.5540 C.2   1 <1>   0.5690 
  3 N       -1.4170    -0.1710    -0.1190 N.am  1 <1>  -0.8000 
  4 C       -0.9010    -2.6160     0.1400 C.3   1 <1>   0.2040 
  5 C       -2.3930    -2.8560    -0.2100 C.ar  1 <1>  -0.1440 
  6 C        0.0430    -2.8950    -1.0540 C.3   1 <1>  -0.1600 
  7 C       -0.5040    -3.5970     1.2730 C.3   1 <1>  -0.1600 
  8 C       -3.3480    -2.6560     0.7830 C.ar  1 <1>  -0.1500 
  9 C       -2.8390    -3.2440    -1.4710 C.ar  1 <1>  -0.1500 
 10 C        1.5110    -2.8930    -0.6230 C.3   1 <1>   0.1200 
 11 C        1.0100    -3.6490     1.5320 C.3   1 <1>   0.1200 
 12 C       -4.6960    -2.8410     0.5320 C.ar  1 <1>  -0.1500 
 13 C       -4.1870    -3.4300    -1.7250 C.ar  1 <1>  -0.1500 
 14 O        1.6810    -3.8860     0.3350 O.3   1 <1>  -0.5600 
 15 C       -5.1180    -3.2300    -0.7240 C.ar  1 <1>  -0.1500 
 16 H       -1.3460     0.8010     0.1790 H     1 <1>   0.3700 
 17 H       -2.1510    -0.3980    -0.7930 H     1 <1>   0.3700 
 18 H       -0.1030    -2.1590    -1.8240 H     1 <1>   0.0800 
 19 H       -0.1600    -3.8660    -1.4690 H     1 <1>   0.0800 
 20 H       -0.8300    -4.5880     1.0130 H     1 <1>   0.0800 
 21 H       -0.9950    -3.3250     2.1890 H     1 <1>   0.0800 
 22 H       -3.0500    -2.3460     1.7700 H     1 <1>   0.1500 
 23 H       -2.1600    -3.4100    -2.2870 H     1 <1>   0.1500 
 24 H        1.8140    -1.9460    -0.2070 H     1 <1>   0.0800 
 25 H        2.1500    -3.1310    -1.4560 H     1 <1>   0.0800 
 26 H        1.2460    -4.4560     2.2040 H     1 <1>   0.0800 
 27 H        1.3800    -2.7330     1.9580 H     1 <1>   0.0800 
 28 H       -5.4150    -2.6820     1.3170 H     1 <1>   0.1500 
 29 H       -4.5130    -3.7330    -2.7050 H     1 <1>   0.1500 
 30 H       -6.1660    -3.3760    -0.9210 H     1 <1>   0.1500 
@<TRIPOS>BOND
  1   1   2  2   
  2   2   3  am  
  3   2   4  1   
  4   3  16  1   
  5   3  17  1   
  6   4   5  1   
  7   4   6  1   
  8   4   7  1   
  9   5   8  ar  
 10   5   9  ar  
 11   6  10  1   
 12   6  18  1   
 13   6  19  1   
 14   7  11  1   
 15   7  20  1   
 16   7  21  1   
 17   8  12  ar  
 18   8  22  1   
 19   9  13  ar  
 20   9  23  1   
 21  10  14  1   
 22  10  24  1   
 23  10  25  1   
 24  11  14  1   
 25  11  26  1   
 26  11  27  1   
 27  12  15  ar  
 28  12  28  1   
 29  13  15  ar  
 30  13  29  1   
 31  15  30  1   
@<TRIPOS>SUBSTRUCTURE
  1 ****   4 GROUP 4 **** **** 0

# MOE 2024.06 (io_trps.svl 2023.06)
