@<TRIPOS>MOLECULE
NONAME
44 47 1 0 0 
SMALL
USER_CHARGES


@<TRIPOS>ATOM
  1 O        0.3440     1.0060    -0.2360 O.2   1 <1>  -0.5700 
  2 C        1.4560     1.1140     0.2360 C.2   1 <1>   0.6900 
  3 N        2.2100     0.0370     0.6270 N.am  1 <1>  -0.6600 
  4 N        2.1540     2.3060     0.2800 N.am  1 <1>  -0.6600 
  5 C        3.4190     0.6380     1.0990 C.3   1 <1>   0.5200 
  6 C        2.3690    -1.1480    -0.2060 C.3   1 <1>   0.4100 
  7 C        3.5140     1.8270     0.1830 C.3   1 <1>   0.5200 
  8 C        1.7320     3.5370    -0.4270 C.3   1 <1>   0.0600 
  9 N        4.7160     0.0630     0.9190 N.am  1 <1>  -0.6600 
 10 N        3.5360    -1.9140     0.2730 N.3   1 <1>  -0.8100 
 11 N        4.8080     2.3310     0.5840 N.am  1 <1>  -0.6600 
 12 C        5.5190     1.1530     0.7020 C.2   1 <1>   0.6900 
 13 C        4.7950    -1.1550     0.1210 C.3   1 <1>   0.4100 
 14 C        3.5460    -3.2700    -0.3320 C.3   1 <1>   0.1900 
 15 C        5.3560     3.5700    -0.0140 C.3   1 <1>   0.0600 
 16 O        6.7110     1.0650     0.4920 O.2   1 <1>  -0.5700 
 17 C        2.4920    -4.1360     0.3880 C.3   1 <1>  -0.1600 
 18 C        4.9180    -3.9750    -0.2430 C.3   1 <1>  -0.1600 
 19 C        2.4420    -5.5730    -0.1510 C.3   1 <1>  -0.1600 
 20 C        4.8740    -5.4130    -0.7820 C.3   1 <1>  -0.1600 
 21 C        3.8140    -6.2460    -0.0580 C.3   1 <1>  -0.1600 
 22 H        3.2960     0.9530     2.1220 H     1 <1>   0.0800 
 23 H        2.5040    -0.8610    -1.2360 H     1 <1>   0.0800 
 24 H        1.4660    -1.7260    -0.1300 H     1 <1>   0.0800 
 25 H        3.6330     1.4750    -0.8300 H     1 <1>   0.0800 
 26 H        0.6620     3.6430    -0.3580 H     1 <1>   0.0800 
 27 H        2.0110     3.4820    -1.4650 H     1 <1>   0.0800 
 28 H        2.1960     4.3940     0.0270 H     1 <1>   0.0800 
 29 H        5.6290    -1.7230     0.4960 H     1 <1>   0.0800 
 30 H        4.9720    -0.9140    -0.9140 H     1 <1>   0.0800 
 31 H        3.2830    -3.1960    -1.3750 H     1 <1>   0.0800 
 32 H        4.7830     4.4180     0.3170 H     1 <1>   0.0800 
 33 H        5.3220     3.5090    -1.0880 H     1 <1>   0.0800 
 34 H        6.3790     3.6980     0.2960 H     1 <1>   0.0800 
 35 H        1.5100    -3.7170     0.2840 H     1 <1>   0.0800 
 36 H        2.7270    -4.1650     1.4380 H     1 <1>   0.0800 
 37 H        5.2380    -3.9990     0.7850 H     1 <1>   0.0800 
 38 H        5.6500    -3.4440    -0.8240 H     1 <1>   0.0800 
 39 H        2.1180    -5.5590    -1.1780 H     1 <1>   0.0800 
 40 H        1.7240    -6.1430     0.4140 H     1 <1>   0.0800 
 41 H        5.8390    -5.8730    -0.6560 H     1 <1>   0.0800 
 42 H        4.6540    -5.3930    -1.8360 H     1 <1>   0.0800 
 43 H        3.7660    -7.2300    -0.4910 H     1 <1>   0.0800 
 44 H        4.0890    -6.3530     0.9780 H     1 <1>   0.0800 
@<TRIPOS>BOND
  1   1   2  2   
  2   2   3  am  
  3   2   4  am  
  4   3   5  1   
  5   3   6  1   
  6   4   7  1   
  7   4   8  1   
  8   5   7  1   
  9   5   9  1   
 10   5  22  1   
 11   6  10  1   
 12   6  23  1   
 13   6  24  1   
 14   7  11  1   
 15   7  25  1   
 16   8  26  1   
 17   8  27  1   
 18   8  28  1   
 19   9  12  am  
 20   9  13  1   
 21  10  13  1   
 22  10  14  1   
 23  11  12  am  
 24  11  15  1   
 25  12  16  2   
 26  13  29  1   
 27  13  30  1   
 28  14  17  1   
 29  14  18  1   
 30  14  31  1   
 31  15  32  1   
 32  15  33  1   
 33  15  34  1   
 34  17  19  1   
 35  17  35  1   
 36  17  36  1   
 37  18  20  1   
 38  18  37  1   
 39  18  38  1   
 40  19  21  1   
 41  19  39  1   
 42  19  40  1   
 43  20  21  1   
 44  20  41  1   
 45  20  42  1   
 46  21  43  1   
 47  21  44  1   
@<TRIPOS>SUBSTRUCTURE
  1 ****  10 GROUP 4 **** **** 0

# MOE 2024.06 (io_trps.svl 2023.06)
