@<TRIPOS>MOLECULE
NONAME
35 37 1 0 0 
SMALL
USER_CHARGES


@<TRIPOS>ATOM
  1 O       -0.3630     0.2770    -0.2800 O.3   1 <1>  -0.2800 
  2 C       -1.5280     0.6090     0.2350 C.2   1 <1>  -0.0400 
  3 C        0.5430     1.1050     0.1980 C.2   1 <1>  -0.0400 
  4 C       -1.3890     1.6700     1.0650 C.2   1 <1>  -0.1500 
  5 C       -2.7270    -0.2200    -0.1840 C.3   1 <1>   0.5230 
  6 C       -0.0270     1.9940     1.0370 C.2   1 <1>  -0.1500 
  7 C        1.9830     0.9410    -0.2370 C.3   1 <1>  -0.0600 
  8 N       -3.9890     0.5500    -0.0080 N.4   1 <1>  -0.9590 
  9 C       -5.1890    -0.3090    -0.1830 C.3   1 <1>   0.4860 
 10 C       -4.0570     1.7260    -0.9260 C.3   1 <1>   0.3430 
 11 C       -6.4500     0.5100     0.0410 C.ar  1 <1>  -0.1430 
 12 C       -5.1970     2.6550    -0.5000 C.3   1 <1>  -0.0170 
 13 C       -6.4600     1.8930    -0.1190 C.ar  1 <1>  -0.1430 
 14 C       -7.6180    -0.1450     0.4040 C.ar  1 <1>  -0.1500 
 15 C       -7.6340     2.6000     0.0830 C.ar  1 <1>  -0.1500 
 16 C       -8.7860     0.5680     0.6050 C.ar  1 <1>  -0.1500 
 17 C       -8.7940     1.9400     0.4440 C.ar  1 <1>  -0.1500 
 18 H       -2.1180     2.1970     1.6550 H     1 <1>   0.1500 
 19 H       -2.7460    -1.1220     0.4060 H     1 <1>   0.0800 
 20 H       -2.6110    -0.4970    -1.2190 H     1 <1>   0.0800 
 21 H        0.4410     2.7920     1.5870 H     1 <1>   0.1500 
 22 H        2.0580     1.0490    -1.3040 H     1 <1>   0.0800 
 23 H        2.3380    -0.0360     0.0390 H     1 <1>   0.0800 
 24 H        2.6020     1.6830     0.2340 H     1 <1>   0.0800 
 25 H       -4.0160     0.9010     0.9560 H     1 <1>   0.4500 
 26 H       -5.1670    -1.1240     0.5220 H     1 <1>   0.0800 
 27 H       -5.2100    -0.7190    -1.1790 H     1 <1>   0.0800 
 28 H       -4.2330     1.3870    -1.9340 H     1 <1>   0.0800 
 29 H       -3.1280     2.2740    -0.9120 H     1 <1>   0.0800 
 30 H       -5.4120     3.3340    -1.3070 H     1 <1>   0.0800 
 31 H       -4.8780     3.2440     0.3400 H     1 <1>   0.0800 
 32 H       -7.6390    -1.2140     0.5340 H     1 <1>   0.1500 
 33 H       -7.6570     3.6700    -0.0360 H     1 <1>   0.1500 
 34 H       -9.6920     0.0570     0.8860 H     1 <1>   0.1500 
 35 H       -9.7040     2.4950     0.6000 H     1 <1>   0.1500 
@<TRIPOS>BOND
  1   1   2  1   
  2   1   3  1   
  3   2   4  2   
  4   2   5  1   
  5   3   6  2   
  6   3   7  1   
  7   4   6  1   
  8   4  18  1   
  9   5   8  1   
 10   5  19  1   
 11   5  20  1   
 12   6  21  1   
 13   7  22  1   
 14   7  23  1   
 15   7  24  1   
 16   8   9  1   
 17   8  10  1   
 18   8  25  1   
 19   9  11  1   
 20   9  26  1   
 21   9  27  1   
 22  10  12  1   
 23  10  28  1   
 24  10  29  1   
 25  11  13  ar  
 26  11  14  ar  
 27  12  13  1   
 28  12  30  1   
 29  12  31  1   
 30  13  15  ar  
 31  14  16  ar  
 32  14  32  1   
 33  15  17  ar  
 34  15  33  1   
 35  16  17  ar  
 36  16  34  1   
 37  17  35  1   
@<TRIPOS>SUBSTRUCTURE
  1 ****   8 GROUP 4 **** **** 0

# MOE 2024.06 (io_trps.svl 2023.06)
