@<TRIPOS>MOLECULE
NONAME
28 28 1 0 0 
SMALL
USER_CHARGES


@<TRIPOS>ATOM
  1 BR      -0.3940     0.3830    -1.4530 Br    1 <1>  -0.1110 
  2 C        1.2980     1.0320    -0.8110 C.ar  1 <1>   0.1110 
  3 C        2.2360     1.4690    -1.7250 C.ar  1 <1>  -0.1500 
  4 C        1.5360     1.0460     0.5490 C.ar  1 <1>  -0.1500 
  5 C        3.4510     1.9340    -1.2520 C.ar  1 <1>  -0.1500 
  6 C        2.7590     1.5140     1.0010 C.ar  1 <1>  -0.1500 
  7 C        3.7360     1.9610     0.1120 C.ar  1 <1>  -0.0090 
  8 S        5.3340     2.5840     0.7110 S.o2  1 <1>   1.4470 
  9 O        5.5940     2.0470     2.0310 O.2   1 <1>  -0.6500 
 10 O        5.3560     4.0190     0.5230 O.2   1 <1>  -0.6500 
 11 N        6.4280     1.8800    -0.3740 N.am  1 <1>  -0.8490 
 12 C        7.7180     2.6530    -0.4670 C.3   1 <1>   0.0900 
 13 C        6.6760     0.4590    -0.1190 C.3   1 <1>   0.1960 
 14 C        8.8590     2.1240    -1.3540 C.2   1 <1>   0.9060 
 15 C        6.6080    -0.3020    -1.4400 C.3   1 <1>  -0.2400 
 16 O        8.9880     2.5590    -2.5060 O.co2 1 <1>  -0.9000 
 17 O        9.6410     1.2860    -0.8820 O.co2 1 <1>  -0.9000 
 18 H        2.0220     1.4480    -2.7790 H     1 <1>   0.1500 
 19 H        0.7830     0.7010     1.2350 H     1 <1>   0.1500 
 20 H        4.2000     2.2800    -1.9470 H     1 <1>   0.1500 
 21 H        2.9630     1.5340     2.0590 H     1 <1>   0.1500 
 22 H        8.1300     2.7530     0.5210 H     1 <1>   0.0800 
 23 H        7.4980     3.6420    -0.8240 H     1 <1>   0.0800 
 24 H        5.9240     0.0540     0.5360 H     1 <1>   0.0800 
 25 H        7.6340     0.3150     0.3550 H     1 <1>   0.0800 
 26 H        5.6440    -0.1730    -1.8960 H     1 <1>   0.0800 
 27 H        6.7730    -1.3470    -1.2610 H     1 <1>   0.0800 
 28 H        7.3690     0.0450    -2.1170 H     1 <1>   0.0800 
@<TRIPOS>BOND
  1   1   2  1   
  2   2   3  ar  
  3   2   4  ar  
  4   3   5  ar  
  5   3  18  1   
  6   4   6  ar  
  7   4  19  1   
  8   5   7  ar  
  9   5  20  1   
 10   6   7  ar  
 11   6  21  1   
 12   7   8  1   
 13   8   9  2   
 14   8  10  2   
 15   8  11  am  
 16  11  12  1   
 17  11  13  1   
 18  12  14  1   
 19  12  22  1   
 20  12  23  1   
 21  13  15  1   
 22  13  24  1   
 23  13  25  1   
 24  14  16  ar  
 25  14  17  ar  
 26  15  26  1   
 27  15  27  1   
 28  15  28  1   
@<TRIPOS>SUBSTRUCTURE
  1 ****  11 GROUP 4 **** **** 0

# MOE 2024.06 (io_trps.svl 2023.06)
