@<TRIPOS>MOLECULE
NONAME
31 31 1 0 0 
SMALL
USER_CHARGES


@<TRIPOS>ATOM
  1 S       -0.7140    -0.1410    -0.3270 S.3   1 <1>  -0.3320 
  2 C       -0.3200     1.5980     0.0240 C.ar  1 <1>   0.1020 
  3 C        0.8800    -1.0760    -0.2960 C.3   1 <1>  -0.0100 
  4 C       -1.3800     2.5070     0.0800 C.ar  1 <1>   0.1170 
  5 C        0.9910     1.9990     0.2270 C.ar  1 <1>  -0.1500 
  6 N       -2.6880     2.0360    -0.1360 N.am  1 <1>  -0.5470 
  7 C       -1.0770     3.8410     0.3390 C.ar  1 <1>  -0.1500 
  8 C        1.2640     3.3310     0.4880 C.ar  1 <1>  -0.1500 
  9 C       -3.9220     2.5970    -0.0020 C.2   1 <1>   0.6900 
 10 C        0.2300     4.2490     0.5420 C.ar  1 <1>  -0.1500 
 11 O       -4.0860     3.7280     0.4120 O.2   1 <1>  -0.5700 
 12 N       -4.9880     1.8350    -0.3490 N.am  1 <1>  -0.7300 
 13 C       -6.4000     2.2570    -0.2520 C.3   1 <1>   0.1400 
 14 C       -7.2240     1.1100     0.3320 C.3   1 <1>  -0.1600 
 15 C       -8.7030     1.4930     0.4550 C.3   1 <1>  -0.2400 
 16 H        0.6540    -2.1090    -0.4920 H     1 <1>   0.0800 
 17 H        1.3150    -0.9590     0.6800 H     1 <1>   0.0800 
 18 H        1.5170    -0.6740    -1.0640 H     1 <1>   0.0800 
 19 H        1.8040     1.3030     0.1860 H     1 <1>   0.1500 
 20 H       -2.7080     1.0460    -0.3650 H     1 <1>   0.3700 
 21 H       -1.8600     4.5750     0.3830 H     1 <1>   0.1500 
 22 H        2.2790     3.6540     0.6470 H     1 <1>   0.1500 
 23 H        0.4390     5.2850     0.7430 H     1 <1>   0.1500 
 24 H       -4.8290     0.9280    -0.7800 H     1 <1>   0.3700 
 25 H       -6.7610     2.5150    -1.2330 H     1 <1>   0.0800 
 26 H       -6.4810     3.1260     0.3810 H     1 <1>   0.0800 
 27 H       -6.8440     0.8640     1.3090 H     1 <1>   0.0800 
 28 H       -7.1370     0.2440    -0.3000 H     1 <1>   0.0800 
 29 H       -8.8170     2.3470     1.1000 H     1 <1>   0.0800 
 30 H       -9.2620     0.6740     0.8720 H     1 <1>   0.0800 
 31 H       -9.1130     1.7310    -0.5110 H     1 <1>   0.0800 
@<TRIPOS>BOND
  1   1   2  1   
  2   1   3  1   
  3   2   4  ar  
  4   2   5  ar  
  5   3  16  1   
  6   3  17  1   
  7   3  18  1   
  8   4   6  1   
  9   4   7  ar  
 10   5   8  ar  
 11   5  19  1   
 12   6   9  am  
 13   6  20  1   
 14   7  10  ar  
 15   7  21  1   
 16   8  10  ar  
 17   8  22  1   
 18   9  11  2   
 19   9  12  am  
 20  10  23  1   
 21  12  13  1   
 22  12  24  1   
 23  13  14  1   
 24  13  25  1   
 25  13  26  1   
 26  14  15  1   
 27  14  27  1   
 28  14  28  1   
 29  15  29  1   
 30  15  30  1   
 31  15  31  1   
@<TRIPOS>SUBSTRUCTURE
  1 ****   6 GROUP 4 **** **** 0

# MOE 2024.06 (io_trps.svl 2023.06)
