@<TRIPOS>MOLECULE
NONAME
27 28 1 0 0 
SMALL
USER_CHARGES


@<TRIPOS>ATOM
  1 S       -0.0260     0.5750    -0.0080 S.3   1 <1>  -0.2850 
  2 C        1.7290     0.9140    -0.1470 C.2   1 <1>   0.5710 
  3 C       -0.7630     2.2300     0.3480 C.3   1 <1>  -0.0100 
  4 N        2.2040     2.1010    -0.0080 N.2   1 <1>  -0.7070 
  5 N        2.5700    -0.0920    -0.4020 N.2   1 <1>  -0.5650 
  6 N        3.5270     1.8800    -0.1910 N.pl3 1 <1>   0.5610 
  7 C        3.6780     0.5490    -0.4220 C.2   1 <1>   0.2700 
  8 C        4.6530     2.7400    -0.1440 C.2   1 <1>   0.5650 
  9 N        4.9290     0.0030    -0.6500 N.pl3 1 <1>  -0.5840 
 10 O        4.5300     3.9020     0.2160 O.2   1 <1>  -0.5700 
 11 C        5.9270     2.1660    -0.4730 C.2   1 <1>   0.0290 
 12 C        6.0280     0.8110    -0.6870 C.2   1 <1>  -0.0500 
 13 C        7.0660     3.0200    -0.5670 C.2   1 <1>   0.7060 
 14 O        7.0750     4.0870    -1.1470 O.2   1 <1>  -0.5700 
 15 O        8.2050     2.5700    -0.0310 O.3   1 <1>  -0.4300 
 16 C        9.3930     3.3310    -0.0840 C.3   1 <1>   0.1200 
 17 C       10.4940     2.5400     0.6160 C.3   1 <1>  -0.2400 
 18 H       -1.8250     2.1050     0.4480 H     1 <1>   0.0800 
 19 H       -0.5240     2.8790    -0.4750 H     1 <1>   0.0800 
 20 H       -0.3260     2.5940     1.2610 H     1 <1>   0.0800 
 21 H        4.9590    -1.0140    -0.8080 H     1 <1>   0.4000 
 22 H        6.9820     0.3500    -0.9010 H     1 <1>   0.1500 
 23 H        9.2180     4.2720     0.4120 H     1 <1>   0.0800 
 24 H        9.6420     3.5090    -1.1170 H     1 <1>   0.0800 
 25 H       10.2290     2.3640     1.6430 H     1 <1>   0.0800 
 26 H       11.4120     3.0990     0.5910 H     1 <1>   0.0800 
 27 H       10.6520     1.6010     0.1170 H     1 <1>   0.0800 
@<TRIPOS>BOND
  1   1   2  1   
  2   1   3  1   
  3   2   4  2   
  4   2   5  1   
  5   3  18  1   
  6   3  19  1   
  7   3  20  1   
  8   4   6  1   
  9   5   7  2   
 10   6   7  1   
 11   6   8  1   
 12   7   9  1   
 13   8  10  2   
 14   8  11  1   
 15   9  12  1   
 16   9  21  1   
 17  11  12  2   
 18  11  13  1   
 19  12  22  1   
 20  13  14  2   
 21  13  15  1   
 22  15  16  1   
 23  16  17  1   
 24  16  23  1   
 25  16  24  1   
 26  17  25  1   
 27  17  26  1   
 28  17  27  1   
@<TRIPOS>SUBSTRUCTURE
  1 ****   8 GROUP 4 **** **** 0

# MOE 2024.06 (io_trps.svl 2023.06)
