@<TRIPOS>MOLECULE
NONAME
40 40 1 0 0 
SMALL
USER_CHARGES


@<TRIPOS>ATOM
  1 O       -0.0530    -0.0890    -0.4170 O.2   1 <1>  -0.5700 
  2 C       -0.1520     1.0660    -0.0530 C.2   1 <1>   0.6900 
  3 N       -1.3600     1.6830     0.0690 N.am  1 <1>  -0.5470 
  4 N        0.9410     1.8160     0.2470 N.am  1 <1>  -0.7300 
  5 C       -2.6900     1.2510    -0.0860 C.ar  1 <1>   0.1170 
  6 C        2.3680     1.4640     0.1940 C.3   1 <1>   0.3000 
  7 C       -3.6930     2.2250    -0.1530 C.ar  1 <1>   0.0830 
  8 C       -3.0540    -0.0890    -0.1630 C.ar  1 <1>  -0.1500 
  9 C        3.1250     2.7390     0.6280 C.3   1 <1>  -0.1600 
 10 C        2.6340     0.3100     1.1670 C.3   1 <1>  -0.2400 
 11 C        2.7360     1.0710    -1.2410 C.3   1 <1>  -0.2400 
 12 O       -3.3010     3.5340    -0.0630 O.3   1 <1>  -0.3630 
 13 C       -5.0230     1.8450    -0.3020 C.ar  1 <1>  -0.1500 
 14 C       -4.3780    -0.4670    -0.3140 C.ar  1 <1>  -0.1430 
 15 C        4.6620     2.6470     0.6610 C.3   1 <1>  -0.2400 
 16 C       -4.2350     4.5850    -0.1830 C.3   1 <1>   0.0400 
 17 C       -5.3600     0.5050    -0.3820 C.ar  1 <1>  -0.1500 
 18 C       -4.7440    -1.9370    -0.3980 C.3   1 <1>  -0.0970 
 19 H       -1.3100     2.6910     0.1800 H     1 <1>   0.3700 
 20 H        0.7750     2.7280     0.6570 H     1 <1>   0.3700 
 21 H       -2.2980    -0.8490    -0.1010 H     1 <1>   0.1500 
 22 H        2.7950     3.0150     1.6150 H     1 <1>   0.0800 
 23 H        2.8600     3.5390    -0.0410 H     1 <1>   0.0800 
 24 H        2.3700     0.5940     2.1690 H     1 <1>   0.0800 
 25 H        3.6700     0.0320     1.1490 H     1 <1>   0.0800 
 26 H        2.0660    -0.5590     0.8900 H     1 <1>   0.0800 
 27 H        2.5360     1.8830    -1.9160 H     1 <1>   0.0800 
 28 H        2.1740     0.2110    -1.5570 H     1 <1>   0.0800 
 29 H        3.7760     0.8140    -1.3090 H     1 <1>   0.0800 
 30 H       -5.8120     2.5690    -0.3570 H     1 <1>   0.1500 
 31 H        4.9920     1.8930     1.3530 H     1 <1>   0.0800 
 32 H        5.0720     3.5890     0.9780 H     1 <1>   0.0800 
 33 H        5.0590     2.4260    -0.3140 H     1 <1>   0.0800 
 34 H       -3.7030     5.5160    -0.1080 H     1 <1>   0.0800 
 35 H       -4.9520     4.5090     0.6150 H     1 <1>   0.0800 
 36 H       -4.7160     4.5160    -1.1430 H     1 <1>   0.0800 
 37 H       -6.3920     0.2220    -0.4970 H     1 <1>   0.1500 
 38 H       -3.9350    -2.5010    -0.8280 H     1 <1>   0.0800 
 39 H       -5.6150    -2.0740    -1.0130 H     1 <1>   0.0800 
 40 H       -4.9480    -2.3180     0.5860 H     1 <1>   0.0800 
@<TRIPOS>BOND
  1   1   2  2   
  2   2   3  am  
  3   2   4  am  
  4   3   5  1   
  5   3  19  1   
  6   4   6  1   
  7   4  20  1   
  8   5   7  ar  
  9   5   8  ar  
 10   6   9  1   
 11   6  10  1   
 12   6  11  1   
 13   7  12  1   
 14   7  13  ar  
 15   8  14  ar  
 16   8  21  1   
 17   9  15  1   
 18   9  22  1   
 19   9  23  1   
 20  10  24  1   
 21  10  25  1   
 22  10  26  1   
 23  11  27  1   
 24  11  28  1   
 25  11  29  1   
 26  12  16  1   
 27  13  17  ar  
 28  13  30  1   
 29  14  17  ar  
 30  14  18  1   
 31  15  31  1   
 32  15  32  1   
 33  15  33  1   
 34  16  34  1   
 35  16  35  1   
 36  16  36  1   
 37  17  37  1   
 38  18  38  1   
 39  18  39  1   
 40  18  40  1   
@<TRIPOS>SUBSTRUCTURE
  1 ****   3 GROUP 4 **** **** 0

# MOE 2024.06 (io_trps.svl 2023.06)
