@<TRIPOS>MOLECULE
NONAME
40 41 1 0 0 
SMALL
USER_CHARGES


@<TRIPOS>ATOM
  1 BR       0.0620     0.5750    -0.0040 Br    1 <1>  -0.1110 
  2 C        1.8400     1.2690     0.2800 C.ar  1 <1>   0.1110 
  3 C        2.4500     2.0350    -0.7030 C.ar  1 <1>  -0.1440 
  4 C        2.4570     0.9720     1.4810 C.ar  1 <1>  -0.1500 
  5 C        3.7280     2.5090    -0.4500 C.ar  1 <1>  -0.1500 
  6 C        1.7530     2.3550    -2.0170 C.3   1 <1>  -0.0960 
  7 C        3.7330     1.4530     1.7170 C.ar  1 <1>  -0.1500 
  8 C        4.3730     2.2230     0.7460 C.ar  1 <1>   0.0830 
  9 O        5.6240     2.7260     0.8900 O.3   1 <1>  -0.3630 
 10 C        6.4260     2.3910     2.0140 C.3   1 <1>   0.1810 
 11 C        7.8340     2.9680     1.8890 C.2   1 <1>   0.5690 
 12 O        8.1710     3.7660     2.7350 O.2   1 <1>  -0.5700 
 13 N        8.6930     2.5750     0.8860 N.am  1 <1>  -0.6600 
 14 C       10.0770     3.1190     0.8030 C.3   1 <1>   0.1400 
 15 C        8.3390     1.6310    -0.2130 C.3   1 <1>   0.1400 
 16 C       11.0850     1.9670     0.7910 C.3   1 <1>  -0.1600 
 17 C        9.3330     0.4680    -0.2340 C.3   1 <1>  -0.1600 
 18 C       10.7880     0.9630    -0.3390 C.3   1 <1>  -0.0190 
 19 C       11.7800    -0.1970    -0.3190 C.2   1 <1>   0.5690 
 20 O       11.7330    -1.0300     0.5490 O.2   1 <1>  -0.5700 
 21 N       12.7190    -0.2880    -1.2790 N.am  1 <1>  -0.8000 
 22 H        1.9440     0.3770     2.2150 H     1 <1>   0.1500 
 23 H        4.2420     3.1090    -1.1790 H     1 <1>   0.1500 
 24 H        0.8420     2.8950    -1.8270 H     1 <1>   0.0800 
 25 H        1.5170     1.4450    -2.5390 H     1 <1>   0.0800 
 26 H        2.3800     2.9580    -2.6480 H     1 <1>   0.0800 
 27 H        4.2020     1.2230     2.6540 H     1 <1>   0.1500 
 28 H        6.4870     1.3220     2.0890 H     1 <1>   0.0800 
 29 H        5.9540     2.7920     2.8920 H     1 <1>   0.0800 
 30 H       10.2850     3.7660     1.6390 H     1 <1>   0.0800 
 31 H       10.1700     3.7030    -0.0970 H     1 <1>   0.0800 
 32 H        8.3720     2.1610    -1.1490 H     1 <1>   0.0800 
 33 H        7.3450     1.2400    -0.0930 H     1 <1>   0.0800 
 34 H       11.0470     1.4640     1.7420 H     1 <1>   0.0800 
 35 H       12.0770     2.3650     0.6730 H     1 <1>   0.0800 
 36 H        9.1100    -0.1760    -1.0660 H     1 <1>   0.0800 
 37 H        9.2090    -0.1100     0.6660 H     1 <1>   0.0800 
 38 H       10.8950     1.4770    -1.2770 H     1 <1>   0.0800 
 39 H       13.3770    -1.0680    -1.2480 H     1 <1>   0.3700 
 40 H       12.8340     0.3780    -2.0410 H     1 <1>   0.3700 
@<TRIPOS>BOND
  1   1   2  1   
  2   2   3  ar  
  3   2   4  ar  
  4   3   5  ar  
  5   3   6  1   
  6   4   7  ar  
  7   4  22  1   
  8   5   8  ar  
  9   5  23  1   
 10   6  24  1   
 11   6  25  1   
 12   6  26  1   
 13   7   8  ar  
 14   7  27  1   
 15   8   9  1   
 16   9  10  1   
 17  10  11  1   
 18  10  28  1   
 19  10  29  1   
 20  11  12  2   
 21  11  13  am  
 22  13  14  1   
 23  13  15  1   
 24  14  16  1   
 25  14  30  1   
 26  14  31  1   
 27  15  17  1   
 28  15  32  1   
 29  15  33  1   
 30  16  18  1   
 31  16  34  1   
 32  16  35  1   
 33  17  18  1   
 34  17  36  1   
 35  17  37  1   
 36  18  19  1   
 37  18  38  1   
 38  19  20  2   
 39  19  21  am  
 40  21  39  1   
 41  21  40  1   
@<TRIPOS>SUBSTRUCTURE
  1 ****  15 GROUP 4 **** **** 0

# MOE 2024.06 (io_trps.svl 2023.06)
