@<TRIPOS>MOLECULE
NONAME
40 42 1 0 0 
SMALL
USER_CHARGES


@<TRIPOS>ATOM
  1 BR       0.0720     0.7220    -0.5600 Br    1 <1>  -0.1110 
  2 C       -1.7720     1.2710    -0.5900 C.ar  1 <1>   0.1110 
  3 C       -2.6620     0.6940     0.2700 C.ar  1 <1>  -0.1500 
  4 C       -2.1450     2.2570    -1.5060 C.ar  1 <1>  -0.1500 
  5 C       -4.0120     1.0950     0.2490 C.ar  1 <1>   0.0000 
  6 C       -3.4520     2.6570    -1.5390 C.ar  1 <1>  -0.1500 
  7 C       -4.4140     2.0920    -0.6710 C.ar  1 <1>   0.0000 
  8 C       -4.9810     0.5380     1.1080 C.ar  1 <1>  -0.1500 
  9 C       -5.7640     2.4880    -0.6870 C.ar  1 <1>  -0.1500 
 10 C       -6.2860     0.9430     1.0700 C.ar  1 <1>  -0.1500 
 11 C       -6.6890     1.9370     0.1590 C.ar  1 <1>   0.0830 
 12 O       -7.9650     2.3880     0.0660 O.3   1 <1>  -0.3630 
 13 C       -8.9590     2.0420     1.0140 C.3   1 <1>   0.4800 
 14 O       -9.3430     0.7120     0.7600 O.3   1 <1>  -0.5600 
 15 C      -10.1580     3.0130     0.8800 C.3   1 <1>   0.2000 
 16 C       -9.8010     0.4220    -0.5530 C.3   1 <1>   0.2000 
 17 O      -10.6560     3.3870     2.1290 O.3   1 <1>  -0.6800 
 18 C      -11.2970     2.3740     0.0700 C.3   1 <1>   0.2000 
 19 C      -10.7330     1.5450    -1.0920 C.3   1 <1>   0.2000 
 20 C      -10.4570    -0.9710    -0.5200 C.3   1 <1>   0.1200 
 21 O      -12.1960     3.3480    -0.3850 O.3   1 <1>  -0.6800 
 22 O      -11.7910     1.0470    -1.8470 O.3   1 <1>  -0.6800 
 23 O       -9.6360    -1.8550     0.1660 O.3   1 <1>  -0.6800 
 24 H       -2.3420    -0.0620     0.9620 H     1 <1>   0.1500 
 25 H       -1.4020     2.6770    -2.1600 H     1 <1>   0.1500 
 26 H       -3.7710     3.4140    -2.2330 H     1 <1>   0.1500 
 27 H       -4.6710    -0.2230     1.8020 H     1 <1>   0.1500 
 28 H       -6.0690     3.2460    -1.3850 H     1 <1>   0.1500 
 29 H       -6.9960     0.4880     1.7350 H     1 <1>   0.1500 
 30 H       -8.5340     2.1120     2.0010 H     1 <1>   0.0800 
 31 H       -9.8110     3.9110     0.4000 H     1 <1>   0.0800 
 32 H       -8.9340     0.3670    -1.1900 H     1 <1>   0.0800 
 33 H      -11.5160     3.8430     2.0120 H     1 <1>   0.4000 
 34 H      -11.8410     1.7050     0.7170 H     1 <1>   0.0800 
 35 H      -10.1560     2.1820    -1.7390 H     1 <1>   0.0800 
 36 H      -10.6120    -1.3510    -1.5150 H     1 <1>   0.0800 
 37 H      -11.4030    -0.9270    -0.0110 H     1 <1>   0.0800 
 38 H      -11.7550     3.9900    -0.9760 H     1 <1>   0.4000 
 39 H      -12.5320     1.6910    -1.8080 H     1 <1>   0.4000 
 40 H       -9.2590    -1.3710     0.9320 H     1 <1>   0.4000 
@<TRIPOS>BOND
  1   1   2  1   
  2   2   3  ar  
  3   2   4  ar  
  4   3   5  ar  
  5   3  24  1   
  6   4   6  ar  
  7   4  25  1   
  8   5   7  ar  
  9   5   8  ar  
 10   6   7  ar  
 11   6  26  1   
 12   7   9  ar  
 13   8  10  ar  
 14   8  27  1   
 15   9  11  ar  
 16   9  28  1   
 17  10  11  ar  
 18  10  29  1   
 19  11  12  1   
 20  12  13  1   
 21  13  14  1   
 22  13  15  1   
 23  13  30  1   
 24  14  16  1   
 25  15  17  1   
 26  15  18  1   
 27  15  31  1   
 28  16  19  1   
 29  16  20  1   
 30  16  32  1   
 31  17  33  1   
 32  18  19  1   
 33  18  21  1   
 34  18  34  1   
 35  19  22  1   
 36  19  35  1   
 37  20  23  1   
 38  20  36  1   
 39  20  37  1   
 40  21  38  1   
 41  22  39  1   
 42  23  40  1   
@<TRIPOS>SUBSTRUCTURE
  1 ****  11 GROUP 4 **** **** 0

# MOE 2024.06 (io_trps.svl 2023.06)
