@<TRIPOS>MOLECULE
NONAME
41 42 1 0 0 
SMALL
USER_CHARGES


@<TRIPOS>ATOM
  1 O       -0.1110     0.4270     0.4780 O.3   1 <1>  -0.1650 
  2 C       -1.2910     1.0460     0.3080 C.ar  1 <1>   0.7020 
  3 C        1.0720     1.0660     0.3670 C.ar  1 <1>   0.3920 
  4 N       -2.3010     0.2500     0.0940 N.ar  1 <1>  -0.6200 
  5 N       -1.3310     2.3530     0.3620 N.ar  1 <1>  -0.6200 
  6 N        1.9200     0.9030     1.3810 N.ar  1 <1>  -0.3100 
  7 C        1.3730     1.8140    -0.7570 C.ar  1 <1>  -0.1500 
  8 C       -3.4330     0.8830    -0.0750 C.ar  1 <1>   0.7200 
  9 C       -2.5280     2.8440     0.1800 C.ar  1 <1>   0.7200 
 10 N        3.0960     1.4910     1.3440 N.ar  1 <1>  -0.3100 
 11 C        2.6030     2.4260    -0.7950 C.ar  1 <1>  -0.1500 
 12 N       -3.6180     2.1700    -0.0410 N.ar  1 <1>  -0.6200 
 13 N       -4.5450     0.1540    -0.3050 N.pl3 1 <1>  -0.8690 
 14 N       -2.6810     4.1840     0.2210 N.pl3 1 <1>  -0.8690 
 15 C        3.4400     2.2370     0.2940 C.ar  1 <1>   0.3930 
 16 C       -4.6670    -1.3010    -0.1200 C.3   1 <1>   0.2090 
 17 C       -1.7200     5.1200     0.8280 C.3   1 <1>   0.2090 
 18 O        4.6690     2.7960     0.3730 O.3   1 <1>  -0.3630 
 19 C       -6.0120    -1.7440    -0.6790 C.3   1 <1>  -0.2400 
 20 C       -2.1820     6.5400     0.5320 C.3   1 <1>  -0.2400 
 21 C        5.1830     3.6430    -0.6270 C.3   1 <1>   0.1200 
 22 C        6.5710     4.0990    -0.1900 C.3   1 <1>  -0.2400 
 23 H        0.6700     1.9130    -1.5640 H     1 <1>   0.1500 
 24 H        2.8800     3.0210    -1.6430 H     1 <1>   0.1500 
 25 H       -5.4090     0.6940    -0.3030 H     1 <1>   0.4000 
 26 H       -3.6530     4.4860     0.1990 H     1 <1>   0.4000 
 27 H       -4.6000    -1.5370     0.9290 H     1 <1>   0.0800 
 28 H       -3.8660    -1.8010    -0.6390 H     1 <1>   0.0800 
 29 H       -0.7390     4.9550     0.4110 H     1 <1>   0.0800 
 30 H       -1.6750     4.9530     1.8910 H     1 <1>   0.0800 
 31 H       -6.8150    -1.2650    -0.1480 H     1 <1>   0.0800 
 32 H       -6.1150    -2.8080    -0.5670 H     1 <1>   0.0800 
 33 H       -6.0750    -1.5030    -1.7250 H     1 <1>   0.0800 
 34 H       -2.2290     6.7000    -0.5300 H     1 <1>   0.0800 
 35 H       -1.4840     7.2400     0.9530 H     1 <1>   0.0800 
 36 H       -3.1490     6.7180     0.9680 H     1 <1>   0.0800 
 37 H        4.5240     4.4880    -0.7340 H     1 <1>   0.0800 
 38 H        5.2390     3.0900    -1.5490 H     1 <1>   0.0800 
 39 H        6.5090     4.6360     0.7400 H     1 <1>   0.0800 
 40 H        6.9940     4.7480    -0.9340 H     1 <1>   0.0800 
 41 H        7.2180     3.2480    -0.0680 H     1 <1>   0.0800 
@<TRIPOS>BOND
  1   1   2  1   
  2   1   3  1   
  3   2   4  ar  
  4   2   5  ar  
  5   3   6  ar  
  6   3   7  ar  
  7   4   8  ar  
  8   5   9  ar  
  9   6  10  ar  
 10   7  11  ar  
 11   7  23  1   
 12   8  12  ar  
 13   8  13  1   
 14   9  12  ar  
 15   9  14  1   
 16  10  15  ar  
 17  11  15  ar  
 18  11  24  1   
 19  13  16  1   
 20  13  25  1   
 21  14  17  1   
 22  14  26  1   
 23  15  18  1   
 24  16  19  1   
 25  16  27  1   
 26  16  28  1   
 27  17  20  1   
 28  17  29  1   
 29  17  30  1   
 30  18  21  1   
 31  19  31  1   
 32  19  32  1   
 33  19  33  1   
 34  20  34  1   
 35  20  35  1   
 36  20  36  1   
 37  21  22  1   
 38  21  37  1   
 39  21  38  1   
 40  22  39  1   
 41  22  40  1   
 42  22  41  1   
@<TRIPOS>SUBSTRUCTURE
  1 ****   5 GROUP 4 **** **** 0

# MOE 2024.06 (io_trps.svl 2023.06)
