@<TRIPOS>MOLECULE
NONAME
35 36 1 0 0 
SMALL
USER_CHARGES


@<TRIPOS>ATOM
  1 CL      -2.0800     0.9110    -2.0200 Cl    1 <1>  -0.1770 
  2 C       -1.0880     2.0290    -1.1160 C.ar  1 <1>   0.1770 
  3 C       -1.4700     2.3940     0.1640 C.ar  1 <1>  -0.1440 
  4 C        0.0570     2.5390    -1.7070 C.ar  1 <1>  -0.1500 
  5 C       -0.6620     3.3000     0.8290 C.ar  1 <1>   0.1900 
  6 C       -2.7100     1.8250     0.8190 C.3   1 <1>   0.4860 
  7 C        0.8480     3.4420    -1.0110 C.ar  1 <1>  -0.1500 
  8 F       -1.0050     3.6790     2.0310 F     1 <1>  -0.1900 
  9 C        0.4870     3.8290     0.2700 C.ar  1 <1>  -0.1500 
 10 N       -3.9250     2.3610     0.1440 N.4   1 <1>  -0.9590 
 11 C       -4.0490     3.8400     0.3300 C.3   1 <1>   0.3430 
 12 C       -5.1450     1.6260     0.5870 C.3   1 <1>   0.3430 
 13 C       -5.2440     4.3620    -0.4670 C.3   1 <1>  -0.1600 
 14 C       -6.3560     2.1120    -0.2080 C.3   1 <1>  -0.1600 
 15 C       -6.5390     3.6330    -0.0680 C.3   1 <1>  -0.0190 
 16 C       -7.7560     4.1450    -0.8330 C.2   1 <1>   0.5690 
 17 O       -8.6510     4.6590    -0.2190 O.2   1 <1>  -0.5700 
 18 N       -7.8380     4.0280    -2.1710 N.am  1 <1>  -0.8000 
 19 H        0.3290     2.2330    -2.7030 H     1 <1>   0.1500 
 20 H       -2.7250     2.0770     1.8680 H     1 <1>   0.0800 
 21 H       -2.6860     0.7500     0.7310 H     1 <1>   0.0800 
 22 H        1.7420     3.8400    -1.4650 H     1 <1>   0.1500 
 23 H        1.0890     4.5280     0.8260 H     1 <1>   0.1500 
 24 H       -3.7970     2.1800    -0.8610 H     1 <1>   0.4500 
 25 H       -3.1520     4.3350    -0.0070 H     1 <1>   0.0800 
 26 H       -4.1860     4.0670     1.3760 H     1 <1>   0.0800 
 27 H       -5.3140     1.7970     1.6380 H     1 <1>   0.0800 
 28 H       -5.0170     0.5660     0.4310 H     1 <1>   0.0800 
 29 H       -5.0520     4.2460    -1.5190 H     1 <1>   0.0800 
 30 H       -5.3590     5.4150    -0.2740 H     1 <1>   0.0800 
 31 H       -7.2380     1.6160     0.1620 H     1 <1>   0.0800 
 32 H       -6.2420     1.8370    -1.2420 H     1 <1>   0.0800 
 33 H       -6.7260     3.8450     0.9720 H     1 <1>   0.0800 
 34 H       -8.6750     4.3870    -2.6380 H     1 <1>   0.3700 
 35 H       -7.1360     3.6130    -2.7800 H     1 <1>   0.3700 
@<TRIPOS>BOND
  1   1   2  1   
  2   2   3  ar  
  3   2   4  ar  
  4   3   5  ar  
  5   3   6  1   
  6   4   7  ar  
  7   4  19  1   
  8   5   8  1   
  9   5   9  ar  
 10   6  10  1   
 11   6  20  1   
 12   6  21  1   
 13   7   9  ar  
 14   7  22  1   
 15   9  23  1   
 16  10  11  1   
 17  10  12  1   
 18  10  24  1   
 19  11  13  1   
 20  11  25  1   
 21  11  26  1   
 22  12  14  1   
 23  12  27  1   
 24  12  28  1   
 25  13  15  1   
 26  13  29  1   
 27  13  30  1   
 28  14  15  1   
 29  14  31  1   
 30  14  32  1   
 31  15  16  1   
 32  15  33  1   
 33  16  17  2   
 34  16  18  am  
 35  18  34  1   
 36  18  35  1   
@<TRIPOS>SUBSTRUCTURE
  1 ****  10 GROUP 4 **** **** 0

# MOE 2024.06 (io_trps.svl 2023.06)
