@<TRIPOS>MOLECULE
NONAME
44 45 1 0 0 
SMALL
USER_CHARGES


@<TRIPOS>ATOM
  1 O       -1.3310     0.2610     1.0710 O.2   1 <1>  -0.5700 
  2 C       -1.5110     1.2250     0.3520 C.2   1 <1>   0.6900 
  3 N       -2.6860     1.4090    -0.3280 N.am  1 <1>  -0.6600 
  4 N       -0.5130     2.1300     0.1950 N.am  1 <1>  -0.7300 
  5 C       -3.5960     0.2970    -0.7280 C.3   1 <1>   0.2200 
  6 C       -3.2070     2.7850    -0.6010 C.3   1 <1>   0.3200 
  7 C        0.7840     2.0540     0.8890 C.3   1 <1>   0.1400 
  8 C       -4.3020    -0.3170     0.4830 C.3   1 <1>  -0.2400 
  9 C       -2.8290    -0.7570    -1.5280 C.3   1 <1>  -0.2400 
 10 C       -4.5390     3.0600     0.0820 C.2   1 <1>   0.2980 
 11 C        1.3820     3.4530     0.9620 C.3   1 <1>  -0.2400 
 12 O       -4.5580     3.2050     1.3810 O.3   1 <1>  -0.0190 
 13 N       -5.6650     3.1710    -0.4970 N.2   1 <1>  -0.5650 
 14 N       -5.8060     3.4240     1.6540 N.2   1 <1>  -0.4100 
 15 C       -6.4660     3.4010     0.5500 C.2   1 <1>   0.4620 
 16 C       -7.9000     3.5930     0.4150 C.ar  1 <1>   0.0540 
 17 C       -8.5340     3.5570    -0.8290 C.ar  1 <1>  -0.1500 
 18 C       -8.7090     3.8240     1.5290 C.ar  1 <1>  -0.1500 
 19 C       -9.8990     3.7400    -0.9530 C.ar  1 <1>  -0.1500 
 20 C      -10.0740     4.0070     1.4100 C.ar  1 <1>  -0.1500 
 21 C      -10.6800     3.9650     0.1670 C.ar  1 <1>  -0.1440 
 22 C      -12.1780     4.1680     0.0330 C.3   1 <1>  -0.0970 
 23 H       -0.5160     2.6760    -0.6620 H     1 <1>   0.3700 
 24 H       -4.3570     0.6970    -1.3780 H     1 <1>   0.0800 
 25 H       -3.3330     2.9020    -1.6620 H     1 <1>   0.0800 
 26 H       -2.5110     3.5310    -0.2660 H     1 <1>   0.0800 
 27 H        1.4390     1.3900     0.3510 H     1 <1>   0.0800 
 28 H        0.6400     1.6600     1.8830 H     1 <1>   0.0800 
 29 H       -3.6010    -0.8150     1.1280 H     1 <1>   0.0800 
 30 H       -5.0230    -1.0420     0.1530 H     1 <1>   0.0800 
 31 H       -4.8190     0.4380     1.0450 H     1 <1>   0.0800 
 32 H       -2.1020    -1.2520    -0.9100 H     1 <1>   0.0800 
 33 H       -2.3340    -0.3000    -2.3650 H     1 <1>   0.0800 
 34 H       -3.5120    -1.4980    -1.9000 H     1 <1>   0.0800 
 35 H        1.5530     3.8430    -0.0250 H     1 <1>   0.0800 
 36 H        2.3230     3.4140     1.4800 H     1 <1>   0.0800 
 37 H        0.7240     4.1100     1.5030 H     1 <1>   0.0800 
 38 H       -7.9490     3.3830    -1.7150 H     1 <1>   0.1500 
 39 H       -8.2610     3.8600     2.5070 H     1 <1>   0.1500 
 40 H      -10.3520     3.7070    -1.9290 H     1 <1>   0.1500 
 41 H      -10.6650     4.1840     2.2920 H     1 <1>   0.1500 
 42 H      -12.3920     5.2130    -0.1030 H     1 <1>   0.0800 
 43 H      -12.6850     3.8210     0.9150 H     1 <1>   0.0800 
 44 H      -12.5570     3.6230    -0.8130 H     1 <1>   0.0800 
@<TRIPOS>BOND
  1   1   2  2   
  2   2   3  am  
  3   2   4  am  
  4   3   5  1   
  5   3   6  1   
  6   4   7  1   
  7   4  23  1   
  8   5   8  1   
  9   5   9  1   
 10   5  24  1   
 11   6  10  1   
 12   6  25  1   
 13   6  26  1   
 14   7  11  1   
 15   7  27  1   
 16   7  28  1   
 17   8  29  1   
 18   8  30  1   
 19   8  31  1   
 20   9  32  1   
 21   9  33  1   
 22   9  34  1   
 23  10  12  1   
 24  10  13  2   
 25  11  35  1   
 26  11  36  1   
 27  11  37  1   
 28  12  14  1   
 29  13  15  1   
 30  14  15  2   
 31  15  16  1   
 32  16  17  ar  
 33  16  18  ar  
 34  17  19  ar  
 35  17  38  1   
 36  18  20  ar  
 37  18  39  1   
 38  19  21  ar  
 39  19  40  1   
 40  20  21  ar  
 41  20  41  1   
 42  21  22  1   
 43  22  42  1   
 44  22  43  1   
 45  22  44  1   
@<TRIPOS>SUBSTRUCTURE
  1 ****  10 GROUP 4 **** **** 0

# MOE 2024.06 (io_trps.svl 2023.06)
