@<TRIPOS>MOLECULE
NONAME
43 45 1 0 0 
SMALL
USER_CHARGES


@<TRIPOS>ATOM
  1 O        0.0160     0.9210    -2.9210 O.2   1 <1>  -0.5700 
  2 C        0.3450     1.5700    -1.9540 C.2   1 <1>   0.5690 
  3 N       -0.5300     1.8150    -0.9230 N.am  1 <1>  -0.6600 
  4 C        1.7620     2.1400    -1.9400 C.3   1 <1>   0.1810 
  5 C       -0.1760     2.6140     0.2930 C.3   1 <1>   0.1400 
  6 C       -1.9400     1.3250    -0.9590 C.3   1 <1>   0.1400 
  7 O        2.4900     1.6970    -0.8040 O.3   1 <1>  -0.3630 
  8 C       -1.3940     2.8700     1.2050 C.3   1 <1>   0.2000 
  9 C       -2.9500     2.4260    -0.5470 C.3   1 <1>   0.2000 
 10 C        3.6630     2.2670    -0.4350 C.ar  1 <1>   0.0820 
 11 O       -2.4730     3.3080     0.4370 O.3   1 <1>  -0.5600 
 12 C       -1.1160     3.9490     2.2480 C.3   1 <1>  -0.2400 
 13 C       -4.2600     1.8360    -0.0270 C.3   1 <1>  -0.2400 
 14 C        4.1480     1.9520     0.8600 C.ar  1 <1>   0.0000 
 15 C        4.3640     3.1200    -1.2580 C.ar  1 <1>  -0.1500 
 16 C        5.3490     2.5520     1.2990 C.ar  1 <1>   0.0000 
 17 C        3.4890     1.0660     1.7420 C.ar  1 <1>  -0.1500 
 18 C        5.5560     3.7030    -0.8190 C.ar  1 <1>  -0.1500 
 19 C        6.0330     3.4260     0.4310 C.ar  1 <1>  -0.1500 
 20 C        5.8310     2.2580     2.5910 C.ar  1 <1>  -0.1500 
 21 C        3.9790     0.7960     2.9900 C.ar  1 <1>  -0.1500 
 22 C        5.1630     1.4010     3.4210 C.ar  1 <1>  -0.1500 
 23 H        1.7070     3.2120    -1.9180 H     1 <1>   0.0800 
 24 H        2.2880     1.8190    -2.8200 H     1 <1>   0.0800 
 25 H        0.2320     3.5610    -0.0130 H     1 <1>   0.0800 
 26 H        0.5770     2.0940     0.8580 H     1 <1>   0.0800 
 27 H       -2.0260     0.4900    -0.2860 H     1 <1>   0.0800 
 28 H       -2.1950     0.9680    -1.9410 H     1 <1>   0.0800 
 29 H       -1.6820     1.9590     1.7030 H     1 <1>   0.0800 
 30 H       -3.1620     3.0290    -1.4130 H     1 <1>   0.0800 
 31 H       -0.8710     4.8790     1.7660 H     1 <1>   0.0800 
 32 H       -0.2930     3.6550     2.8740 H     1 <1>   0.0800 
 33 H       -1.9840     4.0890     2.8660 H     1 <1>   0.0800 
 34 H       -4.0860     1.2530     0.8580 H     1 <1>   0.0800 
 35 H       -4.7030     1.2050    -0.7760 H     1 <1>   0.0800 
 36 H       -4.9500     2.6290     0.2000 H     1 <1>   0.0800 
 37 H        4.0310     3.3620    -2.2490 H     1 <1>   0.1500 
 38 H        2.5820     0.5920     1.4110 H     1 <1>   0.1500 
 39 H        6.0880     4.3690    -1.4770 H     1 <1>   0.1500 
 40 H        6.9490     3.8740     0.7730 H     1 <1>   0.1500 
 41 H        6.7440     2.7240     2.9160 H     1 <1>   0.1500 
 42 H        3.4660     0.1190     3.6510 H     1 <1>   0.1500 
 43 H        5.5370     1.1800     4.4060 H     1 <1>   0.1500 
@<TRIPOS>BOND
  1   1   2  2   
  2   2   3  am  
  3   2   4  1   
  4   3   5  1   
  5   3   6  1   
  6   4   7  1   
  7   4  23  1   
  8   4  24  1   
  9   5   8  1   
 10   5  25  1   
 11   5  26  1   
 12   6   9  1   
 13   6  27  1   
 14   6  28  1   
 15   7  10  1   
 16   8  11  1   
 17   8  12  1   
 18   8  29  1   
 19   9  11  1   
 20   9  13  1   
 21   9  30  1   
 22  10  14  ar  
 23  10  15  ar  
 24  12  31  1   
 25  12  32  1   
 26  12  33  1   
 27  13  34  1   
 28  13  35  1   
 29  13  36  1   
 30  14  16  ar  
 31  14  17  ar  
 32  15  18  ar  
 33  15  37  1   
 34  16  19  ar  
 35  16  20  ar  
 36  17  21  ar  
 37  17  38  1   
 38  18  19  ar  
 39  18  39  1   
 40  19  40  1   
 41  20  22  ar  
 42  20  41  1   
 43  21  22  ar  
 44  21  42  1   
 45  22  43  1   
@<TRIPOS>SUBSTRUCTURE
  1 ****   7 GROUP 4 **** **** 0

# MOE 2024.06 (io_trps.svl 2023.06)
