@<TRIPOS>MOLECULE
NONAME
44 47 1 0 0 
SMALL
USER_CHARGES


@<TRIPOS>ATOM
  1 N        0.0950     0.1130     0.3130 N.3   1 <1>  -0.8100 
  2 C        0.2530     0.9590    -0.9000 C.3   1 <1>   0.1100 
  3 C       -1.2000    -0.6040     0.2870 C.3   1 <1>   0.1100 
  4 C        1.2320    -0.8120     0.4990 C.3   1 <1>   0.2540 
  5 C       -0.9530     1.9010    -1.1300 C.3   1 <1>   0.3430 
  6 C       -2.4020     0.3650     0.1450 C.3   1 <1>   0.3430 
  7 C        2.5380    -0.0410     0.6230 C.ar  1 <1>  -0.1440 
  8 N       -1.9440     1.7860    -0.0100 N.4   1 <1>  -0.9590 
  9 C        3.5410    -0.1980    -0.3250 C.ar  1 <1>  -0.1500 
 10 C        2.7300     0.8330     1.6880 C.ar  1 <1>  -0.1500 
 11 C       -3.0610     2.7690    -0.0990 C.3   1 <1>   0.2630 
 12 C        4.7130     0.5240    -0.1950 C.ar  1 <1>  -0.1440 
 13 C        3.9070     1.5520     1.8110 C.ar  1 <1>  -0.1500 
 14 C        4.9050     1.3970     0.8600 C.ar  1 <1>   0.0000 
 15 C        5.9370     0.5140    -1.0990 C.3   1 <1>   0.1270 
 16 C        6.1980     2.0070     0.7410 C.ar  1 <1>   0.0000 
 17 C        6.8310     1.5190    -0.3880 C.ar  1 <1>  -0.1440 
 18 C        6.8430     2.9410     1.5400 C.ar  1 <1>  -0.1500 
 19 C        8.0980     1.9430    -0.7410 C.ar  1 <1>  -0.1500 
 20 C        8.1140     3.3730     1.1950 C.ar  1 <1>  -0.1500 
 21 C        8.7390     2.8770     0.0590 C.ar  1 <1>  -0.1500 
 22 H        0.3870     0.3360    -1.7690 H     1 <1>   0.0800 
 23 H        1.1370     1.5670    -0.8030 H     1 <1>   0.0800 
 24 H       -1.3150    -1.1670     1.1980 H     1 <1>   0.0800 
 25 H       -1.2130    -1.3050    -0.5300 H     1 <1>   0.0800 
 26 H        1.2870    -1.5010    -0.3270 H     1 <1>   0.0800 
 27 H        1.0860    -1.3830     1.4010 H     1 <1>   0.0800 
 28 H       -1.4250     1.6510    -2.0660 H     1 <1>   0.0800 
 29 H       -0.5930     2.9140    -1.2030 H     1 <1>   0.0800 
 30 H       -3.0240     0.2760     1.0200 H     1 <1>   0.0800 
 31 H       -2.9930     0.0710    -0.7070 H     1 <1>   0.0800 
 32 H       -1.3700     1.9530     0.8350 H     1 <1>   0.4500 
 33 H        3.4180    -0.8720    -1.1530 H     1 <1>   0.1500 
 34 H        1.9550     0.9540     2.4230 H     1 <1>   0.1500 
 35 H       -3.6500     2.5890    -0.9840 H     1 <1>   0.0800 
 36 H       -2.6720     3.7730    -0.1410 H     1 <1>   0.0800 
 37 H       -3.7010     2.6860     0.7650 H     1 <1>   0.0800 
 38 H        4.0550     2.2260     2.6350 H     1 <1>   0.1500 
 39 H        5.6910     0.8480    -2.0900 H     1 <1>   0.0800 
 40 H        6.3930    -0.4590    -1.1230 H     1 <1>   0.0800 
 41 H        6.3550     3.3220     2.4180 H     1 <1>   0.1500 
 42 H        8.5800     1.5580    -1.6210 H     1 <1>   0.1500 
 43 H        8.6190     4.0970     1.8100 H     1 <1>   0.1500 
 44 H        9.7250     3.2180    -0.2020 H     1 <1>   0.1500 
@<TRIPOS>BOND
  1   1   2  1   
  2   1   3  1   
  3   1   4  1   
  4   2   5  1   
  5   2  22  1   
  6   2  23  1   
  7   3   6  1   
  8   3  24  1   
  9   3  25  1   
 10   4   7  1   
 11   4  26  1   
 12   4  27  1   
 13   5   8  1   
 14   5  28  1   
 15   5  29  1   
 16   6   8  1   
 17   6  30  1   
 18   6  31  1   
 19   7   9  ar  
 20   7  10  ar  
 21   8  11  1   
 22   8  32  1   
 23   9  12  ar  
 24   9  33  1   
 25  10  13  ar  
 26  10  34  1   
 27  11  35  1   
 28  11  36  1   
 29  11  37  1   
 30  12  14  ar  
 31  12  15  1   
 32  13  14  ar  
 33  13  38  1   
 34  14  16  1   
 35  15  17  1   
 36  15  39  1   
 37  15  40  1   
 38  16  17  ar  
 39  16  18  ar  
 40  17  19  ar  
 41  18  20  ar  
 42  18  41  1   
 43  19  21  ar  
 44  19  42  1   
 45  20  21  ar  
 46  20  43  1   
 47  21  44  1   
@<TRIPOS>SUBSTRUCTURE
  1 ****   7 GROUP 4 **** **** 0

# MOE 2024.06 (io_trps.svl 2023.06)
