@<TRIPOS>MOLECULE
NONAME
28 29 1 0 0 
SMALL
USER_CHARGES


@<TRIPOS>ATOM
  1 S       -3.1360     2.3750    -0.4110 S.3   1 <1>  -0.3610 
  2 C       -1.7410     3.3850    -0.0970 C.cat 1 <1>   0.8400 
  3 C       -4.6480     3.3100     0.1240 C.3   1 <1>   0.0700 
  4 N       -0.5950     2.8710    -0.4360 N.pl3 1 <1>  -0.7540 
  5 N       -1.9070     4.5620     0.4420 N.pl3 1 <1>  -0.7540 
  6 C       -5.9070     2.5380    -0.2780 C.3   1 <1>   0.2000 
  7 O       -7.0050     3.3670     0.0450 O.3   1 <1>  -0.3630 
  8 C       -6.0480     1.1810     0.4380 C.3   1 <1>   0.1200 
  9 C       -8.2330     2.7880     0.0650 C.ar  1 <1>   0.0820 
 10 O       -7.2890     0.5840     0.1180 O.3   1 <1>  -0.3620 
 11 C       -8.3740     1.3980     0.0880 C.ar  1 <1>   0.0820 
 12 C       -9.3560     3.5970     0.0580 C.ar  1 <1>  -0.1500 
 13 C       -9.6370     0.8320     0.0850 C.ar  1 <1>  -0.1500 
 14 C      -10.6180     3.0250     0.0610 C.ar  1 <1>  -0.1500 
 15 C      -10.7590     1.6460     0.0720 C.ar  1 <1>  -0.1500 
 16 H       -4.6300     4.2620    -0.3750 H     1 <1>   0.0800 
 17 H       -4.5990     3.4300     1.1920 H     1 <1>   0.0800 
 18 H        0.3150     3.3180    -0.3250 H     1 <1>   0.4500 
 19 H       -0.5460     1.9380    -0.8560 H     1 <1>   0.4500 
 20 H       -1.1420     5.2050     0.6530 H     1 <1>   0.4500 
 21 H       -2.8220     4.9340     0.6960 H     1 <1>   0.4500 
 22 H       -5.9200     2.3860    -1.3430 H     1 <1>   0.0800 
 23 H       -6.0080     1.3080     1.5050 H     1 <1>   0.0800 
 24 H       -5.2740     0.5000     0.1350 H     1 <1>   0.0800 
 25 H       -9.2410     4.6650     0.0470 H     1 <1>   0.1500 
 26 H       -9.7370    -0.2380     0.0950 H     1 <1>   0.1500 
 27 H      -11.4920     3.6530     0.0540 H     1 <1>   0.1500 
 28 H      -11.7400     1.2050     0.0710 H     1 <1>   0.1500 
@<TRIPOS>BOND
  1   1   2  1   
  2   1   3  1   
  3   2   4  ar  
  4   2   5  ar  
  5   3   6  1   
  6   3  16  1   
  7   3  17  1   
  8   4  18  1   
  9   4  19  1   
 10   5  20  1   
 11   5  21  1   
 12   6   7  1   
 13   6   8  1   
 14   6  22  1   
 15   7   9  1   
 16   8  10  1   
 17   8  23  1   
 18   8  24  1   
 19   9  11  ar  
 20   9  12  ar  
 21  10  11  1   
 22  11  13  ar  
 23  12  14  ar  
 24  12  25  1   
 25  13  15  ar  
 26  13  26  1   
 27  14  15  ar  
 28  14  27  1   
 29  15  28  1   
@<TRIPOS>SUBSTRUCTURE
  1 ****   6 GROUP 4 **** **** 0

# MOE 2024.06 (io_trps.svl 2023.06)
