@<TRIPOS>MOLECULE
NONAME
28 28 1 0 0 
SMALL
USER_CHARGES


@<TRIPOS>ATOM
  1 S        0.4240     0.5690    -1.8620 S.o2  1 <1>   1.2040 
  2 O        0.3420    -0.5150    -2.8250 O.2   1 <1>  -0.6500 
  3 O        0.4660     1.9180    -2.4020 O.2   1 <1>  -0.6500 
  4 C        1.9540     0.3310    -0.9220 C.ar  1 <1>  -0.0090 
  5 C       -0.8510     0.3970    -0.5020 C.3   1 <1>   1.1250 
  6 C        2.6230     1.4100    -0.3620 C.ar  1 <1>  -0.1500 
  7 C        2.4800    -0.9370    -0.7130 C.ar  1 <1>  -0.1500 
  8 F       -0.7150     1.2900     0.4800 F     1 <1>  -0.3400 
  9 F       -0.8220    -0.7840     0.1190 F     1 <1>  -0.3400 
 10 F       -2.1150     0.5330    -0.9080 F     1 <1>  -0.3400 
 11 C        3.7870     1.2510     0.3790 C.ar  1 <1>   0.1170 
 12 C        3.6310    -1.1170     0.0330 C.ar  1 <1>  -0.1500 
 13 N        4.4320     2.3660     0.9250 N.am  1 <1>  -0.5470 
 14 C        4.2900    -0.0320     0.5840 C.ar  1 <1>  -0.1430 
 15 C        4.8760     3.5100     0.3420 C.2   1 <1>   0.5690 
 16 C        5.5600    -0.2610     1.3950 C.3   1 <1>  -0.0960 
 17 O        5.4220     4.3470     1.0100 O.2   1 <1>  -0.5700 
 18 C        4.7190     3.7450    -1.1430 C.3   1 <1>  -0.1790 
 19 H        2.2320     2.4040    -0.5000 H     1 <1>   0.1500 
 20 H        1.9920    -1.7990    -1.1400 H     1 <1>   0.1500 
 21 H        4.0120    -2.1150     0.1770 H     1 <1>   0.1500 
 22 H        4.7140     2.2960     1.9020 H     1 <1>   0.3700 
 23 H        6.3650     0.3280     0.9940 H     1 <1>   0.0800 
 24 H        5.8550    -1.2950     1.3680 H     1 <1>   0.0800 
 25 H        5.3990     0.0190     2.4200 H     1 <1>   0.0800 
 26 H        4.8900     2.8350    -1.6870 H     1 <1>   0.0800 
 27 H        5.4330     4.4790    -1.4670 H     1 <1>   0.0800 
 28 H        3.7310     4.1100    -1.3500 H     1 <1>   0.0800 
@<TRIPOS>BOND
  1   1   2  2   
  2   1   3  2   
  3   1   4  1   
  4   1   5  1   
  5   4   6  ar  
  6   4   7  ar  
  7   5   8  1   
  8   5   9  1   
  9   5  10  1   
 10   6  11  ar  
 11   6  19  1   
 12   7  12  ar  
 13   7  20  1   
 14  11  13  1   
 15  11  14  ar  
 16  12  14  ar  
 17  12  21  1   
 18  13  15  am  
 19  13  22  1   
 20  14  16  1   
 21  15  17  2   
 22  15  18  1   
 23  16  23  1   
 24  16  24  1   
 25  16  25  1   
 26  18  26  1   
 27  18  27  1   
 28  18  28  1   
@<TRIPOS>SUBSTRUCTURE
  1 ****   6 GROUP 4 **** **** 0

# MOE 2024.06 (io_trps.svl 2023.06)
