@<TRIPOS>MOLECULE
NONAME
47 49 1 0 0 
SMALL
USER_CHARGES


@<TRIPOS>ATOM
  1 S        0.1740    -0.1380     0.5520 S.o2  1 <1>   1.4470 
  2 O       -0.2270    -0.0770     1.9420 O.2   1 <1>  -0.6500 
  3 O       -0.1670    -1.3080    -0.2280 O.2   1 <1>  -0.6500 
  4 N       -0.5250     1.2040    -0.2160 N.am  1 <1>  -0.8490 
  5 C        1.9560     0.1710     0.4070 C.ar  1 <1>  -0.0090 
  6 C       -1.9380     0.9630    -0.5230 C.3   1 <1>   0.1960 
  7 C       -0.3600     2.4330     0.5680 C.3   1 <1>   0.1960 
  8 C        2.8090     0.0010     1.4910 C.ar  1 <1>  -0.1500 
  9 C        2.5200     0.5770    -0.7960 C.ar  1 <1>  -0.1500 
 10 C       -2.5090     2.1200    -1.3490 C.3   1 <1>  -0.1600 
 11 C       -0.8630     3.6410    -0.2280 C.3   1 <1>  -0.1600 
 12 C        4.1690     0.2350     1.3800 C.ar  1 <1>  -0.1500 
 13 C        3.8790     0.8130    -0.9120 C.ar  1 <1>  -0.1500 
 14 C       -2.3310     3.4650    -0.6360 C.3   1 <1>  -0.1600 
 15 C        4.7270     0.6490     0.1770 C.ar  1 <1>   0.1170 
 16 N        6.1110     0.8620     0.1180 N.am  1 <1>  -0.5470 
 17 C        6.8910     1.5430    -0.7780 C.2   1 <1>   0.5690 
 18 O        6.4540     2.1490    -1.7240 O.2   1 <1>  -0.5700 
 19 C        8.3930     1.5570    -0.5470 C.3   1 <1>   0.0440 
 20 C        8.9700     0.1560    -0.3510 C.ar  1 <1>  -0.1430 
 21 C        8.9650    -0.4760     0.8850 C.ar  1 <1>   0.1900 
 22 C        9.5200    -0.5300    -1.4240 C.ar  1 <1>  -0.1500 
 23 F        8.4320     0.1330     1.9120 F     1 <1>  -0.1900 
 24 C        9.4890    -1.7400     1.0800 C.ar  1 <1>  -0.1500 
 25 C       10.0490    -1.8010    -1.2500 C.ar  1 <1>  -0.1500 
 26 C       10.0360    -2.4060    -0.0030 C.ar  1 <1>  -0.1500 
 27 H       -2.4960     0.8480     0.3920 H     1 <1>   0.0800 
 28 H       -2.0370     0.0540    -1.0930 H     1 <1>   0.0800 
 29 H        0.6810     2.5800     0.8010 H     1 <1>   0.0800 
 30 H       -0.9050     2.3550     1.4950 H     1 <1>   0.0800 
 31 H        2.4020    -0.3190     2.4360 H     1 <1>   0.1500 
 32 H        1.8840     0.7100    -1.6550 H     1 <1>   0.1500 
 33 H       -3.5540     1.9440    -1.5350 H     1 <1>   0.0800 
 34 H       -2.0060     2.1440    -2.3000 H     1 <1>   0.0800 
 35 H       -0.2520     3.7570    -1.1060 H     1 <1>   0.0800 
 36 H       -0.7570     4.5310     0.3660 H     1 <1>   0.0800 
 37 H        4.8000     0.0960     2.2390 H     1 <1>   0.1500 
 38 H        4.2740     1.1210    -1.8630 H     1 <1>   0.1500 
 39 H       -2.9520     3.4890     0.2440 H     1 <1>   0.0800 
 40 H       -2.6340     4.2700    -1.2830 H     1 <1>   0.0800 
 41 H        6.6380     0.4330     0.8800 H     1 <1>   0.3700 
 42 H        8.6040     2.1700     0.3100 H     1 <1>   0.0800 
 43 H        8.8650     2.0250    -1.3920 H     1 <1>   0.0800 
 44 H        9.5390    -0.0820    -2.4040 H     1 <1>   0.1500 
 45 H        9.4660    -2.1920     2.0550 H     1 <1>   0.1500 
 46 H       10.4720    -2.3220    -2.0920 H     1 <1>   0.1500 
 47 H       10.4500    -3.3920     0.1220 H     1 <1>   0.1500 
@<TRIPOS>BOND
  1   1   2  2   
  2   1   3  2   
  3   1   4  am  
  4   1   5  1   
  5   4   6  1   
  6   4   7  1   
  7   5   8  ar  
  8   5   9  ar  
  9   6  10  1   
 10   6  27  1   
 11   6  28  1   
 12   7  11  1   
 13   7  29  1   
 14   7  30  1   
 15   8  12  ar  
 16   8  31  1   
 17   9  13  ar  
 18   9  32  1   
 19  10  14  1   
 20  10  33  1   
 21  10  34  1   
 22  11  14  1   
 23  11  35  1   
 24  11  36  1   
 25  12  15  ar  
 26  12  37  1   
 27  13  15  ar  
 28  13  38  1   
 29  14  39  1   
 30  14  40  1   
 31  15  16  1   
 32  16  17  am  
 33  16  41  1   
 34  17  18  2   
 35  17  19  1   
 36  19  20  1   
 37  19  42  1   
 38  19  43  1   
 39  20  21  ar  
 40  20  22  ar  
 41  21  23  1   
 42  21  24  ar  
 43  22  25  ar  
 44  22  44  1   
 45  24  26  ar  
 46  24  45  1   
 47  25  26  ar  
 48  25  46  1   
 49  26  47  1   
@<TRIPOS>SUBSTRUCTURE
  1 ****  15 GROUP 4 **** **** 0

# MOE 2024.06 (io_trps.svl 2023.06)
