@<TRIPOS>MOLECULE
NONAME
35 35 1 0 0 
SMALL
USER_CHARGES


@<TRIPOS>ATOM
  1 BR       0.2930     0.5700     1.8290 Br    1 <1>  -0.1110 
  2 C       -0.0530    -1.2600     1.3440 C.ar  1 <1>   0.1110 
  3 C       -1.3130    -1.7780     1.5680 C.ar  1 <1>  -0.1500 
  4 C        0.9660    -2.0060     0.7860 C.ar  1 <1>  -0.1500 
  5 C       -1.5650    -3.0970     1.2170 C.ar  1 <1>  -0.1440 
  6 C        0.7120    -3.3210     0.4370 C.ar  1 <1>  -0.1500 
  7 C       -0.5530    -3.8720     0.6490 C.ar  1 <1>   0.0830 
  8 C       -2.9340    -3.6960     1.4570 C.3   1 <1>   0.4870 
  9 O       -0.8760    -5.1540     0.3190 O.3   1 <1>  -0.3630 
 10 N       -3.4710    -4.0930     0.1450 N.4   1 <1>  -0.9060 
 11 C        0.0620    -6.0870    -0.1810 C.3   1 <1>   0.2000 
 12 C       -4.7210    -4.8540     0.1940 C.3   1 <1>   0.4810 
 13 C        0.1860    -5.8960    -1.6950 C.3   1 <1>  -0.2400 
 14 C       -0.4700    -7.4780     0.1530 C.3   1 <1>  -0.2400 
 15 C       -5.0980    -5.1140    -1.2410 C.2   1 <1>  -0.2880 
 16 C       -6.1300    -4.5540    -1.8820 C.2   1 <1>  -0.3000 
 17 H       -2.0640    -1.1470     2.0110 H     1 <1>   0.1500 
 18 H        1.9350    -1.5640     0.6290 H     1 <1>   0.1500 
 19 H        1.5140    -3.8880     0.0020 H     1 <1>   0.1500 
 20 H       -3.5820    -2.9770     1.9320 H     1 <1>   0.0800 
 21 H       -2.8350    -4.5580     2.0970 H     1 <1>   0.0800 
 22 H       -2.7300    -4.6640    -0.2910 H     1 <1>   0.4500 
 23 H       -3.5870    -3.2730    -0.4580 H     1 <1>   0.4500 
 24 H        1.0060    -5.9440     0.3170 H     1 <1>   0.0800 
 25 H       -5.4930    -4.2760     0.6770 H     1 <1>   0.0800 
 26 H       -4.5890    -5.7840     0.7260 H     1 <1>   0.0800 
 27 H       -0.7590    -6.0620    -2.1790 H     1 <1>   0.0800 
 28 H        0.8940    -6.6030    -2.0910 H     1 <1>   0.0800 
 29 H        0.5380    -4.9090    -1.9310 H     1 <1>   0.0800 
 30 H       -1.4230    -7.6480    -0.3150 H     1 <1>   0.0800 
 31 H       -0.5650    -7.5910     1.2180 H     1 <1>   0.0800 
 32 H        0.2190    -8.2250    -0.2000 H     1 <1>   0.0800 
 33 H       -4.4440    -5.8210    -1.7260 H     1 <1>   0.1500 
 34 H       -6.3790    -4.7630    -2.9110 H     1 <1>   0.1500 
 35 H       -6.8210    -3.8470    -1.4520 H     1 <1>   0.1500 
@<TRIPOS>BOND
  1   1   2  1   
  2   2   3  ar  
  3   2   4  ar  
  4   3   5  ar  
  5   3  17  1   
  6   4   6  ar  
  7   4  18  1   
  8   5   7  ar  
  9   5   8  1   
 10   6   7  ar  
 11   6  19  1   
 12   7   9  1   
 13   8  10  1   
 14   8  20  1   
 15   8  21  1   
 16   9  11  1   
 17  10  12  1   
 18  10  22  1   
 19  10  23  1   
 20  11  13  1   
 21  11  14  1   
 22  11  24  1   
 23  12  15  1   
 24  12  25  1   
 25  12  26  1   
 26  13  27  1   
 27  13  28  1   
 28  13  29  1   
 29  14  30  1   
 30  14  31  1   
 31  14  32  1   
 32  15  16  2   
 33  15  33  1   
 34  16  34  1   
 35  16  35  1   
@<TRIPOS>SUBSTRUCTURE
  1 ****   7 GROUP 4 **** **** 0

# MOE 2024.06 (io_trps.svl 2023.06)
