@<TRIPOS>MOLECULE
NONAME
37 39 1 0 0 
SMALL
USER_CHARGES


@<TRIPOS>ATOM
  1 O       -0.2410    -0.1020    -0.2360 O.2   1 <1>  -0.5700 
  2 C       -1.1420     0.6820    -0.4040 C.2   1 <1>   0.6300 
  3 N       -0.9980     2.0390    -0.3890 N.am  1 <1>  -0.5470 
  4 C       -2.5430     0.1440    -0.6500 C.3   1 <1>  -0.1000 
  5 C        0.1180     2.8680    -0.1830 C.ar  1 <1>   0.1170 
  6 C       -3.7450     0.7070     0.0580 C.3   1 <1>  -0.2000 
  7 C       -3.2470    -0.6620     0.4040 C.3   1 <1>  -0.2000 
  8 C       -0.0770     4.2020     0.1820 C.ar  1 <1>  -0.1430 
  9 C        1.4180     2.4040    -0.3450 C.ar  1 <1>  -0.1500 
 10 C        1.0200     5.0250     0.3810 C.ar  1 <1>  -0.1500 
 11 C       -1.4740     4.7800     0.3760 C.3   1 <1>  -0.0970 
 12 C        2.5220     3.2180    -0.1450 C.ar  1 <1>   0.1170 
 13 C        2.3050     4.5410     0.2220 C.ar  1 <1>  -0.1500 
 14 N        3.7980     2.6580    -0.3120 N.am  1 <1>  -0.5470 
 15 C        5.0420     3.2140    -0.4040 C.2   1 <1>   0.6300 
 16 O        5.2650     4.3980    -0.3780 O.2   1 <1>  -0.5700 
 17 C        6.2120     2.2550    -0.5670 C.3   1 <1>  -0.1000 
 18 C        6.3250     0.9910     0.2390 C.3   1 <1>  -0.2000 
 19 C        7.2520     2.1340     0.5070 C.3   1 <1>  -0.2000 
 20 H       -1.8740     2.5440    -0.4940 H     1 <1>   0.3700 
 21 H       -2.6620    -0.1870    -1.6660 H     1 <1>   0.1000 
 22 H       -4.6730     0.7920    -0.4810 H     1 <1>   0.1000 
 23 H       -3.6280     1.4760     0.8020 H     1 <1>   0.1000 
 24 H       -2.7430    -0.8180     1.3430 H     1 <1>   0.1000 
 25 H       -3.8150    -1.5220     0.0950 H     1 <1>   0.1000 
 26 H        1.5820     1.3870    -0.6400 H     1 <1>   0.1500 
 27 H        0.8860     6.0550     0.6640 H     1 <1>   0.1500 
 28 H       -2.0110     4.2110     1.1140 H     1 <1>   0.0800 
 29 H       -2.0140     4.7600    -0.5540 H     1 <1>   0.0800 
 30 H       -1.4240     5.8000     0.7130 H     1 <1>   0.0800 
 31 H        3.1350     5.2010     0.3900 H     1 <1>   0.1500 
 32 H        3.8000     1.6430    -0.3900 H     1 <1>   0.3700 
 33 H        6.5640     2.2410    -1.5830 H     1 <1>   0.1000 
 34 H        6.7200     0.1080    -0.2330 H     1 <1>   0.1000 
 35 H        5.5890     0.7610     0.9920 H     1 <1>   0.1000 
 36 H        7.1240     2.7170     1.4040 H     1 <1>   0.1000 
 37 H        8.2850     2.0540     0.2130 H     1 <1>   0.1000 
@<TRIPOS>BOND
  1   1   2  2   
  2   2   3  am  
  3   2   4  1   
  4   3   5  1   
  5   3  20  1   
  6   4   6  1   
  7   4   7  1   
  8   4  21  1   
  9   5   8  ar  
 10   5   9  ar  
 11   6   7  1   
 12   6  22  1   
 13   6  23  1   
 14   7  24  1   
 15   7  25  1   
 16   8  10  ar  
 17   8  11  1   
 18   9  12  ar  
 19   9  26  1   
 20  10  13  ar  
 21  10  27  1   
 22  11  28  1   
 23  11  29  1   
 24  11  30  1   
 25  12  13  ar  
 26  12  14  1   
 27  13  31  1   
 28  14  15  am  
 29  14  32  1   
 30  15  16  2   
 31  15  17  1   
 32  17  18  1   
 33  17  19  1   
 34  17  33  1   
 35  18  19  1   
 36  18  34  1   
 37  18  35  1   
 38  19  36  1   
 39  19  37  1   
@<TRIPOS>SUBSTRUCTURE
  1 ****   9 GROUP 4 **** **** 0

# MOE 2024.06 (io_trps.svl 2023.06)
