@<TRIPOS>MOLECULE
NONAME
36 37 1 0 0 
SMALL
USER_CHARGES


@<TRIPOS>ATOM
  1 CL      -0.9790     3.1060     2.7090 Cl    1 <1>  -0.1770 
  2 C       -1.5360     2.8700     1.0660 C.ar  1 <1>   0.1770 
  3 C       -0.6870     3.1280    -0.0020 C.ar  1 <1>   0.0820 
  4 C       -2.8270     2.4250     0.8680 C.ar  1 <1>  -0.1500 
  5 O        0.5700     3.5570     0.2710 O.3   1 <1>  -0.3630 
  6 C       -1.1660     2.9320    -1.2930 C.ar  1 <1>  -0.1500 
  7 C       -3.3160     2.2280    -0.4170 C.ar  1 <1>  -0.0090 
  8 C        1.5540     3.7080    -0.7440 C.3   1 <1>   0.1810 
  9 C       -2.4640     2.4870    -1.4870 C.ar  1 <1>  -0.1500 
 10 S       -5.0090     1.6390    -0.6820 S.o2  1 <1>   1.4470 
 11 C        2.9020     4.0820    -0.1400 C.2   1 <1>   0.5690 
 12 O       -5.4120     1.9040    -2.0450 O.2   1 <1>  -0.6500 
 13 O       -5.1230     0.3000    -0.1480 O.2   1 <1>  -0.6500 
 14 N       -5.9240     2.6550     0.3200 N.am  1 <1>  -0.8490 
 15 O        3.8330     4.3080    -0.8690 O.2   1 <1>  -0.5700 
 16 N        3.0520     4.1550     1.1980 N.am  1 <1>  -0.8000 
 17 C       -7.2540     2.0860     0.5920 C.3   1 <1>   0.1960 
 18 C       -6.0820     4.0110    -0.2320 C.3   1 <1>   0.1960 
 19 C       -8.0830     3.0160     1.4970 C.3   1 <1>   0.1200 
 20 C       -6.9290     4.8930     0.7040 C.3   1 <1>   0.1200 
 21 O       -8.1730     4.2980     0.9420 O.3   1 <1>  -0.5600 
 22 H       -3.4570     2.2300     1.7200 H     1 <1>   0.1500 
 23 H       -0.5520     3.1180    -2.1550 H     1 <1>   0.1500 
 24 H        1.2370     4.4850    -1.4160 H     1 <1>   0.0800 
 25 H        1.6500     2.7770    -1.2710 H     1 <1>   0.0800 
 26 H       -2.8250     2.3350    -2.4920 H     1 <1>   0.1500 
 27 H        3.9500     4.4070     1.6090 H     1 <1>   0.3700 
 28 H        2.2720     3.9750     1.8360 H     1 <1>   0.3700 
 29 H       -7.1480     1.1330     1.0820 H     1 <1>   0.0800 
 30 H       -7.7840     1.9270    -0.3330 H     1 <1>   0.0800 
 31 H       -6.5650     3.9700    -1.1950 H     1 <1>   0.0800 
 32 H       -5.1150     4.4650    -0.3620 H     1 <1>   0.0800 
 33 H       -7.6320     3.0930     2.4710 H     1 <1>   0.0800 
 34 H       -9.0830     2.6340     1.6070 H     1 <1>   0.0800 
 35 H       -7.1060     5.8530     0.2530 H     1 <1>   0.0800 
 36 H       -6.4290     5.0360     1.6460 H     1 <1>   0.0800 
@<TRIPOS>BOND
  1   1   2  1   
  2   2   3  ar  
  3   2   4  ar  
  4   3   5  1   
  5   3   6  ar  
  6   4   7  ar  
  7   4  22  1   
  8   5   8  1   
  9   6   9  ar  
 10   6  23  1   
 11   7   9  ar  
 12   7  10  1   
 13   8  11  1   
 14   8  24  1   
 15   8  25  1   
 16   9  26  1   
 17  10  12  2   
 18  10  13  2   
 19  10  14  am  
 20  11  15  2   
 21  11  16  am  
 22  14  17  1   
 23  14  18  1   
 24  16  27  1   
 25  16  28  1   
 26  17  19  1   
 27  17  29  1   
 28  17  30  1   
 29  18  20  1   
 30  18  31  1   
 31  18  32  1   
 32  19  21  1   
 33  19  33  1   
 34  19  34  1   
 35  20  21  1   
 36  20  35  1   
 37  20  36  1   
@<TRIPOS>SUBSTRUCTURE
  1 ****   4 GROUP 4 **** **** 0

# MOE 2024.06 (io_trps.svl 2023.06)
