@<TRIPOS>MOLECULE
NONAME
28 28 1 0 0 
SMALL
USER_CHARGES


@<TRIPOS>ATOM
  1 CL      -1.6390     1.2610    -2.5020 Cl    1 <1>  -0.1770 
  2 C       -1.0490     2.1670    -1.1280 C.ar  1 <1>   0.1770 
  3 C       -1.6210     1.9950     0.1240 C.ar  1 <1>  -0.1440 
  4 C       -0.0100     3.0580    -1.3320 C.ar  1 <1>  -0.1500 
  5 C       -1.1350     2.7480     1.1830 C.ar  1 <1>  -0.1500 
  6 C       -2.7560     1.0130     0.3510 C.3   1 <1>   0.2840 
  7 C        0.4700     3.7990    -0.2660 C.ar  1 <1>  -0.1500 
  8 C       -0.0950     3.6430     0.9900 C.ar  1 <1>  -0.1500 
  9 N       -4.0260     1.6730    -0.0010 N.am  1 <1>  -0.7300 
 10 C       -5.1080     1.7500     0.8080 C.2   1 <1>   0.5690 
 11 O       -5.1290     1.2440     1.9020 O.2   1 <1>  -0.5700 
 12 C       -6.3280     2.5000     0.3120 C.3   1 <1>  -0.0990 
 13 C       -7.1280     1.6890    -0.7200 C.3   1 <1>  -0.1600 
 14 C       -8.3580     2.4610    -1.2060 C.3   1 <1>  -0.2400 
 15 H        0.4150     3.1680    -2.3130 H     1 <1>   0.1500 
 16 H       -1.5680     2.6410     2.1640 H     1 <1>   0.1500 
 17 H       -2.7740     0.7020     1.3820 H     1 <1>   0.0800 
 18 H       -2.6270     0.1340    -0.2570 H     1 <1>   0.0800 
 19 H        1.2780     4.4950    -0.4110 H     1 <1>   0.1500 
 20 H        0.2750     4.2210     1.8190 H     1 <1>   0.1500 
 21 H       -4.0360     2.1210    -0.9170 H     1 <1>   0.3700 
 22 H       -6.0100     3.4320    -0.1170 H     1 <1>   0.0800 
 23 H       -6.9550     2.7230     1.1570 H     1 <1>   0.0800 
 24 H       -7.4430     0.7610    -0.2720 H     1 <1>   0.0800 
 25 H       -6.5000     1.4530    -1.5630 H     1 <1>   0.0800 
 26 H       -9.0130     2.6830    -0.3810 H     1 <1>   0.0800 
 27 H       -8.9030     1.8720    -1.9230 H     1 <1>   0.0800 
 28 H       -8.0650     3.3840    -1.6750 H     1 <1>   0.0800 
@<TRIPOS>BOND
  1   1   2  1   
  2   2   3  ar  
  3   2   4  ar  
  4   3   5  ar  
  5   3   6  1   
  6   4   7  ar  
  7   4  15  1   
  8   5   8  ar  
  9   5  16  1   
 10   6   9  1   
 11   6  17  1   
 12   6  18  1   
 13   7   8  ar  
 14   7  19  1   
 15   8  20  1   
 16   9  10  am  
 17   9  21  1   
 18  10  11  2   
 19  10  12  1   
 20  12  13  1   
 21  12  22  1   
 22  12  23  1   
 23  13  14  1   
 24  13  24  1   
 25  13  25  1   
 26  14  26  1   
 27  14  27  1   
 28  14  28  1   
@<TRIPOS>SUBSTRUCTURE
  1 ****   9 GROUP 4 **** **** 0

# MOE 2024.06 (io_trps.svl 2023.06)
