@<TRIPOS>MOLECULE
NONAME
58 61 1 0 0 
SMALL
USER_CHARGES


@<TRIPOS>ATOM
  1 S        0.2160    -0.8520    -2.0740 S.o2  1 <1>   1.4470 
  2 O       -0.0960    -1.5200    -3.3210 O.2   1 <1>  -0.6500 
  3 O        0.2910     0.5930    -2.0440 O.2   1 <1>  -0.6500 
  4 N        1.7370    -1.4260    -1.5940 N.am  1 <1>  -0.8490 
  5 C       -0.8810    -1.4300    -0.7490 C.ar  1 <1>  -0.0090 
  6 C        1.8520    -2.8810    -1.7030 C.3   1 <1>   0.1960 
  7 C        2.8130    -0.7570    -2.3370 C.3   1 <1>   0.1960 
  8 C       -2.0320    -2.1570    -1.0290 C.ar  1 <1>  -0.1500 
  9 C       -0.5910    -1.1620     0.5830 C.ar  1 <1>  -0.1500 
 10 C        3.1180    -3.3740    -0.9840 C.3   1 <1>  -0.1600 
 11 C        4.1950    -1.3710    -2.0450 C.3   1 <1>  -0.1600 
 12 C       -2.8620    -2.6040    -0.0150 C.ar  1 <1>  -0.1500 
 13 C       -1.4160    -1.6060     1.6020 C.ar  1 <1>  -0.1500 
 14 C        4.1850    -2.2690    -0.7960 C.3   1 <1>  -0.0190 
 15 C       -2.5580    -2.3300     1.3070 C.ar  1 <1>  -0.1430 
 16 C        5.5860    -2.8030    -0.4730 C.2   1 <1>   0.5690 
 17 C       -3.4660    -2.8190     2.4210 C.3   1 <1>  -0.0970 
 18 O        5.9020    -3.8780    -0.9310 O.2   1 <1>  -0.5700 
 19 N        6.4650    -2.0780     0.2970 N.am  1 <1>  -0.6600 
 20 C        6.2720    -0.6710     0.7850 C.3   1 <1>   0.1400 
 21 C        7.8090    -2.6340     0.6660 C.3   1 <1>   0.1400 
 22 C        7.4250     0.2460     0.3410 C.3   1 <1>   0.2090 
 23 C        8.9480    -1.7050     0.2130 C.3   1 <1>   0.2090 
 24 N        8.7500    -0.3210     0.7330 N.pl3 1 <1>  -0.8380 
 25 C        9.8490     0.5160     0.7030 C.ar  1 <1>   0.4100 
 26 N        9.8520     1.4910    -0.1990 N.ar  1 <1>  -0.6200 
 27 C       10.8950     0.3030     1.5980 C.ar  1 <1>  -0.1500 
 28 C       10.9250     2.2650    -0.2090 C.ar  1 <1>   0.1600 
 29 C       12.0040     1.1150     1.5770 C.ar  1 <1>  -0.1500 
 30 C       12.0100     2.1260     0.6370 C.ar  1 <1>  -0.1500 
 31 H        1.8930    -3.1590    -2.7450 H     1 <1>   0.0800 
 32 H        0.9920    -3.3610    -1.2670 H     1 <1>   0.0800 
 33 H        2.8260     0.2830    -2.0560 H     1 <1>   0.0800 
 34 H        2.6160    -0.8080    -3.3960 H     1 <1>   0.0800 
 35 H       -2.2830    -2.3770    -2.0530 H     1 <1>   0.1500 
 36 H        0.2950    -0.5980     0.8230 H     1 <1>   0.1500 
 37 H        3.5160    -4.1920    -1.5570 H     1 <1>   0.0800 
 38 H        2.8500    -3.7670    -0.0200 H     1 <1>   0.0800 
 39 H        4.9160    -0.5810    -1.9380 H     1 <1>   0.0800 
 40 H        4.4980    -1.9600    -2.8930 H     1 <1>   0.0800 
 41 H       -3.7460    -3.1660    -0.2610 H     1 <1>   0.1500 
 42 H       -1.1650    -1.3840     2.6240 H     1 <1>   0.1500 
 43 H        3.8530    -1.6810     0.0400 H     1 <1>   0.0800 
 44 H       -3.1560    -3.7980     2.7410 H     1 <1>   0.0800 
 45 H       -4.4850    -2.8720     2.0800 H     1 <1>   0.0800 
 46 H       -3.4250    -2.1500     3.2610 H     1 <1>   0.0800 
 47 H        6.2320    -0.6780     1.8600 H     1 <1>   0.0800 
 48 H        5.3530    -0.2500     0.4250 H     1 <1>   0.0800 
 49 H        7.9570    -3.6040     0.2270 H     1 <1>   0.0800 
 50 H        7.8580    -2.7490     1.7340 H     1 <1>   0.0800 
 51 H        7.3070     1.2160     0.7920 H     1 <1>   0.0800 
 52 H        7.3940     0.3710    -0.7280 H     1 <1>   0.0800 
 53 H        8.9810    -1.6800    -0.8630 H     1 <1>   0.0800 
 54 H        9.8870    -2.0960     0.5650 H     1 <1>   0.0800 
 55 H       10.8130    -0.5000     2.3050 H     1 <1>   0.1500 
 56 H       10.9400     3.0580    -0.9370 H     1 <1>   0.1500 
 57 H       12.8250     0.9720     2.2570 H     1 <1>   0.1500 
 58 H       12.8450     2.7990     0.5640 H     1 <1>   0.1500 
@<TRIPOS>BOND
  1   1   2  2   
  2   1   3  2   
  3   1   4  am  
  4   1   5  1   
  5   4   6  1   
  6   4   7  1   
  7   5   8  ar  
  8   5   9  ar  
  9   6  10  1   
 10   6  31  1   
 11   6  32  1   
 12   7  11  1   
 13   7  33  1   
 14   7  34  1   
 15   8  12  ar  
 16   8  35  1   
 17   9  13  ar  
 18   9  36  1   
 19  10  14  1   
 20  10  37  1   
 21  10  38  1   
 22  11  14  1   
 23  11  39  1   
 24  11  40  1   
 25  12  15  ar  
 26  12  41  1   
 27  13  15  ar  
 28  13  42  1   
 29  14  16  1   
 30  14  43  1   
 31  15  17  1   
 32  16  18  2   
 33  16  19  am  
 34  17  44  1   
 35  17  45  1   
 36  17  46  1   
 37  19  20  1   
 38  19  21  1   
 39  20  22  1   
 40  20  47  1   
 41  20  48  1   
 42  21  23  1   
 43  21  49  1   
 44  21  50  1   
 45  22  24  1   
 46  22  51  1   
 47  22  52  1   
 48  23  24  1   
 49  23  53  1   
 50  23  54  1   
 51  24  25  1   
 52  25  26  ar  
 53  25  27  ar  
 54  26  28  ar  
 55  27  29  ar  
 56  27  55  1   
 57  28  30  ar  
 58  28  56  1   
 59  29  30  ar  
 60  29  57  1   
 61  30  58  1   
@<TRIPOS>SUBSTRUCTURE
  1 ****  14 GROUP 4 **** **** 0

# MOE 2024.06 (io_trps.svl 2023.06)
