@<TRIPOS>MOLECULE
NONAME
32 33 1 0 0 
SMALL
USER_CHARGES


@<TRIPOS>ATOM
  1 O       -4.3820    -2.6070     0.5780 O.co2 1 <1>  -0.9000 
  2 C       -3.7680    -1.5430     0.6870 C.2   1 <1>   0.9060 
  3 O       -2.9540    -1.3030     1.5970 O.co2 1 <1>  -0.9000 
  4 C       -3.8580    -0.4580    -0.4080 C.3   1 <1>   0.4600 
  5 N       -2.6120     0.3940    -0.3130 N.4   1 <1>  -0.9060 
  6 C       -5.1460     0.3720    -0.3000 C.ar  1 <1>  -0.1430 
  7 C       -2.7350     1.8170    -0.6940 C.3   1 <1>   0.3430 
  8 C       -5.1480     1.7410    -0.0620 C.ar  1 <1>  -0.1430 
  9 C       -6.3570    -0.2870    -0.4500 C.ar  1 <1>  -0.1500 
 10 C       -3.8390     2.4840     0.1210 C.3   1 <1>  -0.0170 
 11 C       -6.3470     2.4340     0.0130 C.ar  1 <1>  -0.1500 
 12 C       -7.5650     0.3960    -0.3690 C.ar  1 <1>   0.0830 
 13 C       -7.5620     1.7730    -0.1440 C.ar  1 <1>   0.0830 
 14 O       -8.7630    -0.2420    -0.4980 O.3   1 <1>  -0.3630 
 15 O       -8.7630     2.4170    -0.0800 O.3   1 <1>  -0.3630 
 16 C       -8.8700    -1.6260    -0.2410 C.3   1 <1>   0.0400 
 17 C       -8.8630     3.7810     0.2600 C.3   1 <1>   0.0400 
 18 H       -3.8700    -0.9690    -1.3540 H     1 <1>   0.0800 
 19 H       -1.8470    -0.1010    -0.7750 H     1 <1>   0.4500 
 20 H       -2.4080     0.2650     0.7050 H     1 <1>   0.4500 
 21 H       -2.9770     1.8890    -1.7420 H     1 <1>   0.0800 
 22 H       -1.8000     2.3260    -0.5210 H     1 <1>   0.0800 
 23 H       -6.3500    -1.3490    -0.6270 H     1 <1>   0.1500 
 24 H       -3.9440     3.5030    -0.2060 H     1 <1>   0.0800 
 25 H       -3.5710     2.4930     1.1630 H     1 <1>   0.0800 
 26 H       -6.3250     3.4900     0.1970 H     1 <1>   0.1500 
 27 H       -9.9140    -1.8760    -0.1950 H     1 <1>   0.0800 
 28 H       -8.3980    -1.8450     0.7010 H     1 <1>   0.0800 
 29 H       -8.4000    -2.1680    -1.0410 H     1 <1>   0.0800 
 30 H       -9.9070     4.0390     0.2880 H     1 <1>   0.0800 
 31 H       -8.3640     4.3660    -0.4910 H     1 <1>   0.0800 
 32 H       -8.4230     3.9320     1.2290 H     1 <1>   0.0800 
@<TRIPOS>BOND
  1   1   2  ar  
  2   2   3  ar  
  3   2   4  1   
  4   4   5  1   
  5   4   6  1   
  6   4  18  1   
  7   5   7  1   
  8   5  19  1   
  9   5  20  1   
 10   6   8  ar  
 11   6   9  ar  
 12   7  10  1   
 13   7  21  1   
 14   7  22  1   
 15   8  10  1   
 16   8  11  ar  
 17   9  12  ar  
 18   9  23  1   
 19  10  24  1   
 20  10  25  1   
 21  11  13  ar  
 22  11  26  1   
 23  12  13  ar  
 24  12  14  1   
 25  13  15  1   
 26  14  16  1   
 27  15  17  1   
 28  16  27  1   
 29  16  28  1   
 30  16  29  1   
 31  17  30  1   
 32  17  31  1   
 33  17  32  1   
@<TRIPOS>SUBSTRUCTURE
  1 ****   6 GROUP 4 **** **** 0

# MOE 2024.06 (io_trps.svl 2023.06)
