@<TRIPOS>MOLECULE
NONAME
38 39 1 0 0 
SMALL
USER_CHARGES


@<TRIPOS>ATOM
  1 O       -0.3580    -0.4120     1.3950 O.2   1 <1>  -0.5700 
  2 C       -0.2660    -1.4260     0.7230 C.2   1 <1>   0.7160 
  3 N       -1.2990    -1.7630    -0.1070 N.am  1 <1>  -0.7300 
  4 C        0.9080    -2.2840     0.7760 C.2   1 <1>   0.2030 
  5 C       -2.5650    -1.0310    -0.2940 C.3   1 <1>   0.1400 
  6 N        1.0830    -3.3920     0.0740 N.2   1 <1>  -0.7070 
  7 C        2.0240    -2.0500     1.5880 C.2   1 <1>  -0.1500 
  8 C       -3.7340    -1.9910    -0.0770 C.3   1 <1>  -0.1600 
  9 N        2.2900    -3.8560     0.4280 N.pl3 1 <1>   0.3140 
 10 C        2.8770    -3.0620     1.3430 C.2   1 <1>  -0.3020 
 11 C       -5.0780    -1.2700    -0.2260 C.3   1 <1>  -0.0170 
 12 C        2.8560    -5.0960    -0.1420 C.3   1 <1>   0.0960 
 13 C       -6.2290    -2.2410    -0.0200 C.ar  1 <1>  -0.1430 
 14 C        3.8850    -4.7830    -1.2360 C.3   1 <1>  -0.2400 
 15 C       -6.7110    -2.4920     1.2560 C.ar  1 <1>  -0.1500 
 16 C       -6.8070    -2.8850    -1.1030 C.ar  1 <1>  -0.1500 
 17 C       -7.7600    -3.3750     1.4470 C.ar  1 <1>  -0.1500 
 18 C       -7.8560    -3.7690    -0.9140 C.ar  1 <1>  -0.1500 
 19 C       -8.3330    -4.0140     0.3610 C.ar  1 <1>  -0.1500 
 20 H       -1.1590    -2.6250    -0.6430 H     1 <1>   0.3700 
 21 H       -2.5940    -0.6260    -1.2910 H     1 <1>   0.0800 
 22 H       -2.6230    -0.2160     0.4080 H     1 <1>   0.0800 
 23 H        2.1330    -1.2130     2.2570 H     1 <1>   0.1500 
 24 H       -3.6690    -2.4120     0.9120 H     1 <1>   0.0800 
 25 H       -3.6820    -2.7910    -0.7940 H     1 <1>   0.0800 
 26 H        3.8480    -3.2590     1.7570 H     1 <1>   0.1500 
 27 H       -5.1510    -0.8290    -1.2040 H     1 <1>   0.0800 
 28 H       -5.1480    -0.4760     0.4970 H     1 <1>   0.0800 
 29 H        2.0480    -5.6750    -0.5530 H     1 <1>   0.0800 
 30 H        3.3120    -5.6590     0.6510 H     1 <1>   0.0800 
 31 H        3.4210    -4.2220    -2.0280 H     1 <1>   0.0800 
 32 H        4.2710    -5.6990    -1.6460 H     1 <1>   0.0800 
 33 H        4.7040    -4.2160    -0.8310 H     1 <1>   0.0800 
 34 H       -6.2700    -2.0020     2.1060 H     1 <1>   0.1500 
 35 H       -6.4420    -2.7030    -2.0980 H     1 <1>   0.1500 
 36 H       -8.1290    -3.5650     2.4390 H     1 <1>   0.1500 
 37 H       -8.3010    -4.2650    -1.7590 H     1 <1>   0.1500 
 38 H       -9.1480    -4.7010     0.5090 H     1 <1>   0.1500 
@<TRIPOS>BOND
  1   1   2  2   
  2   2   3  am  
  3   2   4  1   
  4   3   5  1   
  5   3  20  1   
  6   4   6  2   
  7   4   7  1   
  8   5   8  1   
  9   5  21  1   
 10   5  22  1   
 11   6   9  1   
 12   7  10  2   
 13   7  23  1   
 14   8  11  1   
 15   8  24  1   
 16   8  25  1   
 17   9  10  1   
 18   9  12  1   
 19  10  26  1   
 20  11  13  1   
 21  11  27  1   
 22  11  28  1   
 23  12  14  1   
 24  12  29  1   
 25  12  30  1   
 26  13  15  ar  
 27  13  16  ar  
 28  14  31  1   
 29  14  32  1   
 30  14  33  1   
 31  15  17  ar  
 32  15  34  1   
 33  16  18  ar  
 34  16  35  1   
 35  17  19  ar  
 36  17  36  1   
 37  18  19  ar  
 38  18  37  1   
 39  19  38  1   
@<TRIPOS>SUBSTRUCTURE
  1 ****   3 GROUP 4 **** **** 0

# MOE 2024.06 (io_trps.svl 2023.06)
