@<TRIPOS>MOLECULE
NONAME
52 53 1 0 0 
SMALL
USER_CHARGES


@<TRIPOS>ATOM
  1 O        0.6040    -6.6320    -0.2460 O.3   1 <1>  -0.3630 
  2 C       -0.6210    -7.1990    -0.3830 C.ar  1 <1>   0.0830 
  3 C        1.7600    -7.4180    -0.0810 C.3   1 <1>   0.1200 
  4 C       -1.6950    -6.3360    -0.5330 C.ar  1 <1>  -0.1500 
  5 C       -0.8440    -8.5730    -0.3790 C.ar  1 <1>  -0.1500 
  6 C        2.9550    -6.4760     0.0500 C.3   1 <1>  -0.1600 
  7 C       -2.9880    -6.8160    -0.6790 C.ar  1 <1>  -0.1440 
  8 C       -2.1300    -9.0610    -0.5240 C.ar  1 <1>  -0.1500 
  9 C        4.2490    -7.2610     0.2810 C.3   1 <1>   0.1100 
 10 C       -3.1940    -8.1890    -0.6730 C.ar  1 <1>  -0.1500 
 11 C       -4.1490    -5.8380    -0.8420 C.3   1 <1>   0.0640 
 12 N        5.4180    -6.3690     0.2110 N.3   1 <1>  -0.8100 
 13 C       -5.1490    -5.9790     0.3110 C.3   1 <1>  -0.2400 
 14 C       -4.8440    -6.0340    -2.1930 C.3   1 <1>  -0.2400 
 15 C        5.5260    -5.4660     1.3870 C.3   1 <1>   0.1100 
 16 C        6.6720    -7.1400     0.0390 C.3   1 <1>   0.1100 
 17 C        6.8050    -4.5910     1.3510 C.3   1 <1>   0.3430 
 18 C        7.9080    -6.2200    -0.1240 C.3   1 <1>   0.3430 
 19 N        7.5430    -4.7740     0.0610 N.4   1 <1>  -0.9590 
 20 C        8.6630    -3.8180    -0.1100 C.3   1 <1>   0.3430 
 21 C        9.1110    -3.8050    -1.5670 C.3   1 <1>  -0.2400 
 22 H        1.8630    -8.0530    -0.9440 H     1 <1>   0.0800 
 23 H        1.6390    -8.0110     0.8100 H     1 <1>   0.0800 
 24 H       -1.5010    -5.2790    -0.5330 H     1 <1>   0.1500 
 25 H       -0.0390    -9.2720    -0.2670 H     1 <1>   0.1500 
 26 H        2.7710    -5.8130     0.8740 H     1 <1>   0.0800 
 27 H        3.0440    -5.9050    -0.8580 H     1 <1>   0.0800 
 28 H       -2.3050   -10.1230    -0.5220 H     1 <1>   0.1500 
 29 H        4.3310    -8.0070    -0.4940 H     1 <1>   0.0800 
 30 H        4.2170    -7.7680     1.2320 H     1 <1>   0.0800 
 31 H       -4.1870    -8.5860    -0.7840 H     1 <1>   0.1500 
 32 H       -3.7600    -4.8340    -0.8170 H     1 <1>   0.0800 
 33 H       -5.6060    -6.9510     0.3050 H     1 <1>   0.0800 
 34 H       -5.9200    -5.2340     0.2280 H     1 <1>   0.0800 
 35 H       -4.6420    -5.8440     1.2500 H     1 <1>   0.0800 
 36 H       -5.2950    -7.0080    -2.2540 H     1 <1>   0.0800 
 37 H       -4.1260    -5.9390    -2.9880 H     1 <1>   0.0800 
 38 H       -5.6090    -5.2910    -2.3300 H     1 <1>   0.0800 
 39 H        5.5190    -6.0410     2.2970 H     1 <1>   0.0800 
 40 H        4.6740    -4.8090     1.4140 H     1 <1>   0.0800 
 41 H        6.5940    -7.7650    -0.8340 H     1 <1>   0.0800 
 42 H        6.8220    -7.7870     0.8870 H     1 <1>   0.0800 
 43 H        7.4410    -4.8600     2.1790 H     1 <1>   0.0800 
 44 H        6.5230    -3.5580     1.4740 H     1 <1>   0.0800 
 45 H        8.3180    -6.3690    -1.1090 H     1 <1>   0.0800 
 46 H        8.6620    -6.5070     0.5900 H     1 <1>   0.0800 
 47 H        6.8210    -4.6080    -0.6590 H     1 <1>   0.4500 
 48 H        9.4870    -4.0900     0.5300 H     1 <1>   0.0800 
 49 H        8.3360    -2.8270     0.1620 H     1 <1>   0.0800 
 50 H        9.5430    -4.7460    -1.8550 H     1 <1>   0.0800 
 51 H        9.8640    -3.0480    -1.6960 H     1 <1>   0.0800 
 52 H        8.2880    -3.5680    -2.2180 H     1 <1>   0.0800 
@<TRIPOS>BOND
  1   1   2  1   
  2   1   3  1   
  3   2   4  ar  
  4   2   5  ar  
  5   3   6  1   
  6   3  22  1   
  7   3  23  1   
  8   4   7  ar  
  9   4  24  1   
 10   5   8  ar  
 11   5  25  1   
 12   6   9  1   
 13   6  26  1   
 14   6  27  1   
 15   7  10  ar  
 16   7  11  1   
 17   8  10  ar  
 18   8  28  1   
 19   9  12  1   
 20   9  29  1   
 21   9  30  1   
 22  10  31  1   
 23  11  13  1   
 24  11  14  1   
 25  11  32  1   
 26  12  15  1   
 27  12  16  1   
 28  13  33  1   
 29  13  34  1   
 30  13  35  1   
 31  14  36  1   
 32  14  37  1   
 33  14  38  1   
 34  15  17  1   
 35  15  39  1   
 36  15  40  1   
 37  16  18  1   
 38  16  41  1   
 39  16  42  1   
 40  17  19  1   
 41  17  43  1   
 42  17  44  1   
 43  18  19  1   
 44  18  45  1   
 45  18  46  1   
 46  19  20  1   
 47  19  47  1   
 48  20  21  1   
 49  20  48  1   
 50  20  49  1   
 51  21  50  1   
 52  21  51  1   
 53  21  52  1   
@<TRIPOS>SUBSTRUCTURE
  1 ****   6 GROUP 4 **** **** 0

# MOE 2024.06 (io_trps.svl 2023.06)
