@<TRIPOS>MOLECULE
NONAME
42 42 1 0 0 
SMALL
USER_CHARGES


@<TRIPOS>ATOM
  1 N        0.0200     0.0360     0.0770 N.4   1 <1>  -0.9590 
  2 C        1.2280     0.8980    -0.1520 C.3   1 <1>   0.4230 
  3 C       -1.2400     0.8240    -0.2000 C.3   1 <1>   0.3430 
  4 C        0.0280    -0.6140     1.4380 C.3   1 <1>   0.2630 
  5 C        2.4720     0.0240    -0.4010 C.3   1 <1>  -0.1600 
  6 C        1.4640     1.9180     0.9730 C.3   1 <1>  -0.1600 
  7 C       -2.5440    -0.0250    -0.2450 C.3   1 <1>   0.3430 
  8 C        3.7960     0.7470    -0.0730 C.3   1 <1>  -0.0800 
  9 C        2.5900     2.8960     0.5860 C.3   1 <1>  -0.1600 
 10 N       -3.7850     0.7480    -0.6320 N.4   1 <1>  -0.9590 
 11 C        3.6720     2.2600    -0.3080 C.3   1 <1>  -0.1600 
 12 C        4.9530     0.1600    -0.8890 C.3   1 <1>  -0.2400 
 13 C       -4.1740     1.8050     0.3630 C.3   1 <1>   0.2630 
 14 C       -4.9440    -0.1910    -0.8170 C.3   1 <1>   0.2630 
 15 H        0.1170    -0.7150    -0.6250 H     1 <1>   0.4500 
 16 H        1.0740     1.4690    -1.0540 H     1 <1>   0.0800 
 17 H       -1.1290     1.3190    -1.1510 H     1 <1>   0.0800 
 18 H       -1.3470     1.5830     0.5570 H     1 <1>   0.0800 
 19 H       -0.0810     0.1290     2.2120 H     1 <1>   0.0800 
 20 H        0.9580    -1.1350     1.6020 H     1 <1>   0.0800 
 21 H       -0.7750    -1.3280     1.5270 H     1 <1>   0.0800 
 22 H        2.4720    -0.2490    -1.4420 H     1 <1>   0.0800 
 23 H        2.4480    -0.8820     0.1760 H     1 <1>   0.0800 
 24 H        1.7680     1.4070     1.8700 H     1 <1>   0.0800 
 25 H        0.5780     2.4870     1.1860 H     1 <1>   0.0800 
 26 H       -2.7020    -0.4730     0.7220 H     1 <1>   0.0800 
 27 H       -2.4020    -0.8200    -0.9590 H     1 <1>   0.0800 
 28 H        4.0240     0.5960     0.9710 H     1 <1>   0.0800 
 29 H        3.0490     3.2650     1.4890 H     1 <1>   0.0800 
 30 H        2.1800     3.7490     0.0710 H     1 <1>   0.0800 
 31 H       -3.6430     1.2100    -1.5480 H     1 <1>   0.4500 
 32 H        3.4360     2.4390    -1.3440 H     1 <1>   0.0800 
 33 H        4.6160     2.7420    -0.1120 H     1 <1>   0.0800 
 34 H        4.8000     0.3150    -1.9430 H     1 <1>   0.0800 
 35 H        5.0460    -0.8960    -0.7050 H     1 <1>   0.0800 
 36 H        5.8800     0.6300    -0.6100 H     1 <1>   0.0800 
 37 H       -4.3640     1.3650     1.3290 H     1 <1>   0.0800 
 38 H       -5.0720     2.3090     0.0400 H     1 <1>   0.0800 
 39 H       -3.3940     2.5430     0.4650 H     1 <1>   0.0800 
 40 H       -5.1720    -0.6990     0.1060 H     1 <1>   0.0800 
 41 H       -4.7180    -0.9290    -1.5710 H     1 <1>   0.0800 
 42 H       -5.8210     0.3540    -1.1310 H     1 <1>   0.0800 
@<TRIPOS>BOND
  1   1   2  1   
  2   1   3  1   
  3   1   4  1   
  4   1  15  1   
  5   2   5  1   
  6   2   6  1   
  7   2  16  1   
  8   3   7  1   
  9   3  17  1   
 10   3  18  1   
 11   4  19  1   
 12   4  20  1   
 13   4  21  1   
 14   5   8  1   
 15   5  22  1   
 16   5  23  1   
 17   6   9  1   
 18   6  24  1   
 19   6  25  1   
 20   7  10  1   
 21   7  26  1   
 22   7  27  1   
 23   8  11  1   
 24   8  12  1   
 25   8  28  1   
 26   9  11  1   
 27   9  29  1   
 28   9  30  1   
 29  10  13  1   
 30  10  14  1   
 31  10  31  1   
 32  11  32  1   
 33  11  33  1   
 34  12  34  1   
 35  12  35  1   
 36  12  36  1   
 37  13  37  1   
 38  13  38  1   
 39  13  39  1   
 40  14  40  1   
 41  14  41  1   
 42  14  42  1   
@<TRIPOS>SUBSTRUCTURE
  1 ****   1 GROUP 4 **** **** 0

# MOE 2024.06 (io_trps.svl 2023.06)
