@<TRIPOS>MOLECULE
NONAME
39 39 1 0 0 
SMALL
USER_CHARGES


@<TRIPOS>ATOM
  1 O        0.4270     1.8760    -2.4500 O.2   1 <1>  -0.5700 
  2 C       -0.3060     1.5120    -1.5630 C.2   1 <1>   0.5690 
  3 N        0.1320     0.9040    -0.4290 N.am  1 <1>  -0.7300 
  4 C       -1.7990     1.7510    -1.7210 C.3   1 <1>   0.0440 
  5 C        1.5000     0.7920     0.0920 C.3   1 <1>   0.5000 
  6 C       -2.5850     1.4730    -0.4360 C.ar  1 <1>  -0.1440 
  7 C        2.0460     2.1820     0.2220 C.1   1 <1>  -0.2000 
  8 C        1.3300     0.1790     1.5030 C.3   1 <1>  -0.1600 
  9 C        2.3360    -0.1180    -0.8490 C.3   1 <1>  -0.1600 
 10 C       -2.5950     2.3690     0.6310 C.ar  1 <1>  -0.1440 
 11 C       -3.2840     0.2790    -0.3320 C.ar  1 <1>  -0.1500 
 12 C        2.4710     3.2890     0.3230 C.1   1 <1>  -0.1770 
 13 C        2.6160    -0.0830     2.3080 C.3   1 <1>  -0.2400 
 14 C        3.8620     0.1090    -0.8650 C.3   1 <1>  -0.2400 
 15 C       -3.3040     2.0520     1.7800 C.ar  1 <1>  -0.1500 
 16 C       -1.8460     3.6950     0.5780 C.3   1 <1>  -0.0970 
 17 C       -3.9870    -0.0290     0.8180 C.ar  1 <1>  -0.1500 
 18 C       -3.9960     0.8590     1.8760 C.ar  1 <1>  -0.1500 
 19 H       -0.5800     0.7290     0.2820 H     1 <1>   0.3700 
 20 H       -2.1510     1.1210    -2.5150 H     1 <1>   0.0800 
 21 H       -1.9510     2.7660    -2.0350 H     1 <1>   0.0800 
 22 H        0.8020    -0.7540     1.4150 H     1 <1>   0.0800 
 23 H        0.7160     0.8460     2.0840 H     1 <1>   0.0800 
 24 H        2.0040     0.0220    -1.8610 H     1 <1>   0.0800 
 25 H        2.1410    -1.1450    -0.5990 H     1 <1>   0.0800 
 26 H       -3.2840    -0.4240    -1.1460 H     1 <1>   0.1500 
 27 H        2.8550     4.2900     0.3970 H     1 <1>   0.1770 
 28 H        3.1870    -0.8790     1.8660 H     1 <1>   0.0800 
 29 H        2.3610    -0.3780     3.3110 H     1 <1>   0.0800 
 30 H        3.2240     0.8030     2.3620 H     1 <1>   0.0800 
 31 H        4.0880     1.0820    -1.2670 H     1 <1>   0.0800 
 32 H        4.3310    -0.6250    -1.4950 H     1 <1>   0.0800 
 33 H        4.2900     0.0380     0.1160 H     1 <1>   0.0800 
 34 H       -3.3220     2.7340     2.6120 H     1 <1>   0.1500 
 35 H       -0.7980     3.5310     0.4000 H     1 <1>   0.0800 
 36 H       -1.9440     4.2320     1.5040 H     1 <1>   0.0800 
 37 H       -2.2410     4.3120    -0.2080 H     1 <1>   0.0800 
 38 H       -4.5260    -0.9580     0.8890 H     1 <1>   0.1500 
 39 H       -4.5430     0.6240     2.7730 H     1 <1>   0.1500 
@<TRIPOS>BOND
  1   1   2  2   
  2   2   3  am  
  3   2   4  1   
  4   3   5  1   
  5   3  19  1   
  6   4   6  1   
  7   4  20  1   
  8   4  21  1   
  9   5   7  1   
 10   5   8  1   
 11   5   9  1   
 12   6  10  ar  
 13   6  11  ar  
 14   7  12  3   
 15   8  13  1   
 16   8  22  1   
 17   8  23  1   
 18   9  14  1   
 19   9  24  1   
 20   9  25  1   
 21  10  15  ar  
 22  10  16  1   
 23  11  17  ar  
 24  11  26  1   
 25  12  27  1   
 26  13  28  1   
 27  13  29  1   
 28  13  30  1   
 29  14  31  1   
 30  14  32  1   
 31  14  33  1   
 32  15  18  ar  
 33  15  34  1   
 34  16  35  1   
 35  16  36  1   
 36  16  37  1   
 37  17  18  ar  
 38  17  38  1   
 39  18  39  1   
@<TRIPOS>SUBSTRUCTURE
  1 ****   3 GROUP 4 **** **** 0

# MOE 2024.06 (io_trps.svl 2023.06)
