@<TRIPOS>MOLECULE
NONAME
37 38 1 0 0 
SMALL
USER_CHARGES


@<TRIPOS>ATOM
  1 S       -0.4690    -1.3620    -0.4030 S.o2  1 <1>   1.2040 
  2 O       -0.3730    -2.7980    -0.5140 O.2   1 <1>  -0.6500 
  3 O       -1.3380    -0.6460    -1.3150 O.2   1 <1>  -0.6500 
  4 C        1.1550    -0.5830    -0.2660 C.ar  1 <1>  -0.0090 
  5 C       -1.1890    -1.0850     1.2000 C.3   1 <1>  -0.0550 
  6 C        2.2480    -1.2930     0.2180 C.ar  1 <1>  -0.1500 
  7 C        1.3410     0.7520    -0.6070 C.ar  1 <1>  -0.1500 
  8 C       -2.5410    -1.7900     1.2600 C.3   1 <1>   0.3430 
  9 C        3.4850    -0.6890     0.3660 C.ar  1 <1>  -0.1500 
 10 C        2.5750     1.3620    -0.4630 C.ar  1 <1>  -0.1500 
 11 N       -3.5320    -1.1940     0.3100 N.4   1 <1>  -0.9590 
 12 C        3.6480     0.6410     0.0270 C.ar  1 <1>  -0.1500 
 13 C       -4.1360     0.0780     0.8020 C.3   1 <1>   0.3430 
 14 C       -4.5710    -2.1920    -0.0750 C.3   1 <1>   0.3430 
 15 C       -4.9920     0.6960    -0.3050 C.3   1 <1>  -0.1600 
 16 C       -5.4390    -1.6180    -1.1970 C.3   1 <1>  -0.1600 
 17 C       -6.0700    -0.2770    -0.8000 C.3   1 <1>  -0.1600 
 18 H       -1.2980    -0.0370     1.4000 H     1 <1>   0.0800 
 19 H       -0.5510    -1.5060     1.9530 H     1 <1>   0.0800 
 20 H        2.1400    -2.3330     0.4790 H     1 <1>   0.1500 
 21 H        0.5180     1.3270    -0.9980 H     1 <1>   0.1500 
 22 H       -2.9320    -1.7500     2.2630 H     1 <1>   0.0800 
 23 H       -2.3860    -2.8290     1.0070 H     1 <1>   0.0800 
 24 H        4.3220    -1.2540     0.7400 H     1 <1>   0.1500 
 25 H        2.7040     2.3960    -0.7340 H     1 <1>   0.1500 
 26 H       -3.0310    -0.9600    -0.5760 H     1 <1>   0.4500 
 27 H        4.6100     1.1130     0.1390 H     1 <1>   0.1500 
 28 H       -3.3620     0.7750     1.0810 H     1 <1>   0.0800 
 29 H       -4.7500    -0.1180     1.6660 H     1 <1>   0.0800 
 30 H       -5.1890    -2.4270     0.7770 H     1 <1>   0.0800 
 31 H       -4.1020    -3.1000    -0.4190 H     1 <1>   0.0800 
 32 H       -4.3570     0.9870    -1.1240 H     1 <1>   0.0800 
 33 H       -5.4630     1.5890     0.0700 H     1 <1>   0.0800 
 34 H       -6.2170    -2.3220    -1.4360 H     1 <1>   0.0800 
 35 H       -4.8370    -1.4930    -2.0810 H     1 <1>   0.0800 
 36 H       -6.5860     0.1480    -1.6450 H     1 <1>   0.0800 
 37 H       -6.7960    -0.4380    -0.0200 H     1 <1>   0.0800 
@<TRIPOS>BOND
  1   1   2  2   
  2   1   3  2   
  3   1   4  1   
  4   1   5  1   
  5   4   6  ar  
  6   4   7  ar  
  7   5   8  1   
  8   5  18  1   
  9   5  19  1   
 10   6   9  ar  
 11   6  20  1   
 12   7  10  ar  
 13   7  21  1   
 14   8  11  1   
 15   8  22  1   
 16   8  23  1   
 17   9  12  ar  
 18   9  24  1   
 19  10  12  ar  
 20  10  25  1   
 21  11  13  1   
 22  11  14  1   
 23  11  26  1   
 24  12  27  1   
 25  13  15  1   
 26  13  28  1   
 27  13  29  1   
 28  14  16  1   
 29  14  30  1   
 30  14  31  1   
 31  15  17  1   
 32  15  32  1   
 33  15  33  1   
 34  16  17  1   
 35  16  34  1   
 36  16  35  1   
 37  17  36  1   
 38  17  37  1   
@<TRIPOS>SUBSTRUCTURE
  1 ****   1 GROUP 4 **** **** 0

# MOE 2024.06 (io_trps.svl 2023.06)
