@<TRIPOS>MOLECULE
NONAME
46 48 1 0 0 
SMALL
USER_CHARGES


@<TRIPOS>ATOM
  1 S       -0.0100     0.2380    -0.6140 S.o2  1 <1>   1.4470 
  2 O        0.1770    -0.1120    -2.0040 O.2   1 <1>  -0.6500 
  3 O       -0.0480    -0.7940     0.3950 O.2   1 <1>  -0.6500 
  4 N       -1.5410     0.9750    -0.5600 N.am  1 <1>  -0.8490 
  5 C        1.1200     1.5680    -0.1130 C.ar  1 <1>  -0.0090 
  6 C       -1.7430     1.9500    -1.6540 C.3   1 <1>   0.1960 
  7 C       -2.6050    -0.0560    -0.5970 C.3   1 <1>   0.1960 
  8 C        1.9760     2.1690    -1.0350 C.ar  1 <1>  -0.1500 
  9 C        1.1370     2.0260     1.2030 C.ar  1 <1>  -0.1500 
 10 C       -3.1230     2.6530    -1.5720 C.3   1 <1>   0.3430 
 11 C       -4.0340     0.5400    -0.6670 C.3   1 <1>   0.3430 
 12 C        2.8220     3.2010    -0.6620 C.ar  1 <1>  -0.1500 
 13 C        1.9760     3.0560     1.5960 C.ar  1 <1>  -0.1500 
 14 N       -4.0230     2.0400    -0.5300 N.4   1 <1>  -0.9590 
 15 C        2.8050     3.6270     0.6510 C.ar  1 <1>   0.1900 
 16 C       -5.3800     2.6700    -0.5260 C.3   1 <1>   0.3430 
 17 F        3.5960     4.6000     1.0100 F     1 <1>  -0.1900 
 18 C       -6.1930     2.2850     0.7110 C.3   1 <1>  -0.0170 
 19 C       -7.5070     3.0400     0.6740 C.ar  1 <1>  -0.1430 
 20 C       -8.6090     2.4980     0.0290 C.ar  1 <1>  -0.1500 
 21 C       -7.6150     4.2860     1.2750 C.ar  1 <1>  -0.1500 
 22 C       -9.8020     3.1960    -0.0210 C.ar  1 <1>  -0.1500 
 23 C       -8.8090     4.9830     1.2250 C.ar  1 <1>  -0.1500 
 24 C       -9.9030     4.4400     0.5760 C.ar  1 <1>  -0.1500 
 25 H       -1.6650     1.4550    -2.6080 H     1 <1>   0.0800 
 26 H       -0.9700     2.7010    -1.6220 H     1 <1>   0.0800 
 27 H       -2.5360    -0.6690     0.2870 H     1 <1>   0.0800 
 28 H       -2.4570    -0.7080    -1.4430 H     1 <1>   0.0800 
 29 H        1.9890     1.8240    -2.0560 H     1 <1>   0.1500 
 30 H        0.4900     1.5650     1.9320 H     1 <1>   0.1500 
 31 H       -3.5930     2.6040    -2.5410 H     1 <1>   0.0800 
 32 H       -2.9660     3.6950    -1.3440 H     1 <1>   0.0800 
 33 H       -4.6280     0.0980     0.1160 H     1 <1>   0.0800 
 34 H       -4.4800     0.2630    -1.6080 H     1 <1>   0.0800 
 35 H        3.4860     3.6660    -1.3690 H     1 <1>   0.1500 
 36 H        1.9950     3.4090     2.6120 H     1 <1>   0.1500 
 37 H       -3.5510     2.2260     0.3690 H     1 <1>   0.4500 
 38 H       -5.9240     2.3830    -1.4110 H     1 <1>   0.0800 
 39 H       -5.2780     3.7430    -0.5390 H     1 <1>   0.0800 
 40 H       -5.6580     2.5480     1.6060 H     1 <1>   0.0800 
 41 H       -6.3960     1.2300     0.7260 H     1 <1>   0.0800 
 42 H       -8.5560     1.5300    -0.4380 H     1 <1>   0.1500 
 43 H       -6.7800     4.7270     1.7910 H     1 <1>   0.1500 
 44 H      -10.6570     2.7730    -0.5210 H     1 <1>   0.1500 
 45 H       -8.8910     5.9490     1.6930 H     1 <1>   0.1500 
 46 H      -10.8320     4.9820     0.5380 H     1 <1>   0.1500 
@<TRIPOS>BOND
  1   1   2  2   
  2   1   3  2   
  3   1   4  am  
  4   1   5  1   
  5   4   6  1   
  6   4   7  1   
  7   5   8  ar  
  8   5   9  ar  
  9   6  10  1   
 10   6  25  1   
 11   6  26  1   
 12   7  11  1   
 13   7  27  1   
 14   7  28  1   
 15   8  12  ar  
 16   8  29  1   
 17   9  13  ar  
 18   9  30  1   
 19  10  14  1   
 20  10  31  1   
 21  10  32  1   
 22  11  14  1   
 23  11  33  1   
 24  11  34  1   
 25  12  15  ar  
 26  12  35  1   
 27  13  15  ar  
 28  13  36  1   
 29  14  16  1   
 30  14  37  1   
 31  15  17  1   
 32  16  18  1   
 33  16  38  1   
 34  16  39  1   
 35  18  19  1   
 36  18  40  1   
 37  18  41  1   
 38  19  20  ar  
 39  19  21  ar  
 40  20  22  ar  
 41  20  42  1   
 42  21  23  ar  
 43  21  43  1   
 44  22  24  ar  
 45  22  44  1   
 46  23  24  ar  
 47  23  45  1   
 48  24  46  1   
@<TRIPOS>SUBSTRUCTURE
  1 ****  14 GROUP 4 **** **** 0

# MOE 2024.06 (io_trps.svl 2023.06)
