@<TRIPOS>MOLECULE
NONAME
52 54 1 0 0 
SMALL
USER_CHARGES


@<TRIPOS>ATOM
  1 O        0.4900     0.1800    -0.5220 O.2   1 <1>  -0.5700 
  2 C        0.9850     1.1410     0.0360 C.2   1 <1>   0.5440 
  3 N        0.1540     2.0810     0.5810 N.am  1 <1>  -0.7300 
  4 C        2.4240     1.3110     0.0920 C.ar  1 <1>   0.0860 
  5 C       -1.3320     2.0730     0.4940 C.3   1 <1>   0.1400 
  6 C        3.2570     0.7130    -0.8580 C.ar  1 <1>  -0.1500 
  7 C        3.0460     2.0750     1.0850 C.ar  1 <1>  -0.1500 
  8 C       -1.9280     3.1720    -0.4230 C.3   1 <1>   0.1430 
  9 C        4.6270     0.8820    -0.8310 C.ar  1 <1>  -0.1500 
 10 C        4.4160     2.2460     1.1140 C.ar  1 <1>  -0.1500 
 11 C       -3.4580     2.9960    -0.3520 C.ar  1 <1>  -0.1430 
 12 C       -1.4800     4.5900    -0.0110 C.3   1 <1>  -0.1600 
 13 C       -1.4000     3.0750    -1.8680 C.3   1 <1>  -0.1600 
 14 C        5.2250     1.6570     0.1520 C.ar  1 <1>   0.1000 
 15 C       -4.2240     3.6890     0.5780 C.ar  1 <1>  -0.1500 
 16 C       -4.1100     2.1050    -1.1940 C.ar  1 <1>  -0.1500 
 17 C       -0.1940     4.9140    -0.7790 C.3   1 <1>  -0.1600 
 18 C       -0.1460     3.9510    -1.9650 C.3   1 <1>  -0.1600 
 19 N        6.5900     1.8350     0.1750 N.pl3 1 <1>  -0.9000 
 20 C       -5.5980     3.5320     0.6600 C.ar  1 <1>   0.0830 
 21 C       -5.4800     1.9250    -1.1220 C.ar  1 <1>  -0.1500 
 22 O       -6.2050     4.2980     1.6110 O.3   1 <1>  -0.3630 
 23 C       -6.2460     2.6270    -0.1950 C.ar  1 <1>   0.0830 
 24 C       -7.5020     4.8130     1.4070 C.3   1 <1>   0.0400 
 25 O       -7.5940     2.4340    -0.0950 O.3   1 <1>  -0.3630 
 26 C       -8.2530     1.3950    -0.7840 C.3   1 <1>   0.0400 
 27 H        0.5520     2.9770     0.8580 H     1 <1>   0.3700 
 28 H       -1.7300     2.1950     1.4860 H     1 <1>   0.0800 
 29 H       -1.6640     1.1110     0.1400 H     1 <1>   0.0800 
 30 H        2.8100     0.1070    -1.6280 H     1 <1>   0.1500 
 31 H        2.4490     2.5330     1.8520 H     1 <1>   0.1500 
 32 H        5.2410     0.4070    -1.5740 H     1 <1>   0.1500 
 33 H        4.8710     2.8350     1.8900 H     1 <1>   0.1500 
 34 H       -1.3490     4.6850     1.0520 H     1 <1>   0.0800 
 35 H       -2.2290     5.2960    -0.3280 H     1 <1>   0.0800 
 36 H       -2.1370     3.4800    -2.5400 H     1 <1>   0.0800 
 37 H       -1.1920     2.0590    -2.1540 H     1 <1>   0.0800 
 38 H       -3.7690     4.3720     1.2690 H     1 <1>   0.1500 
 39 H       -3.5560     1.5300    -1.9150 H     1 <1>   0.1500 
 40 H        0.6680     4.7660    -0.1530 H     1 <1>   0.0800 
 41 H       -0.2010     5.9380    -1.1130 H     1 <1>   0.0800 
 42 H       -0.1280     4.4840    -2.9000 H     1 <1>   0.0800 
 43 H        0.7370     3.3380    -1.9060 H     1 <1>   0.0800 
 44 H        6.9800     2.6100     0.7190 H     1 <1>   0.4000 
 45 H        7.1290     1.6140    -0.6670 H     1 <1>   0.4000 
 46 H       -5.9270     1.2250    -1.8000 H     1 <1>   0.1500 
 47 H       -7.6320     5.6590     2.0570 H     1 <1>   0.0800 
 48 H       -8.2200     4.0520     1.6530 H     1 <1>   0.0800 
 49 H       -7.6030     5.1170     0.3800 H     1 <1>   0.0800 
 50 H       -9.2850     1.3970    -0.4820 H     1 <1>   0.0800 
 51 H       -7.7970     0.4570    -0.5190 H     1 <1>   0.0800 
 52 H       -8.1830     1.5770    -1.8410 H     1 <1>   0.0800 
@<TRIPOS>BOND
  1   1   2  2   
  2   2   3  am  
  3   2   4  1   
  4   3   5  1   
  5   3  27  1   
  6   4   6  ar  
  7   4   7  ar  
  8   5   8  1   
  9   5  28  1   
 10   5  29  1   
 11   6   9  ar  
 12   6  30  1   
 13   7  10  ar  
 14   7  31  1   
 15   8  11  1   
 16   8  12  1   
 17   8  13  1   
 18   9  14  ar  
 19   9  32  1   
 20  10  14  ar  
 21  10  33  1   
 22  11  15  ar  
 23  11  16  ar  
 24  12  17  1   
 25  12  34  1   
 26  12  35  1   
 27  13  18  1   
 28  13  36  1   
 29  13  37  1   
 30  14  19  1   
 31  15  20  ar  
 32  15  38  1   
 33  16  21  ar  
 34  16  39  1   
 35  17  18  1   
 36  17  40  1   
 37  17  41  1   
 38  18  42  1   
 39  18  43  1   
 40  19  44  1   
 41  19  45  1   
 42  20  22  1   
 43  20  23  ar  
 44  21  23  ar  
 45  21  46  1   
 46  22  24  1   
 47  23  25  1   
 48  24  47  1   
 49  24  48  1   
 50  24  49  1   
 51  25  26  1   
 52  26  50  1   
 53  26  51  1   
 54  26  52  1   
@<TRIPOS>SUBSTRUCTURE
  1 ****   5 GROUP 4 **** **** 0

# MOE 2024.06 (io_trps.svl 2023.06)
