@<TRIPOS>MOLECULE
NONAME
49 50 1 0 0 
SMALL
USER_CHARGES


@<TRIPOS>ATOM
  1 CL       1.7730    -1.5670    -3.9620 Cl    1 <1>  -0.1770 
  2 C        2.8860    -1.8500    -2.6450 C.ar  1 <1>   0.1770 
  3 C        2.5970    -1.3430    -1.3920 C.ar  1 <1>  -0.1500 
  4 C        4.0390    -2.5740    -2.8750 C.ar  1 <1>  -0.1500 
  5 C        3.4710    -1.5620    -0.3380 C.ar  1 <1>  -0.1440 
  6 C        4.9110    -2.7950    -1.8250 C.ar  1 <1>  -0.1500 
  7 C        4.6400    -2.3030    -0.5510 C.ar  1 <1>   0.1990 
  8 C        3.1320    -0.9790     1.0290 C.3   1 <1>  -0.0960 
  9 N        5.5410    -2.5420     0.4820 N.am  1 <1>  -0.6930 
 10 S        5.7510    -4.1260     1.1450 S.o2  1 <1>   1.3330 
 11 C        6.6870    -1.5870     0.6170 C.3   1 <1>   0.2570 
 12 O        5.6680    -5.0830     0.0720 O.2   1 <1>  -0.6500 
 13 O        6.9400    -4.0630     1.9640 O.2   1 <1>  -0.6500 
 14 C        4.3340    -4.2900     2.2070 C.3   1 <1>  -0.1350 
 15 C        7.8990    -1.9080    -0.2630 C.2   1 <1>   0.5690 
 16 O        8.0660    -1.2510    -1.2630 O.2   1 <1>  -0.5700 
 17 N        8.7520    -2.9040     0.1240 N.am  1 <1>  -0.5470 
 18 C        9.9180    -3.3600    -0.5120 C.ar  1 <1>   0.1170 
 19 C       11.0480    -2.5470    -0.6390 C.ar  1 <1>  -0.1430 
 20 C        9.9610    -4.6660    -1.0040 C.ar  1 <1>  -0.1430 
 21 C       12.1850    -3.0390    -1.2580 C.ar  1 <1>  -0.1500 
 22 C       11.0780    -1.1190    -0.1060 C.3   1 <1>  -0.0970 
 23 C       11.1090    -5.1390    -1.6160 C.ar  1 <1>  -0.1500 
 24 C        8.7540    -5.5900    -0.8940 C.3   1 <1>  -0.0970 
 25 C       12.2240    -4.3320    -1.7490 C.ar  1 <1>  -0.1430 
 26 C       13.4770    -4.8590    -2.4240 C.3   1 <1>  -0.0970 
 27 H        1.6890    -0.7820    -1.2580 H     1 <1>   0.1500 
 28 H        4.2500    -2.9550    -3.8580 H     1 <1>   0.1500 
 29 H        5.8150    -3.3540    -1.9930 H     1 <1>   0.1500 
 30 H        2.3150    -0.2830     0.9580 H     1 <1>   0.0800 
 31 H        3.9800    -0.4560     1.4340 H     1 <1>   0.0800 
 32 H        2.8500    -1.7640     1.7050 H     1 <1>   0.0800 
 33 H        7.0040    -1.5500     1.6430 H     1 <1>   0.0800 
 34 H        6.3460    -0.6020     0.3530 H     1 <1>   0.0800 
 35 H        4.3290    -3.5110     2.9440 H     1 <1>   0.0800 
 36 H        4.3580    -5.2380     2.7080 H     1 <1>   0.0800 
 37 H        3.4320    -4.2310     1.6290 H     1 <1>   0.0800 
 38 H        8.4200    -3.5030     0.8910 H     1 <1>   0.3700 
 39 H       13.0520    -2.4110    -1.3600 H     1 <1>   0.1500 
 40 H       10.5460    -0.4710    -0.7790 H     1 <1>   0.0800 
 41 H       12.0880    -0.7630    -0.0170 H     1 <1>   0.0800 
 42 H       10.6200    -1.0710     0.8650 H     1 <1>   0.0800 
 43 H       11.1390    -6.1440    -1.9950 H     1 <1>   0.1500 
 44 H        8.9540    -6.5470    -1.3380 H     1 <1>   0.0800 
 45 H        8.4970    -5.7440     0.1380 H     1 <1>   0.0800 
 46 H        7.9140    -5.1530    -1.4030 H     1 <1>   0.0800 
 47 H       14.0130    -4.0580    -2.8990 H     1 <1>   0.0800 
 48 H       13.2220    -5.5870    -3.1730 H     1 <1>   0.0800 
 49 H       14.1160    -5.3210    -1.6920 H     1 <1>   0.0800 
@<TRIPOS>BOND
  1   1   2  1   
  2   2   3  ar  
  3   2   4  ar  
  4   3   5  ar  
  5   3  27  1   
  6   4   6  ar  
  7   4  28  1   
  8   5   7  ar  
  9   5   8  1   
 10   6   7  ar  
 11   6  29  1   
 12   7   9  1   
 13   8  30  1   
 14   8  31  1   
 15   8  32  1   
 16   9  10  am  
 17   9  11  1   
 18  10  12  2   
 19  10  13  2   
 20  10  14  1   
 21  11  15  1   
 22  11  33  1   
 23  11  34  1   
 24  14  35  1   
 25  14  36  1   
 26  14  37  1   
 27  15  16  2   
 28  15  17  am  
 29  17  18  1   
 30  17  38  1   
 31  18  19  ar  
 32  18  20  ar  
 33  19  21  ar  
 34  19  22  1   
 35  20  23  ar  
 36  20  24  1   
 37  21  25  ar  
 38  21  39  1   
 39  22  40  1   
 40  22  41  1   
 41  22  42  1   
 42  23  25  ar  
 43  23  43  1   
 44  24  44  1   
 45  24  45  1   
 46  24  46  1   
 47  25  26  1   
 48  26  47  1   
 49  26  48  1   
 50  26  49  1   
@<TRIPOS>SUBSTRUCTURE
  1 ****  15 GROUP 4 **** **** 0

# MOE 2024.06 (io_trps.svl 2023.06)
