@<TRIPOS>MOLECULE
NONAME
54 56 1 0 0 
SMALL
USER_CHARGES


@<TRIPOS>ATOM
  1 S        0.2110    -0.8480     1.7650 S.o2  1 <1>   1.4470 
  2 O        0.9010    -2.1130     1.8780 O.2   1 <1>  -0.6500 
  3 O        0.2560     0.1140     2.8410 O.2   1 <1>  -0.6500 
  4 N        0.8640    -0.0150     0.4650 N.am  1 <1>  -0.9140 
  5 C       -1.5010    -1.1240     1.2320 C.ar  1 <1>  -0.0090 
  6 C        2.2730    -0.2420     0.2260 C.3   1 <1>   0.2760 
  7 C       -2.4760    -0.1550     1.4130 C.ar  1 <1>  -0.1500 
  8 C       -1.8730    -2.3020     0.5960 C.ar  1 <1>  -0.1500 
  9 C        3.1260     0.4180     1.3210 C.3   1 <1>  -0.1600 
 10 C        2.6030     0.3500    -1.1480 C.3   1 <1>  -0.1600 
 11 C       -3.7920    -0.3180     0.9820 C.ar  1 <1>   0.0860 
 12 C       -3.1710    -2.5050     0.1670 C.ar  1 <1>  -0.1500 
 13 C        4.6250     0.3090     1.0060 C.3   1 <1>  -0.1600 
 14 C        4.1000     0.2340    -1.4680 C.3   1 <1>  -0.1600 
 15 C       -4.1370    -1.5220     0.3580 C.ar  1 <1>   0.0830 
 16 C       -4.7400     0.7530     1.1980 C.2   1 <1>   0.5440 
 17 C        4.9510     0.8920    -0.3750 C.3   1 <1>  -0.1600 
 18 O       -5.4210    -1.6880    -0.0400 O.3   1 <1>  -0.3630 
 19 O       -5.0510     1.0350     2.3420 O.2   1 <1>  -0.5700 
 20 N       -5.2440     1.5050     0.1550 N.am  1 <1>  -0.6600 
 21 C       -5.9210    -2.9160    -0.5210 C.3   1 <1>   0.0400 
 22 C       -4.8420     1.2690    -1.2650 C.3   1 <1>   0.1400 
 23 C       -6.2070     2.6180     0.3820 C.3   1 <1>   0.1400 
 24 C       -5.1560     2.4740    -2.1660 C.3   1 <1>  -0.1600 
 25 C       -5.6170     3.9380    -0.1370 C.3   1 <1>  -0.1600 
 26 C       -4.8350     3.7970    -1.4580 C.3   1 <1>  -0.1600 
 27 H        0.7710     0.9610     0.7340 H     1 <1>   0.4200 
 28 H        2.4780    -1.3010     0.1940 H     1 <1>   0.0800 
 29 H       -2.2190     0.7660     1.9100 H     1 <1>   0.1500 
 30 H       -1.1330    -3.0700     0.4370 H     1 <1>   0.1500 
 31 H        2.9460    -0.0590     2.2680 H     1 <1>   0.0800 
 32 H        2.8640     1.4580     1.4090 H     1 <1>   0.0800 
 33 H        2.3230     1.3890    -1.1710 H     1 <1>   0.0800 
 34 H        2.0400    -0.1700    -1.9020 H     1 <1>   0.0800 
 35 H       -3.4090    -3.4350    -0.3150 H     1 <1>   0.1500 
 36 H        4.9190    -0.7270     1.0340 H     1 <1>   0.0800 
 37 H        5.1910     0.8300     1.7600 H     1 <1>   0.0800 
 38 H        4.3050     0.7030    -2.4160 H     1 <1>   0.0800 
 39 H        4.3690    -0.8060    -1.5510 H     1 <1>   0.0800 
 40 H        5.9950     0.7440    -0.5910 H     1 <1>   0.0800 
 41 H        4.7650     1.9530    -0.3670 H     1 <1>   0.0800 
 42 H       -6.9750    -2.7990    -0.6970 H     1 <1>   0.0800 
 43 H       -5.7580    -3.6750     0.2240 H     1 <1>   0.0800 
 44 H       -5.4220    -3.1620    -1.4410 H     1 <1>   0.0800 
 45 H       -5.3500     0.3970    -1.6390 H     1 <1>   0.0800 
 46 H       -3.7820     1.0820    -1.2960 H     1 <1>   0.0800 
 47 H       -6.4530     2.7150     1.4260 H     1 <1>   0.0800 
 48 H       -7.1170     2.3920    -0.1460 H     1 <1>   0.0800 
 49 H       -6.1970     2.4510    -2.4370 H     1 <1>   0.0800 
 50 H       -4.5860     2.3940    -3.0740 H     1 <1>   0.0800 
 51 H       -4.9650     4.3430     0.6170 H     1 <1>   0.0800 
 52 H       -6.4240     4.6360    -0.2670 H     1 <1>   0.0800 
 53 H       -5.0560     4.6290    -2.1050 H     1 <1>   0.0800 
 54 H       -3.7810     3.8200    -1.2410 H     1 <1>   0.0800 
@<TRIPOS>BOND
  1   1   2  2   
  2   1   3  2   
  3   1   4  am  
  4   1   5  1   
  5   4   6  1   
  6   4  27  1   
  7   5   7  ar  
  8   5   8  ar  
  9   6   9  1   
 10   6  10  1   
 11   6  28  1   
 12   7  11  ar  
 13   7  29  1   
 14   8  12  ar  
 15   8  30  1   
 16   9  13  1   
 17   9  31  1   
 18   9  32  1   
 19  10  14  1   
 20  10  33  1   
 21  10  34  1   
 22  11  15  ar  
 23  11  16  1   
 24  12  15  ar  
 25  12  35  1   
 26  13  17  1   
 27  13  36  1   
 28  13  37  1   
 29  14  17  1   
 30  14  38  1   
 31  14  39  1   
 32  15  18  1   
 33  16  19  2   
 34  16  20  am  
 35  17  40  1   
 36  17  41  1   
 37  18  21  1   
 38  20  22  1   
 39  20  23  1   
 40  21  42  1   
 41  21  43  1   
 42  21  44  1   
 43  22  24  1   
 44  22  45  1   
 45  22  46  1   
 46  23  25  1   
 47  23  47  1   
 48  23  48  1   
 49  24  26  1   
 50  24  49  1   
 51  24  50  1   
 52  25  26  1   
 53  25  51  1   
 54  25  52  1   
 55  26  53  1   
 56  26  54  1   
@<TRIPOS>SUBSTRUCTURE
  1 ****   7 GROUP 4 **** **** 0

# MOE 2024.06 (io_trps.svl 2023.06)
