@<TRIPOS>MOLECULE
NONAME
49 51 1 0 0 
SMALL
USER_CHARGES


@<TRIPOS>ATOM
  1 O       -0.6120     0.6050     1.4290 O.2   1 <1>  -0.5700 
  2 C       -0.8730     1.7010     0.9750 C.2   1 <1>   0.6340 
  3 O       -2.1510     2.1030     0.9830 O.3   1 <1>  -0.4300 
  4 C        0.1180     2.5980     0.4190 C.ar  1 <1>   0.0860 
  5 C       -3.1830     1.2920     1.5090 C.3   1 <1>   0.0400 
  6 C        1.4820     2.3030     0.4850 C.ar  1 <1>  -0.1500 
  7 C       -0.2360     3.7940    -0.2110 C.ar  1 <1>  -0.1500 
  8 C        2.4490     3.1420    -0.0450 C.ar  1 <1>   0.1170 
  9 C        0.7150     4.6420    -0.7450 C.ar  1 <1>  -0.1500 
 10 N        3.8180     2.8300    -0.0090 N.am  1 <1>  -0.5470 
 11 C        2.0670     4.3370    -0.6760 C.ar  1 <1>   0.1000 
 12 C        4.5940     2.1470     0.8900 C.2   1 <1>   0.5440 
 13 N        3.0300     5.2080    -1.2000 N.pl3 1 <1>  -0.8380 
 14 O        4.0700     1.7190     1.9030 O.2   1 <1>  -0.5700 
 15 C        6.0140     1.9240     0.6530 C.ar  1 <1>   0.0860 
 16 C        2.8660     5.8180    -2.5560 C.3   1 <1>   0.2090 
 17 C        3.7850     6.0640    -0.2330 C.3   1 <1>   0.2090 
 18 C        6.8110     2.7010    -0.2120 C.ar  1 <1>   0.0830 
 19 C        6.6450     0.8670     1.3190 C.ar  1 <1>  -0.1500 
 20 C        2.4990     7.3130    -2.4780 C.3   1 <1>   0.1200 
 21 C        3.3300     7.5320    -0.3020 C.3   1 <1>   0.1200 
 22 O        6.2440     3.7460    -0.8680 O.3   1 <1>  -0.3630 
 23 C        8.1630     2.4030    -0.3830 C.ar  1 <1>  -0.1500 
 24 C        7.9830     0.5780     1.1460 C.ar  1 <1>  -0.1500 
 25 O        3.3620     8.0060    -1.6210 O.3   1 <1>  -0.5600 
 26 C        6.9170     4.5020    -1.8530 C.3   1 <1>   0.0400 
 27 C        8.7460     1.3480     0.2900 C.ar  1 <1>  -0.1500 
 28 H       -4.1150     1.8180     1.4110 H     1 <1>   0.0800 
 29 H       -2.9750     1.0950     2.5470 H     1 <1>   0.0800 
 30 H       -3.2160     0.3690     0.9560 H     1 <1>   0.0800 
 31 H        1.7890     1.3880     0.9600 H     1 <1>   0.1500 
 32 H       -1.2750     4.0650    -0.2840 H     1 <1>   0.1500 
 33 H        0.4040     5.5560    -1.2140 H     1 <1>   0.1500 
 34 H        4.3500     3.4020    -0.6750 H     1 <1>   0.3700 
 35 H        2.1090     5.2860    -3.1040 H     1 <1>   0.0800 
 36 H        3.7910     5.7140    -3.0950 H     1 <1>   0.0800 
 37 H        4.8350     6.0120    -0.4550 H     1 <1>   0.0800 
 38 H        3.6440     5.6940     0.7680 H     1 <1>   0.0800 
 39 H        6.0650     0.2560     1.9900 H     1 <1>   0.1500 
 40 H        1.4920     7.4370    -2.1220 H     1 <1>   0.0800 
 41 H        2.5750     7.7610    -3.4530 H     1 <1>   0.0800 
 42 H        3.9850     8.1490     0.2850 H     1 <1>   0.0800 
 43 H        2.3290     7.6310     0.0770 H     1 <1>   0.0800 
 44 H        8.7860     2.9830    -1.0350 H     1 <1>   0.1500 
 45 H        8.4310    -0.2450     1.6760 H     1 <1>   0.1500 
 46 H        6.2230     5.2150    -2.2620 H     1 <1>   0.0800 
 47 H        7.2580     3.8400    -2.6310 H     1 <1>   0.0800 
 48 H        7.7420     5.0180    -1.3960 H     1 <1>   0.0800 
 49 H        9.7910     1.1250     0.1530 H     1 <1>   0.1500 
@<TRIPOS>BOND
  1   1   2  2   
  2   2   3  1   
  3   2   4  1   
  4   3   5  1   
  5   4   6  ar  
  6   4   7  ar  
  7   5  28  1   
  8   5  29  1   
  9   5  30  1   
 10   6   8  ar  
 11   6  31  1   
 12   7   9  ar  
 13   7  32  1   
 14   8  10  1   
 15   8  11  ar  
 16   9  11  ar  
 17   9  33  1   
 18  10  12  am  
 19  10  34  1   
 20  11  13  1   
 21  12  14  2   
 22  12  15  1   
 23  13  16  1   
 24  13  17  1   
 25  15  18  ar  
 26  15  19  ar  
 27  16  20  1   
 28  16  35  1   
 29  16  36  1   
 30  17  21  1   
 31  17  37  1   
 32  17  38  1   
 33  18  22  1   
 34  18  23  ar  
 35  19  24  ar  
 36  19  39  1   
 37  20  25  1   
 38  20  40  1   
 39  20  41  1   
 40  21  25  1   
 41  21  42  1   
 42  21  43  1   
 43  22  26  1   
 44  23  27  ar  
 45  23  44  1   
 46  24  27  ar  
 47  24  45  1   
 48  26  46  1   
 49  26  47  1   
 50  26  48  1   
 51  27  49  1   
@<TRIPOS>SUBSTRUCTURE
  1 ****  10 GROUP 4 **** **** 0

# MOE 2024.06 (io_trps.svl 2023.06)
