@<TRIPOS>MOLECULE
NONAME
24 23 1 0 0 
SMALL
USER_CHARGES


@<TRIPOS>ATOM
  1 S        0.1510    -0.6090     0.0130 S.o2  1 <1>   1.0900 
  2 O        0.5640    -1.2050    -1.2380 O.2   1 <1>  -0.6500 
  3 O       -0.2070    -1.4740     1.1140 O.2   1 <1>  -0.6500 
  4 C       -1.2070     0.5840    -0.2960 C.3   1 <1>   0.1050 
  5 C        1.5370     0.3710     0.5790 C.3   1 <1>  -0.0550 
  6 C       -2.4650    -0.1570    -0.7930 C.3   1 <1>  -0.2400 
  7 C       -1.6080     1.3560     0.9790 C.3   1 <1>  -0.2400 
  8 C       -0.8370     1.6250    -1.3750 C.3   1 <1>  -0.2400 
  9 C        2.7490    -0.5180     0.8740 C.3   1 <1>   0.0400 
 10 C        3.8930     0.3070     1.3430 C.1   1 <1>   0.3570 
 11 N        4.7460     0.9690     1.6980 N.1   1 <1>  -0.5570 
 12 H        1.2710     0.9000     1.4730 H     1 <1>   0.0800 
 13 H        1.8100     1.0880    -0.1720 H     1 <1>   0.0800 
 14 H       -2.2470    -0.6880    -1.7030 H     1 <1>   0.0800 
 15 H       -3.2750     0.5250    -0.9800 H     1 <1>   0.0800 
 16 H       -2.7860    -0.8760    -0.0590 H     1 <1>   0.0800 
 17 H       -1.8840     0.6660     1.7590 H     1 <1>   0.0800 
 18 H       -2.4500     1.9990     0.7880 H     1 <1>   0.0800 
 19 H       -0.7980     1.9650     1.3370 H     1 <1>   0.0800 
 20 H       -0.5580     1.1280    -2.2890 H     1 <1>   0.0800 
 21 H       -0.0140     2.2380    -1.0570 H     1 <1>   0.0800 
 22 H       -1.6720     2.2700    -1.5860 H     1 <1>   0.0800 
 23 H        3.0440    -1.0490    -0.0130 H     1 <1>   0.0800 
 24 H        2.5040    -1.2370     1.6350 H     1 <1>   0.0800 
@<TRIPOS>BOND
  1   1   2  2   
  2   1   3  2   
  3   1   4  1   
  4   1   5  1   
  5   4   6  1   
  6   4   7  1   
  7   4   8  1   
  8   5   9  1   
  9   5  12  1   
 10   5  13  1   
 11   6  14  1   
 12   6  15  1   
 13   6  16  1   
 14   7  17  1   
 15   7  18  1   
 16   7  19  1   
 17   8  20  1   
 18   8  21  1   
 19   8  22  1   
 20   9  10  1   
 21   9  23  1   
 22   9  24  1   
 23  10  11  3   
@<TRIPOS>SUBSTRUCTURE
  1 ****   1 GROUP 4 **** **** 0

# MOE 2024.06 (io_trps.svl 2023.06)
