@<TRIPOS>MOLECULE
NONAME
43 44 1 0 0 
SMALL
USER_CHARGES


@<TRIPOS>ATOM
  1 N        0.0920    -0.7700     0.0890 N.4   1 <1>  -0.9590 
  2 C       -0.4400     0.1690    -0.9410 C.3   1 <1>   0.3430 
  3 C       -0.8420    -0.9830     1.2320 C.3   1 <1>   0.3430 
  4 C        1.4190    -0.2810     0.5930 C.3   1 <1>   0.2630 
  5 C       -1.7810    -0.3450    -1.4720 C.3   1 <1>  -0.1600 
  6 C       -2.1890    -1.5000     0.7220 C.3   1 <1>  -0.1600 
  7 C       -2.7800    -0.5590    -0.3330 C.3   1 <1>   0.4230 
  8 N       -4.0300    -1.1220    -0.8980 N.4   1 <1>  -0.9060 
  9 C       -5.1930    -1.1910     0.0220 C.3   1 <1>   0.4230 
 10 C       -6.2870    -2.0760    -0.6120 C.3   1 <1>  -0.0800 
 11 C       -5.7130     0.2240     0.3110 C.3   1 <1>  -0.1600 
 12 C       -7.5240    -2.1190     0.3010 C.3   1 <1>  -0.1600 
 13 C       -5.8060    -3.5150    -0.8820 C.3   1 <1>  -0.2400 
 14 C       -6.9550     0.1780     1.2120 C.3   1 <1>  -0.1600 
 15 C       -8.0480    -0.7090     0.6060 C.3   1 <1>  -0.1600 
 16 H        0.2720    -1.6830    -0.3620 H     1 <1>   0.4500 
 17 H        0.2620     0.2560    -1.7570 H     1 <1>   0.0800 
 18 H       -0.5700     1.1490    -0.5080 H     1 <1>   0.0800 
 19 H       -0.9860    -0.0530     1.7610 H     1 <1>   0.0800 
 20 H       -0.4200    -1.6960     1.9240 H     1 <1>   0.0800 
 21 H        1.3120     0.6750     1.0800 H     1 <1>   0.0800 
 22 H        2.1160    -0.1740    -0.2240 H     1 <1>   0.0800 
 23 H        1.8340    -0.9810     1.3010 H     1 <1>   0.0800 
 24 H       -1.6120    -1.2610    -2.0110 H     1 <1>   0.0800 
 25 H       -2.1680     0.3850    -2.1610 H     1 <1>   0.0800 
 26 H       -2.8520    -1.5720     1.5660 H     1 <1>   0.0800 
 27 H       -2.0520    -2.4880     0.3180 H     1 <1>   0.0800 
 28 H       -2.9900     0.3970     0.1230 H     1 <1>   0.0800 
 29 H       -3.8720    -2.0740    -1.2460 H     1 <1>   0.4500 
 30 H       -4.3350    -0.5720    -1.7100 H     1 <1>   0.4500 
 31 H       -4.9000    -1.6500     0.9520 H     1 <1>   0.0800 
 32 H       -6.5960    -1.6370    -1.5470 H     1 <1>   0.0800 
 33 H       -5.9810     0.7140    -0.6090 H     1 <1>   0.0800 
 34 H       -4.9650     0.8120     0.8110 H     1 <1>   0.0800 
 35 H       -7.2840    -2.6140     1.2280 H     1 <1>   0.0800 
 36 H       -8.3100    -2.6840    -0.1730 H     1 <1>   0.0800 
 37 H       -5.4430    -3.9760     0.0200 H     1 <1>   0.0800 
 38 H       -5.0370    -3.5500    -1.6320 H     1 <1>   0.0800 
 39 H       -6.6270    -4.1100    -1.2460 H     1 <1>   0.0800 
 40 H       -7.3430     1.1750     1.3490 H     1 <1>   0.0800 
 41 H       -6.6900    -0.2010     2.1850 H     1 <1>   0.0800 
 42 H       -8.8770    -0.7760     1.2920 H     1 <1>   0.0800 
 43 H       -8.4170    -0.2580    -0.3000 H     1 <1>   0.0800 
@<TRIPOS>BOND
  1   1   2  1   
  2   1   3  1   
  3   1   4  1   
  4   1  16  1   
  5   2   5  1   
  6   2  17  1   
  7   2  18  1   
  8   3   6  1   
  9   3  19  1   
 10   3  20  1   
 11   4  21  1   
 12   4  22  1   
 13   4  23  1   
 14   5   7  1   
 15   5  24  1   
 16   5  25  1   
 17   6   7  1   
 18   6  26  1   
 19   6  27  1   
 20   7   8  1   
 21   7  28  1   
 22   8   9  1   
 23   8  29  1   
 24   8  30  1   
 25   9  10  1   
 26   9  11  1   
 27   9  31  1   
 28  10  12  1   
 29  10  13  1   
 30  10  32  1   
 31  11  14  1   
 32  11  33  1   
 33  11  34  1   
 34  12  15  1   
 35  12  35  1   
 36  12  36  1   
 37  13  37  1   
 38  13  38  1   
 39  13  39  1   
 40  14  15  1   
 41  14  40  1   
 42  14  41  1   
 43  15  42  1   
 44  15  43  1   
@<TRIPOS>SUBSTRUCTURE
  1 ****   8 GROUP 4 **** **** 0

# MOE 2024.06 (io_trps.svl 2023.06)
