@<TRIPOS>MOLECULE
NONAME
50 52 1 0 0 
SMALL
USER_CHARGES


@<TRIPOS>ATOM
  1 O        0.9040     1.4810     1.6100 O.2   1 <1>  -0.5700 
  2 C        1.1860     2.4480     0.9480 C.2   1 <1>   0.5690 
  3 N        0.3250     3.3400     0.3730 N.am  1 <1>  -0.4770 
  4 C        2.6170     2.8070     0.6650 C.3   1 <1>  -0.0990 
  5 C       -1.0830     3.3790     0.4450 C.ar  1 <1>   0.1170 
  6 C        1.0790     4.3850    -0.3520 C.3   1 <1>   0.1400 
  7 C        2.5190     4.2550     0.1610 C.3   1 <1>  -0.0190 
  8 C       -1.8420     3.8420    -0.6260 C.ar  1 <1>  -0.1500 
  9 C       -1.7560     2.9690     1.5880 C.ar  1 <1>  -0.1500 
 10 C        3.5630     4.6380    -0.8760 C.2   1 <1>   0.5690 
 11 C       -3.2250     3.9070    -0.5650 C.ar  1 <1>  -0.1440 
 12 C       -3.1350     3.0270     1.6610 C.ar  1 <1>  -0.1500 
 13 O        3.2500     5.3420    -1.8050 O.2   1 <1>  -0.5700 
 14 N        4.8300     4.1910    -0.7180 N.am  1 <1>  -0.7300 
 15 C       -3.8800     3.4960     0.5900 C.ar  1 <1>  -0.1430 
 16 C       -3.9970     4.4240    -1.7710 C.3   1 <1>  -0.0970 
 17 C        5.9770     4.5240    -1.5770 C.3   1 <1>   0.2840 
 18 C       -5.3970     3.5440     0.7100 C.3   1 <1>  -0.0970 
 19 C        7.1560     4.8620    -0.6790 C.ar  1 <1>  -0.1430 
 20 C        7.7670     3.8800     0.0970 C.ar  1 <1>   0.0830 
 21 C        7.6260     6.1660    -0.6320 C.ar  1 <1>  -0.1500 
 22 O        7.2630     2.6180     0.0340 O.3   1 <1>  -0.3630 
 23 C        8.8500     4.2180     0.9060 C.ar  1 <1>  -0.1500 
 24 C        8.7010     6.4950     0.1740 C.ar  1 <1>  -0.1500 
 25 C        7.9040     1.5330     0.6700 C.3   1 <1>   0.0400 
 26 C        9.3130     5.5210     0.9420 C.ar  1 <1>  -0.1500 
 27 H        2.9870     2.1450    -0.0970 H     1 <1>   0.0800 
 28 H        3.2170     2.7270     1.5520 H     1 <1>   0.0800 
 29 H        0.6770     5.3630    -0.1500 H     1 <1>   0.0800 
 30 H        1.0270     4.1810    -1.4090 H     1 <1>   0.0800 
 31 H        2.6270     4.9220     0.9970 H     1 <1>   0.0800 
 32 H       -1.3420     4.1510    -1.5240 H     1 <1>   0.1500 
 33 H       -1.2000     2.6020     2.4310 H     1 <1>   0.1500 
 34 H       -3.6240     2.7000     2.5610 H     1 <1>   0.1500 
 35 H        5.1030     3.6120     0.0790 H     1 <1>   0.3700 
 36 H       -3.3300     4.6950    -2.5700 H     1 <1>   0.0800 
 37 H       -4.5670     5.2930    -1.4980 H     1 <1>   0.0800 
 38 H       -4.6650     3.6640    -2.1330 H     1 <1>   0.0800 
 39 H        5.7330     5.3540    -2.2180 H     1 <1>   0.0800 
 40 H        6.2200     3.6760    -2.1940 H     1 <1>   0.0800 
 41 H       -5.7440     4.5540     0.5880 H     1 <1>   0.0800 
 42 H       -5.7190     3.1900     1.6720 H     1 <1>   0.0800 
 43 H       -5.8450     2.9240    -0.0450 H     1 <1>   0.0800 
 44 H        7.1560     6.9340    -1.2230 H     1 <1>   0.1500 
 45 H        9.3440     3.4860     1.5160 H     1 <1>   0.1500 
 46 H        9.0610     7.5090     0.2040 H     1 <1>   0.1500 
 47 H        8.9130     1.4600     0.3040 H     1 <1>   0.0800 
 48 H        7.3630     0.6360     0.4290 H     1 <1>   0.0800 
 49 H        7.8900     1.6940     1.7340 H     1 <1>   0.0800 
 50 H       10.1500     5.7790     1.5680 H     1 <1>   0.1500 
@<TRIPOS>BOND
  1   1   2  2   
  2   2   3  am  
  3   2   4  1   
  4   3   5  1   
  5   3   6  1   
  6   4   7  1   
  7   4  27  1   
  8   4  28  1   
  9   5   8  ar  
 10   5   9  ar  
 11   6   7  1   
 12   6  29  1   
 13   6  30  1   
 14   7  10  1   
 15   7  31  1   
 16   8  11  ar  
 17   8  32  1   
 18   9  12  ar  
 19   9  33  1   
 20  10  13  2   
 21  10  14  am  
 22  11  15  ar  
 23  11  16  1   
 24  12  15  ar  
 25  12  34  1   
 26  14  17  1   
 27  14  35  1   
 28  15  18  1   
 29  16  36  1   
 30  16  37  1   
 31  16  38  1   
 32  17  19  1   
 33  17  39  1   
 34  17  40  1   
 35  18  41  1   
 36  18  42  1   
 37  18  43  1   
 38  19  20  ar  
 39  19  21  ar  
 40  20  22  1   
 41  20  23  ar  
 42  21  24  ar  
 43  21  44  1   
 44  22  25  1   
 45  23  26  ar  
 46  23  45  1   
 47  24  26  ar  
 48  24  46  1   
 49  25  47  1   
 50  25  48  1   
 51  25  49  1   
 52  26  50  1   
@<TRIPOS>SUBSTRUCTURE
  1 ****   7 GROUP 4 **** **** 0

# MOE 2024.06 (io_trps.svl 2023.06)
