@<TRIPOS>MOLECULE
NONAME
50 53 1 0 0 
SMALL
USER_CHARGES


@<TRIPOS>ATOM
  1 N       -6.9780     4.5150    -0.2400 N.ar  1 <1>  -0.6200 
  2 C       -7.1590     3.2030    -0.3460 C.ar  1 <1>   0.7710 
  3 C       -7.9930     5.2750     0.0880 C.ar  1 <1>   0.4100 
  4 N       -8.3590     2.6470    -0.1380 N.ar  1 <1>  -0.1790 
  5 N       -6.0860     2.4350    -0.6760 N.pl3 1 <1>  -0.8380 
  6 N       -7.7680     6.5970     0.1790 N.pl3 1 <1>  -0.8690 
  7 C       -9.3030     4.7550     0.3450 C.ar  1 <1>   0.0000 
  8 C       -9.4670     3.3770     0.2140 C.ar  1 <1>   0.3610 
  9 C       -4.8570     3.0440    -1.3220 C.3   1 <1>   0.2090 
 10 C       -5.9000     0.9660    -0.3850 C.3   1 <1>   0.2090 
 11 C       -6.5070     7.3190    -0.0730 C.3   1 <1>   0.3530 
 12 C      -10.4230     5.5200     0.7100 C.ar  1 <1>  -0.1500 
 13 C      -10.7120     2.7820     0.4350 C.ar  1 <1>  -0.1500 
 14 C       -3.5800     2.7820    -0.4940 C.3   1 <1>   0.3430 
 15 C       -4.5920     0.6900     0.4080 C.3   1 <1>   0.3430 
 16 C       -6.8030     8.8020     0.0360 C.ar  1 <1>  -0.1440 
 17 C      -11.6450     4.9290     0.9280 C.ar  1 <1>  -0.1500 
 18 C      -11.7940     3.5530     0.7900 C.ar  1 <1>  -0.1500 
 19 N       -3.3710     1.3130    -0.2210 N.4   1 <1>  -0.9590 
 20 C       -7.2280     9.5140    -1.0770 C.ar  1 <1>  -0.1500 
 21 C       -6.6610     9.4590     1.2490 C.ar  1 <1>  -0.1500 
 22 C       -2.1590     1.1010     0.6350 C.3   1 <1>   0.2630 
 23 C       -7.5030    10.8670    -0.9780 C.ar  1 <1>  -0.1500 
 24 C       -6.9350    10.8120     1.3490 C.ar  1 <1>  -0.1500 
 25 C       -7.3560    11.5160     0.2350 C.ar  1 <1>  -0.1500 
 26 H       -8.4650     1.6610    -0.3270 H     1 <1>   0.4570 
 27 H       -8.5170     7.2520     0.4240 H     1 <1>   0.4000 
 28 H       -4.9590     4.1070    -1.4610 H     1 <1>   0.0800 
 29 H       -4.7300     2.6200    -2.3040 H     1 <1>   0.0800 
 30 H       -5.8670     0.4210    -1.3150 H     1 <1>   0.0800 
 31 H       -6.7240     0.5810     0.1890 H     1 <1>   0.0800 
 32 H       -6.1390     7.0820    -1.0570 H     1 <1>   0.0800 
 33 H       -5.7690     7.0290     0.6550 H     1 <1>   0.0800 
 34 H      -10.3330     6.5870     0.8220 H     1 <1>   0.1500 
 35 H      -10.8420     1.7190     0.3320 H     1 <1>   0.1500 
 36 H       -3.6640     3.3180     0.4380 H     1 <1>   0.0800 
 37 H       -2.7290     3.1790    -1.0250 H     1 <1>   0.0800 
 38 H       -4.4510    -0.3750     0.4940 H     1 <1>   0.0800 
 39 H       -4.7140     1.0820     1.4050 H     1 <1>   0.0800 
 40 H      -12.4980     5.5270     1.2080 H     1 <1>   0.1500 
 41 H      -12.7620     3.1070     0.9640 H     1 <1>   0.1500 
 42 H       -3.1990     0.8460    -1.1250 H     1 <1>   0.4500 
 43 H       -7.3480     9.0190    -2.0250 H     1 <1>   0.1500 
 44 H       -6.3360     8.9210     2.1240 H     1 <1>   0.1500 
 45 H       -2.2870     1.5770     1.5940 H     1 <1>   0.0800 
 46 H       -1.2860     1.5180     0.1590 H     1 <1>   0.0800 
 47 H       -1.9890     0.0480     0.7930 H     1 <1>   0.0800 
 48 H       -7.8310    11.4150    -1.8440 H     1 <1>   0.1500 
 49 H       -6.8210    11.3170     2.2920 H     1 <1>   0.1500 
 50 H       -7.5690    12.5680     0.3120 H     1 <1>   0.1500 
@<TRIPOS>BOND
  1   1   2  ar  
  2   1   3  ar  
  3   2   4  ar  
  4   2   5  1   
  5   3   6  1   
  6   3   7  ar  
  7   4   8  ar  
  8   4  26  1   
  9   5   9  1   
 10   5  10  1   
 11   6  11  1   
 12   6  27  1   
 13   7   8  ar  
 14   7  12  ar  
 15   8  13  ar  
 16   9  14  1   
 17   9  28  1   
 18   9  29  1   
 19  10  15  1   
 20  10  30  1   
 21  10  31  1   
 22  11  16  1   
 23  11  32  1   
 24  11  33  1   
 25  12  17  ar  
 26  12  34  1   
 27  13  18  ar  
 28  13  35  1   
 29  14  19  1   
 30  14  36  1   
 31  14  37  1   
 32  15  19  1   
 33  15  38  1   
 34  15  39  1   
 35  16  20  ar  
 36  16  21  ar  
 37  17  18  ar  
 38  17  40  1   
 39  18  41  1   
 40  19  22  1   
 41  19  42  1   
 42  20  23  ar  
 43  20  43  1   
 44  21  24  ar  
 45  21  44  1   
 46  22  45  1   
 47  22  46  1   
 48  22  47  1   
 49  23  25  ar  
 50  23  48  1   
 51  24  25  ar  
 52  24  49  1   
 53  25  50  1   
@<TRIPOS>SUBSTRUCTURE
  1 ****   1 GROUP 4 **** **** 0

# MOE 2024.06 (io_trps.svl 2023.06)
