@<TRIPOS>MOLECULE
NONAME
29 29 1 0 0 
SMALL
USER_CHARGES


@<TRIPOS>ATOM
  1 CL       2.1150    -0.0150    -2.1270 Cl    1 <1>  -0.1770 
  2 C        1.9660     1.3610    -1.0640 C.ar  1 <1>   0.1770 
  3 C        1.0980     2.3830    -1.3980 C.ar  1 <1>  -0.1500 
  4 C        2.7170     1.4040     0.0940 C.ar  1 <1>  -0.1500 
  5 C        0.9550     3.4930    -0.5720 C.ar  1 <1>  -0.0090 
  6 C        2.5870     2.4970     0.9300 C.ar  1 <1>  -0.1500 
  7 S       -0.1720     4.8380    -1.0300 S.o2  1 <1>   1.4470 
  8 C        1.7190     3.5290     0.5950 C.ar  1 <1>   0.0830 
  9 O        0.5830     6.0710    -1.1260 O.2   1 <1>  -0.6500 
 10 O       -0.9210     4.4170    -2.1970 O.2   1 <1>  -0.6500 
 11 N       -1.2750     4.9620     0.2520 N.am  1 <1>  -0.8490 
 12 O        1.6100     4.5590     1.4540 O.3   1 <1>  -0.3630 
 13 C       -2.0130     6.2730     0.2290 C.3   1 <1>   0.0900 
 14 C       -2.2320     3.8530     0.3080 C.3   1 <1>   0.1160 
 15 C        2.5840     5.5740     1.3730 C.3   1 <1>   0.0400 
 16 C       -3.1540     6.5280     1.2350 C.2   1 <1>   0.9060 
 17 O       -2.9770     7.3260     2.1650 O.co2 1 <1>  -0.9000 
 18 O       -4.2450     5.9630     1.0630 O.co2 1 <1>  -0.9000 
 19 H        0.5320     2.3110    -2.3110 H     1 <1>   0.1500 
 20 H        3.3850     0.5950     0.3340 H     1 <1>   0.1500 
 21 H        3.1490     2.5560     1.8450 H     1 <1>   0.1500 
 22 H       -2.4460     6.4070    -0.7450 H     1 <1>   0.0800 
 23 H       -1.3010     7.0650     0.3750 H     1 <1>   0.0800 
 24 H       -1.7170     2.9100     0.2660 H     1 <1>   0.0800 
 25 H       -2.9280     3.9160    -0.5130 H     1 <1>   0.0800 
 26 H       -2.7850     3.8910     1.2320 H     1 <1>   0.0800 
 27 H        2.2870     6.3720     2.0300 H     1 <1>   0.0800 
 28 H        2.6350     5.9370     0.3610 H     1 <1>   0.0800 
 29 H        3.5330     5.1730     1.6780 H     1 <1>   0.0800 
@<TRIPOS>BOND
  1   1   2  1   
  2   2   3  ar  
  3   2   4  ar  
  4   3   5  ar  
  5   3  19  1   
  6   4   6  ar  
  7   4  20  1   
  8   5   7  1   
  9   5   8  ar  
 10   6   8  ar  
 11   6  21  1   
 12   7   9  2   
 13   7  10  2   
 14   7  11  am  
 15   8  12  1   
 16  11  13  1   
 17  11  14  1   
 18  12  15  1   
 19  13  16  1   
 20  13  22  1   
 21  13  23  1   
 22  14  24  1   
 23  14  25  1   
 24  14  26  1   
 25  15  27  1   
 26  15  28  1   
 27  15  29  1   
 28  16  17  ar  
 29  16  18  ar  
@<TRIPOS>SUBSTRUCTURE
  1 ****   7 GROUP 4 **** **** 0

# MOE 2024.06 (io_trps.svl 2023.06)
