@<TRIPOS>MOLECULE
NONAME
33 33 1 0 0 
SMALL
USER_CHARGES


@<TRIPOS>ATOM
  1 CL       0.6480    -1.0480    -2.5400 Cl    1 <1>  -0.1770 
  2 C        1.6310    -1.3680    -1.1280 C.ar  1 <1>   0.1770 
  3 C        1.2610    -2.3540    -0.2210 C.ar  1 <1>   0.0830 
  4 C        2.7760    -0.6160    -0.9500 C.ar  1 <1>  -0.1500 
  5 O        0.1230    -3.0580    -0.4570 O.3   1 <1>  -0.3630 
  6 C        2.0770    -2.5700     0.8850 C.ar  1 <1>  -0.1500 
  7 C        3.5990    -0.8290     0.1500 C.ar  1 <1>  -0.0090 
  8 C       -0.3360    -4.0520     0.4320 C.3   1 <1>   0.0400 
  9 C        3.2260    -1.8150     1.0580 C.ar  1 <1>  -0.1500 
 10 S        5.1180     0.1310     0.3930 S.o2  1 <1>   1.4470 
 11 O        5.3680     0.9880    -0.7450 O.2   1 <1>  -0.6500 
 12 O        5.1130     0.7000     1.7220 O.2   1 <1>  -0.6500 
 13 N        6.3280    -1.0570     0.3670 N.am  1 <1>  -0.8490 
 14 C        7.5850    -0.5230     0.9620 C.3   1 <1>   0.2570 
 15 C        6.5560    -1.6040    -0.9790 C.3   1 <1>   0.1160 
 16 C        8.7540    -1.5070     1.0920 C.2   1 <1>   0.6590 
 17 O        8.9960    -2.0820     2.1230 O.2   1 <1>  -0.5700 
 18 O        9.5060    -1.6740     0.0060 O.3   1 <1>  -0.4300 
 19 C       10.6240    -2.5390     0.0050 C.3   1 <1>   0.0400 
 20 H        3.0260     0.1390    -1.6760 H     1 <1>   0.1500 
 21 H        1.8390    -3.3180     1.6180 H     1 <1>   0.1500 
 22 H       -1.2520    -4.4530     0.0380 H     1 <1>   0.0800 
 23 H       -0.5170    -3.6060     1.3940 H     1 <1>   0.0800 
 24 H        0.4030    -4.8310     0.4980 H     1 <1>   0.0800 
 25 H        3.8530    -1.9930     1.9180 H     1 <1>   0.1500 
 26 H        7.3770    -0.1720     1.9570 H     1 <1>   0.0800 
 27 H        7.9210     0.3220     0.3860 H     1 <1>   0.0800 
 28 H        6.9880    -0.8560    -1.6250 H     1 <1>   0.0800 
 29 H        5.6260    -1.9350    -1.4090 H     1 <1>   0.0800 
 30 H        7.2170    -2.4520    -0.9330 H     1 <1>   0.0800 
 31 H       11.0730    -2.5180    -0.9720 H     1 <1>   0.0800 
 32 H       10.2930    -3.5360     0.2400 H     1 <1>   0.0800 
 33 H       11.3280    -2.1990     0.7450 H     1 <1>   0.0800 
@<TRIPOS>BOND
  1   1   2  1   
  2   2   3  ar  
  3   2   4  ar  
  4   3   5  1   
  5   3   6  ar  
  6   4   7  ar  
  7   4  20  1   
  8   5   8  1   
  9   6   9  ar  
 10   6  21  1   
 11   7   9  ar  
 12   7  10  1   
 13   8  22  1   
 14   8  23  1   
 15   8  24  1   
 16   9  25  1   
 17  10  11  2   
 18  10  12  2   
 19  10  13  am  
 20  13  14  1   
 21  13  15  1   
 22  14  16  1   
 23  14  26  1   
 24  14  27  1   
 25  15  28  1   
 26  15  29  1   
 27  15  30  1   
 28  16  17  2   
 29  16  18  1   
 30  18  19  1   
 31  19  31  1   
 32  19  32  1   
 33  19  33  1   
@<TRIPOS>SUBSTRUCTURE
  1 ****   7 GROUP 4 **** **** 0

# MOE 2024.06 (io_trps.svl 2023.06)
