@<TRIPOS>MOLECULE
NONAME
46 48 1 0 0 
SMALL
USER_CHARGES


@<TRIPOS>ATOM
  1 S       -0.0800    -0.0290    -0.3800 S.o2  1 <1>   1.4470 
  2 O       -0.4910    -0.5530    -1.6650 O.2   1 <1>  -0.6500 
  3 O       -0.4690    -0.7440     0.8170 O.2   1 <1>  -0.6500 
  4 N        1.6170    -0.0180    -0.3720 N.am  1 <1>  -0.8490 
  5 C       -0.5510     1.7260    -0.2840 C.ar  1 <1>  -0.0090 
  6 C        2.1790     0.1880     0.9630 C.3   1 <1>   0.1960 
  7 C        2.1720    -1.2250    -1.0030 C.3   1 <1>   0.1960 
  8 C       -1.8650     2.1130     0.1020 C.ar  1 <1>   0.0000 
  9 C        0.3590     2.7040    -0.6090 C.ar  1 <1>  -0.1500 
 10 C        3.6730     0.5380     0.8590 C.3   1 <1>  -0.1600 
 11 C        3.6850    -1.3840    -0.7630 C.3   1 <1>  -0.1600 
 12 C       -2.1820     3.4930     0.2030 C.ar  1 <1>   0.0000 
 13 C       -2.8970     1.1850     0.3890 C.ar  1 <1>  -0.1500 
 14 C        0.0490     4.0610    -0.5300 C.ar  1 <1>  -0.1500 
 15 C        4.3550    -0.0540    -0.3900 C.3   1 <1>  -0.0800 
 16 C       -1.1980     4.4600    -0.1210 C.ar  1 <1>   0.0830 
 17 C       -3.4820     3.8630     0.6180 C.ar  1 <1>  -0.1500 
 18 C       -4.1450     1.5790     0.7810 C.ar  1 <1>  -0.1500 
 19 C        5.8630    -0.2250    -0.1740 C.3   1 <1>  -0.2400 
 20 O       -1.5500     5.7660    -0.0140 O.3   1 <1>  -0.3630 
 21 C       -4.4420     2.9360     0.9030 C.ar  1 <1>  -0.1500 
 22 C       -0.6730     6.8190    -0.3370 C.3   1 <1>   0.1200 
 23 C       -1.4100     8.1340    -0.1070 C.3   1 <1>  -0.2400 
 24 H        2.0530    -0.7110     1.5450 H     1 <1>   0.0800 
 25 H        1.6630     0.9860     1.4710 H     1 <1>   0.0800 
 26 H        1.9900    -1.1640    -2.0640 H     1 <1>   0.0800 
 27 H        1.6620    -2.1010    -0.6340 H     1 <1>   0.0800 
 28 H        1.3490     2.4410    -0.9400 H     1 <1>   0.1500 
 29 H        4.1550     0.1830     1.7530 H     1 <1>   0.0800 
 30 H        3.7840     1.6070     0.8420 H     1 <1>   0.0800 
 31 H        4.1390    -1.7960    -1.6470 H     1 <1>   0.0800 
 32 H        3.8350    -2.0930     0.0320 H     1 <1>   0.0800 
 33 H       -2.7180     0.1300     0.2990 H     1 <1>   0.1500 
 34 H        0.8160     4.7640    -0.7960 H     1 <1>   0.1500 
 35 H        4.2050     0.6290    -1.2100 H     1 <1>   0.0800 
 36 H       -3.7150     4.9090     0.7080 H     1 <1>   0.1500 
 37 H       -4.9110     0.8540     0.9980 H     1 <1>   0.1500 
 38 H        6.0580    -0.9190     0.6250 H     1 <1>   0.0800 
 39 H        6.3120     0.7200     0.0750 H     1 <1>   0.0800 
 40 H        6.3270    -0.5950    -1.0710 H     1 <1>   0.0800 
 41 H       -5.4270     3.2350     1.2170 H     1 <1>   0.1500 
 42 H       -0.3860     6.7190    -1.3700 H     1 <1>   0.0800 
 43 H        0.1920     6.7510     0.3010 H     1 <1>   0.0800 
 44 H       -2.2810     8.1850    -0.7370 H     1 <1>   0.0800 
 45 H       -0.7660     8.9610    -0.3460 H     1 <1>   0.0800 
 46 H       -1.7070     8.2170     0.9230 H     1 <1>   0.0800 
@<TRIPOS>BOND
  1   1   2  2   
  2   1   3  2   
  3   1   4  am  
  4   1   5  1   
  5   4   6  1   
  6   4   7  1   
  7   5   8  ar  
  8   5   9  ar  
  9   6  10  1   
 10   6  24  1   
 11   6  25  1   
 12   7  11  1   
 13   7  26  1   
 14   7  27  1   
 15   8  12  ar  
 16   8  13  ar  
 17   9  14  ar  
 18   9  28  1   
 19  10  15  1   
 20  10  29  1   
 21  10  30  1   
 22  11  15  1   
 23  11  31  1   
 24  11  32  1   
 25  12  16  ar  
 26  12  17  ar  
 27  13  18  ar  
 28  13  33  1   
 29  14  16  ar  
 30  14  34  1   
 31  15  19  1   
 32  15  35  1   
 33  16  20  1   
 34  17  21  ar  
 35  17  36  1   
 36  18  21  ar  
 37  18  37  1   
 38  19  38  1   
 39  19  39  1   
 40  19  40  1   
 41  20  22  1   
 42  21  41  1   
 43  22  23  1   
 44  22  42  1   
 45  22  43  1   
 46  23  44  1   
 47  23  45  1   
 48  23  46  1   
@<TRIPOS>SUBSTRUCTURE
  1 ****   5 GROUP 4 **** **** 0

# MOE 2024.06 (io_trps.svl 2023.06)
