@<TRIPOS>MOLECULE
NONAME
44 46 1 0 0 
SMALL
USER_CHARGES


@<TRIPOS>ATOM
  1 S        0.4950    -0.2920    -1.4680 S.o2  1 <1>   1.4470 
  2 O       -0.4810     0.6380    -1.9950 O.2   1 <1>  -0.6500 
  3 O        0.9690    -1.3540    -2.3310 O.2   1 <1>  -0.6500 
  4 N       -0.2200    -1.0450    -0.1300 N.am  1 <1>  -0.8490 
  5 C        1.9080     0.6010    -0.7370 C.ar  1 <1>  -0.0090 
  6 C        0.5710    -2.1140     0.4570 C.3   1 <1>   0.1960 
  7 C       -1.5050    -1.6420    -0.4420 C.3   1 <1>   0.1960 
  8 C        1.7670     1.7240     0.0830 C.ar  1 <1>  -0.1440 
  9 C        3.1950     0.1350    -0.9780 C.ar  1 <1>  -0.1500 
 10 C       -0.4150    -2.8630     1.3440 C.3   1 <1>  -0.1600 
 11 C       -1.7860    -2.5800     0.7260 C.3   1 <1>  -0.1600 
 12 C        2.8880     2.3390     0.6180 C.ar  1 <1>  -0.1500 
 13 C        0.3990     2.3060     0.4200 C.3   1 <1>  -0.0970 
 14 C        4.3370     0.7340    -0.4530 C.ar  1 <1>   0.0860 
 15 C        4.1530     1.8520     0.3560 C.ar  1 <1>  -0.1500 
 16 C        5.6560     0.2010    -0.7400 C.2   1 <1>   0.5440 
 17 O        5.8210    -0.9910    -0.8990 O.2   1 <1>  -0.5700 
 18 N        6.7340     1.0270    -0.8570 N.am  1 <1>  -0.7300 
 19 C        8.1040     0.5700    -1.1810 C.3   1 <1>   0.3200 
 20 C        9.1360     1.4930    -0.5540 C.2   1 <1>  -0.0400 
 21 O       10.3840     1.4020    -0.9720 O.3   1 <1>  -0.2800 
 22 C        9.0310     2.4440     0.4020 C.2   1 <1>  -0.1500 
 23 C       11.0980     2.2850    -0.3020 C.2   1 <1>  -0.0100 
 24 C       10.3210     2.9650     0.5660 C.2   1 <1>  -0.1500 
 25 H        1.4010    -1.7210     1.0210 H     1 <1>   0.0800 
 26 H        0.9380    -2.7770    -0.3100 H     1 <1>   0.0800 
 27 H       -1.4340    -2.2080    -1.3580 H     1 <1>   0.0800 
 28 H       -2.2650    -0.8850    -0.5470 H     1 <1>   0.0800 
 29 H        3.3280    -0.7340    -1.6020 H     1 <1>   0.1500 
 30 H       -0.3690    -2.4690     2.3440 H     1 <1>   0.0800 
 31 H       -0.1880    -3.9140     1.3680 H     1 <1>   0.0800 
 32 H       -2.2670    -3.4780     0.3820 H     1 <1>   0.0800 
 33 H       -2.4240    -2.0900     1.4410 H     1 <1>   0.0800 
 34 H        2.7810     3.2050     1.2490 H     1 <1>   0.1500 
 35 H       -0.0490     2.7330    -0.4590 H     1 <1>   0.0800 
 36 H        0.4760     3.0780     1.1640 H     1 <1>   0.0800 
 37 H       -0.2530     1.5430     0.8060 H     1 <1>   0.0800 
 38 H        5.0060     2.3390     0.7940 H     1 <1>   0.1500 
 39 H        6.6040     2.0370    -0.8920 H     1 <1>   0.3700 
 40 H        8.2280     0.5720    -2.2490 H     1 <1>   0.0800 
 41 H        8.2570    -0.4340    -0.8230 H     1 <1>   0.0800 
 42 H        8.1630     2.7600     0.9510 H     1 <1>   0.1500 
 43 H       12.1520     2.3620    -0.5050 H     1 <1>   0.1500 
 44 H       10.5990     3.7440     1.2530 H     1 <1>   0.1500 
@<TRIPOS>BOND
  1   1   2  2   
  2   1   3  2   
  3   1   4  am  
  4   1   5  1   
  5   4   6  1   
  6   4   7  1   
  7   5   8  ar  
  8   5   9  ar  
  9   6  10  1   
 10   6  25  1   
 11   6  26  1   
 12   7  11  1   
 13   7  27  1   
 14   7  28  1   
 15   8  12  ar  
 16   8  13  1   
 17   9  14  ar  
 18   9  29  1   
 19  10  11  1   
 20  10  30  1   
 21  10  31  1   
 22  11  32  1   
 23  11  33  1   
 24  12  15  ar  
 25  12  34  1   
 26  13  35  1   
 27  13  36  1   
 28  13  37  1   
 29  14  15  ar  
 30  14  16  1   
 31  15  38  1   
 32  16  17  2   
 33  16  18  am  
 34  18  19  1   
 35  18  39  1   
 36  19  20  1   
 37  19  40  1   
 38  19  41  1   
 39  20  21  1   
 40  20  22  2   
 41  21  23  1   
 42  22  24  1   
 43  22  42  1   
 44  23  24  2   
 45  23  43  1   
 46  24  44  1   
@<TRIPOS>SUBSTRUCTURE
  1 ****  14 GROUP 4 **** **** 0

# MOE 2024.06 (io_trps.svl 2023.06)
