@<TRIPOS>MOLECULE
NONAME
35 36 1 0 0 
SMALL
USER_CHARGES


@<TRIPOS>ATOM
  1 S        0.3460     0.2280    -0.4050 S.o2  1 <1>   1.4470 
  2 O        1.6970    -0.0590     0.0080 O.2   1 <1>  -0.6500 
  3 O        0.0790     0.8910    -1.6560 O.2   1 <1>  -0.6500 
  4 N       -0.1320     1.3530     0.7080 N.am  1 <1>  -0.9780 
  5 C       -0.7700    -1.1740    -0.1220 C.ar  1 <1>  -0.0090 
  6 C       -2.0520    -1.1850    -0.6510 C.ar  1 <1>  -0.1500 
  7 C       -0.3810    -2.2590     0.6530 C.ar  1 <1>  -0.1500 
  8 C       -2.9450    -2.2310    -0.4310 C.ar  1 <1>   0.0860 
  9 C       -1.2420    -3.3170     0.8810 C.ar  1 <1>  -0.1500 
 10 C       -2.5170    -3.3120     0.3440 C.ar  1 <1>  -0.1430 
 11 C       -4.2790    -2.1600    -0.9940 C.2   1 <1>   0.5440 
 12 C       -3.4450    -4.4940     0.5970 C.3   1 <1>  -0.0960 
 13 O       -4.4720    -2.5620    -2.1250 O.2   1 <1>  -0.5700 
 14 N       -5.3320    -1.6380    -0.2740 N.am  1 <1>  -0.6600 
 15 C       -6.7120    -1.5310    -0.8370 C.3   1 <1>   0.1400 
 16 C       -5.2130    -1.0670     1.1010 C.3   1 <1>   0.1400 
 17 C       -7.2570    -0.1050    -0.6630 C.3   1 <1>   0.1200 
 18 C       -5.8430     0.3350     1.1590 C.3   1 <1>   0.1200 
 19 O       -7.1550     0.3080     0.6720 O.3   1 <1>  -0.5600 
 20 H       -0.1890     2.2070     0.1580 H     1 <1>   0.4200 
 21 H        0.6910     1.4550     1.2980 H     1 <1>   0.4200 
 22 H       -2.3770    -0.3570    -1.2580 H     1 <1>   0.1500 
 23 H        0.6080    -2.2790     1.0800 H     1 <1>   0.1500 
 24 H       -0.9070    -4.1480     1.4790 H     1 <1>   0.1500 
 25 H       -4.3120    -4.1740     1.1460 H     1 <1>   0.0800 
 26 H       -2.9490    -5.2650     1.1590 H     1 <1>   0.0800 
 27 H       -3.7670    -4.9130    -0.3400 H     1 <1>   0.0800 
 28 H       -7.3570    -2.2230    -0.3250 H     1 <1>   0.0800 
 29 H       -6.7180    -1.7860    -1.8820 H     1 <1>   0.0800 
 30 H       -4.1840    -1.0030     1.4070 H     1 <1>   0.0800 
 31 H       -5.7260    -1.7100     1.7950 H     1 <1>   0.0800 
 32 H       -8.2950    -0.0680    -0.9400 H     1 <1>   0.0800 
 33 H       -6.7090     0.5850    -1.2820 H     1 <1>   0.0800 
 34 H       -5.2710     1.0320     0.5710 H     1 <1>   0.0800 
 35 H       -5.8780     0.6860     2.1750 H     1 <1>   0.0800 
@<TRIPOS>BOND
  1   1   2  2   
  2   1   3  2   
  3   1   4  am  
  4   1   5  1   
  5   4  20  1   
  6   4  21  1   
  7   5   6  ar  
  8   5   7  ar  
  9   6   8  ar  
 10   6  22  1   
 11   7   9  ar  
 12   7  23  1   
 13   8  10  ar  
 14   8  11  1   
 15   9  10  ar  
 16   9  24  1   
 17  10  12  1   
 18  11  13  2   
 19  11  14  am  
 20  12  25  1   
 21  12  26  1   
 22  12  27  1   
 23  14  15  1   
 24  14  16  1   
 25  15  17  1   
 26  15  28  1   
 27  15  29  1   
 28  16  18  1   
 29  16  30  1   
 30  16  31  1   
 31  17  19  1   
 32  17  32  1   
 33  17  33  1   
 34  18  19  1   
 35  18  34  1   
 36  18  35  1   
@<TRIPOS>SUBSTRUCTURE
  1 ****   8 GROUP 4 **** **** 0

# MOE 2024.06 (io_trps.svl 2023.06)
