@<TRIPOS>MOLECULE
NONAME
43 44 1 0 0 
SMALL
USER_CHARGES


@<TRIPOS>ATOM
  1 S       -0.4540     0.2860    -0.1590 S.o2  1 <1>   1.3330 
  2 O       -1.2090     1.4520    -0.5540 O.2   1 <1>  -0.6500 
  3 O        0.5940    -0.2240    -1.0120 O.2   1 <1>  -0.6500 
  4 N       -1.5520    -0.9690     0.1390 N.am  1 <1>  -0.8490 
  5 C        0.2520     0.5690     1.4500 C.3   1 <1>  -0.1350 
  6 C       -1.7440    -1.8150    -1.0570 C.3   1 <1>   0.1960 
  7 C       -2.8560    -0.4740     0.6230 C.3   1 <1>   0.1960 
  8 C       -2.6900    -2.9980    -0.7900 C.3   1 <1>   0.1400 
  9 C       -3.8270    -1.6220     0.9490 C.3   1 <1>   0.1400 
 10 N       -3.9900    -2.5220    -0.2310 N.am  1 <1>  -0.6600 
 11 C       -5.1980    -2.7800    -0.8450 C.2   1 <1>   0.5440 
 12 O       -5.2210    -3.4950    -1.8290 O.2   1 <1>  -0.5700 
 13 C       -6.4320    -2.2010    -0.3410 C.ar  1 <1>   0.0860 
 14 C       -6.9080    -0.9840    -0.8440 C.ar  1 <1>  -0.1430 
 15 C       -7.1560    -2.8280     0.6790 C.ar  1 <1>  -0.1430 
 16 C       -8.0540    -0.4100    -0.3220 C.ar  1 <1>  -0.1500 
 17 C       -6.1750    -0.2750    -1.9770 C.3   1 <1>  -0.0970 
 18 C       -8.3010    -2.2400     1.1900 C.ar  1 <1>  -0.1500 
 19 C       -6.6990    -4.1690     1.2390 C.3   1 <1>  -0.0970 
 20 C       -8.7550    -1.0300     0.6970 C.ar  1 <1>  -0.1430 
 21 C      -10.0100    -0.3900     1.2620 C.3   1 <1>  -0.0970 
 22 H       -0.5060     0.8740     2.1440 H     1 <1>   0.0800 
 23 H        0.9950     1.3390     1.3920 H     1 <1>   0.0800 
 24 H        0.7140    -0.3280     1.8110 H     1 <1>   0.0800 
 25 H       -0.7950    -2.2120    -1.3760 H     1 <1>   0.0800 
 26 H       -2.1400    -1.2210    -1.8650 H     1 <1>   0.0800 
 27 H       -3.3100     0.1580    -0.1230 H     1 <1>   0.0800 
 28 H       -2.7120     0.1180     1.5100 H     1 <1>   0.0800 
 29 H       -2.2290    -3.6690    -0.0870 H     1 <1>   0.0800 
 30 H       -2.8440    -3.5390    -1.7070 H     1 <1>   0.0800 
 31 H       -4.7710    -1.2080     1.2540 H     1 <1>   0.0800 
 32 H       -3.4350    -2.1920     1.7730 H     1 <1>   0.0800 
 33 H       -8.4120     0.5270    -0.7110 H     1 <1>   0.1500 
 34 H       -6.1150    -0.9230    -2.8340 H     1 <1>   0.0800 
 35 H       -5.1770    -0.0150    -1.6720 H     1 <1>   0.0800 
 36 H       -6.6860     0.6240    -2.2700 H     1 <1>   0.0800 
 37 H       -8.8480    -2.7270     1.9770 H     1 <1>   0.1500 
 38 H       -5.7490    -4.0610     1.7320 H     1 <1>   0.0800 
 39 H       -6.5930    -4.8830     0.4400 H     1 <1>   0.0800 
 40 H       -7.4090    -4.5590     1.9450 H     1 <1>   0.0800 
 41 H       -9.7440     0.3090     2.0340 H     1 <1>   0.0800 
 42 H      -10.6610    -1.1370     1.6790 H     1 <1>   0.0800 
 43 H      -10.5450     0.1310     0.4890 H     1 <1>   0.0800 
@<TRIPOS>BOND
  1   1   2  2   
  2   1   3  2   
  3   1   4  am  
  4   1   5  1   
  5   4   6  1   
  6   4   7  1   
  7   5  22  1   
  8   5  23  1   
  9   5  24  1   
 10   6   8  1   
 11   6  25  1   
 12   6  26  1   
 13   7   9  1   
 14   7  27  1   
 15   7  28  1   
 16   8  10  1   
 17   8  29  1   
 18   8  30  1   
 19   9  10  1   
 20   9  31  1   
 21   9  32  1   
 22  10  11  am  
 23  11  12  2   
 24  11  13  1   
 25  13  14  ar  
 26  13  15  ar  
 27  14  16  ar  
 28  14  17  1   
 29  15  18  ar  
 30  15  19  1   
 31  16  20  ar  
 32  16  33  1   
 33  17  34  1   
 34  17  35  1   
 35  17  36  1   
 36  18  20  ar  
 37  18  37  1   
 38  19  38  1   
 39  19  39  1   
 40  19  40  1   
 41  20  21  1   
 42  21  41  1   
 43  21  42  1   
 44  21  43  1   
@<TRIPOS>SUBSTRUCTURE
  1 ****  10 GROUP 4 **** **** 0

# MOE 2024.06 (io_trps.svl 2023.06)
