@<TRIPOS>MOLECULE
NONAME
33 34 1 0 0 
SMALL
USER_CHARGES


@<TRIPOS>ATOM
  1 S       -1.4220     2.2070    -0.1540 S.3   1 <1>  -0.0800 
  2 C       -2.0140     0.6180     0.2030 C.2   1 <1>   0.4420 
  3 C        0.1700     1.6040     0.1590 C.2   1 <1>   0.1980 
  4 N       -1.0700    -0.1940     0.5110 N.2   1 <1>  -0.3380 
  5 N       -3.3760     0.4360     0.1160 N.am  1 <1>  -0.4940 
  6 N        0.1740     0.3760     0.4850 N.2   1 <1>  -0.3380 
  7 C        1.3430     2.5570     0.0270 C.3   1 <1>   0.0200 
  8 C       -4.1380    -0.6730     0.3500 C.2   1 <1>   0.5690 
  9 C        1.6260     2.9180    -1.4360 C.3   1 <1>  -0.2400 
 10 O       -3.6900    -1.7340     0.6970 O.2   1 <1>  -0.5700 
 11 C       -5.6430    -0.5570     0.1640 C.3   1 <1>   0.0440 
 12 C       -6.0820     0.8760    -0.1480 C.ar  1 <1>  -0.1440 
 13 C       -6.2460     1.8320     0.8520 C.ar  1 <1>  -0.1440 
 14 C       -6.2900     1.2290    -1.4730 C.ar  1 <1>  -0.1500 
 15 C       -6.6120     3.1230     0.5050 C.ar  1 <1>  -0.1500 
 16 C       -6.0360     1.5050     2.3260 C.3   1 <1>  -0.0970 
 17 C       -6.6540     2.5200    -1.8100 C.ar  1 <1>  -0.1500 
 18 C       -6.8140     3.4690    -0.8190 C.ar  1 <1>  -0.1500 
 19 H       -3.9150     1.2640    -0.1450 H     1 <1>   0.3700 
 20 H        2.2140     2.0870     0.4510 H     1 <1>   0.0800 
 21 H        1.1400     3.4490     0.5930 H     1 <1>   0.0800 
 22 H        1.8230     2.0250    -2.0040 H     1 <1>   0.0800 
 23 H        2.4850     3.5620    -1.4980 H     1 <1>   0.0800 
 24 H        0.7830     3.4250    -1.8710 H     1 <1>   0.0800 
 25 H       -6.1290    -0.9150     1.0510 H     1 <1>   0.0800 
 26 H       -5.9300    -1.2130    -0.6360 H     1 <1>   0.0800 
 27 H       -6.1690     0.5020    -2.2580 H     1 <1>   0.1500 
 28 H       -6.7450     3.8740     1.2640 H     1 <1>   0.1500 
 29 H       -6.7750     0.7960     2.6540 H     1 <1>   0.0800 
 30 H       -6.1290     2.3880     2.9330 H     1 <1>   0.0800 
 31 H       -5.0570     1.0920     2.4900 H     1 <1>   0.0800 
 32 H       -6.8140     2.7850    -2.8410 H     1 <1>   0.1500 
 33 H       -7.0990     4.4740    -1.0760 H     1 <1>   0.1500 
@<TRIPOS>BOND
  1   1   2  1   
  2   1   3  1   
  3   2   4  2   
  4   2   5  1   
  5   3   6  2   
  6   3   7  1   
  7   4   6  1   
  8   5   8  am  
  9   5  19  1   
 10   7   9  1   
 11   7  20  1   
 12   7  21  1   
 13   8  10  2   
 14   8  11  1   
 15   9  22  1   
 16   9  23  1   
 17   9  24  1   
 18  11  12  1   
 19  11  25  1   
 20  11  26  1   
 21  12  13  ar  
 22  12  14  ar  
 23  13  15  ar  
 24  13  16  1   
 25  14  17  ar  
 26  14  27  1   
 27  15  18  ar  
 28  15  28  1   
 29  16  29  1   
 30  16  30  1   
 31  16  31  1   
 32  17  18  ar  
 33  17  32  1   
 34  18  33  1   
@<TRIPOS>SUBSTRUCTURE
  1 ****   5 GROUP 4 **** **** 0

# MOE 2024.06 (io_trps.svl 2023.06)
