@<TRIPOS>MOLECULE
NONAME
44 46 1 0 0 
SMALL
USER_CHARGES


@<TRIPOS>ATOM
  1 S       -0.0420    -0.4860     0.6190 S.3   1 <1>  -0.0800 
  2 C        0.8010     1.0600     0.4710 C.2   1 <1>   0.1040 
  3 C       -1.5790     0.3050     0.4180 C.2   1 <1>  -0.1400 
  4 N        2.1780     0.9410     0.5770 N.am  1 <1>  -0.4940 
  5 C       -0.0860     2.1040     0.3140 C.2   1 <1>  -0.0860 
  6 C       -1.4400     1.6110     0.2760 C.2   1 <1>  -0.1810 
  7 C       -2.9700    -0.2410     0.3860 C.3   1 <1>   0.0200 
  8 C        3.1720     1.3650    -0.2580 C.2   1 <1>   0.5690 
  9 C        0.1770     3.5220     0.2530 C.2   1 <1>   0.7160 
 10 C       -2.7910     2.2610     0.1120 C.3   1 <1>   0.0210 
 11 C       -3.7770     1.0570     0.1270 C.3   1 <1>  -0.1600 
 12 O        2.9580     1.9720    -1.2760 O.2   1 <1>  -0.5700 
 13 C        4.6040     1.0320     0.1180 C.3   1 <1>  -0.0990 
 14 O       -0.6540     4.3210     0.6490 O.2   1 <1>  -0.5700 
 15 N        1.3550     3.9880    -0.2650 N.am  1 <1>  -0.5470 
 16 C        4.9180    -0.4690     0.0070 C.3   1 <1>  -0.2400 
 17 C        1.9310     5.2650    -0.3370 C.ar  1 <1>   0.1170 
 18 C        1.5520     6.3270     0.4790 C.ar  1 <1>  -0.1500 
 19 C        2.9510     5.4730    -1.2570 C.ar  1 <1>  -0.1500 
 20 C        2.1660     7.5630     0.3740 C.ar  1 <1>  -0.1500 
 21 C        3.5700     6.7050    -1.3660 C.ar  1 <1>  -0.1500 
 22 C        3.1840     7.7590    -0.5550 C.ar  1 <1>   0.0820 
 23 O        3.8400     8.9370    -0.7250 O.3   1 <1>  -0.3620 
 24 C        3.4910    10.0750     0.0310 C.3   1 <1>   0.0400 
 25 H        2.4830     0.2380     1.2500 H     1 <1>   0.3700 
 26 H       -3.2240    -0.6870     1.3320 H     1 <1>   0.0800 
 27 H       -3.0870    -0.9520    -0.4130 H     1 <1>   0.0800 
 28 H       -2.8430     2.8020    -0.8160 H     1 <1>   0.0800 
 29 H       -2.9830     2.9300     0.9330 H     1 <1>   0.0800 
 30 H       -4.5200     1.1940     0.8930 H     1 <1>   0.0800 
 31 H       -4.2740     0.9880    -0.8250 H     1 <1>   0.0800 
 32 H        4.7890     1.3710     1.1220 H     1 <1>   0.0800 
 33 H        5.2630     1.5780    -0.5350 H     1 <1>   0.0800 
 34 H        1.8800     3.2610    -0.7650 H     1 <1>   0.3700 
 35 H        4.3080    -1.0420     0.6830 H     1 <1>   0.0800 
 36 H        5.9520    -0.6470     0.2450 H     1 <1>   0.0800 
 37 H        4.7360    -0.8110    -0.9970 H     1 <1>   0.0800 
 38 H        0.7730     6.1930     1.2060 H     1 <1>   0.1500 
 39 H        3.2620     4.6650    -1.8950 H     1 <1>   0.1500 
 40 H        1.8390     8.3530     1.0220 H     1 <1>   0.1500 
 41 H        4.3570     6.8590    -2.0830 H     1 <1>   0.1500 
 42 H        4.1240    10.8870    -0.2770 H     1 <1>   0.0800 
 43 H        3.6490     9.8630     1.0730 H     1 <1>   0.0800 
 44 H        2.4620    10.3200    -0.1630 H     1 <1>   0.0800 
@<TRIPOS>BOND
  1   1   2  1   
  2   1   3  1   
  3   2   4  1   
  4   2   5  2   
  5   3   6  2   
  6   3   7  1   
  7   4   8  am  
  8   4  25  1   
  9   5   6  1   
 10   5   9  1   
 11   6  10  1   
 12   7  11  1   
 13   7  26  1   
 14   7  27  1   
 15   8  12  2   
 16   8  13  1   
 17   9  14  2   
 18   9  15  am  
 19  10  11  1   
 20  10  28  1   
 21  10  29  1   
 22  11  30  1   
 23  11  31  1   
 24  13  16  1   
 25  13  32  1   
 26  13  33  1   
 27  15  17  1   
 28  15  34  1   
 29  16  35  1   
 30  16  36  1   
 31  16  37  1   
 32  17  18  ar  
 33  17  19  ar  
 34  18  20  ar  
 35  18  38  1   
 36  19  21  ar  
 37  19  39  1   
 38  20  22  ar  
 39  20  40  1   
 40  21  22  ar  
 41  21  41  1   
 42  22  23  1   
 43  23  24  1   
 44  24  42  1   
 45  24  43  1   
 46  24  44  1   
@<TRIPOS>SUBSTRUCTURE
  1 ****  15 GROUP 4 **** **** 0

# MOE 2024.06 (io_trps.svl 2023.06)
