@<TRIPOS>MOLECULE
NONAME
40 41 1 0 0 
SMALL
USER_CHARGES


@<TRIPOS>ATOM
  1 I        2.6710    -2.1540     3.5120 I     1 <1>  -0.0810 
  2 C        2.7140    -1.4610     1.4910 C.ar  1 <1>   0.0810 
  3 C        1.8490    -1.9960     0.5430 C.ar  1 <1>   0.0820 
  4 C        3.6330    -0.4740     1.1890 C.ar  1 <1>  -0.1500 
  5 O        0.9720    -2.9660     0.9130 O.3   1 <1>  -0.3630 
  6 C        1.9330    -1.4990    -0.7540 C.ar  1 <1>  -0.1500 
  7 C        3.7230     0.0140    -0.1080 C.ar  1 <1>  -0.0090 
  8 C        0.0160    -3.4880     0.0160 C.3   1 <1>   0.0400 
  9 C        2.8570    -0.5110    -1.0650 C.ar  1 <1>  -0.1500 
 10 S        4.9460     1.2820    -0.5350 S.o2  1 <1>   1.4470 
 11 O        4.9860     1.5080    -1.9620 O.2   1 <1>  -0.6500 
 12 O        4.8470     2.4000     0.3740 O.2   1 <1>  -0.6500 
 13 N        6.4270     0.5330    -0.1720 N.am  1 <1>  -0.8490 
 14 C        6.7750    -0.5350    -1.1350 C.3   1 <1>   0.1960 
 15 C        7.5120     1.5390    -0.1140 C.3   1 <1>   0.1960 
 16 C        8.0960    -1.2570    -0.7630 C.3   1 <1>   0.3430 
 17 C        8.9160     0.9150     0.0950 C.3   1 <1>   0.3430 
 18 N        8.8380    -0.5670     0.3520 N.4   1 <1>  -0.9590 
 19 C       10.1470    -1.2080     0.6410 C.3   1 <1>   0.3430 
 20 C       10.6610    -0.7380     1.9960 C.3   1 <1>  -0.2400 
 21 H        4.2760    -0.0820     1.9580 H     1 <1>   0.1500 
 22 H        1.2910    -1.8650    -1.5330 H     1 <1>   0.1500 
 23 H       -0.5770    -4.2110     0.5460 H     1 <1>   0.0800 
 24 H        0.5250    -3.9640    -0.8020 H     1 <1>   0.0800 
 25 H       -0.6120    -2.6860    -0.3310 H     1 <1>   0.0800 
 26 H        2.9010    -0.1390    -2.0760 H     1 <1>   0.1500 
 27 H        6.8760    -0.1200    -2.1250 H     1 <1>   0.0800 
 28 H        5.9820    -1.2650    -1.1760 H     1 <1>   0.0800 
 29 H        7.3200     2.2200     0.6980 H     1 <1>   0.0800 
 30 H        7.5210     2.1240    -1.0200 H     1 <1>   0.0800 
 31 H        8.7180    -1.3120    -1.6420 H     1 <1>   0.0800 
 32 H        7.8660    -2.2680    -0.4690 H     1 <1>   0.0800 
 33 H        9.3920     1.4120     0.9230 H     1 <1>   0.0800 
 34 H        9.5140     1.1010    -0.7820 H     1 <1>   0.0800 
 35 H        8.2280    -0.6620     1.1780 H     1 <1>   0.4500 
 36 H       10.8610    -0.9670    -0.1310 H     1 <1>   0.0800 
 37 H       10.0270    -2.2800     0.6680 H     1 <1>   0.0800 
 38 H       10.8940     0.3110     1.9890 H     1 <1>   0.0800 
 39 H       11.5660    -1.2690     2.2310 H     1 <1>   0.0800 
 40 H        9.9460    -0.9480     2.7720 H     1 <1>   0.0800 
@<TRIPOS>BOND
  1   1   2  1   
  2   2   3  ar  
  3   2   4  ar  
  4   3   5  1   
  5   3   6  ar  
  6   4   7  ar  
  7   4  21  1   
  8   5   8  1   
  9   6   9  ar  
 10   6  22  1   
 11   7   9  ar  
 12   7  10  1   
 13   8  23  1   
 14   8  24  1   
 15   8  25  1   
 16   9  26  1   
 17  10  11  2   
 18  10  12  2   
 19  10  13  am  
 20  13  14  1   
 21  13  15  1   
 22  14  16  1   
 23  14  27  1   
 24  14  28  1   
 25  15  17  1   
 26  15  29  1   
 27  15  30  1   
 28  16  18  1   
 29  16  31  1   
 30  16  32  1   
 31  17  18  1   
 32  17  33  1   
 33  17  34  1   
 34  18  19  1   
 35  18  35  1   
 36  19  20  1   
 37  19  36  1   
 38  19  37  1   
 39  20  38  1   
 40  20  39  1   
 41  20  40  1   
@<TRIPOS>SUBSTRUCTURE
  1 ****   7 GROUP 4 **** **** 0

# MOE 2024.06 (io_trps.svl 2023.06)
