@<TRIPOS>MOLECULE
NONAME
53 56 1 0 0 
SMALL
USER_CHARGES


@<TRIPOS>ATOM
  1 S        0.2910    -0.2720     2.5600 S.o2  1 <1>   1.4470 
  2 O        1.4850    -1.0290     2.8660 O.2   1 <1>  -0.6500 
  3 O       -0.0420     0.8850     3.3640 O.2   1 <1>  -0.6500 
  4 N        0.4050     0.2650     0.9540 N.am  1 <1>  -0.8490 
  5 C       -1.1240    -1.4070     2.4910 C.ar  1 <1>  -0.0090 
  6 C        1.7370     0.8130     0.6770 C.3   1 <1>   0.1960 
  7 C       -0.6840     1.1910     0.6190 C.3   1 <1>   0.1960 
  8 C       -1.2270    -2.3540     1.4800 C.ar  1 <1>  -0.1500 
  9 C       -2.1390    -1.3550     3.4380 C.ar  1 <1>  -0.1500 
 10 C        1.9820     1.1010    -0.8100 C.3   1 <1>  -0.1600 
 11 C       -0.9970     1.1240    -0.8790 C.3   1 <1>  -0.1600 
 12 C       -2.3100    -3.2240     1.3710 C.ar  1 <1>   0.0860 
 13 C       -3.2220    -2.2130     3.3680 C.ar  1 <1>  -0.1500 
 14 C        1.2540     2.3530    -1.3200 C.3   1 <1>  -0.1600 
 15 C       -0.1970     2.1020    -1.7540 C.3   1 <1>  -0.1600 
 16 C       -2.3840    -4.1750     0.2760 C.2   1 <1>   0.5440 
 17 C       -3.3030    -3.1360     2.3440 C.ar  1 <1>  -0.1500 
 18 O       -1.4150    -4.8250    -0.0500 O.2   1 <1>  -0.5700 
 19 N       -3.5250    -4.3950    -0.4420 N.am  1 <1>  -0.5470 
 20 C       -4.7250    -3.6760    -0.4970 C.ar  1 <1>   0.1170 
 21 C       -5.9290    -4.3630    -0.5890 C.ar  1 <1>  -0.1500 
 22 C       -4.7420    -2.2830    -0.4760 C.ar  1 <1>  -0.1500 
 23 C       -7.1270    -3.6740    -0.6430 C.ar  1 <1>   0.0820 
 24 C       -5.9370    -1.5870    -0.5220 C.ar  1 <1>  -0.1500 
 25 O       -8.2830    -4.3780    -0.7420 O.3   1 <1>  -0.3620 
 26 C       -7.1330    -2.2790    -0.5970 C.ar  1 <1>   0.0820 
 27 C       -9.4430    -3.6540    -1.1090 C.3   1 <1>   0.1200 
 28 O       -8.2970    -1.5770    -0.6220 O.3   1 <1>  -0.3630 
 29 C       -9.4840    -2.3070    -0.3750 C.3   1 <1>   0.1200 
 30 H        2.4790     0.0920     0.9800 H     1 <1>   0.0800 
 31 H        1.8960     1.7040     1.2630 H     1 <1>   0.0800 
 32 H       -0.4520     2.1950     0.9340 H     1 <1>   0.0800 
 33 H       -1.5780     0.8900     1.1410 H     1 <1>   0.0800 
 34 H       -0.4410    -2.4180     0.7450 H     1 <1>   0.1500 
 35 H       -2.0820    -0.6340     4.2380 H     1 <1>   0.1500 
 36 H        1.7360     0.2370    -1.4030 H     1 <1>   0.0800 
 37 H        3.0370     1.2710    -0.9250 H     1 <1>   0.0800 
 38 H       -2.0410     1.3420    -1.0180 H     1 <1>   0.0800 
 39 H       -0.8410     0.1150    -1.2210 H     1 <1>   0.0800 
 40 H       -4.0000    -2.1600     4.1110 H     1 <1>   0.1500 
 41 H        1.7890     2.7450    -2.1690 H     1 <1>   0.0800 
 42 H        1.2780     3.1140    -0.5590 H     1 <1>   0.0800 
 43 H       -0.7060     3.0510    -1.7750 H     1 <1>   0.0800 
 44 H       -0.1980     1.7230    -2.7610 H     1 <1>   0.0800 
 45 H       -4.1490    -3.8010     2.2960 H     1 <1>   0.1500 
 46 H       -3.4350    -5.1880    -1.0780 H     1 <1>   0.3700 
 47 H       -5.9410    -5.4360    -0.6170 H     1 <1>   0.1500 
 48 H       -3.8160    -1.7390    -0.4280 H     1 <1>   0.1500 
 49 H       -5.9510    -0.5130    -0.5000 H     1 <1>   0.1500 
 50 H      -10.3000    -4.2530    -0.8600 H     1 <1>   0.0800 
 51 H       -9.4180    -3.4990    -2.1740 H     1 <1>   0.0800 
 52 H       -9.5660    -2.4620     0.6860 H     1 <1>   0.0800 
 53 H      -10.3150    -1.7130    -0.7110 H     1 <1>   0.0800 
@<TRIPOS>BOND
  1   1   2  2   
  2   1   3  2   
  3   1   4  am  
  4   1   5  1   
  5   4   6  1   
  6   4   7  1   
  7   5   8  ar  
  8   5   9  ar  
  9   6  10  1   
 10   6  30  1   
 11   6  31  1   
 12   7  11  1   
 13   7  32  1   
 14   7  33  1   
 15   8  12  ar  
 16   8  34  1   
 17   9  13  ar  
 18   9  35  1   
 19  10  14  1   
 20  10  36  1   
 21  10  37  1   
 22  11  15  1   
 23  11  38  1   
 24  11  39  1   
 25  12  16  1   
 26  12  17  ar  
 27  13  17  ar  
 28  13  40  1   
 29  14  15  1   
 30  14  41  1   
 31  14  42  1   
 32  15  43  1   
 33  15  44  1   
 34  16  18  2   
 35  16  19  am  
 36  17  45  1   
 37  19  20  1   
 38  19  46  1   
 39  20  21  ar  
 40  20  22  ar  
 41  21  23  ar  
 42  21  47  1   
 43  22  24  ar  
 44  22  48  1   
 45  23  25  1   
 46  23  26  ar  
 47  24  26  ar  
 48  24  49  1   
 49  25  27  1   
 50  26  28  1   
 51  27  29  1   
 52  27  50  1   
 53  27  51  1   
 54  28  29  1   
 55  29  52  1   
 56  29  53  1   
@<TRIPOS>SUBSTRUCTURE
  1 ****  12 GROUP 4 **** **** 0

# MOE 2024.06 (io_trps.svl 2023.06)
