@<TRIPOS>MOLECULE
NONAME
54 57 1 0 0 
SMALL
USER_CHARGES


@<TRIPOS>ATOM
  1 S        0.1520     2.1700     2.3190 S.3   1 <1>  -0.3710 
  2 C        0.3950     3.0200     0.8070 C.2   1 <1>   0.7320 
  3 C        1.9230     2.2930     2.7550 C.3   1 <1>   0.0700 
  4 S       -1.0680     3.2130    -0.1870 S.3   1 <1>  -0.3710 
  5 N        1.5550     3.4330     0.5550 N.2   1 <1>  -0.6960 
  6 C        2.5550     3.0870     1.5890 C.3   1 <1>   0.0860 
  7 C       -0.4350     3.8420    -1.8200 C.3   1 <1>   0.1310 
  8 C       -1.0990     5.1670    -2.1810 C.2   1 <1>   0.5690 
  9 O       -1.7730     5.1920    -3.1810 O.2   1 <1>  -0.5700 
 10 N       -0.9370     6.3040    -1.4200 N.am  1 <1>  -0.6600 
 11 C        0.0710     6.4600    -0.3260 C.3   1 <1>   0.1400 
 12 C       -1.8380     7.4830    -1.6220 C.3   1 <1>   0.1400 
 13 C        0.8400     7.7900    -0.4530 C.3   1 <1>   0.3430 
 14 C       -1.0320     8.7830    -1.7610 C.3   1 <1>   0.3430 
 15 N       -0.0790     8.9740    -0.6110 N.4   1 <1>  -0.9590 
 16 C        0.6700    10.2530    -0.7310 C.3   1 <1>   0.7100 
 17 C        1.6670    10.3790     0.4170 C.ar  1 <1>  -0.1440 
 18 C       -0.2990    11.4320    -0.8160 C.ar  1 <1>  -0.1440 
 19 C        3.0250    10.3480     0.1260 C.ar  1 <1>  -0.1500 
 20 C        1.2660    10.5040     1.7430 C.ar  1 <1>  -0.1500 
 21 C       -1.4220    11.5530    -0.0010 C.ar  1 <1>  -0.1500 
 22 C       -0.0510    12.4180    -1.7630 C.ar  1 <1>  -0.1500 
 23 C        3.9640    10.4300     1.1390 C.ar  1 <1>  -0.1500 
 24 C        2.2070    10.5850     2.7550 C.ar  1 <1>  -0.1500 
 25 C       -2.2770    12.6310    -0.1390 C.ar  1 <1>  -0.1500 
 26 C       -0.9070    13.4960    -1.8990 C.ar  1 <1>  -0.1500 
 27 C        3.5550    10.5450     2.4540 C.ar  1 <1>  -0.1500 
 28 C       -2.0220    13.6020    -1.0890 C.ar  1 <1>  -0.1500 
 29 H        2.3180     1.2950     2.8290 H     1 <1>   0.0800 
 30 H        2.0040     2.8070     3.6960 H     1 <1>   0.0800 
 31 H        3.3370     2.4990     1.1370 H     1 <1>   0.0800 
 32 H        2.9980     3.9920     1.9690 H     1 <1>   0.0800 
 33 H       -0.6870     3.0960    -2.5510 H     1 <1>   0.0800 
 34 H        0.6310     3.9400    -1.7700 H     1 <1>   0.0800 
 35 H        0.7900     5.6660    -0.3630 H     1 <1>   0.0800 
 36 H       -0.4260     6.4110     0.6270 H     1 <1>   0.0800 
 37 H       -2.5110     7.5590    -0.7860 H     1 <1>   0.0800 
 38 H       -2.4420     7.3550    -2.5050 H     1 <1>   0.0800 
 39 H        1.4920     7.7230    -1.3080 H     1 <1>   0.0800 
 40 H        1.4590     7.9160     0.4210 H     1 <1>   0.0800 
 41 H       -1.7190     9.6130    -1.8190 H     1 <1>   0.0800 
 42 H       -0.4850     8.7450    -2.6890 H     1 <1>   0.0800 
 43 H       -0.6240     9.0630     0.2490 H     1 <1>   0.4500 
 44 H        1.2320    10.2290    -1.6500 H     1 <1>   0.0800 
 45 H        3.3770    10.2650    -0.8890 H     1 <1>   0.1500 
 46 H        0.2280    10.5490     2.0170 H     1 <1>   0.1500 
 47 H       -1.6570    10.8240     0.7530 H     1 <1>   0.1500 
 48 H        0.8120    12.3680    -2.4060 H     1 <1>   0.1500 
 49 H        5.0170    10.4090     0.9090 H     1 <1>   0.1500 
 50 H        1.8930    10.6870     3.7810 H     1 <1>   0.1500 
 51 H       -3.1440    12.7240     0.4940 H     1 <1>   0.1500 
 52 H       -0.7080    14.2580    -2.6350 H     1 <1>   0.1500 
 53 H        4.2860    10.6120     3.2430 H     1 <1>   0.1500 
 54 H       -2.6870    14.4430    -1.1950 H     1 <1>   0.1500 
@<TRIPOS>BOND
  1   1   2  1   
  2   1   3  1   
  3   2   4  1   
  4   2   5  2   
  5   3   6  1   
  6   3  29  1   
  7   3  30  1   
  8   4   7  1   
  9   5   6  1   
 10   6  31  1   
 11   6  32  1   
 12   7   8  1   
 13   7  33  1   
 14   7  34  1   
 15   8   9  2   
 16   8  10  am  
 17  10  11  1   
 18  10  12  1   
 19  11  13  1   
 20  11  35  1   
 21  11  36  1   
 22  12  14  1   
 23  12  37  1   
 24  12  38  1   
 25  13  15  1   
 26  13  39  1   
 27  13  40  1   
 28  14  15  1   
 29  14  41  1   
 30  14  42  1   
 31  15  16  1   
 32  15  43  1   
 33  16  17  1   
 34  16  18  1   
 35  16  44  1   
 36  17  19  ar  
 37  17  20  ar  
 38  18  21  ar  
 39  18  22  ar  
 40  19  23  ar  
 41  19  45  1   
 42  20  24  ar  
 43  20  46  1   
 44  21  25  ar  
 45  21  47  1   
 46  22  26  ar  
 47  22  48  1   
 48  23  27  ar  
 49  23  49  1   
 50  24  27  ar  
 51  24  50  1   
 52  25  28  ar  
 53  25  51  1   
 54  26  28  ar  
 55  26  52  1   
 56  27  53  1   
 57  28  54  1   
@<TRIPOS>SUBSTRUCTURE
  1 ****  13 GROUP 4 **** **** 0

# MOE 2024.06 (io_trps.svl 2023.06)
