@<TRIPOS>MOLECULE
NONAME
51 52 1 0 0 
SMALL
USER_CHARGES


@<TRIPOS>ATOM
  1 CL      -0.4890    -1.2290    -0.8170 Cl    1 <1>  -0.1770 
  2 C       -2.1380    -1.6180    -0.3950 C.ar  1 <1>   0.1770 
  3 C       -3.1000    -1.6560    -1.3860 C.ar  1 <1>  -0.1500 
  4 C       -2.4550    -1.8810     0.9230 C.ar  1 <1>  -0.1500 
  5 C       -4.4120    -1.9640    -1.0600 C.ar  1 <1>  -0.1440 
  6 C       -3.7620    -2.1900     1.2560 C.ar  1 <1>  -0.1500 
  7 C       -4.7470    -2.2320     0.2680 C.ar  1 <1>   0.0830 
  8 C       -5.4670    -2.0050    -2.1560 C.3   1 <1>  -0.0960 
  9 O       -6.0460    -2.5290     0.5370 O.3   1 <1>  -0.3630 
 10 C       -6.4830    -2.8210     1.8590 C.3   1 <1>   0.1810 
 11 C       -7.9770    -3.1190     1.8890 C.2   1 <1>   0.5690 
 12 O       -8.4900    -3.4550     2.9300 O.2   1 <1>  -0.5700 
 13 N       -8.7110    -3.0130     0.7490 N.am  1 <1>  -0.7300 
 14 C      -10.1540    -3.2630     0.6680 C.3   1 <1>   0.2200 
 15 C      -10.3930    -4.6960     0.2100 C.3   1 <1>  -0.1600 
 16 C      -10.8120    -2.2620    -0.2820 C.3   1 <1>  -0.1600 
 17 C      -11.8920    -5.0270     0.2400 C.3   1 <1>   0.5030 
 18 C      -12.1530    -2.7460    -0.8810 C.3   1 <1>   0.5030 
 19 N      -12.7260    -3.8680    -0.1200 N.4   1 <1>  -0.9060 
 20 C      -12.3270    -5.4220     1.6520 C.3   1 <1>  -0.2400 
 21 C      -12.2220    -6.1770    -0.7110 C.3   1 <1>  -0.2400 
 22 C      -13.1920    -1.6280    -0.8140 C.3   1 <1>  -0.2400 
 23 C      -11.9950    -3.1650    -2.3460 C.3   1 <1>  -0.2400 
 24 H       -2.8130    -1.4450    -2.4000 H     1 <1>   0.1500 
 25 H       -1.6850    -1.8440     1.6730 H     1 <1>   0.1500 
 26 H       -3.9850    -2.3910     2.2870 H     1 <1>   0.1500 
 27 H       -5.0380    -1.7780    -3.1160 H     1 <1>   0.0800 
 28 H       -6.2360    -1.2840    -1.9470 H     1 <1>   0.0800 
 29 H       -5.9060    -2.9850    -2.2020 H     1 <1>   0.0800 
 30 H       -6.2790    -1.9700     2.4830 H     1 <1>   0.0800 
 31 H       -5.9430    -3.6790     2.2160 H     1 <1>   0.0800 
 32 H       -8.2040    -2.7650    -0.1070 H     1 <1>   0.3700 
 33 H      -10.5760    -3.1350     1.6520 H     1 <1>   0.0800 
 34 H       -9.8630    -5.3740     0.8570 H     1 <1>   0.0800 
 35 H       -9.9950    -4.8290    -0.7790 H     1 <1>   0.0800 
 36 H      -10.1370    -2.0300    -1.0880 H     1 <1>   0.0800 
 37 H      -10.9550    -1.3450     0.2630 H     1 <1>   0.0800 
 38 H      -13.0770    -3.4800     0.7580 H     1 <1>   0.4500 
 39 H      -13.5430    -4.2140    -0.6270 H     1 <1>   0.4500 
 40 H      -12.1220    -4.6440     2.3650 H     1 <1>   0.0800 
 41 H      -11.7850    -6.2970     1.9700 H     1 <1>   0.0800 
 42 H      -13.3750    -5.6640     1.6860 H     1 <1>   0.0800 
 43 H      -11.6610    -7.0510    -0.4280 H     1 <1>   0.0800 
 44 H      -13.2660    -6.4320    -0.6690 H     1 <1>   0.0800 
 45 H      -11.9580    -5.9440    -1.7260 H     1 <1>   0.0800 
 46 H      -13.3640    -1.3160     0.2020 H     1 <1>   0.0800 
 47 H      -14.1260    -1.9350    -1.2510 H     1 <1>   0.0800 
 48 H      -12.8430    -0.7700    -1.3620 H     1 <1>   0.0800 
 49 H      -11.2150    -3.8910    -2.4730 H     1 <1>   0.0800 
 50 H      -11.7270    -2.3090    -2.9420 H     1 <1>   0.0800 
 51 H      -12.9150    -3.5590    -2.7410 H     1 <1>   0.0800 
@<TRIPOS>BOND
  1   1   2  1   
  2   2   3  ar  
  3   2   4  ar  
  4   3   5  ar  
  5   3  24  1   
  6   4   6  ar  
  7   4  25  1   
  8   5   7  ar  
  9   5   8  1   
 10   6   7  ar  
 11   6  26  1   
 12   7   9  1   
 13   8  27  1   
 14   8  28  1   
 15   8  29  1   
 16   9  10  1   
 17  10  11  1   
 18  10  30  1   
 19  10  31  1   
 20  11  12  2   
 21  11  13  am  
 22  13  14  1   
 23  13  32  1   
 24  14  15  1   
 25  14  16  1   
 26  14  33  1   
 27  15  17  1   
 28  15  34  1   
 29  15  35  1   
 30  16  18  1   
 31  16  36  1   
 32  16  37  1   
 33  17  19  1   
 34  17  20  1   
 35  17  21  1   
 36  18  19  1   
 37  18  22  1   
 38  18  23  1   
 39  19  38  1   
 40  19  39  1   
 41  20  40  1   
 42  20  41  1   
 43  20  42  1   
 44  21  43  1   
 45  21  44  1   
 46  21  45  1   
 47  22  46  1   
 48  22  47  1   
 49  22  48  1   
 50  23  49  1   
 51  23  50  1   
 52  23  51  1   
@<TRIPOS>SUBSTRUCTURE
  1 ****  13 GROUP 4 **** **** 0

# MOE 2024.06 (io_trps.svl 2023.06)
