@<TRIPOS>MOLECULE
NONAME
50 52 1 0 0 
SMALL
USER_CHARGES


@<TRIPOS>ATOM
  1 O       -0.9900    -0.2750     0.1720 O.2   1 <1>  -0.5700 
  2 C       -1.2930    -1.4480     0.2610 C.2   1 <1>   0.6900 
  3 N       -2.4230    -1.8680     0.8770 N.am  1 <1>  -0.7300 
  4 N       -0.5040    -2.4050    -0.2760 N.am  1 <1>  -0.7300 
  5 C       -3.5090    -1.0810     1.5240 C.3   1 <1>   0.2200 
  6 C        0.7680    -2.1580    -0.9860 C.3   1 <1>   0.1400 
  7 C       -4.6180    -0.6520     0.5100 C.3   1 <1>   0.0000 
  8 C       -2.9190     0.0380     2.3950 C.3   1 <1>  -0.2400 
  9 C        1.8640    -3.0210    -0.3630 C.3   1 <1>  -0.1600 
 10 C       -5.7810     0.0600     1.2510 C.3   1 <1>  -0.1600 
 11 C       -5.2070    -1.9090    -0.1880 C.3   1 <1>  -0.1600 
 12 C       -4.1000     0.3070    -0.5940 C.3   1 <1>  -0.1600 
 13 C        3.2090    -2.8010    -1.0660 C.3   1 <1>  -0.1600 
 14 C       -6.9170     0.4430     0.2840 C.3   1 <1>  -0.0800 
 15 C       -6.3370    -1.5330    -1.1640 C.3   1 <1>  -0.0800 
 16 C       -5.2280     0.6940    -1.5700 C.3   1 <1>  -0.0800 
 17 C        4.3070    -3.6660    -0.4400 C.3   1 <1>  -0.2400 
 18 C       -7.4630    -0.8280    -0.3880 C.3   1 <1>  -0.1600 
 19 C       -6.3590     1.3910    -0.7920 C.3   1 <1>  -0.1600 
 20 C       -5.7810    -0.5780    -2.2360 C.3   1 <1>  -0.1600 
 21 H       -2.6750    -2.8380     0.7220 H     1 <1>   0.3700 
 22 H       -0.7340    -3.3790    -0.1040 H     1 <1>   0.3700 
 23 H       -3.9830    -1.7560     2.2160 H     1 <1>   0.0800 
 24 H        1.0350    -1.1160    -0.9150 H     1 <1>   0.0800 
 25 H        0.6440    -2.4050    -2.0270 H     1 <1>   0.0800 
 26 H       -2.5570     0.8520     1.7950 H     1 <1>   0.0800 
 27 H       -2.1060    -0.3460     2.9830 H     1 <1>   0.0800 
 28 H       -3.6610     0.4210     3.0690 H     1 <1>   0.0800 
 29 H        1.5900    -4.0580    -0.4380 H     1 <1>   0.0800 
 30 H        1.9620    -2.7620     0.6780 H     1 <1>   0.0800 
 31 H       -6.1710    -0.5810     2.0230 H     1 <1>   0.0800 
 32 H       -5.4250     0.9590     1.7220 H     1 <1>   0.0800 
 33 H       -5.5870    -2.5930     0.5490 H     1 <1>   0.0800 
 34 H       -4.4370    -2.4170    -0.7420 H     1 <1>   0.0800 
 35 H       -3.3100    -0.1640    -1.1500 H     1 <1>   0.0800 
 36 H       -3.6930     1.1980    -0.1530 H     1 <1>   0.0800 
 37 H        3.4910    -1.7630    -0.9900 H     1 <1>   0.0800 
 38 H        3.1180    -3.0460    -2.1110 H     1 <1>   0.0800 
 39 H       -7.7060     0.9350     0.8270 H     1 <1>   0.0800 
 40 H       -6.7220    -2.4220    -1.6350 H     1 <1>   0.0800 
 41 H       -4.8400     1.3590    -2.3220 H     1 <1>   0.0800 
 42 H        4.4310    -3.4210     0.6010 H     1 <1>   0.0800 
 43 H        5.2420    -3.4950    -0.9440 H     1 <1>   0.0800 
 44 H        4.0590    -4.7090    -0.5240 H     1 <1>   0.0800 
 45 H       -8.2620    -0.5690    -1.0610 H     1 <1>   0.0800 
 46 H       -7.8650    -1.4920     0.3570 H     1 <1>   0.0800 
 47 H       -5.9830     2.2870    -0.3310 H     1 <1>   0.0800 
 48 H       -7.1440     1.6760    -1.4700 H     1 <1>   0.0800 
 49 H       -4.9980    -1.0670    -2.7900 H     1 <1>   0.0800 
 50 H       -6.5600    -0.3170    -2.9310 H     1 <1>   0.0800 
@<TRIPOS>BOND
  1   1   2  2   
  2   2   3  am  
  3   2   4  am  
  4   3   5  1   
  5   3  21  1   
  6   4   6  1   
  7   4  22  1   
  8   5   7  1   
  9   5   8  1   
 10   5  23  1   
 11   6   9  1   
 12   6  24  1   
 13   6  25  1   
 14   7  10  1   
 15   7  11  1   
 16   7  12  1   
 17   8  26  1   
 18   8  27  1   
 19   8  28  1   
 20   9  13  1   
 21   9  29  1   
 22   9  30  1   
 23  10  14  1   
 24  10  31  1   
 25  10  32  1   
 26  11  15  1   
 27  11  33  1   
 28  11  34  1   
 29  12  16  1   
 30  12  35  1   
 31  12  36  1   
 32  13  17  1   
 33  13  37  1   
 34  13  38  1   
 35  14  18  1   
 36  14  19  1   
 37  14  39  1   
 38  15  18  1   
 39  15  20  1   
 40  15  40  1   
 41  16  19  1   
 42  16  20  1   
 43  16  41  1   
 44  17  42  1   
 45  17  43  1   
 46  17  44  1   
 47  18  45  1   
 48  18  46  1   
 49  19  47  1   
 50  19  48  1   
 51  20  49  1   
 52  20  50  1   
@<TRIPOS>SUBSTRUCTURE
  1 ****   3 GROUP 4 **** **** 0

# MOE 2024.06 (io_trps.svl 2023.06)
