@<TRIPOS>MOLECULE
NONAME
44 45 1 0 0 
SMALL
USER_CHARGES


@<TRIPOS>ATOM
  1 F       -5.9060    -4.1990    -0.8990 F     1 <1>  -0.1900 
  2 C       -4.6410    -4.3180    -0.5900 C.ar  1 <1>   0.1900 
  3 C       -4.2710    -5.2560     0.3540 C.ar  1 <1>  -0.1500 
  4 C       -3.7220    -3.5020    -1.2220 C.ar  1 <1>  -0.1500 
  5 C       -2.9300    -5.3760     0.6750 C.ar  1 <1>  -0.1500 
  6 C       -2.3810    -3.6280    -0.8950 C.ar  1 <1>  -0.1500 
  7 C       -1.9820    -4.5690     0.0570 C.ar  1 <1>   0.0830 
  8 O       -0.6920    -4.7560     0.4350 O.3   1 <1>  -0.3630 
  9 C        0.3520    -3.9810    -0.0980 C.3   1 <1>   0.1200 
 10 C        1.6520    -4.4690     0.5500 C.3   1 <1>   0.3430 
 11 N        2.8680    -3.7390     0.0540 N.4   1 <1>  -0.9590 
 12 C        4.1030    -4.4560     0.4850 C.3   1 <1>   0.3430 
 13 C        2.8910    -2.3120     0.4950 C.3   1 <1>   0.3430 
 14 C        5.3250    -3.8000    -0.1560 C.3   1 <1>  -0.1600 
 15 C        4.0800    -1.5990    -0.1450 C.3   1 <1>  -0.1600 
 16 C        5.4150    -2.2980     0.1740 C.3   1 <1>  -0.0190 
 17 C        6.5700    -1.6470    -0.5810 C.2   1 <1>   0.6590 
 18 O        6.5590    -1.5630    -1.7810 O.2   1 <1>  -0.5700 
 19 O        7.5680    -1.1930     0.1620 O.3   1 <1>  -0.4300 
 20 C        8.6930    -0.5730    -0.4190 C.3   1 <1>   0.1200 
 21 C        9.6440    -0.1730     0.7030 C.3   1 <1>  -0.2400 
 22 H       -5.0160    -5.8730     0.8230 H     1 <1>   0.1500 
 23 H       -4.0560    -2.7860    -1.9510 H     1 <1>   0.1500 
 24 H       -2.6140    -6.0980     1.4070 H     1 <1>   0.1500 
 25 H       -1.6770    -2.9900    -1.3930 H     1 <1>   0.1500 
 26 H        0.1540    -2.9520     0.1430 H     1 <1>   0.0800 
 27 H        0.3710    -4.1340    -1.1630 H     1 <1>   0.0800 
 28 H        1.7550    -5.5200     0.3300 H     1 <1>   0.0800 
 29 H        1.5730    -4.3560     1.6190 H     1 <1>   0.0800 
 30 H        2.8630    -3.7500    -0.9760 H     1 <1>   0.4500 
 31 H        4.0550    -5.4910     0.1840 H     1 <1>   0.0800 
 32 H        4.1930    -4.4200     1.5590 H     1 <1>   0.0800 
 33 H        2.9730    -2.2610     1.5700 H     1 <1>   0.0800 
 34 H        1.9800    -1.8130     0.2020 H     1 <1>   0.0800 
 35 H        5.2840    -3.9410    -1.2230 H     1 <1>   0.0800 
 36 H        6.2140    -4.2950     0.1960 H     1 <1>   0.0800 
 37 H        4.1160    -0.5850     0.2130 H     1 <1>   0.0800 
 38 H        3.9320    -1.5540    -1.2110 H     1 <1>   0.0800 
 39 H        5.6120    -2.1910     1.2270 H     1 <1>   0.0800 
 40 H        8.3620     0.2900    -0.9720 H     1 <1>   0.0800 
 41 H        9.1610    -1.2740    -1.0910 H     1 <1>   0.0800 
 42 H        9.1630     0.5190     1.3710 H     1 <1>   0.0800 
 43 H       10.5140     0.3030     0.2870 H     1 <1>   0.0800 
 44 H        9.9610    -1.0420     1.2510 H     1 <1>   0.0800 
@<TRIPOS>BOND
  1   1   2  1   
  2   2   3  ar  
  3   2   4  ar  
  4   3   5  ar  
  5   3  22  1   
  6   4   6  ar  
  7   4  23  1   
  8   5   7  ar  
  9   5  24  1   
 10   6   7  ar  
 11   6  25  1   
 12   7   8  1   
 13   8   9  1   
 14   9  10  1   
 15   9  26  1   
 16   9  27  1   
 17  10  11  1   
 18  10  28  1   
 19  10  29  1   
 20  11  12  1   
 21  11  13  1   
 22  11  30  1   
 23  12  14  1   
 24  12  31  1   
 25  12  32  1   
 26  13  15  1   
 27  13  33  1   
 28  13  34  1   
 29  14  16  1   
 30  14  35  1   
 31  14  36  1   
 32  15  16  1   
 33  15  37  1   
 34  15  38  1   
 35  16  17  1   
 36  16  39  1   
 37  17  18  2   
 38  17  19  1   
 39  19  20  1   
 40  20  21  1   
 41  20  40  1   
 42  20  41  1   
 43  21  42  1   
 44  21  43  1   
 45  21  44  1   
@<TRIPOS>SUBSTRUCTURE
  1 ****  11 GROUP 4 **** **** 0

# MOE 2024.06 (io_trps.svl 2023.06)
