@<TRIPOS>MOLECULE
NONAME
46 48 1 0 0 
SMALL
USER_CHARGES


@<TRIPOS>ATOM
  1 O        0.4840     0.4640     1.8400 O.2   1 <1>  -0.5700 
  2 C        0.8450     1.4410     1.1900 C.2   1 <1>   0.7160 
  3 N        2.1580     1.5660     0.7520 N.am  1 <1>  -0.2290 
  4 C       -0.0540     2.4800     0.8610 C.2   1 <1>  -0.0860 
  5 C        2.5240     2.7070     0.0130 C.2   1 <1>   0.4960 
  6 C        3.1120     0.5870     1.0310 C.2   1 <1>  -0.0410 
  7 C        0.4020     3.5480     0.1360 C.2   1 <1>  -0.0260 
  8 C       -1.4100     2.7160     1.1070 C.2   1 <1>  -0.1500 
  9 N        1.6810     3.6700    -0.2880 N.2   1 <1>  -0.5760 
 10 C        3.8910     2.7990    -0.4210 C.2   1 <1>  -0.1240 
 11 C        4.3940     0.6950     0.6120 C.2   1 <1>  -0.1500 
 12 N       -0.6200     4.4240    -0.0690 N.pl3 1 <1>   0.0480 
 13 C       -1.7580     3.9140     0.5360 C.2   1 <1>  -0.2370 
 14 C        4.7960     1.8260    -0.1310 C.2   1 <1>  -0.1500 
 15 C        4.3320     4.0200    -1.2250 C.3   1 <1>  -0.1020 
 16 C       -0.4860     5.6990    -0.8070 C.3   1 <1>   0.0160 
 17 C       -3.0470     4.5500     0.5430 C.2   1 <1>   0.7150 
 18 O       -3.3150     5.5240    -0.1380 O.2   1 <1>  -0.5700 
 19 N       -4.0310     4.0450     1.3400 N.am  1 <1>  -0.7300 
 20 C       -5.3700     4.6490     1.5610 C.3   1 <1>   0.1400 
 21 C       -6.1840     4.7060     0.2490 C.3   1 <1>   0.3430 
 22 N       -6.8220     6.0450    -0.0030 N.4   1 <1>  -0.9590 
 23 C       -7.7950     5.9480    -1.1330 C.3   1 <1>   0.2630 
 24 C       -5.7820     7.0790    -0.3200 C.3   1 <1>   0.2630 
 25 H        2.7830    -0.2690     1.6000 H     1 <1>   0.1500 
 26 H       -2.0290     2.0290     1.6580 H     1 <1>   0.1500 
 27 H        5.1270    -0.0640     0.8300 H     1 <1>   0.1500 
 28 H        5.8230     1.8830    -0.4500 H     1 <1>   0.1500 
 29 H        3.7570     4.0880    -2.1320 H     1 <1>   0.0800 
 30 H        5.3730     3.9620    -1.4840 H     1 <1>   0.0800 
 31 H        4.1720     4.9140    -0.6490 H     1 <1>   0.0800 
 32 H        0.5360     5.8480    -1.1010 H     1 <1>   0.0800 
 33 H       -0.7940     6.5100    -0.1740 H     1 <1>   0.0800 
 34 H       -1.1060     5.6680    -1.6830 H     1 <1>   0.0800 
 35 H       -3.7430     3.3100     1.9920 H     1 <1>   0.3700 
 36 H       -5.2340     5.6360     1.9690 H     1 <1>   0.0800 
 37 H       -5.9040     4.0560     2.2840 H     1 <1>   0.0800 
 38 H       -6.9460     3.9460     0.2900 H     1 <1>   0.0800 
 39 H       -5.5260     4.4710    -0.5730 H     1 <1>   0.0800 
 40 H       -7.3320     6.3390     0.8430 H     1 <1>   0.4500 
 41 H       -7.2900     5.6460    -2.0370 H     1 <1>   0.0800 
 42 H       -8.2650     6.9030    -1.3050 H     1 <1>   0.0800 
 43 H       -8.5620     5.2250    -0.9080 H     1 <1>   0.0800 
 44 H       -5.2210     6.7890    -1.1950 H     1 <1>   0.0800 
 45 H       -5.0870     7.1820     0.4980 H     1 <1>   0.0800 
 46 H       -6.2420     8.0360    -0.5040 H     1 <1>   0.0800 
@<TRIPOS>BOND
  1   1   2  2   
  2   2   3  am  
  3   2   4  1   
  4   3   5  1   
  5   3   6  1   
  6   4   7  2   
  7   4   8  1   
  8   5   9  2   
  9   5  10  1   
 10   6  11  2   
 11   6  25  1   
 12   7   9  1   
 13   7  12  1   
 14   8  13  2   
 15   8  26  1   
 16  10  14  2   
 17  10  15  1   
 18  11  14  1   
 19  11  27  1   
 20  12  13  1   
 21  12  16  1   
 22  13  17  1   
 23  14  28  1   
 24  15  29  1   
 25  15  30  1   
 26  15  31  1   
 27  16  32  1   
 28  16  33  1   
 29  16  34  1   
 30  17  18  2   
 31  17  19  am  
 32  19  20  1   
 33  19  35  1   
 34  20  21  1   
 35  20  36  1   
 36  20  37  1   
 37  21  22  1   
 38  21  38  1   
 39  21  39  1   
 40  22  23  1   
 41  22  24  1   
 42  22  40  1   
 43  23  41  1   
 44  23  42  1   
 45  23  43  1   
 46  24  44  1   
 47  24  45  1   
 48  24  46  1   
@<TRIPOS>SUBSTRUCTURE
  1 ****  12 GROUP 4 **** **** 0

# MOE 2024.06 (io_trps.svl 2023.06)
