@<TRIPOS>MOLECULE
NONAME
54 55 1 0 0 
SMALL
USER_CHARGES


@<TRIPOS>ATOM
  1 O      -13.8150     0.1240     0.1000 O.3   1 <1>  -0.3630 
  2 C      -15.0410    -0.3910    -0.1660 C.ar  1 <1>   0.0830 
  3 C      -12.6390    -0.5740    -0.2430 C.3   1 <1>   0.1200 
  4 C      -16.1330     0.3740     0.2110 C.ar  1 <1>  -0.1500 
  5 C      -15.2480    -1.6210    -0.7830 C.ar  1 <1>  -0.1500 
  6 C      -11.4470     0.2740     0.1900 C.3   1 <1>   0.1200 
  7 C      -17.4290    -0.0640    -0.0160 C.ar  1 <1>  -0.1440 
  8 C      -16.5370    -2.0670    -1.0130 C.ar  1 <1>  -0.1500 
  9 O      -10.2690    -0.4010    -0.1430 O.3   1 <1>  -0.5600 
 10 C      -17.6200    -1.2930    -0.6330 C.ar  1 <1>  -0.1500 
 11 C      -18.6110     0.8030     0.4110 C.3   1 <1>   0.0630 
 12 C       -9.1080     0.2750     0.2050 C.3   1 <1>   0.1200 
 13 C      -19.4690     0.0820     1.4550 C.3   1 <1>  -0.2400 
 14 C      -19.4550     1.2120    -0.8000 C.3   1 <1>  -0.2400 
 15 C       -7.9240    -0.6070    -0.2120 C.3   1 <1>   0.3430 
 16 N       -6.5950    -0.0190     0.1600 N.4   1 <1>  -0.9590 
 17 C       -6.2850     1.2220    -0.6140 C.3   1 <1>   0.3430 
 18 C       -5.5210    -1.0420    -0.0120 C.3   1 <1>   0.3430 
 19 C       -4.9720     1.8260    -0.1150 C.3   1 <1>  -0.1600 
 20 C       -4.1920    -0.4860     0.4990 C.3   1 <1>  -0.1600 
 21 C       -3.8150     0.8210    -0.2100 C.3   1 <1>  -0.0800 
 22 C       -2.5350     1.4130     0.3900 C.3   1 <1>  -0.2400 
 23 H      -12.6310    -0.7210    -1.3080 H     1 <1>   0.0800 
 24 H      -12.6410    -1.5150     0.2780 H     1 <1>   0.0800 
 25 H      -15.9530     1.3210     0.6860 H     1 <1>   0.1500 
 26 H      -14.4280    -2.2420    -1.0880 H     1 <1>   0.1500 
 27 H      -11.4730     0.4240     1.2560 H     1 <1>   0.0800 
 28 H      -11.4650     1.2190    -0.3250 H     1 <1>   0.0800 
 29 H      -16.7000    -3.0170    -1.4900 H     1 <1>   0.1500 
 30 H      -18.6150    -1.6550    -0.8200 H     1 <1>   0.1500 
 31 H      -18.2320     1.7040     0.8640 H     1 <1>   0.0800 
 32 H       -9.1120     0.4300     1.2700 H     1 <1>   0.0800 
 33 H       -9.0970     1.2160    -0.3180 H     1 <1>   0.0800 
 34 H      -19.9160    -0.8030     1.0400 H     1 <1>   0.0800 
 35 H      -20.2510     0.7310     1.8070 H     1 <1>   0.0800 
 36 H      -18.8580    -0.2040     2.2930 H     1 <1>   0.0800 
 37 H      -19.9020     0.3510    -1.2640 H     1 <1>   0.0800 
 38 H      -18.8350     1.7080    -1.5250 H     1 <1>   0.0800 
 39 H      -20.2370     1.8850    -0.4990 H     1 <1>   0.0800 
 40 H       -7.9650    -0.7630    -1.2780 H     1 <1>   0.0800 
 41 H       -8.0390    -1.5620     0.2730 H     1 <1>   0.0800 
 42 H       -6.6080     0.2290     1.1580 H     1 <1>   0.4500 
 43 H       -7.0750     1.9450    -0.4940 H     1 <1>   0.0800 
 44 H       -6.1970     0.9860    -1.6620 H     1 <1>   0.0800 
 45 H       -5.4250    -1.3000    -1.0550 H     1 <1>   0.0800 
 46 H       -5.7690    -1.9370     0.5370 H     1 <1>   0.0800 
 47 H       -5.0960     2.1580     0.9010 H     1 <1>   0.0800 
 48 H       -4.7410     2.6920    -0.7110 H     1 <1>   0.0800 
 49 H       -3.4220    -1.2190     0.3290 H     1 <1>   0.0800 
 50 H       -4.2570    -0.3300     1.5620 H     1 <1>   0.0800 
 51 H       -3.6280     0.6080    -1.2510 H     1 <1>   0.0800 
 52 H       -2.6670     1.6450     1.4330 H     1 <1>   0.0800 
 53 H       -2.2600     2.3160    -0.1270 H     1 <1>   0.0800 
 54 H       -1.7200     0.7160     0.2980 H     1 <1>   0.0800 
@<TRIPOS>BOND
  1   1   2  1   
  2   1   3  1   
  3   2   4  ar  
  4   2   5  ar  
  5   3   6  1   
  6   3  23  1   
  7   3  24  1   
  8   4   7  ar  
  9   4  25  1   
 10   5   8  ar  
 11   5  26  1   
 12   6   9  1   
 13   6  27  1   
 14   6  28  1   
 15   7  10  ar  
 16   7  11  1   
 17   8  10  ar  
 18   8  29  1   
 19   9  12  1   
 20  10  30  1   
 21  11  13  1   
 22  11  14  1   
 23  11  31  1   
 24  12  15  1   
 25  12  32  1   
 26  12  33  1   
 27  13  34  1   
 28  13  35  1   
 29  13  36  1   
 30  14  37  1   
 31  14  38  1   
 32  14  39  1   
 33  15  16  1   
 34  15  40  1   
 35  15  41  1   
 36  16  17  1   
 37  16  18  1   
 38  16  42  1   
 39  17  19  1   
 40  17  43  1   
 41  17  44  1   
 42  18  20  1   
 43  18  45  1   
 44  18  46  1   
 45  19  21  1   
 46  19  47  1   
 47  19  48  1   
 48  20  21  1   
 49  20  49  1   
 50  20  50  1   
 51  21  22  1   
 52  21  51  1   
 53  22  52  1   
 54  22  53  1   
 55  22  54  1   
@<TRIPOS>SUBSTRUCTURE
  1 ****   6 GROUP 4 **** **** 0

# MOE 2024.06 (io_trps.svl 2023.06)
