@<TRIPOS>MOLECULE
NONAME
48 49 1 0 0 
SMALL
USER_CHARGES


@<TRIPOS>ATOM
  1 O       -9.1530    -1.4690    -0.2310 O.3   1 <1>  -0.5600 
  2 C      -10.4150    -1.5480    -0.8200 C.3   1 <1>   0.2640 
  3 C       -8.0970    -1.8790    -1.0420 C.3   1 <1>   0.1200 
  4 C      -11.4330    -0.9980     0.1630 C.ar  1 <1>  -0.1440 
  5 C       -6.7950    -1.6970    -0.2490 C.3   1 <1>   0.2000 
  6 C      -11.7970    -1.7400     1.2770 C.ar  1 <1>  -0.1500 
  7 C      -12.0110     0.2470    -0.0410 C.ar  1 <1>  -0.1500 
  8 O       -6.8180    -0.4360     0.3470 O.3   1 <1>  -0.6800 
  9 C       -5.5260    -1.8190    -1.1200 C.3   1 <1>   0.3430 
 10 C      -12.7300    -1.2470     2.1730 C.ar  1 <1>  -0.1500 
 11 C      -12.9440     0.7410     0.8550 C.ar  1 <1>  -0.1500 
 12 N       -4.3880    -1.0990    -0.4740 N.4   1 <1>  -0.9590 
 13 C      -13.3040    -0.0060     1.9620 C.ar  1 <1>  -0.1500 
 14 C       -3.3870    -0.5670    -1.4320 C.3   1 <1>   0.3430 
 15 C       -3.7730    -1.8580     0.6630 C.3   1 <1>   0.3430 
 16 C       -2.5280     0.5080    -0.7380 C.3   1 <1>  -0.0800 
 17 C       -2.4290    -1.2520     1.1270 C.3   1 <1>  -0.0800 
 18 C       -2.3280     0.2430     0.7720 C.3   1 <1>  -0.1600 
 19 C       -3.1290     1.9060    -0.9490 C.3   1 <1>  -0.2400 
 20 C       -1.2290    -2.0440     0.5770 C.3   1 <1>  -0.2400 
 21 H      -10.6320    -2.5780    -1.0450 H     1 <1>   0.0800 
 22 H      -10.4150    -0.9690    -1.7280 H     1 <1>   0.0800 
 23 H       -8.0890    -1.2700    -1.9310 H     1 <1>   0.0800 
 24 H       -8.2420    -2.9120    -1.3100 H     1 <1>   0.0800 
 25 H       -6.7650    -2.4280     0.5400 H     1 <1>   0.0800 
 26 H      -11.3520    -2.7030     1.4510 H     1 <1>   0.1500 
 27 H      -11.7380     0.8410    -0.8950 H     1 <1>   0.1500 
 28 H       -7.7500    -0.2800     0.6450 H     1 <1>   0.4000 
 29 H       -5.7340    -1.3650    -2.0750 H     1 <1>   0.0800 
 30 H       -5.2810    -2.8540    -1.2900 H     1 <1>   0.0800 
 31 H      -13.0080    -1.8280     3.0350 H     1 <1>   0.1500 
 32 H      -13.3890     1.7070     0.6910 H     1 <1>   0.1500 
 33 H       -4.8530    -0.2770    -0.0400 H     1 <1>   0.4500 
 34 H      -14.0290     0.3770     2.6580 H     1 <1>   0.1500 
 35 H       -3.8750    -0.1350    -2.2900 H     1 <1>   0.0800 
 36 H       -2.7560    -1.3720    -1.7720 H     1 <1>   0.0800 
 37 H       -3.6110    -2.8840     0.3780 H     1 <1>   0.0800 
 38 H       -4.4620    -1.8500     1.4930 H     1 <1>   0.0800 
 39 H       -1.5640     0.4960    -1.2170 H     1 <1>   0.0800 
 40 H       -2.3910    -1.3440     2.2000 H     1 <1>   0.0800 
 41 H       -3.0850     0.7640     1.3330 H     1 <1>   0.0800 
 42 H       -1.3780     0.6400     1.0890 H     1 <1>   0.0800 
 43 H       -4.1130     1.9770    -0.5180 H     1 <1>   0.0800 
 44 H       -3.1990     2.1340    -1.9990 H     1 <1>   0.0800 
 45 H       -2.5030     2.6520    -0.4900 H     1 <1>   0.0800 
 46 H       -1.1890    -2.0310    -0.4960 H     1 <1>   0.0800 
 47 H       -1.2780    -3.0690     0.9010 H     1 <1>   0.0800 
 48 H       -0.3100    -1.6260     0.9520 H     1 <1>   0.0800 
@<TRIPOS>BOND
  1   1   2  1   
  2   1   3  1   
  3   2   4  1   
  4   2  21  1   
  5   2  22  1   
  6   3   5  1   
  7   3  23  1   
  8   3  24  1   
  9   4   6  ar  
 10   4   7  ar  
 11   5   8  1   
 12   5   9  1   
 13   5  25  1   
 14   6  10  ar  
 15   6  26  1   
 16   7  11  ar  
 17   7  27  1   
 18   8  28  1   
 19   9  12  1   
 20   9  29  1   
 21   9  30  1   
 22  10  13  ar  
 23  10  31  1   
 24  11  13  ar  
 25  11  32  1   
 26  12  14  1   
 27  12  15  1   
 28  12  33  1   
 29  13  34  1   
 30  14  16  1   
 31  14  35  1   
 32  14  36  1   
 33  15  17  1   
 34  15  37  1   
 35  15  38  1   
 36  16  18  1   
 37  16  19  1   
 38  16  39  1   
 39  17  18  1   
 40  17  20  1   
 41  17  40  1   
 42  18  41  1   
 43  18  42  1   
 44  19  43  1   
 45  19  44  1   
 46  19  45  1   
 47  20  46  1   
 48  20  47  1   
 49  20  48  1   
@<TRIPOS>SUBSTRUCTURE
  1 ****   8 GROUP 4 **** **** 0

# MOE 2024.06 (io_trps.svl 2023.06)
