@<TRIPOS>MOLECULE
NONAME
39 41 1 0 0 
SMALL
USER_CHARGES


@<TRIPOS>ATOM
  1 S        0.2370    -1.0190     1.2430 S.3   1 <1>  -0.2860 
  2 C       -1.5570    -0.9150     1.2790 C.2   1 <1>   0.2420 
  3 C        0.6470    -2.2060    -0.1290 C.3   1 <1>   0.1310 
  4 N       -2.2010    -0.1800     2.1100 N.2   1 <1>  -0.3380 
  5 N       -2.3510    -1.5830     0.4560 N.pl3 1 <1>   0.0330 
  6 C        2.1460    -2.4030    -0.2910 C.2   1 <1>   0.5690 
  7 N       -3.4950    -0.3640     1.8320 N.2   1 <1>  -0.3380 
  8 C       -3.5810    -1.2080     0.8370 C.2   1 <1>   0.1860 
  9 O        2.5060    -3.1580    -1.1610 O.2   1 <1>  -0.5700 
 10 N        3.0110    -1.7420     0.5270 N.am  1 <1>  -0.7300 
 11 C       -4.7820    -1.6940     0.2080 C.2   1 <1>   0.1400 
 12 C        4.4880    -1.7880     0.5420 C.3   1 <1>   0.2200 
 13 O       -5.9730    -1.2860     0.6290 O.3   1 <1>  -0.2800 
 14 C       -4.9650    -2.5650    -0.8240 C.2   1 <1>  -0.1500 
 15 C        5.0660    -1.2680    -0.7800 C.3   1 <1>  -0.1600 
 16 C        4.9900    -3.2010     0.8640 C.3   1 <1>  -0.1600 
 17 C       -6.9030    -1.8670    -0.0980 C.2   1 <1>  -0.0100 
 18 C       -6.3430    -2.6760    -1.0200 C.2   1 <1>  -0.1500 
 19 C        6.6020    -1.3130    -0.7620 C.3   1 <1>  -0.1600 
 20 C        6.5250    -3.2470     0.8820 C.3   1 <1>  -0.1600 
 21 C        7.1100    -2.7260    -0.4380 C.3   1 <1>  -0.1600 
 22 H        0.2370    -1.8020    -1.0360 H     1 <1>   0.0800 
 23 H        0.1840    -3.1440     0.1080 H     1 <1>   0.0800 
 24 H       -2.1040    -2.2280    -0.2890 H     1 <1>   0.2700 
 25 H        2.6050    -1.1230     1.2350 H     1 <1>   0.3700 
 26 H        4.8260    -1.1330     1.3280 H     1 <1>   0.0800 
 27 H       -4.2260    -3.0880    -1.4020 H     1 <1>   0.1500 
 28 H        4.7390    -0.2580    -0.9450 H     1 <1>   0.0800 
 29 H        4.7150    -1.8780    -1.5940 H     1 <1>   0.0800 
 30 H        4.6350    -3.8900     0.1170 H     1 <1>   0.0800 
 31 H        4.6100    -3.5100     1.8210 H     1 <1>   0.0800 
 32 H       -7.9370    -1.6480     0.1090 H     1 <1>   0.1500 
 33 H       -6.8310    -3.2860    -1.7600 H     1 <1>   0.1500 
 34 H        6.9730    -0.6230    -0.0240 H     1 <1>   0.0800 
 35 H        6.9810    -1.0060    -1.7210 H     1 <1>   0.0800 
 36 H        6.8520    -4.2600     1.0450 H     1 <1>   0.0800 
 37 H        6.8920    -2.6470     1.6970 H     1 <1>   0.0800 
 38 H        8.1850    -2.7180    -0.3790 H     1 <1>   0.0800 
 39 H        6.8300    -3.3930    -1.2360 H     1 <1>   0.0800 
@<TRIPOS>BOND
  1   1   2  1   
  2   1   3  1   
  3   2   4  2   
  4   2   5  1   
  5   3   6  1   
  6   3  22  1   
  7   3  23  1   
  8   4   7  1   
  9   5   8  1   
 10   5  24  1   
 11   6   9  2   
 12   6  10  am  
 13   7   8  2   
 14   8  11  1   
 15  10  12  1   
 16  10  25  1   
 17  11  13  1   
 18  11  14  2   
 19  12  15  1   
 20  12  16  1   
 21  12  26  1   
 22  13  17  1   
 23  14  18  1   
 24  14  27  1   
 25  15  19  1   
 26  15  28  1   
 27  15  29  1   
 28  16  20  1   
 29  16  30  1   
 30  16  31  1   
 31  17  18  2   
 32  17  32  1   
 33  18  33  1   
 34  19  21  1   
 35  19  34  1   
 36  19  35  1   
 37  20  21  1   
 38  20  36  1   
 39  20  37  1   
 40  21  38  1   
 41  21  39  1   
@<TRIPOS>SUBSTRUCTURE
  1 ****   3 GROUP 4 **** **** 0

# MOE 2024.06 (io_trps.svl 2023.06)
