@<TRIPOS>MOLECULE
NONAME
41 42 1 0 0 
SMALL
USER_CHARGES


@<TRIPOS>ATOM
  1 CL       0.3470    -0.7010     2.4360 Cl    1 <1>  -0.1770 
  2 C       -1.0680    -1.0040     1.4470 C.ar  1 <1>   0.1770 
  3 C       -1.7750     0.0530     0.8850 C.ar  1 <1>   0.0820 
  4 C       -1.4490    -2.3140     1.2240 C.ar  1 <1>  -0.1500 
  5 O       -1.4040     1.3350     1.1100 O.3   1 <1>  -0.3630 
  6 C       -2.8830    -0.2190     0.0960 C.ar  1 <1>  -0.1500 
  7 C       -2.5510    -2.5830     0.4260 C.ar  1 <1>  -0.1430 
  8 C       -0.8220     2.0470     0.0410 C.3   1 <1>   0.1200 
  9 C       -3.2630    -1.5310    -0.1330 C.ar  1 <1>  -0.1500 
 10 C       -2.9830    -4.0160     0.1710 C.3   1 <1>  -0.0960 
 11 C        0.6300     1.5810    -0.1080 C.3   1 <1>  -0.1600 
 12 C        1.4430     2.4710    -1.0620 C.3   1 <1>  -0.1600 
 13 C        2.8540     1.9280    -1.3260 C.3   1 <1>   0.3430 
 14 N        3.5700     1.6540    -0.0500 N.4   1 <1>  -0.9590 
 15 C        3.8910     2.8620     0.7490 C.3   1 <1>   0.3430 
 16 C        4.8520     0.9370    -0.2390 C.3   1 <1>   0.3430 
 17 C        4.9770     2.3980     1.7100 C.3   1 <1>  -0.1600 
 18 C        5.5990     1.1530     1.0700 C.3   1 <1>  -0.1600 
 19 H       -0.8850    -3.1110     1.6730 H     1 <1>   0.1500 
 20 H       -3.4490     0.5900    -0.3290 H     1 <1>   0.1500 
 21 H       -0.8650     3.0910     0.2960 H     1 <1>   0.0800 
 22 H       -1.3940     1.8760    -0.8550 H     1 <1>   0.0800 
 23 H       -4.1250    -1.7320    -0.7470 H     1 <1>   0.1500 
 24 H       -2.1540    -4.6900     0.2910 H     1 <1>   0.0800 
 25 H       -3.3620    -4.1210    -0.8300 H     1 <1>   0.0800 
 26 H       -3.7560    -4.2920     0.8660 H     1 <1>   0.0800 
 27 H        0.6310     0.5680    -0.4730 H     1 <1>   0.0800 
 28 H        1.0750     1.6010     0.8710 H     1 <1>   0.0800 
 29 H        1.5040     3.4720    -0.6710 H     1 <1>   0.0800 
 30 H        0.9310     2.5330    -2.0080 H     1 <1>   0.0800 
 31 H        3.4120     2.6330    -1.9210 H     1 <1>   0.0800 
 32 H        2.7690     1.0110    -1.8880 H     1 <1>   0.0800 
 33 H        2.9690     1.0560     0.5350 H     1 <1>   0.4500 
 34 H        3.0260     3.2360     1.2740 H     1 <1>   0.0800 
 35 H        4.2840     3.6330     0.1060 H     1 <1>   0.0800 
 36 H        5.4060     1.3840    -1.0480 H     1 <1>   0.0800 
 37 H        4.6980    -0.1110    -0.4430 H     1 <1>   0.0800 
 38 H        4.5390     2.1510     2.6620 H     1 <1>   0.0800 
 39 H        5.7040     3.1770     1.8610 H     1 <1>   0.0800 
 40 H        6.6520     1.2810     0.8840 H     1 <1>   0.0800 
 41 H        5.4680     0.2970     1.7100 H     1 <1>   0.0800 
@<TRIPOS>BOND
  1   1   2  1   
  2   2   3  ar  
  3   2   4  ar  
  4   3   5  1   
  5   3   6  ar  
  6   4   7  ar  
  7   4  19  1   
  8   5   8  1   
  9   6   9  ar  
 10   6  20  1   
 11   7   9  ar  
 12   7  10  1   
 13   8  11  1   
 14   8  21  1   
 15   8  22  1   
 16   9  23  1   
 17  10  24  1   
 18  10  25  1   
 19  10  26  1   
 20  11  12  1   
 21  11  27  1   
 22  11  28  1   
 23  12  13  1   
 24  12  29  1   
 25  12  30  1   
 26  13  14  1   
 27  13  31  1   
 28  13  32  1   
 29  14  15  1   
 30  14  16  1   
 31  14  33  1   
 32  15  17  1   
 33  15  34  1   
 34  15  35  1   
 35  16  18  1   
 36  16  36  1   
 37  16  37  1   
 38  17  18  1   
 39  17  38  1   
 40  17  39  1   
 41  18  40  1   
 42  18  41  1   
@<TRIPOS>SUBSTRUCTURE
  1 ****  11 GROUP 4 **** **** 0

# MOE 2024.06 (io_trps.svl 2023.06)
