@<TRIPOS>MOLECULE
NONAME
31 31 1 0 0 
SMALL
USER_CHARGES


@<TRIPOS>ATOM
  1 F       -1.9550     1.3760    -1.8350 F     1 <1>  -0.1900 
  2 C       -1.1590     2.1460    -1.1410 C.ar  1 <1>   0.1900 
  3 C       -1.5300     2.5410     0.1350 C.ar  1 <1>  -0.1440 
  4 C        0.0400     2.5210    -1.7240 C.ar  1 <1>  -0.1500 
  5 C       -0.6180     3.3300     0.8190 C.ar  1 <1>   0.1900 
  6 C       -2.8590     2.1180     0.7430 C.3   1 <1>   0.2540 
  7 C        0.9220     3.3200    -1.0120 C.ar  1 <1>  -0.1500 
  8 F       -0.8910     3.7230     2.0350 F     1 <1>  -0.1900 
  9 C        0.5920     3.7260     0.2720 C.ar  1 <1>  -0.1500 
 10 N       -3.9710     2.8810     0.1410 N.3   1 <1>  -0.8100 
 11 C       -4.0260     4.2680     0.6480 C.3   1 <1>   0.1100 
 12 C       -5.2600     2.1780     0.2950 C.3   1 <1>   0.1100 
 13 C       -4.6880     5.1940    -0.3790 C.3   1 <1>   0.1200 
 14 C       -5.4350     1.1310    -0.8110 C.3   1 <1>   0.1200 
 15 O       -4.8000     6.4710     0.1560 O.3   1 <1>  -0.6800 
 16 O       -6.6180     0.4350    -0.6000 O.3   1 <1>  -0.6800 
 17 H        0.2760     2.1900    -2.7200 H     1 <1>   0.1500 
 18 H       -2.8580     2.2530     1.8110 H     1 <1>   0.0800 
 19 H       -2.9900     1.0670     0.5510 H     1 <1>   0.0800 
 20 H        1.8570     3.6210    -1.4530 H     1 <1>   0.1500 
 21 H        1.2610     4.3430     0.8440 H     1 <1>   0.1500 
 22 H       -3.0310     4.6390     0.8140 H     1 <1>   0.0800 
 23 H       -4.5620     4.2930     1.5810 H     1 <1>   0.0800 
 24 H       -6.0740     2.8760     0.2110 H     1 <1>   0.0800 
 25 H       -5.3100     1.7130     1.2650 H     1 <1>   0.0800 
 26 H       -5.6730     4.8560    -0.6450 H     1 <1>   0.0800 
 27 H       -4.0770     5.2580    -1.2630 H     1 <1>   0.0800 
 28 H       -4.6250     0.4240    -0.8240 H     1 <1>   0.0800 
 29 H       -5.5020     1.6170    -1.7700 H     1 <1>   0.0800 
 30 H       -5.4250     6.4780     0.9060 H     1 <1>   0.4000 
 31 H       -6.5390    -0.1550     0.1730 H     1 <1>   0.4000 
@<TRIPOS>BOND
  1   1   2  1   
  2   2   3  ar  
  3   2   4  ar  
  4   3   5  ar  
  5   3   6  1   
  6   4   7  ar  
  7   4  17  1   
  8   5   8  1   
  9   5   9  ar  
 10   6  10  1   
 11   6  18  1   
 12   6  19  1   
 13   7   9  ar  
 14   7  20  1   
 15   9  21  1   
 16  10  11  1   
 17  10  12  1   
 18  11  13  1   
 19  11  22  1   
 20  11  23  1   
 21  12  14  1   
 22  12  24  1   
 23  12  25  1   
 24  13  15  1   
 25  13  26  1   
 26  13  27  1   
 27  14  16  1   
 28  14  28  1   
 29  14  29  1   
 30  15  30  1   
 31  16  31  1   
@<TRIPOS>SUBSTRUCTURE
  1 ****   3 GROUP 4 **** **** 0

# MOE 2024.06 (io_trps.svl 2023.06)
