@<TRIPOS>MOLECULE
NONAME
50 52 1 0 0 
SMALL
USER_CHARGES


@<TRIPOS>ATOM
  1 F        1.6670    -0.1690     2.5430 F     1 <1>  -0.1900 
  2 C        2.2750    -0.7330     1.5360 C.ar  1 <1>   0.1900 
  3 C        3.3300    -0.0650     0.9440 C.ar  1 <1>  -0.1500 
  4 C        1.8480    -1.9720     1.1040 C.ar  1 <1>  -0.1500 
  5 C        3.9880    -0.6630    -0.1230 C.ar  1 <1>  -0.1440 
  6 C        2.5020    -2.5600     0.0350 C.ar  1 <1>  -0.1500 
  7 C        3.5640    -1.9090    -0.5740 C.ar  1 <1>  -0.1500 
  8 C        5.1600     0.0300    -0.7760 C.3   1 <1>   0.4870 
  9 N        6.3600    -0.3870    -0.0100 N.4   1 <1>  -0.9060 
 10 C        7.6520     0.1790    -0.4660 C.3   1 <1>   0.4230 
 11 C        8.7890    -0.5720     0.2300 C.3   1 <1>  -0.1600 
 12 C        7.7300     1.6740    -0.1420 C.3   1 <1>  -0.1600 
 13 C       10.1530     0.0200    -0.1340 C.3   1 <1>   0.3430 
 14 C        9.1050     2.2470    -0.4990 C.3   1 <1>   0.3430 
 15 N       10.1810     1.4790     0.1920 N.4   1 <1>  -0.9590 
 16 C       11.5150     2.0900    -0.1440 C.3   1 <1>   0.3430 
 17 C       12.6360     1.5990     0.7750 C.3   1 <1>  -0.0170 
 18 C       13.8990     2.3550     0.4200 C.ar  1 <1>  -0.1430 
 19 C       14.1950     3.5560     1.0490 C.ar  1 <1>  -0.1500 
 20 C       14.7640     1.8610    -0.5450 C.ar  1 <1>  -0.1500 
 21 C       15.3380     4.2580     0.7100 C.ar  1 <1>  -0.1500 
 22 C       15.9070     2.5640    -0.8840 C.ar  1 <1>  -0.1500 
 23 C       16.1940     3.7640    -0.2580 C.ar  1 <1>  -0.1500 
 24 H        3.6020     0.9030     1.3270 H     1 <1>   0.1500 
 25 H        1.0210    -2.4590     1.5920 H     1 <1>   0.1500 
 26 H        2.1780    -3.5250    -0.3220 H     1 <1>   0.1500 
 27 H        4.0450    -2.3940    -1.4080 H     1 <1>   0.1500 
 28 H        5.0230     1.0990    -0.7290 H     1 <1>   0.0800 
 29 H        5.2380    -0.2710    -1.8090 H     1 <1>   0.0800 
 30 H        6.3770    -1.4150    -0.0540 H     1 <1>   0.4500 
 31 H        6.1770    -0.1730     0.9780 H     1 <1>   0.4500 
 32 H        7.7470     0.0400    -1.5330 H     1 <1>   0.0800 
 33 H        8.7820    -1.6040    -0.0750 H     1 <1>   0.0800 
 34 H        8.6720    -0.5380     1.2990 H     1 <1>   0.0800 
 35 H        7.5440     1.8490     0.9030 H     1 <1>   0.0800 
 36 H        6.9940     2.2150    -0.7090 H     1 <1>   0.0800 
 37 H       10.3450    -0.1210    -1.1860 H     1 <1>   0.0800 
 38 H       10.9240    -0.4970     0.4160 H     1 <1>   0.0800 
 39 H        9.1500     3.2850    -0.2060 H     1 <1>   0.0800 
 40 H        9.2540     2.1990    -1.5670 H     1 <1>   0.0800 
 41 H       10.0630     1.5970     1.2110 H     1 <1>   0.4500 
 42 H       11.4550     3.1630    -0.0450 H     1 <1>   0.0800 
 43 H       11.7780     1.8740    -1.1680 H     1 <1>   0.0800 
 44 H       12.8120     0.5460     0.6470 H     1 <1>   0.0800 
 45 H       12.3890     1.7870     1.8050 H     1 <1>   0.0800 
 46 H       13.5470     3.9590     1.8080 H     1 <1>   0.1500 
 47 H       14.5660     0.9280    -1.0430 H     1 <1>   0.1500 
 48 H       15.5660     5.1900     1.1990 H     1 <1>   0.1500 
 49 H       16.5780     2.1780    -1.6330 H     1 <1>   0.1500 
 50 H       17.0830     4.3100    -0.5210 H     1 <1>   0.1500 
@<TRIPOS>BOND
  1   1   2  1   
  2   2   3  ar  
  3   2   4  ar  
  4   3   5  ar  
  5   3  24  1   
  6   4   6  ar  
  7   4  25  1   
  8   5   7  ar  
  9   5   8  1   
 10   6   7  ar  
 11   6  26  1   
 12   7  27  1   
 13   8   9  1   
 14   8  28  1   
 15   8  29  1   
 16   9  10  1   
 17   9  30  1   
 18   9  31  1   
 19  10  11  1   
 20  10  12  1   
 21  10  32  1   
 22  11  13  1   
 23  11  33  1   
 24  11  34  1   
 25  12  14  1   
 26  12  35  1   
 27  12  36  1   
 28  13  15  1   
 29  13  37  1   
 30  13  38  1   
 31  14  15  1   
 32  14  39  1   
 33  14  40  1   
 34  15  16  1   
 35  15  41  1   
 36  16  17  1   
 37  16  42  1   
 38  16  43  1   
 39  17  18  1   
 40  17  44  1   
 41  17  45  1   
 42  18  19  ar  
 43  18  20  ar  
 44  19  21  ar  
 45  19  46  1   
 46  20  22  ar  
 47  20  47  1   
 48  21  23  ar  
 49  21  48  1   
 50  22  23  ar  
 51  22  49  1   
 52  23  50  1   
@<TRIPOS>SUBSTRUCTURE
  1 ****  12 GROUP 4 **** **** 0

# MOE 2024.06 (io_trps.svl 2023.06)
