@<TRIPOS>MOLECULE
NONAME
40 40 1 0 0 
SMALL
USER_CHARGES


@<TRIPOS>ATOM
  1 O        0.8220    -0.2850     0.2070 O.3   1 <1>  -0.3630 
  2 C       -0.4200    -0.8300     0.2220 C.ar  1 <1>   0.0830 
  3 C        1.9700    -1.0890     0.1330 C.3   1 <1>   0.1200 
  4 C       -0.6700    -2.1990     0.1660 C.ar  1 <1>  -0.1500 
  5 C       -1.4870     0.0510     0.2980 C.ar  1 <1>  -0.1500 
  6 C        3.1750    -0.1490     0.1380 C.3   1 <1>  -0.1600 
  7 C       -1.9730    -2.6660     0.1880 C.ar  1 <1>  -0.1500 
  8 C       -2.7870    -0.4200     0.3190 C.ar  1 <1>  -0.1500 
  9 C        4.4780    -0.9350     0.0600 C.3   1 <1>   0.3430 
 10 C       -3.0370    -1.7820     0.2660 C.ar  1 <1>  -0.1440 
 11 N        5.6140     0.0230     0.0680 N.4   1 <1>  -0.9060 
 12 C       -4.4630    -2.3000     0.2870 C.3   1 <1>  -0.0970 
 13 C        6.9630    -0.5430    -0.0010 C.3   1 <1>   0.5030 
 14 C        7.2100    -1.4400     1.2110 C.3   1 <1>  -0.2400 
 15 C        7.9240     0.6400     0.0240 C.3   1 <1>  -0.2400 
 16 C        7.1300    -1.3210    -1.3060 C.3   1 <1>  -0.2400 
 17 H        1.9210    -1.6610    -0.7790 H     1 <1>   0.0800 
 18 H        1.9780    -1.7430     0.9890 H     1 <1>   0.0800 
 19 H        0.1250    -2.9150     0.1060 H     1 <1>   0.1500 
 20 H       -1.2950     1.1080     0.3410 H     1 <1>   0.1500 
 21 H        3.1510     0.4270     1.0460 H     1 <1>   0.0800 
 22 H        3.0940     0.5090    -0.7090 H     1 <1>   0.0800 
 23 H       -2.1580    -3.7250     0.1430 H     1 <1>   0.1500 
 24 H       -3.6040     0.2780     0.3770 H     1 <1>   0.1500 
 25 H        4.4930    -1.5210    -0.8460 H     1 <1>   0.0800 
 26 H        4.5480    -1.6030     0.9030 H     1 <1>   0.0800 
 27 H        5.5640     0.5940     0.9180 H     1 <1>   0.4500 
 28 H        5.5120     0.6710    -0.7190 H     1 <1>   0.4500 
 29 H       -4.5060    -3.2670     0.7540 H     1 <1>   0.0800 
 30 H       -4.8350    -2.3820    -0.7180 H     1 <1>   0.0800 
 31 H       -5.0980    -1.6300     0.8380 H     1 <1>   0.0800 
 32 H        7.0450    -0.9060     2.1300 H     1 <1>   0.0800 
 33 H        8.2330    -1.7770     1.2080 H     1 <1>   0.0800 
 34 H        6.5890    -2.3160     1.1900 H     1 <1>   0.0800 
 35 H        8.9400     0.2870    -0.0250 H     1 <1>   0.0800 
 36 H        7.7670     1.2900    -0.8190 H     1 <1>   0.0800 
 37 H        7.8230     1.2070     0.9330 H     1 <1>   0.0800 
 38 H        6.9080    -0.7030    -2.1580 H     1 <1>   0.0800 
 39 H        6.5080    -2.1970    -1.3290 H     1 <1>   0.0800 
 40 H        8.1490    -1.6530    -1.4000 H     1 <1>   0.0800 
@<TRIPOS>BOND
  1   1   2  1   
  2   1   3  1   
  3   2   4  ar  
  4   2   5  ar  
  5   3   6  1   
  6   3  17  1   
  7   3  18  1   
  8   4   7  ar  
  9   4  19  1   
 10   5   8  ar  
 11   5  20  1   
 12   6   9  1   
 13   6  21  1   
 14   6  22  1   
 15   7  10  ar  
 16   7  23  1   
 17   8  10  ar  
 18   8  24  1   
 19   9  11  1   
 20   9  25  1   
 21   9  26  1   
 22  10  12  1   
 23  11  13  1   
 24  11  27  1   
 25  11  28  1   
 26  12  29  1   
 27  12  30  1   
 28  12  31  1   
 29  13  14  1   
 30  13  15  1   
 31  13  16  1   
 32  14  32  1   
 33  14  33  1   
 34  14  34  1   
 35  15  35  1   
 36  15  36  1   
 37  15  37  1   
 38  16  38  1   
 39  16  39  1   
 40  16  40  1   
@<TRIPOS>SUBSTRUCTURE
  1 ****   3 GROUP 4 **** **** 0

# MOE 2024.06 (io_trps.svl 2023.06)
