@<TRIPOS>MOLECULE
NONAME
45 47 1 0 0 
SMALL
USER_CHARGES


@<TRIPOS>ATOM
  1 S       -0.1940    -0.8510     1.0040 S.o2  1 <1>   1.4470 
  2 O       -0.0770     0.3250     1.8350 O.2   1 <1>  -0.6500 
  3 O       -1.0320    -1.9560     1.4100 O.2   1 <1>  -0.6500 
  4 N       -0.7870    -0.4270    -0.5090 N.am  1 <1>  -0.9140 
  5 C        1.4690    -1.4570     0.6100 C.ar  1 <1>  -0.0090 
  6 C       -1.8280     0.5600    -0.6300 C.3   1 <1>   0.3560 
  7 C        2.4020    -0.6340     0.0130 C.ar  1 <1>  -0.1500 
  8 C        1.8480    -2.7660     0.8960 C.ar  1 <1>  -0.1500 
  9 C       -2.3710     0.3860    -2.0470 C.3   1 <1>  -0.2400 
 10 C       -1.2410     1.9660    -0.5080 C.3   1 <1>  -0.2400 
 11 C       -2.9710     0.3300     0.3630 C.3   1 <1>  -0.2400 
 12 C        3.6950    -1.0610    -0.3100 C.ar  1 <1>   0.0280 
 13 C        3.1110    -3.2300     0.5970 C.ar  1 <1>  -0.1430 
 14 C        4.0560    -2.3910    -0.0070 C.ar  1 <1>   0.1170 
 15 C        4.6670    -0.2040    -0.9360 C.2   1 <1>  -0.1670 
 16 C        3.4590    -4.6720     0.9330 C.3   1 <1>  -0.0170 
 17 N        5.3510    -2.8520    -0.3080 N.am  1 <1>  -0.4770 
 18 C        5.8950    -0.6930    -1.2270 C.2   1 <1>  -0.1360 
 19 C        4.3190     1.2410    -1.2710 C.3   1 <1>  -0.1020 
 20 C        4.9600    -4.8110     1.1830 C.3   1 <1>  -0.1600 
 21 C        6.2720    -2.0330    -0.9330 C.2   1 <1>   0.6160 
 22 C        5.7490    -4.2560    -0.0030 C.3   1 <1>   0.1400 
 23 O        7.3820    -2.4460    -1.2340 O.2   1 <1>  -0.5700 
 24 H       -1.2070    -1.2940    -0.8290 H     1 <1>   0.4200 
 25 H        2.1050     0.3760    -0.2050 H     1 <1>   0.1500 
 26 H        1.1300    -3.4210     1.3610 H     1 <1>   0.1500 
 27 H       -1.5880     0.5280    -2.7710 H     1 <1>   0.0800 
 28 H       -3.1410     1.1100    -2.2430 H     1 <1>   0.0800 
 29 H       -2.7960    -0.5930    -2.1780 H     1 <1>   0.0800 
 30 H       -0.3950     2.0780    -1.1620 H     1 <1>   0.0800 
 31 H       -0.9380     2.1830     0.4980 H     1 <1>   0.0800 
 32 H       -1.9790     2.6980    -0.7810 H     1 <1>   0.0800 
 33 H       -3.3340    -0.6800     0.3050 H     1 <1>   0.0800 
 34 H       -3.7860     0.9940     0.1400 H     1 <1>   0.0800 
 35 H       -2.6610     0.5370     1.3710 H     1 <1>   0.0800 
 36 H        3.1700    -5.3010     0.1080 H     1 <1>   0.0800 
 37 H        2.9210    -4.9930     1.8070 H     1 <1>   0.0800 
 38 H        6.6570    -0.1020    -1.6950 H     1 <1>   0.1500 
 39 H        3.4910     1.2750    -1.9560 H     1 <1>   0.0800 
 40 H        5.1540     1.7410    -1.7290 H     1 <1>   0.0800 
 41 H        4.0590     1.7770    -0.3750 H     1 <1>   0.0800 
 42 H        5.2130    -5.8450     1.3330 H     1 <1>   0.0800 
 43 H        5.2330    -4.2670     2.0710 H     1 <1>   0.0800 
 44 H        6.8000    -4.2970     0.2280 H     1 <1>   0.0800 
 45 H        5.5740    -4.8580    -0.8780 H     1 <1>   0.0800 
@<TRIPOS>BOND
  1   1   2  2   
  2   1   3  2   
  3   1   4  am  
  4   1   5  1   
  5   4   6  1   
  6   4  24  1   
  7   5   7  ar  
  8   5   8  ar  
  9   6   9  1   
 10   6  10  1   
 11   6  11  1   
 12   7  12  ar  
 13   7  25  1   
 14   8  13  ar  
 15   8  26  1   
 16   9  27  1   
 17   9  28  1   
 18   9  29  1   
 19  10  30  1   
 20  10  31  1   
 21  10  32  1   
 22  11  33  1   
 23  11  34  1   
 24  11  35  1   
 25  12  14  ar  
 26  12  15  1   
 27  13  14  ar  
 28  13  16  1   
 29  14  17  1   
 30  15  18  2   
 31  15  19  1   
 32  16  20  1   
 33  16  36  1   
 34  16  37  1   
 35  17  21  am  
 36  17  22  1   
 37  18  21  1   
 38  18  38  1   
 39  19  39  1   
 40  19  40  1   
 41  19  41  1   
 42  20  22  1   
 43  20  42  1   
 44  20  43  1   
 45  21  23  2   
 46  22  44  1   
 47  22  45  1   
@<TRIPOS>SUBSTRUCTURE
  1 ****   7 GROUP 4 **** **** 0

# MOE 2024.06 (io_trps.svl 2023.06)
