@<TRIPOS>MOLECULE
NONAME
36 37 1 0 0 
SMALL
USER_CHARGES


@<TRIPOS>ATOM
  1 O       -0.8250     0.1770     1.3770 O.2   1 <1>  -0.5700 
  2 C       -0.7970     1.3790     1.3010 C.2   1 <1>   0.6590 
  3 O       -1.7570     2.1220     0.7300 O.3   1 <1>  -0.0870 
  4 C        0.3670     2.1570     1.8650 C.3   1 <1>  -0.1790 
  5 N       -2.8580     1.6140     0.1930 N.2   1 <1>  -0.5130 
  6 C       -3.7580     2.4030    -0.2380 C.2   1 <1>   0.4750 
  7 C       -3.7820     3.8470    -0.3040 C.2   1 <1>  -0.0860 
  8 C       -5.0660     1.7790    -0.7160 C.3   1 <1>  -0.0990 
  9 C       -4.9330     4.5430    -0.3070 C.2   1 <1>  -0.0400 
 10 C       -2.8540     4.8800    -0.4070 C.2   1 <1>   0.1080 
 11 C       -6.3000     2.4270    -0.0350 C.3   1 <1>   0.0000 
 12 O       -4.7550     5.8400    -0.3520 O.3   1 <1>  -0.0190 
 13 C       -6.3320     3.9540    -0.3070 C.3   1 <1>   0.0200 
 14 N       -3.4560     6.0140    -0.4160 N.2   1 <1>  -0.4100 
 15 C       -1.3420     4.7380    -0.5420 C.3   1 <1>   0.0210 
 16 C       -7.5820     1.7780    -0.5810 C.3   1 <1>  -0.2400 
 17 C       -6.2450     2.1720     1.4840 C.3   1 <1>  -0.2400 
 18 C       -0.6840     5.9030    -1.2940 C.3   1 <1>  -0.2400 
 19 H        0.8760     2.6700     1.0720 H     1 <1>   0.0800 
 20 H        1.0530     1.4840     2.3460 H     1 <1>   0.0800 
 21 H        0.0090     2.8690     2.5850 H     1 <1>   0.0800 
 22 H       -5.1290     1.9070    -1.7810 H     1 <1>   0.0800 
 23 H       -5.0530     0.7210    -0.5160 H     1 <1>   0.0800 
 24 H       -6.9380     4.4550     0.4270 H     1 <1>   0.0800 
 25 H       -6.7620     4.1470    -1.2730 H     1 <1>   0.0800 
 26 H       -0.9160     4.6710     0.4420 H     1 <1>   0.0800 
 27 H       -1.1250     3.8310    -1.0760 H     1 <1>   0.0800 
 28 H       -7.6530     1.9100    -1.6460 H     1 <1>   0.0800 
 29 H       -8.4520     2.2180    -0.1260 H     1 <1>   0.0800 
 30 H       -7.5900     0.7220    -0.3720 H     1 <1>   0.0800 
 31 H       -6.1760     1.1180     1.6890 H     1 <1>   0.0800 
 32 H       -7.1310     2.5490     1.9650 H     1 <1>   0.0800 
 33 H       -5.3950     2.6560     1.9330 H     1 <1>   0.0800 
 34 H       -0.8370     6.8250    -0.7600 H     1 <1>   0.0800 
 35 H       -1.1150     6.0000    -2.2750 H     1 <1>   0.0800 
 36 H        0.3730     5.7330    -1.3940 H     1 <1>   0.0800 
@<TRIPOS>BOND
  1   1   2  2   
  2   2   3  1   
  3   2   4  1   
  4   3   5  1   
  5   4  19  1   
  6   4  20  1   
  7   4  21  1   
  8   5   6  2   
  9   6   7  1   
 10   6   8  1   
 11   7   9  2   
 12   7  10  1   
 13   8  11  1   
 14   8  22  1   
 15   8  23  1   
 16   9  12  1   
 17   9  13  1   
 18  10  14  2   
 19  10  15  1   
 20  11  13  1   
 21  11  16  1   
 22  11  17  1   
 23  12  14  1   
 24  13  24  1   
 25  13  25  1   
 26  15  18  1   
 27  15  26  1   
 28  15  27  1   
 29  16  28  1   
 30  16  29  1   
 31  16  30  1   
 32  17  31  1   
 33  17  32  1   
 34  17  33  1   
 35  18  34  1   
 36  18  35  1   
 37  18  36  1   
@<TRIPOS>SUBSTRUCTURE
  1 ****   7 GROUP 4 **** **** 0

# MOE 2024.06 (io_trps.svl 2023.06)
