@<TRIPOS>MOLECULE
NONAME
42 42 1 0 0 
SMALL
USER_CHARGES


@<TRIPOS>ATOM
  1 I       -0.0430     0.9530    -2.0770 I     1 <1>  -0.0810 
  2 C        0.9380     2.3410    -0.7790 C.ar  1 <1>   0.0810 
  3 C        0.2640     3.4600    -0.3060 C.ar  1 <1>   0.0820 
  4 C        2.2510     2.0610    -0.4430 C.ar  1 <1>  -0.1500 
  5 O       -1.0350     3.6630    -0.6410 O.3   1 <1>  -0.3630 
  6 C        0.9670     4.3440     0.5210 C.ar  1 <1>   0.0830 
  7 C        2.9290     2.9310     0.3990 C.ar  1 <1>  -0.1440 
  8 C       -1.9780     3.4100     0.3740 C.3   1 <1>   0.1200 
  9 O        0.4460     5.4950     1.0160 O.3   1 <1>  -0.3630 
 10 C        2.2780     4.0630     0.8760 C.ar  1 <1>  -0.1500 
 11 C        4.3660     2.6650     0.7860 C.3   1 <1>   0.4860 
 12 C       -3.3690     3.6570    -0.2010 C.3   1 <1>  -0.2400 
 13 C       -0.1560     6.4030     0.1150 C.3   1 <1>   0.0400 
 14 N        5.2020     3.4800    -0.1110 N.4   1 <1>  -0.9060 
 15 C        6.6570     3.4170     0.1360 C.3   1 <1>   0.4230 
 16 C        7.2720     4.7820    -0.2510 C.3   1 <1>   0.1200 
 17 C        7.2560     2.2390    -0.6460 C.3   1 <1>  -0.1600 
 18 O        6.3690     5.8080     0.0520 O.3   1 <1>  -0.6800 
 19 C        8.7530     2.0410    -0.3650 C.3   1 <1>  -0.2400 
 20 H        2.7180     1.1740    -0.8350 H     1 <1>   0.1500 
 21 H       -1.7820     4.0680     1.2030 H     1 <1>   0.0800 
 22 H       -1.8710     2.3860     0.6900 H     1 <1>   0.0800 
 23 H        2.7750     4.7560     1.5330 H     1 <1>   0.1500 
 24 H        4.5930     1.6180     0.6690 H     1 <1>   0.0800 
 25 H        4.5290     2.9470     1.8140 H     1 <1>   0.0800 
 26 H       -3.4610     4.6780    -0.5240 H     1 <1>   0.0800 
 27 H       -4.1130     3.4660     0.5510 H     1 <1>   0.0800 
 28 H       -3.5460     2.9990    -1.0330 H     1 <1>   0.0800 
 29 H       -0.1820     7.3710     0.5820 H     1 <1>   0.0800 
 30 H       -1.1580     6.0810    -0.1000 H     1 <1>   0.0800 
 31 H        0.4270     6.4460    -0.7880 H     1 <1>   0.0800 
 32 H        4.9700     4.4800     0.0330 H     1 <1>   0.4500 
 33 H        4.9750     3.2890    -1.0890 H     1 <1>   0.4500 
 34 H        6.8330     3.2660     1.1890 H     1 <1>   0.0800 
 35 H        7.4820     4.8220    -1.3070 H     1 <1>   0.0800 
 36 H        8.1860     4.9500     0.2930 H     1 <1>   0.0800 
 37 H        7.1220     2.3920    -1.7030 H     1 <1>   0.0800 
 38 H        6.7480     1.3310    -0.3700 H     1 <1>   0.0800 
 39 H        6.7730     6.6910    -0.1070 H     1 <1>   0.4000 
 40 H        9.3320     2.8860    -0.6970 H     1 <1>   0.0800 
 41 H        9.1110     1.1720    -0.8900 H     1 <1>   0.0800 
 42 H        8.9320     1.8900     0.6870 H     1 <1>   0.0800 
@<TRIPOS>BOND
  1   1   2  1   
  2   2   3  ar  
  3   2   4  ar  
  4   3   5  1   
  5   3   6  ar  
  6   4   7  ar  
  7   4  20  1   
  8   5   8  1   
  9   6   9  1   
 10   6  10  ar  
 11   7  10  ar  
 12   7  11  1   
 13   8  12  1   
 14   8  21  1   
 15   8  22  1   
 16   9  13  1   
 17  10  23  1   
 18  11  14  1   
 19  11  24  1   
 20  11  25  1   
 21  12  26  1   
 22  12  27  1   
 23  12  28  1   
 24  13  29  1   
 25  13  30  1   
 26  13  31  1   
 27  14  15  1   
 28  14  32  1   
 29  14  33  1   
 30  15  16  1   
 31  15  17  1   
 32  15  34  1   
 33  16  18  1   
 34  16  35  1   
 35  16  36  1   
 36  17  19  1   
 37  17  37  1   
 38  17  38  1   
 39  18  39  1   
 40  19  40  1   
 41  19  41  1   
 42  19  42  1   
@<TRIPOS>SUBSTRUCTURE
  1 ****   7 GROUP 4 **** **** 0

# MOE 2024.06 (io_trps.svl 2023.06)
