@<TRIPOS>MOLECULE
NONAME
49 50 1 0 0 
SMALL
USER_CHARGES


@<TRIPOS>ATOM
  1 S       -0.2910    -0.2790     0.6970 S.o2  1 <1>   1.3330 
  2 O       -0.9980    -1.1960    -0.1620 O.2   1 <1>  -0.6500 
  3 O        1.0480    -0.5870     1.1420 O.2   1 <1>  -0.6500 
  4 N       -0.1800     1.2160    -0.1600 N.am  1 <1>  -0.6930 
  5 C       -1.2900     0.1070     2.1210 C.3   1 <1>  -0.1350 
  6 C       -1.0610     2.2730     0.0640 C.ar  1 <1>   0.1990 
  7 C        0.6100     1.2020    -1.4290 C.3   1 <1>   0.2570 
  8 C       -0.6360     3.3700     0.8200 C.ar  1 <1>  -0.1440 
  9 C       -2.3670     2.2520    -0.4410 C.ar  1 <1>  -0.1440 
 10 C        2.0770     1.6100    -1.2650 C.2   1 <1>   0.5690 
 11 C       -1.5090     4.4140     1.0730 C.ar  1 <1>  -0.1500 
 12 C        0.7820     3.4600     1.3750 C.3   1 <1>  -0.0970 
 13 C       -3.2240     3.3060    -0.1720 C.ar  1 <1>  -0.1500 
 14 C       -2.9010     1.0990    -1.2860 C.3   1 <1>  -0.0960 
 15 O        2.5320     2.4630    -1.9910 O.2   1 <1>  -0.5700 
 16 N        2.8380     1.0080    -0.3190 N.am  1 <1>  -0.7300 
 17 C       -2.8000     4.3830     0.5820 C.ar  1 <1>  -0.1500 
 18 C        4.2670     1.2260    -0.0900 C.3   1 <1>   0.3640 
 19 C        4.9730    -0.1240    -0.0250 C.ar  1 <1>  -0.1440 
 20 C        4.4310     2.0030     1.2120 C.3   1 <1>  -0.2400 
 21 C        6.0580    -0.3710    -0.8540 C.ar  1 <1>  -0.1500 
 22 C        4.5530    -1.1200     0.8490 C.ar  1 <1>  -0.1500 
 23 C        6.7150    -1.5890    -0.8100 C.ar  1 <1>  -0.1500 
 24 C        5.2080    -2.3390     0.8930 C.ar  1 <1>  -0.1500 
 25 C        6.2900    -2.5740     0.0640 C.ar  1 <1>  -0.1500 
 26 H       -1.3910    -0.7600     2.7440 H     1 <1>   0.0800 
 27 H       -2.2680     0.4250     1.8170 H     1 <1>   0.0800 
 28 H       -0.8340     0.8900     2.6930 H     1 <1>   0.0800 
 29 H        0.1560     1.8800    -2.1300 H     1 <1>   0.0800 
 30 H        0.5780     0.2180    -1.8610 H     1 <1>   0.0800 
 31 H       -1.1890     5.2640     1.6510 H     1 <1>   0.1500 
 32 H        1.0860     2.5230     1.8060 H     1 <1>   0.0800 
 33 H        0.8530     4.2160     2.1350 H     1 <1>   0.0800 
 34 H        1.4630     3.7120     0.5820 H     1 <1>   0.0800 
 35 H       -4.2310     3.2990    -0.5510 H     1 <1>   0.1500 
 36 H       -3.2020     0.2850    -0.6510 H     1 <1>   0.0800 
 37 H       -2.1540     0.7430    -1.9710 H     1 <1>   0.0800 
 38 H       -3.7530     1.4100    -1.8630 H     1 <1>   0.0800 
 39 H        2.4160     0.2870     0.2830 H     1 <1>   0.3700 
 40 H       -3.4730     5.1990     0.7830 H     1 <1>   0.1500 
 41 H        4.6730     1.8080    -0.9000 H     1 <1>   0.0800 
 42 H        3.9890     1.4690     2.0330 H     1 <1>   0.0800 
 43 H        3.9700     2.9690     1.1210 H     1 <1>   0.0800 
 44 H        5.4770     2.1420     1.4160 H     1 <1>   0.0800 
 45 H        6.3970     0.3840    -1.5410 H     1 <1>   0.1500 
 46 H        3.7120    -0.9560     1.4990 H     1 <1>   0.1500 
 47 H        7.5540    -1.7710    -1.4570 H     1 <1>   0.1500 
 48 H        4.8730    -3.1030     1.5720 H     1 <1>   0.1500 
 49 H        6.7980    -3.5210     0.0980 H     1 <1>   0.1500 
@<TRIPOS>BOND
  1   1   2  2   
  2   1   3  2   
  3   1   4  am  
  4   1   5  1   
  5   4   6  1   
  6   4   7  1   
  7   5  26  1   
  8   5  27  1   
  9   5  28  1   
 10   6   8  ar  
 11   6   9  ar  
 12   7  10  1   
 13   7  29  1   
 14   7  30  1   
 15   8  11  ar  
 16   8  12  1   
 17   9  13  ar  
 18   9  14  1   
 19  10  15  2   
 20  10  16  am  
 21  11  17  ar  
 22  11  31  1   
 23  12  32  1   
 24  12  33  1   
 25  12  34  1   
 26  13  17  ar  
 27  13  35  1   
 28  14  36  1   
 29  14  37  1   
 30  14  38  1   
 31  16  18  1   
 32  16  39  1   
 33  17  40  1   
 34  18  19  1   
 35  18  20  1   
 36  18  41  1   
 37  19  21  ar  
 38  19  22  ar  
 39  20  42  1   
 40  20  43  1   
 41  20  44  1   
 42  21  23  ar  
 43  21  45  1   
 44  22  24  ar  
 45  22  46  1   
 46  23  25  ar  
 47  23  47  1   
 48  24  25  ar  
 49  24  48  1   
 50  25  49  1   
@<TRIPOS>SUBSTRUCTURE
  1 ****  16 GROUP 4 **** **** 0

# MOE 2024.06 (io_trps.svl 2023.06)
