@<TRIPOS>MOLECULE
NONAME
49 51 1 0 0 
SMALL
USER_CHARGES


@<TRIPOS>ATOM
  1 O        0.0180     0.7030     2.2140 O.2   1 <1>  -0.5700 
  2 C       -0.9410     1.2710     1.7210 C.2   1 <1>   0.5440 
  3 N       -1.9230     0.4930     1.1420 N.am  1 <1>  -0.6600 
  4 C       -1.0270     2.7150     1.7370 C.ar  1 <1>   0.0860 
  5 C       -2.6450     0.9410    -0.0890 C.3   1 <1>   0.1400 
  6 C       -1.9590    -0.9810     1.3690 C.3   1 <1>   0.1400 
  7 C       -0.0370     3.5240     1.1540 C.ar  1 <1>   0.1170 
  8 C       -2.1150     3.3400     2.3490 C.ar  1 <1>  -0.1500 
  9 C       -2.1770     0.1440    -1.3280 C.3   1 <1>   0.3430 
 10 C       -1.4100    -1.7120     0.1330 C.3   1 <1>   0.3430 
 11 N        1.0730     2.9770     0.5060 N.am  1 <1>  -0.5470 
 12 C       -0.1540     4.9070     1.2150 C.ar  1 <1>  -0.1500 
 13 C       -2.2240     4.7160     2.3970 C.ar  1 <1>  -0.1500 
 14 N       -2.1770    -1.3490    -1.1140 N.4   1 <1>  -0.9590 
 15 C        1.0590     2.1590    -0.5940 C.2   1 <1>   0.5440 
 16 C       -1.2370     5.5030     1.8290 C.ar  1 <1>  -0.1500 
 17 C       -1.5950    -2.0360    -2.3050 C.3   1 <1>   0.2630 
 18 O        0.0780     2.1530    -1.3150 O.2   1 <1>  -0.5700 
 19 C        2.1870     1.2970    -0.8730 C.ar  1 <1>   0.0860 
 20 C        2.8170     0.5770     0.1430 C.ar  1 <1>  -0.1500 
 21 C        2.6700     1.1430    -2.1720 C.ar  1 <1>  -0.1500 
 22 C        3.8900    -0.2570    -0.1180 C.ar  1 <1>  -0.1440 
 23 C        3.7430     0.3140    -2.4430 C.ar  1 <1>  -0.1500 
 24 C        4.3530    -0.3840    -1.4170 C.ar  1 <1>  -0.1500 
 25 C        4.5640    -1.0260     1.0040 C.3   1 <1>  -0.0970 
 26 H       -2.4680     1.9880    -0.2710 H     1 <1>   0.0800 
 27 H       -3.7030     0.8100     0.0530 H     1 <1>   0.0800 
 28 H       -2.9700    -1.2900     1.5640 H     1 <1>   0.0800 
 29 H       -1.3690    -1.2440     2.2310 H     1 <1>   0.0800 
 30 H       -2.8790     2.7320     2.8010 H     1 <1>   0.1500 
 31 H       -1.1790     0.4520    -1.5760 H     1 <1>   0.0800 
 32 H       -2.8060     0.3970    -2.1650 H     1 <1>   0.0800 
 33 H       -1.4590    -2.7750     0.3000 H     1 <1>   0.0800 
 34 H       -0.3730    -1.4410     0.0160 H     1 <1>   0.0800 
 35 H        1.9650     3.0540     0.9960 H     1 <1>   0.3700 
 36 H        0.6090     5.5200     0.7690 H     1 <1>   0.1500 
 37 H       -3.0700     5.1790     2.8770 H     1 <1>   0.1500 
 38 H       -3.1530    -1.6510    -0.9870 H     1 <1>   0.4500 
 39 H       -1.3170     6.5770     1.8650 H     1 <1>   0.1500 
 40 H       -0.5730    -1.7230    -2.4520 H     1 <1>   0.0800 
 41 H       -2.1590    -1.7930    -3.1900 H     1 <1>   0.0800 
 42 H       -1.6120    -3.1050    -2.1680 H     1 <1>   0.0800 
 43 H        2.4520     0.6670     1.1520 H     1 <1>   0.1500 
 44 H        2.1990     1.6860    -2.9730 H     1 <1>   0.1500 
 45 H        4.1070     0.2130    -3.4510 H     1 <1>   0.1500 
 46 H        5.1910    -1.0250    -1.6330 H     1 <1>   0.1500 
 47 H        3.9510    -1.0340     1.8880 H     1 <1>   0.0800 
 48 H        5.5070    -0.5680     1.2450 H     1 <1>   0.0800 
 49 H        4.7400    -2.0430     0.7040 H     1 <1>   0.0800 
@<TRIPOS>BOND
  1   1   2  2   
  2   2   3  am  
  3   2   4  1   
  4   3   5  1   
  5   3   6  1   
  6   4   7  ar  
  7   4   8  ar  
  8   5   9  1   
  9   5  26  1   
 10   5  27  1   
 11   6  10  1   
 12   6  28  1   
 13   6  29  1   
 14   7  11  1   
 15   7  12  ar  
 16   8  13  ar  
 17   8  30  1   
 18   9  14  1   
 19   9  31  1   
 20   9  32  1   
 21  10  14  1   
 22  10  33  1   
 23  10  34  1   
 24  11  15  am  
 25  11  35  1   
 26  12  16  ar  
 27  12  36  1   
 28  13  16  ar  
 29  13  37  1   
 30  14  17  1   
 31  14  38  1   
 32  15  18  2   
 33  15  19  1   
 34  16  39  1   
 35  17  40  1   
 36  17  41  1   
 37  17  42  1   
 38  19  20  ar  
 39  19  21  ar  
 40  20  22  ar  
 41  20  43  1   
 42  21  23  ar  
 43  21  44  1   
 44  22  24  ar  
 45  22  25  1   
 46  23  24  ar  
 47  23  45  1   
 48  24  46  1   
 49  25  47  1   
 50  25  48  1   
 51  25  49  1   
@<TRIPOS>SUBSTRUCTURE
  1 ****  15 GROUP 4 **** **** 0

# MOE 2024.06 (io_trps.svl 2023.06)
