@<TRIPOS>MOLECULE
NONAME
34 34 1 0 0 
SMALL
USER_CHARGES


@<TRIPOS>ATOM
  1 S        0.2830     0.1050     0.5340 S.o2  1 <1>   1.4470 
  2 O        0.9690    -0.2680     1.7490 O.2   1 <1>  -0.6500 
  3 O        0.1200     1.4950     0.1810 O.2   1 <1>  -0.6500 
  4 N        1.1610    -0.5270    -0.7510 N.am  1 <1>  -0.9140 
  5 C       -1.3080    -0.7590     0.4260 C.ar  1 <1>  -0.0090 
  6 C        2.6080    -0.4260    -0.5740 C.3   1 <1>   0.1160 
  7 C       -2.5060    -0.0630     0.5160 C.ar  1 <1>  -0.1500 
  8 C       -1.3680    -2.1380     0.2700 C.ar  1 <1>  -0.1500 
  9 C       -3.7380    -0.6990     0.4300 C.ar  1 <1>   0.1170 
 10 C       -2.5810    -2.8020     0.2040 C.ar  1 <1>  -0.1500 
 11 N       -4.9490     0.0110     0.5110 N.am  1 <1>  -0.5470 
 12 C       -3.7720    -2.0890     0.2880 C.ar  1 <1>   0.0830 
 13 C       -5.3680     1.2140     0.0410 C.2   1 <1>   0.5690 
 14 O       -4.9980    -2.6840     0.2440 O.3   1 <1>  -0.3630 
 15 O       -6.4930     1.5830     0.2580 O.2   1 <1>  -0.5700 
 16 C       -4.4690     2.1050    -0.7850 C.3   1 <1>  -0.1790 
 17 C       -5.1420    -4.0740     0.0660 C.3   1 <1>   0.1200 
 18 C       -6.6330    -4.3940     0.0430 C.3   1 <1>  -0.2400 
 19 H        0.9060     0.0830    -1.5280 H     1 <1>   0.4200 
 20 H        2.9230    -1.0370     0.2570 H     1 <1>   0.0800 
 21 H        2.8940     0.5950    -0.3820 H     1 <1>   0.0800 
 22 H        3.1110    -0.7710    -1.4610 H     1 <1>   0.0800 
 23 H       -2.4700     1.0000     0.6680 H     1 <1>   0.1500 
 24 H       -0.4500    -2.6990     0.2040 H     1 <1>   0.1500 
 25 H       -2.5730    -3.8690     0.0890 H     1 <1>   0.1500 
 26 H       -5.7270    -0.5540     0.8600 H     1 <1>   0.3700 
 27 H       -3.8540     1.5160    -1.4380 H     1 <1>   0.0800 
 28 H       -3.8540     2.7000    -0.1380 H     1 <1>   0.0800 
 29 H       -5.0730     2.7620    -1.3840 H     1 <1>   0.0800 
 30 H       -4.6590    -4.5770     0.8860 H     1 <1>   0.0800 
 31 H       -4.6800    -4.3490    -0.8670 H     1 <1>   0.0800 
 32 H       -7.0890    -4.1040     0.9730 H     1 <1>   0.0800 
 33 H       -6.7780    -5.4500    -0.0950 H     1 <1>   0.0800 
 34 H       -7.1110    -3.8740    -0.7690 H     1 <1>   0.0800 
@<TRIPOS>BOND
  1   1   2  2   
  2   1   3  2   
  3   1   4  am  
  4   1   5  1   
  5   4   6  1   
  6   4  19  1   
  7   5   7  ar  
  8   5   8  ar  
  9   6  20  1   
 10   6  21  1   
 11   6  22  1   
 12   7   9  ar  
 13   7  23  1   
 14   8  10  ar  
 15   8  24  1   
 16   9  11  1   
 17   9  12  ar  
 18  10  12  ar  
 19  10  25  1   
 20  11  13  am  
 21  11  26  1   
 22  12  14  1   
 23  13  15  2   
 24  13  16  1   
 25  14  17  1   
 26  16  27  1   
 27  16  28  1   
 28  16  29  1   
 29  17  18  1   
 30  17  30  1   
 31  17  31  1   
 32  18  32  1   
 33  18  33  1   
 34  18  34  1   
@<TRIPOS>SUBSTRUCTURE
  1 ****   7 GROUP 4 **** **** 0

# MOE 2024.06 (io_trps.svl 2023.06)
