@<TRIPOS>MOLECULE
NONAME
55 57 1 0 0 
SMALL
USER_CHARGES


@<TRIPOS>ATOM
  1 O       -0.6370    -0.2190     0.9060 O.3   1 <1>  -0.3630 
  2 C       -1.7820    -0.6400     0.3080 C.ar  1 <1>   0.0830 
  3 C        0.5180    -0.9430     0.5440 C.3   1 <1>   0.0400 
  4 C       -2.5230    -1.6920     0.8630 C.ar  1 <1>   0.0830 
  5 C       -2.2140    -0.0600    -0.8930 C.ar  1 <1>   0.0830 
  6 O       -2.2410    -2.3060     2.0440 O.3   1 <1>  -0.3630 
  7 C       -3.6280    -2.1870     0.1930 C.ar  1 <1>  -0.1500 
  8 O       -1.6260     0.9960    -1.5190 O.3   1 <1>  -0.3630 
  9 C       -3.3250    -0.5740    -1.5430 C.ar  1 <1>  -0.1500 
 10 C       -1.8310    -1.5390     3.1580 C.3   1 <1>   0.0400 
 11 C       -4.0390    -1.6340    -1.0090 C.ar  1 <1>  -0.1430 
 12 C       -1.0160     2.0330    -0.7780 C.3   1 <1>   0.0400 
 13 C       -5.2620    -2.1720    -1.7240 C.3   1 <1>   0.4860 
 14 N       -6.4680    -1.7420    -0.9720 N.4   1 <1>  -0.9590 
 15 C       -7.7020    -2.4030    -1.4740 C.3   1 <1>   0.4860 
 16 C       -6.6410    -0.2590    -0.9500 C.3   1 <1>   0.3430 
 17 C       -8.8980    -1.9690    -0.6430 C.ar  1 <1>  -0.1430 
 18 C       -7.6860     0.1310     0.0990 C.3   1 <1>  -0.0170 
 19 C       -8.9030    -0.7850     0.0810 C.ar  1 <1>  -0.1430 
 20 C      -10.0190    -2.7820    -0.6170 C.ar  1 <1>  -0.1500 
 21 C      -10.0250    -0.4330     0.8150 C.ar  1 <1>  -0.1500 
 22 C      -11.1470    -2.4450     0.1110 C.ar  1 <1>   0.0830 
 23 C      -11.1570    -1.2450     0.8450 C.ar  1 <1>   0.0830 
 24 O      -12.1500    -3.3660     0.0150 O.3   1 <1>  -0.3630 
 25 O      -12.2560    -0.8900     1.5730 O.3   1 <1>  -0.3620 
 26 C      -13.4130    -3.2150     0.6240 C.3   1 <1>   0.0400 
 27 C      -12.3340     0.3090     2.3130 C.3   1 <1>   0.0400 
 28 H        0.6660    -0.8550    -0.5180 H     1 <1>   0.0800 
 29 H        0.3850    -1.9750     0.8190 H     1 <1>   0.0800 
 30 H        1.3580    -0.5270     1.0700 H     1 <1>   0.0800 
 31 H       -4.1530    -3.0150     0.6380 H     1 <1>   0.1500 
 32 H       -3.6120    -0.1210    -2.4760 H     1 <1>   0.1500 
 33 H       -2.0660    -2.0900     4.0500 H     1 <1>   0.0800 
 34 H       -2.3540    -0.5990     3.1560 H     1 <1>   0.0800 
 35 H       -0.7690    -1.3800     3.1030 H     1 <1>   0.0800 
 36 H       -0.9740     2.9090    -1.3990 H     1 <1>   0.0800 
 37 H       -0.0190     1.7320    -0.5120 H     1 <1>   0.0800 
 38 H       -1.6010     2.2310     0.1030 H     1 <1>   0.0800 
 39 H       -5.2060    -3.2490    -1.7570 H     1 <1>   0.0800 
 40 H       -5.2940    -1.7980    -2.7340 H     1 <1>   0.0800 
 41 H       -6.3480    -2.0400     0.0040 H     1 <1>   0.4500 
 42 H       -7.5990    -3.4740    -1.4130 H     1 <1>   0.0800 
 43 H       -7.8750    -2.1340    -2.5030 H     1 <1>   0.0800 
 44 H       -6.9640     0.0820    -1.9200 H     1 <1>   0.0800 
 45 H       -5.7080     0.2280    -0.7130 H     1 <1>   0.0800 
 46 H       -7.9920     1.1470    -0.0770 H     1 <1>   0.0800 
 47 H       -7.2340     0.0940     1.0740 H     1 <1>   0.0800 
 48 H      -10.0440    -3.7050    -1.1690 H     1 <1>   0.1500 
 49 H      -10.0000     0.4870     1.3670 H     1 <1>   0.1500 
 50 H      -14.0150    -4.0650     0.3620 H     1 <1>   0.0800 
 51 H      -13.8720    -2.3140     0.2570 H     1 <1>   0.0800 
 52 H      -13.2830    -3.1740     1.6910 H     1 <1>   0.0800 
 53 H      -13.3010     0.3490     2.7810 H     1 <1>   0.0800 
 54 H      -12.2200     1.1430     1.6420 H     1 <1>   0.0800 
 55 H      -11.5660     0.3070     3.0660 H     1 <1>   0.0800 
@<TRIPOS>BOND
  1   1   2  1   
  2   1   3  1   
  3   2   4  ar  
  4   2   5  ar  
  5   3  28  1   
  6   3  29  1   
  7   3  30  1   
  8   4   6  1   
  9   4   7  ar  
 10   5   8  1   
 11   5   9  ar  
 12   6  10  1   
 13   7  11  ar  
 14   7  31  1   
 15   8  12  1   
 16   9  11  ar  
 17   9  32  1   
 18  10  33  1   
 19  10  34  1   
 20  10  35  1   
 21  11  13  1   
 22  12  36  1   
 23  12  37  1   
 24  12  38  1   
 25  13  14  1   
 26  13  39  1   
 27  13  40  1   
 28  14  15  1   
 29  14  16  1   
 30  14  41  1   
 31  15  17  1   
 32  15  42  1   
 33  15  43  1   
 34  16  18  1   
 35  16  44  1   
 36  16  45  1   
 37  17  19  ar  
 38  17  20  ar  
 39  18  19  1   
 40  18  46  1   
 41  18  47  1   
 42  19  21  ar  
 43  20  22  ar  
 44  20  48  1   
 45  21  23  ar  
 46  21  49  1   
 47  22  23  ar  
 48  22  24  1   
 49  23  25  1   
 50  24  26  1   
 51  25  27  1   
 52  26  50  1   
 53  26  51  1   
 54  26  52  1   
 55  27  53  1   
 56  27  54  1   
 57  27  55  1   
@<TRIPOS>SUBSTRUCTURE
  1 ****  14 GROUP 4 **** **** 0

# MOE 2024.06 (io_trps.svl 2023.06)
