@<TRIPOS>MOLECULE
NONAME
37 38 1 0 0 
SMALL
USER_CHARGES


@<TRIPOS>ATOM
  1 CL       0.2170     0.9730     1.7730 Cl    1 <1>  -0.1770 
  2 C        0.6460     1.9220     0.3640 C.ar  1 <1>   0.1770 
  3 C       -0.2160     2.9360    -0.0600 C.ar  1 <1>   0.1170 
  4 C        1.8280     1.6330    -0.2870 C.ar  1 <1>  -0.1500 
  5 N       -1.4030     3.1710     0.6600 N.am  1 <1>  -0.5470 
  6 C        0.1590     3.6730    -1.1840 C.ar  1 <1>  -0.1500 
  7 C        2.1630     2.3810    -1.3990 C.ar  1 <1>   0.1770 
  8 C       -2.5350     3.8690     0.3760 C.2   1 <1>   0.6900 
  9 C        1.3410     3.3970    -1.8520 C.ar  1 <1>  -0.1500 
 10 CL       3.6510     2.0390    -2.2450 Cl    1 <1>  -0.1770 
 11 O       -2.6840     4.5100    -0.6450 O.2   1 <1>  -0.5700 
 12 N       -3.5720     3.7880     1.2570 N.am  1 <1>  -0.6600 
 13 C       -4.4150     5.0060     1.4410 C.3   1 <1>   0.1400 
 14 C       -4.3650     2.5270     1.2580 C.3   1 <1>   0.1400 
 15 C       -5.5090     5.0710     0.3570 C.3   1 <1>   0.3430 
 16 C       -5.4630     2.5900     0.1750 C.3   1 <1>   0.3430 
 17 N       -6.3410     3.8120     0.3100 N.4   1 <1>  -0.9590 
 18 C       -7.3330     3.9050    -0.7930 C.3   1 <1>   0.3430 
 19 C       -8.4060     2.8370    -0.6130 C.3   1 <1>  -0.2400 
 20 H        2.4740     0.8470     0.0590 H     1 <1>   0.1500 
 21 H       -1.4320     2.7260     1.5770 H     1 <1>   0.3700 
 22 H       -0.4630     4.4720    -1.5460 H     1 <1>   0.1500 
 23 H        1.6260     3.9660    -2.7190 H     1 <1>   0.1500 
 24 H       -3.7940     5.8840     1.3700 H     1 <1>   0.0800 
 25 H       -4.8590     4.9960     2.4210 H     1 <1>   0.0800 
 26 H       -4.8070     2.3780     2.2280 H     1 <1>   0.0800 
 27 H       -3.7190     1.6890     1.0580 H     1 <1>   0.0800 
 28 H       -5.0250     5.2190    -0.5960 H     1 <1>   0.0800 
 29 H       -6.1400     5.9240     0.5420 H     1 <1>   0.0800 
 30 H       -6.0640     1.6970     0.2330 H     1 <1>   0.0800 
 31 H       -4.9820     2.6010    -0.7900 H     1 <1>   0.0800 
 32 H       -6.8560     3.7420     1.1970 H     1 <1>   0.4500 
 33 H       -6.8430     3.7850    -1.7470 H     1 <1>   0.0800 
 34 H       -7.8040     4.8760    -0.7770 H     1 <1>   0.0800 
 35 H       -8.0010     1.8480    -0.7190 H     1 <1>   0.0800 
 36 H       -9.1550     2.9640    -1.3750 H     1 <1>   0.0800 
 37 H       -8.8890     2.9350     0.3430 H     1 <1>   0.0800 
@<TRIPOS>BOND
  1   1   2  1   
  2   2   3  ar  
  3   2   4  ar  
  4   3   5  1   
  5   3   6  ar  
  6   4   7  ar  
  7   4  20  1   
  8   5   8  am  
  9   5  21  1   
 10   6   9  ar  
 11   6  22  1   
 12   7   9  ar  
 13   7  10  1   
 14   8  11  2   
 15   8  12  am  
 16   9  23  1   
 17  12  13  1   
 18  12  14  1   
 19  13  15  1   
 20  13  24  1   
 21  13  25  1   
 22  14  16  1   
 23  14  26  1   
 24  14  27  1   
 25  15  17  1   
 26  15  28  1   
 27  15  29  1   
 28  16  17  1   
 29  16  30  1   
 30  16  31  1   
 31  17  18  1   
 32  17  32  1   
 33  18  19  1   
 34  18  33  1   
 35  18  34  1   
 36  19  35  1   
 37  19  36  1   
 38  19  37  1   
@<TRIPOS>SUBSTRUCTURE
  1 ****   8 GROUP 4 **** **** 0

# MOE 2024.06 (io_trps.svl 2023.06)
