@<TRIPOS>MOLECULE
NONAME
35 36 1 0 0 
SMALL
USER_CHARGES


@<TRIPOS>ATOM
  1 O        0.5500    -0.8180    -1.8260 O.co2 1 <1>  -0.9000 
  2 C        1.0810    -0.2360    -0.8630 C.2   1 <1>   0.9060 
  3 O        0.5350     0.7640    -0.3650 O.co2 1 <1>  -0.9000 
  4 C        2.3910    -0.8150    -0.2300 C.3   1 <1>   0.1740 
  5 O        3.4450     0.1460    -0.3040 O.3   1 <1>  -0.3630 
  6 C        2.8710    -2.0670    -0.9920 C.3   1 <1>  -0.1600 
  7 C        2.1630    -1.1140     1.2690 C.3   1 <1>  -0.2400 
  8 C        4.7590    -0.1730    -0.1240 C.ar  1 <1>   0.0820 
  9 C        4.1970    -2.6100    -0.4620 C.3   1 <1>  -0.0160 
 10 C        5.2010    -1.4970    -0.1690 C.ar  1 <1>  -0.1440 
 11 C        5.6470     0.8760     0.1090 C.ar  1 <1>  -0.1440 
 12 C        6.5470    -1.7800     0.0520 C.ar  1 <1>  -0.1440 
 13 C        6.9930     0.6000     0.3310 C.ar  1 <1>  -0.1440 
 14 C        5.1160     2.3130     0.1210 C.3   1 <1>  -0.0970 
 15 C        7.4270    -0.7230     0.2810 C.ar  1 <1>   0.0820 
 16 C        7.0730    -3.2190     0.0450 C.3   1 <1>  -0.0970 
 17 C        7.9840     1.7300     0.6220 C.3   1 <1>  -0.0970 
 18 O        8.7380    -0.9940     0.4420 O.3   1 <1>  -0.5320 
 19 H        2.1140    -2.8290    -0.9470 H     1 <1>   0.0800 
 20 H        2.9890    -1.7960    -2.0270 H     1 <1>   0.0800 
 21 H        3.0620    -1.4390     1.7560 H     1 <1>   0.0800 
 22 H        1.4090    -1.8720     1.3740 H     1 <1>   0.0800 
 23 H        1.8080    -0.2230     1.7550 H     1 <1>   0.0800 
 24 H        4.5960    -3.2850    -1.1960 H     1 <1>   0.0800 
 25 H        4.0160    -3.1620     0.4430 H     1 <1>   0.0800 
 26 H        5.8430     3.0050    -0.2590 H     1 <1>   0.0800 
 27 H        4.8490     2.5890     1.1240 H     1 <1>   0.0800 
 28 H        4.2420     2.4120    -0.4990 H     1 <1>   0.0800 
 29 H        6.2980    -3.9330     0.2500 H     1 <1>   0.0800 
 30 H        7.8170    -3.3590     0.8080 H     1 <1>   0.0800 
 31 H        7.5010    -3.4440    -0.9150 H     1 <1>   0.0800 
 32 H        7.5490     2.4480     1.2930 H     1 <1>   0.0800 
 33 H        8.2510     2.2200    -0.2960 H     1 <1>   0.0800 
 34 H        8.8810     1.3690     1.0880 H     1 <1>   0.0800 
 35 H        8.9190    -1.9380     0.3070 H     1 <1>   0.4500 
@<TRIPOS>BOND
  1   1   2  ar  
  2   2   3  ar  
  3   2   4  1   
  4   4   5  1   
  5   4   6  1   
  6   4   7  1   
  7   5   8  1   
  8   6   9  1   
  9   6  19  1   
 10   6  20  1   
 11   7  21  1   
 12   7  22  1   
 13   7  23  1   
 14   8  10  ar  
 15   8  11  ar  
 16   9  10  1   
 17   9  24  1   
 18   9  25  1   
 19  10  12  ar  
 20  11  13  ar  
 21  11  14  1   
 22  12  15  ar  
 23  12  16  1   
 24  13  15  ar  
 25  13  17  1   
 26  14  26  1   
 27  14  27  1   
 28  14  28  1   
 29  15  18  1   
 30  16  29  1   
 31  16  30  1   
 32  16  31  1   
 33  17  32  1   
 34  17  33  1   
 35  17  34  1   
 36  18  35  1   
@<TRIPOS>SUBSTRUCTURE
  1 ****   8 GROUP 4 **** **** 0

# MOE 2024.06 (io_trps.svl 2023.06)
