@<TRIPOS>MOLECULE
NONAME
39 39 1 0 0 
SMALL
USER_CHARGES


@<TRIPOS>ATOM
  1 O       -8.2330     4.3080    -0.6620 O.3   1 <1>  -0.3630 
  2 C       -9.4540     4.8970    -0.5390 C.ar  1 <1>   0.0830 
  3 C       -7.0670     4.9440    -0.2020 C.3   1 <1>   0.1200 
  4 C      -10.5810     4.0930    -0.6930 C.ar  1 <1>  -0.1440 
  5 C       -9.6080     6.2550    -0.2660 C.ar  1 <1>  -0.1500 
  6 C       -5.9370     3.9160    -0.2810 C.3   1 <1>   0.3430 
  7 C      -11.8400     4.6550    -0.5550 C.ar  1 <1>  -0.1500 
  8 C      -10.4670     2.6050    -1.0050 C.3   1 <1>   0.1220 
  9 C      -10.8710     6.8050    -0.1360 C.ar  1 <1>  -0.1500 
 10 N       -4.6390     4.4730     0.2080 N.4   1 <1>  -0.9060 
 11 C      -11.9970     6.0020    -0.2780 C.ar  1 <1>   0.0830 
 12 C      -10.2810     1.8050     0.2740 C.2   1 <1>  -0.2880 
 13 C       -3.5470     3.4770     0.1370 C.3   1 <1>   0.3430 
 14 O      -13.2720     6.4580    -0.1640 O.3   1 <1>  -0.3630 
 15 C      -11.0670     0.8030     0.6780 C.2   1 <1>  -0.3000 
 16 C       -2.2750     4.1330     0.6530 C.3   1 <1>  -0.2400 
 17 C      -13.5410     7.8110     0.1270 C.3   1 <1>   0.0400 
 18 H       -7.2370     5.2560     0.8150 H     1 <1>   0.0800 
 19 H       -6.8740     5.7880    -0.8410 H     1 <1>   0.0800 
 20 H       -8.7630     6.9070    -0.1560 H     1 <1>   0.1500 
 21 H       -5.8320     3.5990    -1.3070 H     1 <1>   0.0800 
 22 H       -6.2100     3.0600     0.3140 H     1 <1>   0.0800 
 23 H      -12.7230     4.0490    -0.6580 H     1 <1>   0.1500 
 24 H       -9.6360     2.4290    -1.6640 H     1 <1>   0.0800 
 25 H      -11.3530     2.2720    -1.5160 H     1 <1>   0.0800 
 26 H      -10.9610     7.8540     0.0740 H     1 <1>   0.1500 
 27 H       -4.7340     4.7880     1.1820 H     1 <1>   0.4500 
 28 H       -4.3720     5.2940    -0.3500 H     1 <1>   0.4500 
 29 H       -9.4320     2.1390     0.8440 H     1 <1>   0.1500 
 30 H       -3.4030     3.1510    -0.8820 H     1 <1>   0.0800 
 31 H       -3.7860     2.6160     0.7430 H     1 <1>   0.0800 
 32 H      -10.9180     0.2530     1.5920 H     1 <1>   0.1500 
 33 H      -11.9260     0.4470     0.1350 H     1 <1>   0.1500 
 34 H       -2.0020     4.9780     0.0450 H     1 <1>   0.0800 
 35 H       -1.4680     3.4220     0.6090 H     1 <1>   0.0800 
 36 H       -2.3860     4.4410     1.6770 H     1 <1>   0.0800 
 37 H      -14.6080     7.9360     0.1740 H     1 <1>   0.0800 
 38 H      -13.1360     8.4250    -0.6580 H     1 <1>   0.0800 
 39 H      -13.1030     8.0570     1.0780 H     1 <1>   0.0800 
@<TRIPOS>BOND
  1   1   2  1   
  2   1   3  1   
  3   2   4  ar  
  4   2   5  ar  
  5   3   6  1   
  6   3  18  1   
  7   3  19  1   
  8   4   7  ar  
  9   4   8  1   
 10   5   9  ar  
 11   5  20  1   
 12   6  10  1   
 13   6  21  1   
 14   6  22  1   
 15   7  11  ar  
 16   7  23  1   
 17   8  12  1   
 18   8  24  1   
 19   8  25  1   
 20   9  11  ar  
 21   9  26  1   
 22  10  13  1   
 23  10  27  1   
 24  10  28  1   
 25  11  14  1   
 26  12  15  2   
 27  12  29  1   
 28  13  16  1   
 29  13  30  1   
 30  13  31  1   
 31  14  17  1   
 32  15  32  1   
 33  15  33  1   
 34  16  34  1   
 35  16  35  1   
 36  16  36  1   
 37  17  37  1   
 38  17  38  1   
 39  17  39  1   
@<TRIPOS>SUBSTRUCTURE
  1 ****   2 GROUP 4 **** **** 0

# MOE 2024.06 (io_trps.svl 2023.06)
