@<TRIPOS>MOLECULE
NONAME
37 37 1 0 0 
SMALL
USER_CHARGES


@<TRIPOS>ATOM
  1 F        0.4830     0.8790    -0.4740 F     1 <1>  -0.1900 
  2 C        1.7250     1.2800    -0.4040 C.ar  1 <1>   0.1900 
  3 C        1.9840     2.6320    -0.2830 C.ar  1 <1>  -0.1500 
  4 C        2.7330     0.3350    -0.4540 C.ar  1 <1>  -0.1500 
  5 C        3.3030     3.0470    -0.2090 C.ar  1 <1>  -0.1500 
  6 C        4.0500     0.7600    -0.3800 C.ar  1 <1>  -0.1500 
  7 C        4.3370     2.1210    -0.2570 C.ar  1 <1>   0.0830 
  8 O        5.5970     2.6200    -0.1780 O.3   1 <1>  -0.3630 
  9 C        6.7230     1.7810    -0.2160 C.3   1 <1>   0.1200 
 10 C        7.9540     2.6800    -0.1040 C.3   1 <1>  -0.1600 
 11 C        9.2350     1.8560    -0.1350 C.3   1 <1>   0.3430 
 12 N       10.3970     2.7770    -0.0240 N.4   1 <1>  -0.9060 
 13 C       11.7300     2.1690    -0.0360 C.3   1 <1>   0.5030 
 14 C       12.7240     3.3190     0.0900 C.3   1 <1>  -0.2400 
 15 C       11.8770     1.2230     1.1550 C.3   1 <1>  -0.2400 
 16 C       11.9510     1.4330    -1.3560 C.3   1 <1>  -0.2400 
 17 H        1.1730     3.3360    -0.2470 H     1 <1>   0.1500 
 18 H        2.4860    -0.7070    -0.5490 H     1 <1>   0.1500 
 19 H        3.5360     4.0930    -0.1150 H     1 <1>   0.1500 
 20 H        4.8260     0.0200    -0.4190 H     1 <1>   0.1500 
 21 H        6.7110     1.2450    -1.1500 H     1 <1>   0.0800 
 22 H        6.6600     1.0970     0.6140 H     1 <1>   0.0800 
 23 H        7.8930     3.2240     0.8220 H     1 <1>   0.0800 
 24 H        7.9450     3.3710    -0.9290 H     1 <1>   0.0800 
 25 H        9.2870     1.3030    -1.0600 H     1 <1>   0.0800 
 26 H        9.2360     1.1570     0.6850 H     1 <1>   0.0800 
 27 H       10.3150     3.3180     0.8420 H     1 <1>   0.4500 
 28 H       10.3640     3.4550    -0.7920 H     1 <1>   0.4500 
 29 H       12.5850     3.8560     1.0110 H     1 <1>   0.0800 
 30 H       12.6370     4.0020    -0.7360 H     1 <1>   0.0800 
 31 H       13.7300     2.9340     0.0870 H     1 <1>   0.0800 
 32 H       11.6730     1.7290     2.0820 H     1 <1>   0.0800 
 33 H       12.8870     0.8530     1.2000 H     1 <1>   0.0800 
 34 H       11.2310     0.3680     1.0660 H     1 <1>   0.0800 
 35 H       11.7990     2.0870    -2.1960 H     1 <1>   0.0800 
 36 H       11.3060     0.5780    -1.4480 H     1 <1>   0.0800 
 37 H       12.9640     1.0710    -1.4020 H     1 <1>   0.0800 
@<TRIPOS>BOND
  1   1   2  1   
  2   2   3  ar  
  3   2   4  ar  
  4   3   5  ar  
  5   3  17  1   
  6   4   6  ar  
  7   4  18  1   
  8   5   7  ar  
  9   5  19  1   
 10   6   7  ar  
 11   6  20  1   
 12   7   8  1   
 13   8   9  1   
 14   9  10  1   
 15   9  21  1   
 16   9  22  1   
 17  10  11  1   
 18  10  23  1   
 19  10  24  1   
 20  11  12  1   
 21  11  25  1   
 22  11  26  1   
 23  12  13  1   
 24  12  27  1   
 25  12  28  1   
 26  13  14  1   
 27  13  15  1   
 28  13  16  1   
 29  14  29  1   
 30  14  30  1   
 31  14  31  1   
 32  15  32  1   
 33  15  33  1   
 34  15  34  1   
 35  16  35  1   
 36  16  36  1   
 37  16  37  1   
@<TRIPOS>SUBSTRUCTURE
  1 ****   9 GROUP 4 **** **** 0

# MOE 2024.06 (io_trps.svl 2023.06)
