@<TRIPOS>MOLECULE
NONAME
49 51 1 0 0 
SMALL
USER_CHARGES


@<TRIPOS>ATOM
  1 I        1.4370    -0.0500    -1.3400 I     1 <1>  -0.0810 
  2 C        0.4680    -1.8690    -0.7750 C.ar  1 <1>   0.0810 
  3 C        1.0060    -2.6850     0.2090 C.ar  1 <1>   0.0820 
  4 C       -0.7090    -2.1860    -1.4290 C.ar  1 <1>  -0.1500 
  5 O        2.1500    -2.3760     0.8540 O.3   1 <1>  -0.5330 
  6 C        0.3460    -3.8640     0.5430 C.ar  1 <1>   0.0820 
  7 C       -1.3780    -3.3530    -1.0840 C.ar  1 <1>  -0.1430 
  8 O        0.9140    -4.6430     1.5070 O.3   1 <1>  -0.3630 
  9 C       -0.8450    -4.1900    -0.1070 C.ar  1 <1>  -0.1500 
 10 C       -2.6870    -3.7020    -1.7680 C.3   1 <1>   0.4860 
 11 C        0.4760    -5.9640     1.7480 C.3   1 <1>   0.0400 
 12 N       -3.8110    -3.3820    -0.8470 N.4   1 <1>  -0.9590 
 13 C       -5.1010    -3.9190    -1.3650 C.3   1 <1>   0.3430 
 14 C       -3.8930    -1.9190    -0.5540 C.3   1 <1>   0.3430 
 15 C       -6.2040    -3.6960    -0.3320 C.3   1 <1>  -0.1600 
 16 C       -4.9770    -1.6600     0.4920 C.3   1 <1>  -0.1600 
 17 C       -6.3410    -2.2100     0.0470 C.3   1 <1>  -0.0800 
 18 C       -7.4060    -1.9900     1.1390 C.3   1 <1>  -0.0170 
 19 C       -8.7690    -2.5020     0.6980 C.ar  1 <1>  -0.1430 
 20 C       -9.5130    -1.7900    -0.2310 C.ar  1 <1>  -0.1500 
 21 C       -9.2790    -3.6850     1.2130 C.ar  1 <1>  -0.1500 
 22 C      -10.7460    -2.2600    -0.6480 C.ar  1 <1>  -0.1500 
 23 C      -10.5110    -4.1560     0.7960 C.ar  1 <1>  -0.1500 
 24 C      -11.2450    -3.4440    -0.1360 C.ar  1 <1>  -0.1500 
 25 H       -1.0810    -1.5230    -2.1910 H     1 <1>   0.1500 
 26 H        2.3700    -3.0760     1.5010 H     1 <1>   0.4500 
 27 H       -1.3580    -5.0980     0.1480 H     1 <1>   0.1500 
 28 H       -2.6920    -4.7530    -2.0080 H     1 <1>   0.0800 
 29 H       -2.7850    -3.1440    -2.6850 H     1 <1>   0.0800 
 30 H        1.1350    -6.4060     2.4730 H     1 <1>   0.0800 
 31 H        0.5210    -6.5220     0.8300 H     1 <1>   0.0800 
 32 H       -0.5250    -5.9370     2.1390 H     1 <1>   0.0800 
 33 H       -3.6090    -3.8460     0.0460 H     1 <1>   0.4500 
 34 H       -5.0120    -4.9740    -1.5690 H     1 <1>   0.0800 
 35 H       -5.3660    -3.4160    -2.2820 H     1 <1>   0.0800 
 36 H       -4.1260    -1.3770    -1.4570 H     1 <1>   0.0800 
 37 H       -2.9470    -1.5600    -0.1780 H     1 <1>   0.0800 
 38 H       -6.0030    -4.2890     0.5430 H     1 <1>   0.0800 
 39 H       -7.1300    -4.0490    -0.7530 H     1 <1>   0.0800 
 40 H       -5.0550    -0.5980     0.6510 H     1 <1>   0.0800 
 41 H       -4.6810    -2.1030     1.4270 H     1 <1>   0.0800 
 42 H       -6.6550    -1.6670    -0.8300 H     1 <1>   0.0800 
 43 H       -7.4890    -0.9400     1.3600 H     1 <1>   0.0800 
 44 H       -7.1120    -2.4850     2.0480 H     1 <1>   0.0800 
 45 H       -9.1400    -0.8650    -0.6330 H     1 <1>   0.1500 
 46 H       -8.7220    -4.2470     1.9420 H     1 <1>   0.1500 
 47 H      -11.3200    -1.7040    -1.3690 H     1 <1>   0.1500 
 48 H      -10.9020    -5.0740     1.1990 H     1 <1>   0.1500 
 49 H      -12.2040    -3.8100    -0.4600 H     1 <1>   0.1500 
@<TRIPOS>BOND
  1   1   2  1   
  2   2   3  ar  
  3   2   4  ar  
  4   3   5  1   
  5   3   6  ar  
  6   4   7  ar  
  7   4  25  1   
  8   5  26  1   
  9   6   8  1   
 10   6   9  ar  
 11   7   9  ar  
 12   7  10  1   
 13   8  11  1   
 14   9  27  1   
 15  10  12  1   
 16  10  28  1   
 17  10  29  1   
 18  11  30  1   
 19  11  31  1   
 20  11  32  1   
 21  12  13  1   
 22  12  14  1   
 23  12  33  1   
 24  13  15  1   
 25  13  34  1   
 26  13  35  1   
 27  14  16  1   
 28  14  36  1   
 29  14  37  1   
 30  15  17  1   
 31  15  38  1   
 32  15  39  1   
 33  16  17  1   
 34  16  40  1   
 35  16  41  1   
 36  17  18  1   
 37  17  42  1   
 38  18  19  1   
 39  18  43  1   
 40  18  44  1   
 41  19  20  ar  
 42  19  21  ar  
 43  20  22  ar  
 44  20  45  1   
 45  21  23  ar  
 46  21  46  1   
 47  22  24  ar  
 48  22  47  1   
 49  23  24  ar  
 50  23  48  1   
 51  24  49  1   
@<TRIPOS>SUBSTRUCTURE
  1 ****  12 GROUP 4 **** **** 0

# MOE 2024.06 (io_trps.svl 2023.06)
