@<TRIPOS>MOLECULE
NONAME
45 48 1 0 0 
SMALL
USER_CHARGES


@<TRIPOS>ATOM
  1 S        0.5280    -0.7960    -0.3440 S.3   1 <1>  -0.0800 
  2 C        1.0960     0.8220     0.0420 C.2   1 <1>  -0.1400 
  3 C       -1.1440    -0.2670    -0.3020 C.2   1 <1>  -0.1100 
  4 C        0.0550     1.6640     0.1850 C.2   1 <1>  -0.1500 
  5 C        2.5940     1.0350     0.1580 C.3   1 <1>   0.0200 
  6 C       -1.2210     1.0440    -0.0120 C.2   1 <1>  -0.1500 
  7 C        3.2840     0.8090    -1.1890 C.3   1 <1>   0.1400 
  8 N        4.7050     1.2240    -1.1140 N.am  1 <1>  -0.7300 
  9 C        5.7080     0.4330    -0.6730 C.2   1 <1>   0.6900 
 10 O        5.4750    -0.6890    -0.2710 O.2   1 <1>  -0.5700 
 11 N        6.9560     0.9520    -0.6950 N.am  1 <1>  -0.7300 
 12 C        8.2180     0.3160    -0.2770 C.3   1 <1>   0.3000 
 13 C        9.3460     1.3410    -0.5020 C.3   1 <1>  -0.1600 
 14 C        8.1800    -0.0580     1.2170 C.3   1 <1>  -0.1600 
 15 C        8.5110    -0.9370    -1.1240 C.3   1 <1>  -0.1600 
 16 C       10.7050     0.7450    -0.0860 C.3   1 <1>  -0.0800 
 17 C        9.5300    -0.6700     1.6420 C.3   1 <1>  -0.0800 
 18 C        9.8610    -1.5520    -0.7060 C.3   1 <1>  -0.0800 
 19 C       10.6510     0.3590     1.4040 C.3   1 <1>  -0.1600 
 20 C       10.9800    -0.5170    -0.9270 C.3   1 <1>  -0.1600 
 21 C        9.8050    -1.9240     0.7890 C.3   1 <1>  -0.1600 
 22 H       -1.9010    -1.0050    -0.5010 H     1 <1>   0.1500 
 23 H        0.1240     2.7100     0.4250 H     1 <1>   0.1500 
 24 H        2.9960     0.3520     0.8860 H     1 <1>   0.0800 
 25 H        2.7770     2.0400     0.4910 H     1 <1>   0.0800 
 26 H       -2.1300     1.6130     0.0750 H     1 <1>   0.1500 
 27 H        2.7880     1.3770    -1.9560 H     1 <1>   0.0800 
 28 H        3.2270    -0.2350    -1.4520 H     1 <1>   0.0800 
 29 H        4.9100     2.1920    -1.3430 H     1 <1>   0.3700 
 30 H        7.0830     1.8500    -1.1450 H     1 <1>   0.3700 
 31 H        9.1560     2.2260     0.0790 H     1 <1>   0.0800 
 32 H        9.3860     1.6180    -1.5410 H     1 <1>   0.0800 
 33 H        7.4010    -0.7760     1.3980 H     1 <1>   0.0800 
 34 H        7.9750     0.8160     1.8080 H     1 <1>   0.0800 
 35 H        8.5360    -0.6770    -2.1670 H     1 <1>   0.0800 
 36 H        7.7360    -1.6680    -0.9800 H     1 <1>   0.0800 
 37 H       11.4870     1.4670    -0.2470 H     1 <1>   0.0800 
 38 H        9.4950    -0.9390     2.6840 H     1 <1>   0.0800 
 39 H       10.0570    -2.4330    -1.2940 H     1 <1>   0.0800 
 40 H       10.4740     1.2350     2.0030 H     1 <1>   0.0800 
 41 H       11.5960    -0.0570     1.7070 H     1 <1>   0.0800 
 42 H       11.9280    -0.9410    -0.6470 H     1 <1>   0.0800 
 43 H       11.0350    -0.2570    -1.9700 H     1 <1>   0.0800 
 44 H        9.0280    -2.6520     0.9520 H     1 <1>   0.0800 
 45 H       10.7370    -2.3710     1.0880 H     1 <1>   0.0800 
@<TRIPOS>BOND
  1   1   2  1   
  2   1   3  1   
  3   2   4  2   
  4   2   5  1   
  5   3   6  2   
  6   3  22  1   
  7   4   6  1   
  8   4  23  1   
  9   5   7  1   
 10   5  24  1   
 11   5  25  1   
 12   6  26  1   
 13   7   8  1   
 14   7  27  1   
 15   7  28  1   
 16   8   9  am  
 17   8  29  1   
 18   9  10  2   
 19   9  11  am  
 20  11  12  1   
 21  11  30  1   
 22  12  13  1   
 23  12  14  1   
 24  12  15  1   
 25  13  16  1   
 26  13  31  1   
 27  13  32  1   
 28  14  17  1   
 29  14  33  1   
 30  14  34  1   
 31  15  18  1   
 32  15  35  1   
 33  15  36  1   
 34  16  19  1   
 35  16  20  1   
 36  16  37  1   
 37  17  19  1   
 38  17  21  1   
 39  17  38  1   
 40  18  20  1   
 41  18  21  1   
 42  18  39  1   
 43  19  40  1   
 44  19  41  1   
 45  20  42  1   
 46  20  43  1   
 47  21  44  1   
 48  21  45  1   
@<TRIPOS>SUBSTRUCTURE
  1 ****   9 GROUP 4 **** **** 0

# MOE 2024.06 (io_trps.svl 2023.06)
