@<TRIPOS>MOLECULE
NONAME
33 35 1 0 0 
SMALL
USER_CHARGES


@<TRIPOS>ATOM
  1 O        0.6760    -0.5280     1.1360 O.2   1 <1>  -0.5700 
  2 C        0.4270    -1.5830     0.5790 C.2   1 <1>   0.5440 
  3 N        1.4510    -2.4150     0.2300 N.am  1 <1>  -0.4200 
  4 C       -0.9040    -2.0270     0.2680 C.ar  1 <1>   0.0860 
  5 C        1.2180    -3.6010    -0.3860 C.2   1 <1>   0.4490 
  6 C        2.8870    -2.1380     0.4320 C.3   1 <1>   0.2810 
  7 C       -1.0390    -3.2760    -0.3590 C.ar  1 <1>   0.1790 
  8 C       -2.0540    -1.2880     0.5600 C.ar  1 <1>  -0.1500 
  9 N        0.0620    -4.0570    -0.6780 N.2   1 <1>  -0.6290 
 10 C        2.5210    -4.3030    -0.6640 C.3   1 <1>  -0.0990 
 11 C        3.3940    -1.0360    -0.5060 C.2   1 <1>   0.6590 
 12 C        3.5460    -3.5050     0.1600 C.3   1 <1>  -0.1600 
 13 C       -2.3100    -3.7460    -0.6730 C.ar  1 <1>  -0.1500 
 14 C       -3.3070    -1.7690     0.2410 C.ar  1 <1>  -0.1500 
 15 O        3.3370    -1.1360    -1.7080 O.2   1 <1>  -0.5700 
 16 O        3.9270     0.0270     0.0830 O.3   1 <1>  -0.4300 
 17 C       -3.4350    -3.0040    -0.3790 C.ar  1 <1>  -0.1500 
 18 C        4.3890     1.1280    -0.6640 C.3   1 <1>   0.1200 
 19 C        4.9200     2.1710     0.3140 C.3   1 <1>  -0.2400 
 20 H        3.0540    -1.8330     1.4500 H     1 <1>   0.0800 
 21 H       -1.9480    -0.3300     1.0400 H     1 <1>   0.1500 
 22 H        2.7360    -4.2280    -1.7150 H     1 <1>   0.0800 
 23 H        2.4770    -5.3370    -0.3710 H     1 <1>   0.0800 
 24 H        3.7150    -4.0000     1.1000 H     1 <1>   0.0800 
 25 H        4.4880    -3.4090    -0.3510 H     1 <1>   0.0800 
 26 H       -2.3970    -4.7030    -1.1540 H     1 <1>   0.1500 
 27 H       -4.1860    -1.1910     0.4700 H     1 <1>   0.1500 
 28 H       -4.4130    -3.3800    -0.6280 H     1 <1>   0.1500 
 29 H        3.5640     1.5200    -1.2360 H     1 <1>   0.0800 
 30 H        5.1640     0.7900    -1.3310 H     1 <1>   0.0800 
 31 H        4.1360     2.4880     0.9790 H     1 <1>   0.0800 
 32 H        5.2760     3.0280    -0.2290 H     1 <1>   0.0800 
 33 H        5.7350     1.7640     0.8850 H     1 <1>   0.0800 
@<TRIPOS>BOND
  1   1   2  2   
  2   2   3  am  
  3   2   4  1   
  4   3   5  1   
  5   3   6  1   
  6   4   7  ar  
  7   4   8  ar  
  8   5   9  2   
  9   5  10  1   
 10   6  11  1   
 11   6  12  1   
 12   6  20  1   
 13   7   9  1   
 14   7  13  ar  
 15   8  14  ar  
 16   8  21  1   
 17  10  12  1   
 18  10  22  1   
 19  10  23  1   
 20  11  15  2   
 21  11  16  1   
 22  12  24  1   
 23  12  25  1   
 24  13  17  ar  
 25  13  26  1   
 26  14  17  ar  
 27  14  27  1   
 28  16  18  1   
 29  17  28  1   
 30  18  19  1   
 31  18  29  1   
 32  18  30  1   
 33  19  31  1   
 34  19  32  1   
 35  19  33  1   
@<TRIPOS>SUBSTRUCTURE
  1 ****   3 GROUP 4 **** **** 0

# MOE 2024.06 (io_trps.svl 2023.06)
