@<TRIPOS>MOLECULE
NONAME
35 36 1 0 0 
SMALL
USER_CHARGES


@<TRIPOS>ATOM
  1 S        0.1860     0.2290    -0.2780 S.o2  1 <1>   1.4970 
  2 O        0.1990     1.3510     0.6380 O.2   1 <1>  -0.6500 
  3 O        0.4870     0.4680    -1.6790 O.2   1 <1>  -0.6500 
  4 N        1.2710    -0.9080     0.2920 N.2   1 <1>  -0.6380 
  5 C       -1.4060    -0.6360    -0.1420 C.ar  1 <1>  -0.0090 
  6 C        2.5060    -0.6640     0.0900 C.2   1 <1>   0.4860 
  7 C       -2.1530    -0.5860     1.0310 C.ar  1 <1>  -0.1500 
  8 C       -1.9060    -1.3940    -1.1960 C.ar  1 <1>  -0.1500 
  9 N        3.0860     0.3630    -0.5950 N.pl3 1 <1>  -0.4710 
 10 C        3.5960    -1.4690     0.4960 C.2   1 <1>  -0.1360 
 11 C       -3.3570    -1.2580     1.1470 C.ar  1 <1>  -0.1500 
 12 C       -3.1100    -2.0690    -1.0890 C.ar  1 <1>  -0.1500 
 13 O        4.4510     0.1900    -0.6520 O.3   1 <1>  -0.0560 
 14 C        4.7290    -0.9210     0.0190 C.2   1 <1>  -0.0620 
 15 C       -3.8380    -2.0010     0.0840 C.ar  1 <1>  -0.1500 
 16 C        6.1910    -1.3540     0.1330 C.3   1 <1>   0.1380 
 17 C        6.9970    -0.2570     0.8390 C.3   1 <1>  -0.2400 
 18 C        6.3080    -2.6540     0.9420 C.3   1 <1>  -0.2400 
 19 C        6.7660    -1.5900    -1.2700 C.3   1 <1>  -0.2400 
 20 H       -1.7860    -0.0100     1.8650 H     1 <1>   0.1500 
 21 H       -1.3470    -1.4560    -2.1150 H     1 <1>   0.1500 
 22 H        2.6280     0.7930    -1.4080 H     1 <1>   0.4000 
 23 H        3.4610    -2.3590     1.0790 H     1 <1>   0.1500 
 24 H       -3.9200    -1.2020     2.0630 H     1 <1>   0.1500 
 25 H       -3.4790    -2.6480    -1.9180 H     1 <1>   0.1500 
 26 H       -4.7740    -2.5250     0.1710 H     1 <1>   0.1500 
 27 H        6.5900    -0.0680     1.8170 H     1 <1>   0.0800 
 28 H        6.9590     0.6590     0.2770 H     1 <1>   0.0800 
 29 H        8.0260    -0.5480     0.9450 H     1 <1>   0.0800 
 30 H        7.3360    -2.9580     1.0210 H     1 <1>   0.0800 
 31 H        5.9190    -2.5140     1.9350 H     1 <1>   0.0800 
 32 H        5.7570    -3.4450     0.4650 H     1 <1>   0.0800 
 33 H        6.7270    -0.6860    -1.8500 H     1 <1>   0.0800 
 34 H        6.1970    -2.3460    -1.7830 H     1 <1>   0.0800 
 35 H        7.7900    -1.9120    -1.2110 H     1 <1>   0.0800 
@<TRIPOS>BOND
  1   1   2  2   
  2   1   3  2   
  3   1   4  1   
  4   1   5  1   
  5   4   6  2   
  6   5   7  ar  
  7   5   8  ar  
  8   6   9  1   
  9   6  10  1   
 10   7  11  ar  
 11   7  20  1   
 12   8  12  ar  
 13   8  21  1   
 14   9  13  1   
 15   9  22  1   
 16  10  14  2   
 17  10  23  1   
 18  11  15  ar  
 19  11  24  1   
 20  12  15  ar  
 21  12  25  1   
 22  13  14  1   
 23  14  16  1   
 24  15  26  1   
 25  16  17  1   
 26  16  18  1   
 27  16  19  1   
 28  17  27  1   
 29  17  28  1   
 30  17  29  1   
 31  18  30  1   
 32  18  31  1   
 33  18  32  1   
 34  19  33  1   
 35  19  34  1   
 36  19  35  1   
@<TRIPOS>SUBSTRUCTURE
  1 ****   4 GROUP 4 **** **** 0

# MOE 2024.06 (io_trps.svl 2023.06)
