@<TRIPOS>MOLECULE
NONAME
44 46 1 0 0 
SMALL
USER_CHARGES


@<TRIPOS>ATOM
  1 CL       0.8450    -0.3260    -1.1070 Cl    1 <1>  -0.1770 
  2 C        0.4390    -2.0040    -0.8510 C.ar  1 <1>   0.1770 
  3 C        0.9350    -2.9620    -1.7160 C.ar  1 <1>  -0.1500 
  4 C       -0.3730    -2.3490     0.2140 C.ar  1 <1>  -0.1500 
  5 C        0.6100    -4.2910    -1.5080 C.ar  1 <1>  -0.1500 
  6 C       -0.6970    -3.6800     0.4200 C.ar  1 <1>  -0.1500 
  7 C       -0.2040    -4.6570    -0.4450 C.ar  1 <1>   0.0830 
  8 O       -0.4690    -5.9800    -0.3180 O.3   1 <1>  -0.3630 
  9 C       -1.2520    -6.4770     0.7450 C.3   1 <1>   0.2640 
 10 C       -1.3630    -7.9880     0.6090 C.ar  1 <1>  -0.1430 
 11 C       -1.8260    -8.5520    -0.5680 C.ar  1 <1>  -0.1500 
 12 C       -1.0010    -8.8210     1.6560 C.ar  1 <1>  -0.1500 
 13 C       -1.9300    -9.9250    -0.6940 C.ar  1 <1>  -0.1500 
 14 C       -1.1080   -10.1940     1.5250 C.ar  1 <1>  -0.1500 
 15 C       -1.5840   -10.7790     0.3530 C.ar  1 <1>   0.0860 
 16 C       -1.7030   -12.2220     0.2370 C.2   1 <1>   0.5440 
 17 O       -0.8570   -12.9570     0.7010 O.2   1 <1>  -0.5700 
 18 N       -2.7630   -12.8240    -0.3660 N.am  1 <1>  -0.7300 
 19 C       -4.1440   -12.3030    -0.5090 C.3   1 <1>   0.1400 
 20 C       -5.1490   -13.2820     0.1180 C.3   1 <1>   0.2000 
 21 O       -4.9760   -14.5560    -0.4120 O.3   1 <1>  -0.5600 
 22 C       -6.6070   -12.9540    -0.1660 C.3   1 <1>  -0.1600 
 23 C       -6.1320   -15.3110    -0.2370 C.3   1 <1>   0.1200 
 24 C       -7.2800   -14.3150    -0.0800 C.3   1 <1>  -0.1600 
 25 H        1.5650    -2.6680    -2.5370 H     1 <1>   0.1500 
 26 H       -0.7440    -1.5820     0.8690 H     1 <1>   0.1500 
 27 H        0.9850    -5.0540    -2.1670 H     1 <1>   0.1500 
 28 H       -1.3290    -3.9300     1.2510 H     1 <1>   0.1500 
 29 H       -2.2270    -6.0270     0.6890 H     1 <1>   0.0800 
 30 H       -0.7710    -6.2090     1.6700 H     1 <1>   0.0800 
 31 H       -2.0980    -7.9170    -1.3950 H     1 <1>   0.1500 
 32 H       -0.6280    -8.4080     2.5780 H     1 <1>   0.1500 
 33 H       -2.2770   -10.3480    -1.6200 H     1 <1>   0.1500 
 34 H       -0.8180   -10.8340     2.3400 H     1 <1>   0.1500 
 35 H       -2.7260   -13.8500    -0.4020 H     1 <1>   0.3700 
 36 H       -4.3670   -12.1830    -1.5540 H     1 <1>   0.0800 
 37 H       -4.2340   -11.3450    -0.0280 H     1 <1>   0.0800 
 38 H       -4.9850   -13.3480     1.1810 H     1 <1>   0.0800 
 39 H       -6.7070   -12.5570    -1.1610 H     1 <1>   0.0800 
 40 H       -7.0060   -12.2490     0.5420 H     1 <1>   0.0800 
 41 H       -6.0100   -15.9140     0.6460 H     1 <1>   0.0800 
 42 H       -6.2580   -15.9430    -1.1000 H     1 <1>   0.0800 
 43 H       -8.0180   -14.4450    -0.8510 H     1 <1>   0.0800 
 44 H       -7.7470   -14.4550     0.8790 H     1 <1>   0.0800 
@<TRIPOS>BOND
  1   1   2  1   
  2   2   3  ar  
  3   2   4  ar  
  4   3   5  ar  
  5   3  25  1   
  6   4   6  ar  
  7   4  26  1   
  8   5   7  ar  
  9   5  27  1   
 10   6   7  ar  
 11   6  28  1   
 12   7   8  1   
 13   8   9  1   
 14   9  10  1   
 15   9  29  1   
 16   9  30  1   
 17  10  11  ar  
 18  10  12  ar  
 19  11  13  ar  
 20  11  31  1   
 21  12  14  ar  
 22  12  32  1   
 23  13  15  ar  
 24  13  33  1   
 25  14  15  ar  
 26  14  34  1   
 27  15  16  1   
 28  16  17  2   
 29  16  18  am  
 30  18  19  1   
 31  18  35  1   
 32  19  20  1   
 33  19  36  1   
 34  19  37  1   
 35  20  21  1   
 36  20  22  1   
 37  20  38  1   
 38  21  23  1   
 39  22  24  1   
 40  22  39  1   
 41  22  40  1   
 42  23  24  1   
 43  23  41  1   
 44  23  42  1   
 45  24  43  1   
 46  24  44  1   
@<TRIPOS>SUBSTRUCTURE
  1 ****  11 GROUP 4 **** **** 0

# MOE 2024.06 (io_trps.svl 2023.06)
