@<TRIPOS>MOLECULE
NONAME
38 40 1 0 0 
SMALL
USER_CHARGES


@<TRIPOS>ATOM
  1 O       -0.0430     0.4350     1.3630 O.2   1 <1>  -0.5700 
  2 C        0.2770     1.0890     0.3840 C.2   1 <1>   0.6300 
  3 N        1.5960     1.0430     0.0020 N.am  1 <1>  -0.7300 
  4 C       -0.6810     1.9150    -0.3640 C.2   1 <1>   0.6560 
  5 C        2.6850     0.3020     0.6600 C.3   1 <1>   0.2200 
  6 O       -0.2560     2.7440    -1.1590 O.2   1 <1>  -0.5700 
  7 C       -2.1080     1.7810    -0.1940 C.2   1 <1>  -0.0860 
  8 C        3.7540     1.2940     1.1010 C.3   1 <1>  -0.1600 
  9 C        3.4020    -0.5430    -0.3850 C.3   1 <1>  -0.1600 
 10 C       -2.8170     0.5450    -0.1290 C.ar  1 <1>   0.0000 
 11 C       -3.0640     2.7650    -0.0960 C.2   1 <1>  -0.3320 
 12 C        4.5880     1.5910    -0.1510 C.3   1 <1>  -0.1600 
 13 C        4.3650     0.4090    -1.1030 C.3   1 <1>  -0.1600 
 14 C       -4.1650     0.8530     0.0090 C.ar  1 <1>  -0.1520 
 15 C       -2.4400    -0.8030    -0.1920 C.ar  1 <1>  -0.1500 
 16 N       -4.2940     2.2150     0.0290 N.pl3 1 <1>   0.0330 
 17 C       -2.8800     4.2750    -0.1130 C.3   1 <1>  -0.0600 
 18 C       -5.1390    -0.1430     0.0940 C.ar  1 <1>  -0.1500 
 19 C       -3.3970    -1.7890    -0.1100 C.ar  1 <1>  -0.1500 
 20 C       -4.7480    -1.4600     0.0350 C.ar  1 <1>  -0.1500 
 21 H        1.8900     1.6400    -0.7750 H     1 <1>   0.3700 
 22 H        2.3110    -0.2900     1.4800 H     1 <1>   0.0800 
 23 H        4.3810     0.8140     1.8320 H     1 <1>   0.0800 
 24 H        3.3310     2.1800     1.5410 H     1 <1>   0.0800 
 25 H        2.7160    -1.0280    -1.0580 H     1 <1>   0.0800 
 26 H        3.9740    -1.2990     0.1240 H     1 <1>   0.0800 
 27 H        5.6290     1.7060     0.1000 H     1 <1>   0.0800 
 28 H        4.2420     2.5000    -0.6140 H     1 <1>   0.0800 
 29 H        3.9200     0.7610    -2.0190 H     1 <1>   0.0800 
 30 H        5.2920    -0.0870    -1.3370 H     1 <1>   0.0800 
 31 H       -1.4040    -1.0660    -0.3010 H     1 <1>   0.1500 
 32 H       -5.1850     2.7130     0.1190 H     1 <1>   0.2700 
 33 H       -1.8380     4.5370    -0.1470 H     1 <1>   0.0800 
 34 H       -3.3080     4.7110     0.7710 H     1 <1>   0.0800 
 35 H       -3.3610     4.6940    -0.9790 H     1 <1>   0.0800 
 36 H       -6.1760     0.1220     0.2040 H     1 <1>   0.1500 
 37 H       -3.1110    -2.8250    -0.1540 H     1 <1>   0.1500 
 38 H       -5.4770    -2.2490     0.0990 H     1 <1>   0.1500 
@<TRIPOS>BOND
  1   1   2  2   
  2   2   3  am  
  3   2   4  1   
  4   3   5  1   
  5   3  21  1   
  6   4   6  2   
  7   4   7  1   
  8   5   8  1   
  9   5   9  1   
 10   5  22  1   
 11   7  10  1   
 12   7  11  2   
 13   8  12  1   
 14   8  23  1   
 15   8  24  1   
 16   9  13  1   
 17   9  25  1   
 18   9  26  1   
 19  10  14  ar  
 20  10  15  ar  
 21  11  16  1   
 22  11  17  1   
 23  12  13  1   
 24  12  27  1   
 25  12  28  1   
 26  13  29  1   
 27  13  30  1   
 28  14  16  1   
 29  14  18  ar  
 30  15  19  ar  
 31  15  31  1   
 32  16  32  1   
 33  17  33  1   
 34  17  34  1   
 35  17  35  1   
 36  18  20  ar  
 37  18  36  1   
 38  19  20  ar  
 39  19  37  1   
 40  20  38  1   
@<TRIPOS>SUBSTRUCTURE
  1 ****   4 GROUP 4 **** **** 0

# MOE 2024.06 (io_trps.svl 2023.06)
