@<TRIPOS>MOLECULE
NONAME
45 46 1 0 0 
SMALL
USER_CHARGES


@<TRIPOS>ATOM
  1 O       -0.9240     3.9000     0.9200 O.2   1 <1>  -0.5700 
  2 C        0.0060     3.1340     0.8200 C.2   1 <1>   0.5690 
  3 N       -0.0600     1.9550     0.1290 N.am  1 <1>  -0.5470 
  4 C        1.3340     3.5020     1.4940 C.3   1 <1>   0.2610 
  5 C       -1.1190     1.3930    -0.6000 C.ar  1 <1>   0.1170 
  6 O        2.4310     2.8800     0.8330 O.3   1 <1>  -0.3630 
  7 C        1.3540     3.0550     2.9670 C.3   1 <1>  -0.1600 
  8 C       -0.9400     1.1430    -1.9640 C.ar  1 <1>  -0.1440 
  9 C       -2.3310     1.0470     0.0060 C.ar  1 <1>  -0.1440 
 10 C        2.7910     3.1910    -0.4410 C.ar  1 <1>   0.0820 
 11 C        2.6520     3.4340     3.6970 C.3   1 <1>  -0.2400 
 12 C       -1.9610     0.5710    -2.7020 C.ar  1 <1>  -0.1500 
 13 C        0.3630     1.5020    -2.6690 C.3   1 <1>  -0.0970 
 14 C       -3.3420     0.4800    -0.7520 C.ar  1 <1>  -0.1500 
 15 C       -2.5850     1.2640     1.4930 C.3   1 <1>  -0.0970 
 16 C        3.6850     2.3350    -1.0790 C.ar  1 <1>  -0.1440 
 17 C        2.2970     4.3030    -1.1200 C.ar  1 <1>  -0.1500 
 18 C       -3.1610     0.2410    -2.1010 C.ar  1 <1>  -0.1500 
 19 C        4.0680     2.5950    -2.3860 C.ar  1 <1>  -0.1500 
 20 C        4.2460     1.1180    -0.3580 C.3   1 <1>  -0.0970 
 21 C        2.6880     4.5530    -2.4230 C.ar  1 <1>  -0.1500 
 22 C        3.5720     3.6990    -3.0560 C.ar  1 <1>  -0.1500 
 23 H        0.8550     1.5390    -0.0500 H     1 <1>   0.3700 
 24 H        1.4750     4.5660     1.4540 H     1 <1>   0.0800 
 25 H        1.2060     1.9900     3.0160 H     1 <1>   0.0800 
 26 H        0.5250     3.5200     3.4730 H     1 <1>   0.0800 
 27 H        3.4980     2.9450     3.2440 H     1 <1>   0.0800 
 28 H        2.5980     3.1300     4.7280 H     1 <1>   0.0800 
 29 H        2.8090     4.4970     3.6610 H     1 <1>   0.0800 
 30 H       -1.8330     0.3800    -3.7530 H     1 <1>   0.1500 
 31 H        0.5290     2.5620    -2.6050 H     1 <1>   0.0800 
 32 H        0.3300     1.2310    -3.7080 H     1 <1>   0.0800 
 33 H        1.1900     0.9900    -2.2130 H     1 <1>   0.0800 
 34 H       -4.2800     0.2190    -0.2950 H     1 <1>   0.1500 
 35 H       -3.3870     0.6380     1.8400 H     1 <1>   0.0800 
 36 H       -1.7070     1.0280     2.0660 H     1 <1>   0.0800 
 37 H       -2.8530     2.2900     1.6690 H     1 <1>   0.0800 
 38 H        1.6080     4.9870    -0.6610 H     1 <1>   0.1500 
 39 H       -3.9520    -0.2000    -2.6810 H     1 <1>   0.1500 
 40 H        4.7580     1.9410    -2.8900 H     1 <1>   0.1500 
 41 H        4.7390     1.4260     0.5460 H     1 <1>   0.0800 
 42 H        4.9560     0.5940    -0.9720 H     1 <1>   0.0800 
 43 H        3.4490     0.4430    -0.1020 H     1 <1>   0.0800 
 44 H        2.3040     5.4130    -2.9450 H     1 <1>   0.1500 
 45 H        3.8750     3.8940    -4.0700 H     1 <1>   0.1500 
@<TRIPOS>BOND
  1   1   2  2   
  2   2   3  am  
  3   2   4  1   
  4   3   5  1   
  5   3  23  1   
  6   4   6  1   
  7   4   7  1   
  8   4  24  1   
  9   5   8  ar  
 10   5   9  ar  
 11   6  10  1   
 12   7  11  1   
 13   7  25  1   
 14   7  26  1   
 15   8  12  ar  
 16   8  13  1   
 17   9  14  ar  
 18   9  15  1   
 19  10  16  ar  
 20  10  17  ar  
 21  11  27  1   
 22  11  28  1   
 23  11  29  1   
 24  12  18  ar  
 25  12  30  1   
 26  13  31  1   
 27  13  32  1   
 28  13  33  1   
 29  14  18  ar  
 30  14  34  1   
 31  15  35  1   
 32  15  36  1   
 33  15  37  1   
 34  16  19  ar  
 35  16  20  1   
 36  17  21  ar  
 37  17  38  1   
 38  18  39  1   
 39  19  22  ar  
 40  19  40  1   
 41  20  41  1   
 42  20  42  1   
 43  20  43  1   
 44  21  22  ar  
 45  21  44  1   
 46  22  45  1   
@<TRIPOS>SUBSTRUCTURE
  1 ****   3 GROUP 4 **** **** 0

# MOE 2024.06 (io_trps.svl 2023.06)
