@<TRIPOS>MOLECULE
NONAME
46 48 1 0 0 
SMALL
USER_CHARGES


@<TRIPOS>ATOM
  1 F        0.4850    -0.1410     1.1140 F     1 <1>  -0.3400 
  2 C        1.8070    -0.1140     1.2460 C.3   1 <1>   1.1640 
  3 F        2.1740     1.1480     1.0610 F     1 <1>  -0.3400 
  4 F        2.0580    -0.3900     2.5200 F     1 <1>  -0.3400 
  5 C        2.5390    -1.0680     0.2910 C.ar  1 <1>  -0.1440 
  6 C        3.9080    -1.2670     0.4320 C.ar  1 <1>  -0.1500 
  7 C        1.8700    -1.7440    -0.7270 C.ar  1 <1>  -0.1500 
  8 C        4.6090    -2.1210    -0.4110 C.ar  1 <1>   0.1000 
  9 C        2.5570    -2.5960    -1.5740 C.ar  1 <1>  -0.1500 
 10 N        5.9780    -2.3230    -0.2800 N.pl3 1 <1>  -0.8380 
 11 C        3.9160    -2.7810    -1.4140 C.ar  1 <1>  -0.1500 
 12 C        6.5400    -2.6270     1.0720 C.3   1 <1>   0.2090 
 13 C        6.8700    -1.4540    -1.0990 C.3   1 <1>   0.2090 
 14 C        7.9460    -3.2420     0.9620 C.3   1 <1>   0.1400 
 15 C        8.2780    -2.0670    -1.2200 C.3   1 <1>   0.1400 
 16 N        8.8550    -2.3930     0.1250 N.am  1 <1>  -0.6600 
 17 C       10.1480    -2.1460     0.5130 C.2   1 <1>   0.6900 
 18 O       10.6090    -2.7010     1.4920 O.2   1 <1>  -0.5700 
 19 N       10.8980    -1.2530    -0.1960 N.am  1 <1>  -0.5470 
 20 C       12.2460    -0.9120    -0.0350 C.ar  1 <1>   0.1170 
 21 C       13.2870    -1.8340    -0.1840 C.ar  1 <1>  -0.1430 
 22 C       12.5570     0.4110     0.2580 C.ar  1 <1>  -0.1500 
 23 C       14.6000    -1.4170    -0.0280 C.ar  1 <1>  -0.1500 
 24 C       13.0230    -3.2960    -0.5200 C.3   1 <1>  -0.0970 
 25 C       13.8680     0.8200     0.4080 C.ar  1 <1>  -0.1500 
 26 C       14.8930    -0.0970     0.2660 C.ar  1 <1>  -0.1500 
 27 H        4.4490    -0.7500     1.2040 H     1 <1>   0.1500 
 28 H        0.8090    -1.6150    -0.8710 H     1 <1>   0.1500 
 29 H        2.0320    -3.1160    -2.3570 H     1 <1>   0.1500 
 30 H        4.4560    -3.4450    -2.0640 H     1 <1>   0.1500 
 31 H        5.8880    -3.3140     1.5830 H     1 <1>   0.0800 
 32 H        6.5980    -1.7220     1.6520 H     1 <1>   0.0800 
 33 H        6.9390    -0.4820    -0.6420 H     1 <1>   0.0800 
 34 H        6.4460    -1.3330    -2.0810 H     1 <1>   0.0800 
 35 H        7.8680    -4.2170     0.5160 H     1 <1>   0.0800 
 36 H        8.3490    -3.3630     1.9520 H     1 <1>   0.0800 
 37 H        8.9120    -1.3900    -1.7620 H     1 <1>   0.0800 
 38 H        8.2050    -2.9750    -1.7920 H     1 <1>   0.0800 
 39 H       10.3440    -0.6020    -0.7360 H     1 <1>   0.3700 
 40 H       11.7640     1.1260     0.3790 H     1 <1>   0.1500 
 41 H       15.4060    -2.1210    -0.1340 H     1 <1>   0.1500 
 42 H       12.2400    -3.3810    -1.2510 H     1 <1>   0.0800 
 43 H       12.7260    -3.8230     0.3690 H     1 <1>   0.0800 
 44 H       13.9050    -3.7650    -0.9170 H     1 <1>   0.0800 
 45 H       14.0930     1.8470     0.6390 H     1 <1>   0.1500 
 46 H       15.9160     0.2140     0.3850 H     1 <1>   0.1500 
@<TRIPOS>BOND
  1   1   2  1   
  2   2   3  1   
  3   2   4  1   
  4   2   5  1   
  5   5   6  ar  
  6   5   7  ar  
  7   6   8  ar  
  8   6  27  1   
  9   7   9  ar  
 10   7  28  1   
 11   8  10  1   
 12   8  11  ar  
 13   9  11  ar  
 14   9  29  1   
 15  10  12  1   
 16  10  13  1   
 17  11  30  1   
 18  12  14  1   
 19  12  31  1   
 20  12  32  1   
 21  13  15  1   
 22  13  33  1   
 23  13  34  1   
 24  14  16  1   
 25  14  35  1   
 26  14  36  1   
 27  15  16  1   
 28  15  37  1   
 29  15  38  1   
 30  16  17  am  
 31  17  18  2   
 32  17  19  am  
 33  19  20  1   
 34  19  39  1   
 35  20  21  ar  
 36  20  22  ar  
 37  21  23  ar  
 38  21  24  1   
 39  22  25  ar  
 40  22  40  1   
 41  23  26  ar  
 42  23  41  1   
 43  24  42  1   
 44  24  43  1   
 45  24  44  1   
 46  25  26  ar  
 47  25  45  1   
 48  26  46  1   
@<TRIPOS>SUBSTRUCTURE
  1 ****  13 GROUP 4 **** **** 0

# MOE 2024.06 (io_trps.svl 2023.06)
