@<TRIPOS>MOLECULE
NONAME
47 49 1 0 0 
SMALL
USER_CHARGES


@<TRIPOS>ATOM
  1 CL       1.3400     0.2130    -1.7270 Cl    1 <1>  -0.1770 
  2 C        0.7400    -1.3830    -1.3200 C.ar  1 <1>   0.1770 
  3 C        1.5790    -2.2790    -0.6580 C.ar  1 <1>   0.1170 
  4 C       -0.5580    -1.7050    -1.6670 C.ar  1 <1>  -0.1500 
  5 N        2.8900    -1.8850    -0.3280 N.am  1 <1>  -0.5470 
  6 C        1.0540    -3.5290    -0.3410 C.ar  1 <1>  -0.1500 
  7 C       -1.0550    -2.9570    -1.3460 C.ar  1 <1>  -0.1500 
  8 C        4.0050    -2.6160    -0.0300 C.2   1 <1>   0.6900 
  9 C       -0.2460    -3.8650    -0.6830 C.ar  1 <1>  -0.1500 
 10 O        4.0200    -3.8240    -0.1390 O.2   1 <1>  -0.5700 
 11 N        5.1060    -1.9260     0.3970 N.am  1 <1>  -0.5470 
 12 C        6.4100    -2.3740     0.6530 C.ar  1 <1>   0.1170 
 13 C        6.9660    -3.4780     0.0150 C.ar  1 <1>  -0.1500 
 14 C        7.1920    -1.6860     1.5730 C.ar  1 <1>  -0.1500 
 15 C        8.2560    -3.8890     0.2940 C.ar  1 <1>  -0.1500 
 16 C        8.4850    -2.0900     1.8550 C.ar  1 <1>  -0.1500 
 17 C        9.0290    -3.1950     1.2150 C.ar  1 <1>  -0.1430 
 18 C       10.4470    -3.6420     1.5170 C.3   1 <1>   0.4860 
 19 N       11.3100    -3.3240     0.3480 N.4   1 <1>  -0.9590 
 20 C       12.6540    -3.9550     0.4740 C.3   1 <1>   0.3430 
 21 C       11.3960    -1.8520     0.1080 C.3   1 <1>   0.3430 
 22 C       13.4530    -3.7270    -0.8110 C.3   1 <1>  -0.1600 
 23 C       12.1750    -1.5850    -1.1810 C.3   1 <1>  -0.1600 
 24 C       13.5650    -2.2350    -1.1530 C.3   1 <1>  -0.1600 
 25 H       -1.1710    -0.9860    -2.1800 H     1 <1>   0.1500 
 26 H        3.0690    -0.8980    -0.5020 H     1 <1>   0.3700 
 27 H        1.6570    -4.2510     0.1790 H     1 <1>   0.1500 
 28 H       -2.0640    -3.2240    -1.6100 H     1 <1>   0.1500 
 29 H       -0.6290    -4.8390    -0.4300 H     1 <1>   0.1500 
 30 H        4.9030    -0.9840     0.7140 H     1 <1>   0.3700 
 31 H        6.3840    -4.0250    -0.7050 H     1 <1>   0.1500 
 32 H        6.7820    -0.8320     2.0810 H     1 <1>   0.1500 
 33 H        8.6380    -4.7590    -0.2130 H     1 <1>   0.1500 
 34 H        9.0560    -1.5350     2.5810 H     1 <1>   0.1500 
 35 H       10.4480    -4.7040     1.7010 H     1 <1>   0.0800 
 36 H       10.8120    -3.1420     2.3990 H     1 <1>   0.0800 
 37 H       10.8450    -3.7230    -0.4770 H     1 <1>   0.4500 
 38 H       12.5530    -5.0150     0.6480 H     1 <1>   0.0800 
 39 H       13.1850    -3.5220     1.3070 H     1 <1>   0.0800 
 40 H       11.8950    -1.3750     0.9360 H     1 <1>   0.0800 
 41 H       10.4070    -1.4320     0.0190 H     1 <1>   0.0800 
 42 H       12.9840    -4.2550    -1.6230 H     1 <1>   0.0800 
 43 H       14.4410    -4.1380    -0.6890 H     1 <1>   0.0800 
 44 H       12.2830    -0.5220    -1.3120 H     1 <1>   0.0800 
 45 H       11.6120    -1.9550    -2.0200 H     1 <1>   0.0800 
 46 H       14.0440    -2.1140    -2.1110 H     1 <1>   0.0800 
 47 H       14.1780    -1.7420    -0.4170 H     1 <1>   0.0800 
@<TRIPOS>BOND
  1   1   2  1   
  2   2   3  ar  
  3   2   4  ar  
  4   3   5  1   
  5   3   6  ar  
  6   4   7  ar  
  7   4  25  1   
  8   5   8  am  
  9   5  26  1   
 10   6   9  ar  
 11   6  27  1   
 12   7   9  ar  
 13   7  28  1   
 14   8  10  2   
 15   8  11  am  
 16   9  29  1   
 17  11  12  1   
 18  11  30  1   
 19  12  13  ar  
 20  12  14  ar  
 21  13  15  ar  
 22  13  31  1   
 23  14  16  ar  
 24  14  32  1   
 25  15  17  ar  
 26  15  33  1   
 27  16  17  ar  
 28  16  34  1   
 29  17  18  1   
 30  18  19  1   
 31  18  35  1   
 32  18  36  1   
 33  19  20  1   
 34  19  21  1   
 35  19  37  1   
 36  20  22  1   
 37  20  38  1   
 38  20  39  1   
 39  21  23  1   
 40  21  40  1   
 41  21  41  1   
 42  22  24  1   
 43  22  42  1   
 44  22  43  1   
 45  23  24  1   
 46  23  44  1   
 47  23  45  1   
 48  24  46  1   
 49  24  47  1   
@<TRIPOS>SUBSTRUCTURE
  1 ****  12 GROUP 4 **** **** 0

# MOE 2024.06 (io_trps.svl 2023.06)
