@<TRIPOS>MOLECULE
NONAME
43 45 1 0 0 
SMALL
USER_CHARGES


@<TRIPOS>ATOM
  1 BR       0.4460     0.1440    -0.8030 Br    1 <1>  -0.1110 
  2 C        0.2430    -1.7290    -0.3580 C.ar  1 <1>   0.1110 
  3 C        1.3800    -2.4730    -0.1510 C.ar  1 <1>   0.0830 
  4 C       -1.0650    -2.2560    -0.2620 C.ar  1 <1>   0.0000 
  5 O        2.5940    -1.8710    -0.2670 O.3   1 <1>  -0.3630 
  6 C        1.2370    -3.8340     0.1730 C.ar  1 <1>  -0.1500 
  7 C       -1.1820    -3.6260     0.0670 C.ar  1 <1>   0.0000 
  8 C       -2.2520    -1.5160    -0.4690 C.ar  1 <1>  -0.1500 
  9 C        3.7950    -2.5460     0.0170 C.3   1 <1>   0.1200 
 10 C       -0.0110    -4.3840     0.2770 C.ar  1 <1>  -0.1500 
 11 C       -2.4670    -4.1950     0.1750 C.ar  1 <1>  -0.1500 
 12 C       -3.4850    -2.0960    -0.3580 C.ar  1 <1>  -0.1500 
 13 C        4.9410    -1.5540    -0.1710 C.3   1 <1>  -0.1600 
 14 C       -3.5950    -3.4520    -0.0320 C.ar  1 <1>  -0.1500 
 15 C        6.2860    -2.1910     0.1890 C.3   1 <1>   0.1100 
 16 N        7.4010    -1.3120    -0.2010 N.3   1 <1>  -0.8100 
 17 C        8.6700    -2.0630    -0.2740 C.3   1 <1>   0.1100 
 18 C        7.5230    -0.1170     0.6620 C.3   1 <1>   0.1100 
 19 C        9.8220    -1.1670    -0.7720 C.3   1 <1>   0.3430 
 20 C        8.6610     0.8060     0.1800 C.3   1 <1>   0.3430 
 21 N        9.9620     0.0670     0.0710 N.4   1 <1>  -0.9060 
 22 H        2.0980    -4.4530     0.3400 H     1 <1>   0.1500 
 23 H       -2.1840    -0.4740    -0.7210 H     1 <1>   0.1500 
 24 H        3.8900    -3.3740    -0.6640 H     1 <1>   0.0800 
 25 H        3.7530    -2.8960     1.0340 H     1 <1>   0.0800 
 26 H       -0.1210    -5.4250     0.5250 H     1 <1>   0.1500 
 27 H       -2.5460    -5.2380     0.4250 H     1 <1>   0.1500 
 28 H       -4.3810    -1.5230    -0.5180 H     1 <1>   0.1500 
 29 H        4.7530    -0.7030     0.4570 H     1 <1>   0.0800 
 30 H        4.9600    -1.2420    -1.2010 H     1 <1>   0.0800 
 31 H       -4.5730    -3.8930     0.0520 H     1 <1>   0.1500 
 32 H        6.3670    -3.1220    -0.3500 H     1 <1>   0.0800 
 33 H        6.3280    -2.4100     1.2440 H     1 <1>   0.0800 
 34 H        8.5550    -2.8850    -0.9620 H     1 <1>   0.0800 
 35 H        8.9130    -2.4730     0.6920 H     1 <1>   0.0800 
 36 H        7.6960    -0.4130     1.6830 H     1 <1>   0.0800 
 37 H        6.6070     0.4470     0.6330 H     1 <1>   0.0800 
 38 H        9.6130    -0.8870    -1.7920 H     1 <1>   0.0800 
 39 H       10.7420    -1.7290    -0.7630 H     1 <1>   0.0800 
 40 H        8.7610     1.6350     0.8610 H     1 <1>   0.0800 
 41 H        8.3860     1.2000    -0.7850 H     1 <1>   0.0800 
 42 H       10.6820     0.6820    -0.3270 H     1 <1>   0.4500 
 43 H       10.2680    -0.2060     1.0110 H     1 <1>   0.4500 
@<TRIPOS>BOND
  1   1   2  1   
  2   2   3  ar  
  3   2   4  ar  
  4   3   5  1   
  5   3   6  ar  
  6   4   7  ar  
  7   4   8  ar  
  8   5   9  1   
  9   6  10  ar  
 10   6  22  1   
 11   7  10  ar  
 12   7  11  ar  
 13   8  12  ar  
 14   8  23  1   
 15   9  13  1   
 16   9  24  1   
 17   9  25  1   
 18  10  26  1   
 19  11  14  ar  
 20  11  27  1   
 21  12  14  ar  
 22  12  28  1   
 23  13  15  1   
 24  13  29  1   
 25  13  30  1   
 26  14  31  1   
 27  15  16  1   
 28  15  32  1   
 29  15  33  1   
 30  16  17  1   
 31  16  18  1   
 32  17  19  1   
 33  17  34  1   
 34  17  35  1   
 35  18  20  1   
 36  18  36  1   
 37  18  37  1   
 38  19  21  1   
 39  19  38  1   
 40  19  39  1   
 41  20  21  1   
 42  20  40  1   
 43  20  41  1   
 44  21  42  1   
 45  21  43  1   
@<TRIPOS>SUBSTRUCTURE
  1 ****   5 GROUP 4 **** **** 0

# MOE 2024.06 (io_trps.svl 2023.06)
