@<TRIPOS>MOLECULE
NONAME
44 46 1 0 0 
SMALL
USER_CHARGES


@<TRIPOS>ATOM
  1 F        4.1760    -0.9630    -3.0580 F     1 <1>  -0.3400 
  2 C        4.3270    -0.8250    -1.7470 C.3   1 <1>   1.2000 
  3 F        5.5390    -1.3010    -1.4620 F     1 <1>  -0.3400 
  4 F        3.4660    -1.6630    -1.1800 F     1 <1>  -0.3400 
  5 C        4.1600     0.6220    -1.2300 C.2   1 <1>   0.0060 
  6 N        4.0700     1.6810    -1.9740 N.2   1 <1>  -0.5650 
  7 N        4.1210     0.9060     0.1100 N.pl3 1 <1>   0.0480 
  8 C        3.9670     2.7190    -1.1060 C.ar  1 <1>   0.2270 
  9 C        4.0050     2.2600     0.1960 C.ar  1 <1>  -0.1520 
 10 C        4.4370     0.0350     1.2700 C.3   1 <1>   0.1570 
 11 C        3.8590     4.0820    -1.3690 C.ar  1 <1>  -0.1500 
 12 C        3.9410     3.1540     1.2710 C.ar  1 <1>  -0.1500 
 13 C        5.9400    -0.1550     1.3990 C.2   1 <1>   0.5690 
 14 C        3.7940     4.9670    -0.3160 C.ar  1 <1>  -0.1500 
 15 C        3.8370     4.5010     1.0040 C.ar  1 <1>  -0.1500 
 16 O        6.3530    -1.1890     1.8620 O.2   1 <1>  -0.5700 
 17 N        6.8060     0.8070     0.9700 N.am  1 <1>  -0.7300 
 18 C        8.2860     0.6890     1.0220 C.3   1 <1>   0.1400 
 19 C        8.7660    -0.5510     0.2380 C.3   1 <1>   0.3430 
 20 N       10.2350    -0.7970     0.3910 N.4   1 <1>  -0.9590 
 21 C       11.1070     0.2320    -0.2280 C.3   1 <1>   0.3430 
 22 C       10.6440    -2.0890    -0.2110 C.3   1 <1>   0.3430 
 23 C       12.4520    -0.4630    -0.3910 C.3   1 <1>  -0.1600 
 24 C       12.1520    -1.9650    -0.3820 C.3   1 <1>  -0.1600 
 25 H        3.9630    -0.9200     1.1500 H     1 <1>   0.0800 
 26 H        4.0600     0.4830     2.1690 H     1 <1>   0.0800 
 27 H        3.8280     4.4110    -2.3920 H     1 <1>   0.1500 
 28 H        3.9660     2.8030     2.2880 H     1 <1>   0.1500 
 29 H        3.7090     6.0250    -0.4990 H     1 <1>   0.1500 
 30 H        3.7820     5.2130     1.8100 H     1 <1>   0.1500 
 31 H        6.4290     1.6950     0.6060 H     1 <1>   0.3700 
 32 H        8.5810     0.5990     2.0530 H     1 <1>   0.0800 
 33 H        8.7200     1.5810     0.6070 H     1 <1>   0.0800 
 34 H        8.5220    -0.4260    -0.8040 H     1 <1>   0.0800 
 35 H        8.2320    -1.4120     0.6050 H     1 <1>   0.0800 
 36 H       10.4630    -0.8540     1.3930 H     1 <1>   0.4500 
 37 H       11.1860     1.1150     0.3860 H     1 <1>   0.0800 
 38 H       10.7220     0.5010    -1.1990 H     1 <1>   0.0800 
 39 H       10.1810    -2.2050    -1.1790 H     1 <1>   0.0800 
 40 H       10.3780    -2.9260     0.4150 H     1 <1>   0.0800 
 41 H       13.0990    -0.2050     0.4300 H     1 <1>   0.0800 
 42 H       12.9250    -0.1550    -1.3070 H     1 <1>   0.0800 
 43 H       12.4660    -2.4420    -1.2940 H     1 <1>   0.0800 
 44 H       12.6530    -2.4440     0.4420 H     1 <1>   0.0800 
@<TRIPOS>BOND
  1   1   2  1   
  2   2   3  1   
  3   2   4  1   
  4   2   5  1   
  5   5   6  2   
  6   5   7  1   
  7   6   8  1   
  8   7   9  1   
  9   7  10  1   
 10   8   9  ar  
 11   8  11  ar  
 12   9  12  ar  
 13  10  13  1   
 14  10  25  1   
 15  10  26  1   
 16  11  14  ar  
 17  11  27  1   
 18  12  15  ar  
 19  12  28  1   
 20  13  16  2   
 21  13  17  am  
 22  14  15  ar  
 23  14  29  1   
 24  15  30  1   
 25  17  18  1   
 26  17  31  1   
 27  18  19  1   
 28  18  32  1   
 29  18  33  1   
 30  19  20  1   
 31  19  34  1   
 32  19  35  1   
 33  20  21  1   
 34  20  22  1   
 35  20  36  1   
 36  21  23  1   
 37  21  37  1   
 38  21  38  1   
 39  22  24  1   
 40  22  39  1   
 41  22  40  1   
 42  23  24  1   
 43  23  41  1   
 44  23  42  1   
 45  24  43  1   
 46  24  44  1   
@<TRIPOS>SUBSTRUCTURE
  1 ****  17 GROUP 4 **** **** 0

# MOE 2024.06 (io_trps.svl 2023.06)
