@<TRIPOS>MOLECULE
NONAME
41 43 1 0 0 
SMALL
USER_CHARGES


@<TRIPOS>ATOM
  1 CL       1.1170    -1.3980     2.1170 Cl    1 <1>  -0.1770 
  2 C       -0.3000    -0.8960     1.2210 C.ar  1 <1>   0.1770 
  3 C       -0.8570    -1.7490     0.2700 C.ar  1 <1>   0.0540 
  4 C       -0.8230     0.3570     1.4890 C.ar  1 <1>  -0.1500 
  5 C       -1.9670    -1.2660    -0.4190 C.ar  1 <1>   0.1770 
  6 C       -0.3090    -3.0570     0.0110 C.2   1 <1>   0.2350 
  7 C       -1.9330     0.8020     0.7910 C.ar  1 <1>  -0.1500 
  8 CL      -2.7200    -2.2430    -1.6570 Cl    1 <1>  -0.1770 
  9 C       -2.5040    -0.0160    -0.1700 C.ar  1 <1>  -0.1500 
 10 N       -0.8620    -4.1640     0.3740 N.2   1 <1>  -0.4100 
 11 C        0.8860    -3.3320    -0.6460 C.2   1 <1>  -0.0860 
 12 O       -0.1380    -5.1820    -0.0210 O.3   1 <1>  -0.0190 
 13 C        0.9000    -4.6810    -0.6410 C.2   1 <1>  -0.0400 
 14 C        1.8100    -2.3550    -1.1530 C.2   1 <1>   0.7160 
 15 C        1.8920    -5.6590    -1.2430 C.3   1 <1>  -0.0600 
 16 O        1.4110    -1.3240    -1.6570 O.2   1 <1>  -0.5700 
 17 N        3.1730    -2.5160    -1.0200 N.am  1 <1>  -0.6600 
 18 C        4.1090    -1.6820    -1.8340 C.3   1 <1>   0.1400 
 19 C        3.7680    -3.0280     0.2520 C.3   1 <1>   0.1400 
 20 C        4.6350    -0.5070    -0.9910 C.3   1 <1>   0.3430 
 21 C        4.3520    -1.8640     1.0840 C.3   1 <1>   0.3430 
 22 N        5.2820    -0.9820     0.2880 N.4   1 <1>  -0.9590 
 23 C        5.7400     0.1800     1.1090 C.3   1 <1>   0.2630 
 24 H       -0.3670     0.9810     2.2370 H     1 <1>   0.1500 
 25 H       -2.3490     1.7760     0.9910 H     1 <1>   0.1500 
 26 H       -3.3640     0.3130    -0.7270 H     1 <1>   0.1500 
 27 H        2.6610    -5.1450    -1.7890 H     1 <1>   0.0800 
 28 H        1.3780    -6.3190    -1.9190 H     1 <1>   0.0800 
 29 H        2.3420    -6.2480    -0.4650 H     1 <1>   0.0800 
 30 H        3.6050    -1.2990    -2.7060 H     1 <1>   0.0800 
 31 H        4.9280    -2.2900    -2.1760 H     1 <1>   0.0800 
 32 H        4.5420    -3.7400     0.0230 H     1 <1>   0.0800 
 33 H        3.0220    -3.5350     0.8410 H     1 <1>   0.0800 
 34 H        3.8040     0.1410    -0.7620 H     1 <1>   0.0800 
 35 H        5.3440     0.0570    -1.5750 H     1 <1>   0.0800 
 36 H        4.8700    -2.2680     1.9390 H     1 <1>   0.0800 
 37 H        3.5330    -1.2700     1.4540 H     1 <1>   0.0800 
 38 H        6.1060    -1.5450     0.0290 H     1 <1>   0.4500 
 39 H        4.8980     0.7920     1.3940 H     1 <1>   0.0800 
 40 H        6.4320     0.7880     0.5480 H     1 <1>   0.0800 
 41 H        6.2340    -0.1630     2.0040 H     1 <1>   0.0800 
@<TRIPOS>BOND
  1   1   2  1   
  2   2   3  ar  
  3   2   4  ar  
  4   3   5  ar  
  5   3   6  1   
  6   4   7  ar  
  7   4  24  1   
  8   5   8  1   
  9   5   9  ar  
 10   6  10  2   
 11   6  11  1   
 12   7   9  ar  
 13   7  25  1   
 14   9  26  1   
 15  10  12  1   
 16  11  13  2   
 17  11  14  1   
 18  12  13  1   
 19  13  15  1   
 20  14  16  2   
 21  14  17  am  
 22  15  27  1   
 23  15  28  1   
 24  15  29  1   
 25  17  18  1   
 26  17  19  1   
 27  18  20  1   
 28  18  30  1   
 29  18  31  1   
 30  19  21  1   
 31  19  32  1   
 32  19  33  1   
 33  20  22  1   
 34  20  34  1   
 35  20  35  1   
 36  21  22  1   
 37  21  36  1   
 38  21  37  1   
 39  22  23  1   
 40  22  38  1   
 41  23  39  1   
 42  23  40  1   
 43  23  41  1   
@<TRIPOS>SUBSTRUCTURE
  1 ****  14 GROUP 4 **** **** 0

# MOE 2024.06 (io_trps.svl 2023.06)
