@<TRIPOS>MOLECULE
NONAME
42 43 1 0 0 
SMALL
USER_CHARGES


@<TRIPOS>ATOM
  1 O        5.8960    -6.4740     0.9060 O.3   1 <1>  -0.5600 
  2 C        5.2610    -5.4810     0.1450 C.3   1 <1>   0.2000 
  3 C        6.0390    -7.7470     0.3290 C.3   1 <1>   0.2000 
  4 C        3.8170    -5.9170    -0.2230 C.3   1 <1>   0.3430 
  5 C        6.1260    -5.1330    -1.0730 C.3   1 <1>  -0.2400 
  6 C        4.7680    -8.1660    -0.4570 C.3   1 <1>   0.3430 
  7 C        6.3290    -8.7020     1.4850 C.3   1 <1>  -0.2400 
  8 N        3.5730    -7.3890     0.0070 N.4   1 <1>  -0.9590 
  9 C        2.2990    -7.8960    -0.5960 C.3   1 <1>   0.3430 
 10 C        1.0520    -7.2930     0.0590 C.3   1 <1>   0.1200 
 11 O       -0.0630    -7.8230    -0.6110 O.3   1 <1>  -0.3630 
 12 C       -1.3260    -7.4610    -0.2720 C.ar  1 <1>   0.0820 
 13 C       -1.6330    -6.6010     0.7790 C.ar  1 <1>  -0.1500 
 14 C       -2.3520    -7.9930    -1.0350 C.ar  1 <1>  -0.1500 
 15 C       -2.9520    -6.2830     1.0500 C.ar  1 <1>  -0.1500 
 16 C       -3.6700    -7.6720    -0.7610 C.ar  1 <1>  -0.1500 
 17 C       -3.9760    -6.8140     0.2820 C.ar  1 <1>  -0.1430 
 18 C       -5.4220    -6.4640     0.5850 C.3   1 <1>  -0.0970 
 19 H        5.2050    -4.6060     0.7710 H     1 <1>   0.0800 
 20 H        6.8910    -7.7280    -0.3310 H     1 <1>   0.0800 
 21 H        3.6390    -5.6700    -1.2560 H     1 <1>   0.0800 
 22 H        3.1250    -5.3390     0.3670 H     1 <1>   0.0800 
 23 H        6.1660    -5.9360    -1.7850 H     1 <1>   0.0800 
 24 H        7.1240    -4.8910    -0.7520 H     1 <1>   0.0800 
 25 H        5.7230    -4.2680    -1.5700 H     1 <1>   0.0800 
 26 H        4.6070    -9.2240    -0.3290 H     1 <1>   0.0800 
 27 H        4.9330    -7.9860    -1.5060 H     1 <1>   0.0800 
 28 H        5.5120    -8.7210     2.1840 H     1 <1>   0.0800 
 29 H        7.2210    -8.3880     2.0000 H     1 <1>   0.0800 
 30 H        6.4930    -9.7000     1.1170 H     1 <1>   0.0800 
 31 H        3.5590    -7.5170     1.0310 H     1 <1>   0.4500 
 32 H        2.2500    -8.9670    -0.4800 H     1 <1>   0.0800 
 33 H        2.2820    -7.6690    -1.6490 H     1 <1>   0.0800 
 34 H        1.0260    -6.2240    -0.0550 H     1 <1>   0.0800 
 35 H        0.9860    -7.5760     1.0950 H     1 <1>   0.0800 
 36 H       -0.8720    -6.1690     1.3990 H     1 <1>   0.1500 
 37 H       -2.1190    -8.6590    -1.8460 H     1 <1>   0.1500 
 38 H       -3.1840    -5.6190     1.8650 H     1 <1>   0.1500 
 39 H       -4.4550    -8.0950    -1.3620 H     1 <1>   0.1500 
 40 H       -5.4910    -5.4750     1.0010 H     1 <1>   0.0800 
 41 H       -5.8270    -7.1670     1.2910 H     1 <1>   0.0800 
 42 H       -6.0130    -6.4950    -0.3130 H     1 <1>   0.0800 
@<TRIPOS>BOND
  1   1   2  1   
  2   1   3  1   
  3   2   4  1   
  4   2   5  1   
  5   2  19  1   
  6   3   6  1   
  7   3   7  1   
  8   3  20  1   
  9   4   8  1   
 10   4  21  1   
 11   4  22  1   
 12   5  23  1   
 13   5  24  1   
 14   5  25  1   
 15   6   8  1   
 16   6  26  1   
 17   6  27  1   
 18   7  28  1   
 19   7  29  1   
 20   7  30  1   
 21   8   9  1   
 22   8  31  1   
 23   9  10  1   
 24   9  32  1   
 25   9  33  1   
 26  10  11  1   
 27  10  34  1   
 28  10  35  1   
 29  11  12  1   
 30  12  13  ar  
 31  12  14  ar  
 32  13  15  ar  
 33  13  36  1   
 34  14  16  ar  
 35  14  37  1   
 36  15  17  ar  
 37  15  38  1   
 38  16  17  ar  
 39  16  39  1   
 40  17  18  1   
 41  18  40  1   
 42  18  41  1   
 43  18  42  1   
@<TRIPOS>SUBSTRUCTURE
  1 ****  10 GROUP 4 **** **** 0

# MOE 2024.06 (io_trps.svl 2023.06)
