@<TRIPOS>MOLECULE
NONAME
40 43 1 0 0 
SMALL
USER_CHARGES


@<TRIPOS>ATOM
  1 O        1.1420     3.8430    -0.3210 O.3   1 <1>  -0.5600 
  2 C       -0.0450     4.5760    -0.2720 C.3   1 <1>   0.1200 
  3 C        1.1110     2.6340     0.3780 C.3   1 <1>   0.1200 
  4 C       -1.2050     3.7540    -0.8640 C.3   1 <1>   0.3430 
  5 C        0.0060     1.7210    -0.1840 C.3   1 <1>   0.3430 
  6 N       -1.3380     2.4050    -0.2030 N.4   1 <1>  -0.9590 
  7 C       -2.4190     1.5570    -0.8130 C.3   1 <1>   0.4230 
  8 C       -3.7930     2.2800    -0.7640 C.3   1 <1>  -0.0800 
  9 C       -2.5550     0.2010    -0.0690 C.3   1 <1>  -0.0800 
 10 C       -4.2390     2.5080     0.6990 C.3   1 <1>  -0.1600 
 11 C       -4.8510     1.4060    -1.4700 C.3   1 <1>  -0.1600 
 12 C       -2.9980     0.4230     1.3970 C.3   1 <1>  -0.1600 
 13 C       -3.6190    -0.6620    -0.7770 C.3   1 <1>  -0.1600 
 14 C       -4.3530     1.1560     1.4290 C.3   1 <1>  -0.0800 
 15 C       -4.9810     0.0510    -0.7540 C.3   1 <1>  -0.0800 
 16 C       -5.4020     0.2900     0.7080 C.3   1 <1>  -0.1600 
 17 H        0.1030     5.4750    -0.8450 H     1 <1>   0.0800 
 18 H       -0.2430     4.8510     0.7500 H     1 <1>   0.0800 
 19 H        0.9550     2.8400     1.4230 H     1 <1>   0.0800 
 20 H        2.0730     2.1660     0.2620 H     1 <1>   0.0800 
 21 H       -1.0270     3.6260    -1.9190 H     1 <1>   0.0800 
 22 H       -2.1170     4.3160    -0.7480 H     1 <1>   0.0800 
 23 H       -0.0400     0.8290     0.4190 H     1 <1>   0.0800 
 24 H        0.2810     1.4310    -1.1840 H     1 <1>   0.0800 
 25 H       -1.6270     2.5580     0.7690 H     1 <1>   0.4500 
 26 H       -2.1720     1.3590    -1.8440 H     1 <1>   0.0800 
 27 H       -3.7570     3.2150    -1.2910 H     1 <1>   0.0800 
 28 H       -1.6330    -0.3510    -0.0980 H     1 <1>   0.0800 
 29 H       -5.1990     2.9980     0.7100 H     1 <1>   0.0800 
 30 H       -3.5530     3.1510     1.2190 H     1 <1>   0.0800 
 31 H       -4.5780     1.2490    -2.5000 H     1 <1>   0.0800 
 32 H       -5.8040     1.9080    -1.4640 H     1 <1>   0.0800 
 33 H       -2.2620     0.9840     1.9450 H     1 <1>   0.0800 
 34 H       -3.0980    -0.5290     1.8910 H     1 <1>   0.0800 
 35 H       -3.7050    -1.6160    -0.2840 H     1 <1>   0.0800 
 36 H       -3.3260    -0.8540    -1.7960 H     1 <1>   0.0800 
 37 H       -4.6600     1.3140     2.4500 H     1 <1>   0.0800 
 38 H       -5.7210    -0.5560    -1.2500 H     1 <1>   0.0800 
 39 H       -6.3620     0.7780     0.7360 H     1 <1>   0.0800 
 40 H       -5.5090    -0.6540     1.2150 H     1 <1>   0.0800 
@<TRIPOS>BOND
  1   1   2  1   
  2   1   3  1   
  3   2   4  1   
  4   2  17  1   
  5   2  18  1   
  6   3   5  1   
  7   3  19  1   
  8   3  20  1   
  9   4   6  1   
 10   4  21  1   
 11   4  22  1   
 12   5   6  1   
 13   5  23  1   
 14   5  24  1   
 15   6   7  1   
 16   6  25  1   
 17   7   8  1   
 18   7   9  1   
 19   7  26  1   
 20   8  10  1   
 21   8  11  1   
 22   8  27  1   
 23   9  12  1   
 24   9  13  1   
 25   9  28  1   
 26  10  14  1   
 27  10  29  1   
 28  10  30  1   
 29  11  15  1   
 30  11  31  1   
 31  11  32  1   
 32  12  14  1   
 33  12  33  1   
 34  12  34  1   
 35  13  15  1   
 36  13  35  1   
 37  13  36  1   
 38  14  16  1   
 39  14  37  1   
 40  15  16  1   
 41  15  38  1   
 42  16  39  1   
 43  16  40  1   
@<TRIPOS>SUBSTRUCTURE
  1 ****   7 GROUP 4 **** **** 0

# MOE 2024.06 (io_trps.svl 2023.06)
