@<TRIPOS>MOLECULE
NONAME
43 45 1 0 0 
SMALL
USER_CHARGES


@<TRIPOS>ATOM
  1 BR      -0.6300     0.0910     1.9130 Br    1 <1>  -0.1110 
  2 C       -2.0870    -0.8130     1.0420 C.ar  1 <1>   0.1110 
  3 C       -2.2380    -0.6720    -0.3230 C.ar  1 <1>  -0.1500 
  4 C       -2.9440    -1.5830     1.8040 C.ar  1 <1>  -0.1500 
  5 C       -3.2900    -1.3220    -0.9450 C.ar  1 <1>  -0.1500 
  6 C       -3.9930    -2.2300     1.1730 C.ar  1 <1>  -0.1500 
  7 C       -4.1740    -2.0970    -0.2010 C.ar  1 <1>  -0.1430 
  8 C       -5.3350    -2.7930    -0.8860 C.3   1 <1>   0.4870 
  9 N       -6.5920    -2.0880    -0.5240 N.4   1 <1>  -0.9590 
 10 C       -7.7970    -2.8210    -0.9940 C.3   1 <1>   0.4860 
 11 C       -6.6250    -0.6720    -1.0000 C.3   1 <1>   0.3430 
 12 C       -9.0530    -2.0930    -0.5460 C.ar  1 <1>  -0.1430 
 13 C       -7.7700     0.0830    -0.3180 C.3   1 <1>  -0.0170 
 14 C       -9.0510    -0.7380    -0.2420 C.ar  1 <1>  -0.1430 
 15 C      -10.2350    -2.8060    -0.4480 C.ar  1 <1>  -0.1500 
 16 C      -10.2280    -0.1220     0.1520 C.ar  1 <1>  -0.1500 
 17 C      -11.4180    -2.2050    -0.0560 C.ar  1 <1>   0.0830 
 18 C      -11.4220    -0.8330     0.2530 C.ar  1 <1>   0.0830 
 19 O      -12.4780    -3.0650    -0.0180 O.3   1 <1>  -0.3630 
 20 O      -12.5740    -0.2160     0.6460 O.3   1 <1>  -0.3620 
 21 C      -13.7960    -2.6700     0.2900 C.3   1 <1>   0.0400 
 22 C      -12.6440     1.1590     0.9560 C.3   1 <1>   0.0400 
 23 H       -1.5430    -0.0680    -0.8810 H     1 <1>   0.1500 
 24 H       -2.7850    -1.6730     2.8650 H     1 <1>   0.1500 
 25 H       -3.4030    -1.2170    -2.0120 H     1 <1>   0.1500 
 26 H       -4.6550    -2.8370     1.7670 H     1 <1>   0.1500 
 27 H       -5.3750    -3.8190    -0.5580 H     1 <1>   0.0800 
 28 H       -5.1930    -2.7800    -1.9550 H     1 <1>   0.0800 
 29 H       -6.6480    -2.0550     0.5010 H     1 <1>   0.4500 
 30 H       -7.8040    -3.8200    -0.5880 H     1 <1>   0.0800 
 31 H       -7.7950    -2.8890    -2.0700 H     1 <1>   0.0800 
 32 H       -6.7720    -0.6530    -2.0680 H     1 <1>   0.0800 
 33 H       -5.6950    -0.1740    -0.7750 H     1 <1>   0.0800 
 34 H       -7.9540     0.9960    -0.8570 H     1 <1>   0.0800 
 35 H       -7.4680     0.3520     0.6790 H     1 <1>   0.0800 
 36 H      -10.2670    -3.8570    -0.6800 H     1 <1>   0.1500 
 37 H      -10.1970     0.9260     0.3840 H     1 <1>   0.1500 
 38 H      -14.4320    -3.5340     0.2110 H     1 <1>   0.0800 
 39 H      -14.1100    -1.9190    -0.4130 H     1 <1>   0.0800 
 40 H      -13.8210    -2.2910     1.2960 H     1 <1>   0.0800 
 41 H      -13.6590     1.3880     1.2270 H     1 <1>   0.0800 
 42 H      -12.3630     1.7280     0.0880 H     1 <1>   0.0800 
 43 H      -11.9910     1.3650     1.7850 H     1 <1>   0.0800 
@<TRIPOS>BOND
  1   1   2  1   
  2   2   3  ar  
  3   2   4  ar  
  4   3   5  ar  
  5   3  23  1   
  6   4   6  ar  
  7   4  24  1   
  8   5   7  ar  
  9   5  25  1   
 10   6   7  ar  
 11   6  26  1   
 12   7   8  1   
 13   8   9  1   
 14   8  27  1   
 15   8  28  1   
 16   9  10  1   
 17   9  11  1   
 18   9  29  1   
 19  10  12  1   
 20  10  30  1   
 21  10  31  1   
 22  11  13  1   
 23  11  32  1   
 24  11  33  1   
 25  12  14  ar  
 26  12  15  ar  
 27  13  14  1   
 28  13  34  1   
 29  13  35  1   
 30  14  16  ar  
 31  15  17  ar  
 32  15  36  1   
 33  16  18  ar  
 34  16  37  1   
 35  17  18  ar  
 36  17  19  1   
 37  18  20  1   
 38  19  21  1   
 39  20  22  1   
 40  21  38  1   
 41  21  39  1   
 42  21  40  1   
 43  22  41  1   
 44  22  42  1   
 45  22  43  1   
@<TRIPOS>SUBSTRUCTURE
  1 ****   9 GROUP 4 **** **** 0

# MOE 2024.06 (io_trps.svl 2023.06)
