@<TRIPOS>MOLECULE
NONAME
46 47 1 0 0 
SMALL
USER_CHARGES


@<TRIPOS>ATOM
  1 O        0.0970     1.0320    -1.1650 O.2   1 <1>  -0.5700 
  2 C        0.0320     1.9730    -0.4130 C.2   1 <1>   0.5690 
  3 N        1.1610     2.4460     0.2110 N.am  1 <1>  -0.6600 
  4 C       -1.3180     2.6400    -0.1870 C.3   1 <1>  -0.0990 
  5 C        2.4420     1.6750     0.1490 C.3   1 <1>   0.1400 
  6 C        1.2870     3.7830     0.8690 C.3   1 <1>   0.1400 
  7 C       -2.5150     1.7670    -0.5930 C.3   1 <1>  -0.0160 
  8 C        3.5400     2.5080    -0.5330 C.3   1 <1>   0.3430 
  9 C        2.4160     4.6070     0.2120 C.3   1 <1>   0.3430 
 10 C       -3.8160     2.4920    -0.2900 C.ar  1 <1>  -0.1440 
 11 N        3.7180     3.8490     0.1310 N.4   1 <1>  -0.9590 
 12 C       -4.4050     2.3760     0.9600 C.ar  1 <1>  -0.1500 
 13 C       -4.4240     3.2780    -1.2570 C.ar  1 <1>  -0.1500 
 14 C        4.7830     4.6330    -0.5330 C.3   1 <1>   0.4810 
 15 C       -5.5860     3.0420     1.2390 C.ar  1 <1>  -0.1500 
 16 C       -5.6050     3.9460    -0.9800 C.ar  1 <1>  -0.1500 
 17 C        5.2000     5.7190     0.4300 C.2   1 <1>  -0.2880 
 18 C       -6.1940     3.8300     0.2760 C.ar  1 <1>   0.0820 
 19 C        6.3180     5.7080     1.1650 C.2   1 <1>  -0.3000 
 20 O       -7.3490     4.4480     0.6300 O.3   1 <1>  -0.3620 
 21 C       -8.0600     5.2510    -0.2850 C.3   1 <1>   0.0400 
 22 H       -1.3500     3.5530    -0.7500 H     1 <1>   0.0800 
 23 H       -1.4180     2.8770     0.8560 H     1 <1>   0.0800 
 24 H        2.3110     0.7560    -0.3960 H     1 <1>   0.0800 
 25 H        2.7470     1.4120     1.1470 H     1 <1>   0.0800 
 26 H        1.4990     3.6450     1.9150 H     1 <1>   0.0800 
 27 H        0.3690     4.3380     0.7930 H     1 <1>   0.0800 
 28 H       -2.4850     0.8340    -0.0570 H     1 <1>   0.0800 
 29 H       -2.4630     1.5370    -1.6440 H     1 <1>   0.0800 
 30 H        3.2660     2.6440    -1.5660 H     1 <1>   0.0800 
 31 H        4.4660     1.9570    -0.5050 H     1 <1>   0.0800 
 32 H        2.5560     5.5160     0.7740 H     1 <1>   0.0800 
 33 H        2.0990     4.8810    -0.7810 H     1 <1>   0.0800 
 34 H        4.0500     3.6930     1.0920 H     1 <1>   0.4500 
 35 H       -3.9500     1.7670     1.7210 H     1 <1>   0.1500 
 36 H       -3.9800     3.3730    -2.2320 H     1 <1>   0.1500 
 37 H        4.4390     5.0520    -1.4650 H     1 <1>   0.0800 
 38 H        5.6320     3.9980    -0.7320 H     1 <1>   0.0800 
 39 H       -6.0450     2.9540     2.2060 H     1 <1>   0.1500 
 40 H       -6.0500     4.5450    -1.7510 H     1 <1>   0.1500 
 41 H        4.5030     6.5390     0.4720 H     1 <1>   0.1500 
 42 H        6.5980     6.5010     1.8410 H     1 <1>   0.1500 
 43 H        7.0570     4.9240     1.1610 H     1 <1>   0.1500 
 44 H       -8.9380     5.6240     0.2120 H     1 <1>   0.0800 
 45 H       -8.3460     4.6490    -1.1290 H     1 <1>   0.0800 
 46 H       -7.4360     6.0720    -0.5890 H     1 <1>   0.0800 
@<TRIPOS>BOND
  1   1   2  2   
  2   2   3  am  
  3   2   4  1   
  4   3   5  1   
  5   3   6  1   
  6   4   7  1   
  7   4  22  1   
  8   4  23  1   
  9   5   8  1   
 10   5  24  1   
 11   5  25  1   
 12   6   9  1   
 13   6  26  1   
 14   6  27  1   
 15   7  10  1   
 16   7  28  1   
 17   7  29  1   
 18   8  11  1   
 19   8  30  1   
 20   8  31  1   
 21   9  11  1   
 22   9  32  1   
 23   9  33  1   
 24  10  12  ar  
 25  10  13  ar  
 26  11  14  1   
 27  11  34  1   
 28  12  15  ar  
 29  12  35  1   
 30  13  16  ar  
 31  13  36  1   
 32  14  17  1   
 33  14  37  1   
 34  14  38  1   
 35  15  18  ar  
 36  15  39  1   
 37  16  18  ar  
 38  16  40  1   
 39  17  19  2   
 40  17  41  1   
 41  18  20  1   
 42  19  42  1   
 43  19  43  1   
 44  20  21  1   
 45  21  44  1   
 46  21  45  1   
 47  21  46  1   
@<TRIPOS>SUBSTRUCTURE
  1 ****   4 GROUP 4 **** **** 0

# MOE 2024.06 (io_trps.svl 2023.06)
