@<TRIPOS>MOLECULE
NONAME
55 57 1 0 0 
SMALL
USER_CHARGES


@<TRIPOS>ATOM
  1 O       -0.1020     0.3660     0.7760 O.2   1 <1>  -0.5700 
  2 C       -0.2850     1.4690     0.3010 C.2   1 <1>   0.5440 
  3 N        0.6710     1.9930    -0.5190 N.am  1 <1>  -0.7300 
  4 C       -1.4960     2.2100     0.6080 C.ar  1 <1>   0.0860 
  5 C        1.9360     1.3320    -0.8640 C.3   1 <1>   0.2780 
  6 C       -2.1470     2.0340     1.8290 C.ar  1 <1>  -0.1500 
  7 C       -2.0640     3.1150    -0.2890 C.ar  1 <1>  -0.1500 
  8 C        2.9690     2.4220    -1.0510 C.2   1 <1>  -0.2880 
  9 C       -3.3050     2.7200     2.1420 C.ar  1 <1>  -0.1500 
 10 C       -3.2230     3.8070     0.0150 C.ar  1 <1>  -0.1500 
 11 C        3.5650     2.7350    -2.2060 C.2   1 <1>  -0.3000 
 12 C       -3.8580     3.6080     1.2320 C.ar  1 <1>  -0.1430 
 13 C       -5.1450     4.3400     1.5630 C.3   1 <1>   0.4860 
 14 N       -6.2600     3.7100     0.8050 N.4   1 <1>  -0.9590 
 15 C       -7.5050     4.5220     0.9000 C.3   1 <1>   0.3430 
 16 C       -6.4820     2.2930     1.2210 C.3   1 <1>   0.3430 
 17 C       -8.5810     3.9210    -0.0010 C.3   1 <1>  -0.1600 
 18 C       -7.5440     1.6520     0.3270 C.3   1 <1>  -0.1600 
 19 C       -8.8600     2.4470     0.3440 C.3   1 <1>  -0.0800 
 20 C       -9.8940     1.8170    -0.6090 C.3   1 <1>  -0.0170 
 21 C      -11.2130     2.5750    -0.5770 C.ar  1 <1>  -0.1430 
 22 C      -12.0690     2.4400     0.5050 C.ar  1 <1>  -0.1500 
 23 C      -11.5690     3.4120    -1.6240 C.ar  1 <1>  -0.1500 
 24 C      -13.2620     3.1410     0.5460 C.ar  1 <1>  -0.1500 
 25 C      -12.7620     4.1130    -1.5840 C.ar  1 <1>  -0.1500 
 26 C      -13.6080     3.9790    -0.4980 C.ar  1 <1>  -0.1500 
 27 H        0.6010     2.9500    -0.8590 H     1 <1>   0.3700 
 28 H        1.8070     0.7700    -1.7740 H     1 <1>   0.0800 
 29 H        2.2380     0.6570    -0.0790 H     1 <1>   0.0800 
 30 H       -1.7260     1.3410     2.5400 H     1 <1>   0.1500 
 31 H       -1.5930     3.2740    -1.2440 H     1 <1>   0.1500 
 32 H        3.1840     2.9350    -0.1290 H     1 <1>   0.1500 
 33 H       -3.7630     2.5500     3.1030 H     1 <1>   0.1500 
 34 H       -3.6190     4.4990    -0.7100 H     1 <1>   0.1500 
 35 H        4.2990     3.5160    -2.3080 H     1 <1>   0.1500 
 36 H        3.3730     2.2410    -3.1430 H     1 <1>   0.1500 
 37 H       -5.0450     5.3760     1.2820 H     1 <1>   0.0800 
 38 H       -5.3380     4.2900     2.6220 H     1 <1>   0.0800 
 39 H       -5.9710     3.6830    -0.1790 H     1 <1>   0.4500 
 40 H       -7.3120     5.5390     0.5940 H     1 <1>   0.0800 
 41 H       -7.8590     4.5350     1.9180 H     1 <1>   0.0800 
 42 H       -6.8080     2.2590     2.2480 H     1 <1>   0.0800 
 43 H       -5.5640     1.7320     1.1370 H     1 <1>   0.0800 
 44 H       -8.2840     4.0150    -1.0310 H     1 <1>   0.0800 
 45 H       -9.4820     4.4980     0.1250 H     1 <1>   0.0800 
 46 H       -7.7260     0.6490     0.6740 H     1 <1>   0.0800 
 47 H       -7.1630     1.5790    -0.6780 H     1 <1>   0.0800 
 48 H       -9.2660     2.4060     1.3420 H     1 <1>   0.0800 
 49 H      -10.0790     0.7960    -0.3210 H     1 <1>   0.0800 
 50 H       -9.5110     1.8020    -1.6140 H     1 <1>   0.0800 
 51 H      -11.8150     1.7870     1.3220 H     1 <1>   0.1500 
 52 H      -10.9250     3.5240    -2.4780 H     1 <1>   0.1500 
 53 H      -13.9230     3.0320     1.3880 H     1 <1>   0.1500 
 54 H      -13.0340     4.7610    -2.3990 H     1 <1>   0.1500 
 55 H      -14.5350     4.5240    -0.4670 H     1 <1>   0.1500 
@<TRIPOS>BOND
  1   1   2  2   
  2   2   3  am  
  3   2   4  1   
  4   3   5  1   
  5   3  27  1   
  6   4   6  ar  
  7   4   7  ar  
  8   5   8  1   
  9   5  28  1   
 10   5  29  1   
 11   6   9  ar  
 12   6  30  1   
 13   7  10  ar  
 14   7  31  1   
 15   8  11  2   
 16   8  32  1   
 17   9  12  ar  
 18   9  33  1   
 19  10  12  ar  
 20  10  34  1   
 21  11  35  1   
 22  11  36  1   
 23  12  13  1   
 24  13  14  1   
 25  13  37  1   
 26  13  38  1   
 27  14  15  1   
 28  14  16  1   
 29  14  39  1   
 30  15  17  1   
 31  15  40  1   
 32  15  41  1   
 33  16  18  1   
 34  16  42  1   
 35  16  43  1   
 36  17  19  1   
 37  17  44  1   
 38  17  45  1   
 39  18  19  1   
 40  18  46  1   
 41  18  47  1   
 42  19  20  1   
 43  19  48  1   
 44  20  21  1   
 45  20  49  1   
 46  20  50  1   
 47  21  22  ar  
 48  21  23  ar  
 49  22  24  ar  
 50  22  51  1   
 51  23  25  ar  
 52  23  52  1   
 53  24  26  ar  
 54  24  53  1   
 55  25  26  ar  
 56  25  54  1   
 57  26  55  1   
@<TRIPOS>SUBSTRUCTURE
  1 ****  14 GROUP 4 **** **** 0

# MOE 2024.06 (io_trps.svl 2023.06)
