@<TRIPOS>MOLECULE
NONAME
44 46 1 0 0 
SMALL
USER_CHARGES


@<TRIPOS>ATOM
  1 CL       1.9880     1.2960     2.7390 Cl    1 <1>  -0.1770 
  2 C        2.6710     1.3520     1.1350 C.ar  1 <1>   0.1770 
  3 C        3.7480     0.5430     0.8370 C.ar  1 <1>  -0.1500 
  4 C        2.1250     2.2060     0.1940 C.ar  1 <1>  -0.1500 
  5 C        4.3090     0.5760    -0.4350 C.ar  1 <1>   0.1000 
  6 C        2.6760     2.2440    -1.0750 C.ar  1 <1>  -0.1500 
  7 N        5.4050    -0.2130    -0.7770 N.pl3 1 <1>  -0.8380 
  8 C        3.7570     1.4340    -1.3810 C.ar  1 <1>  -0.1500 
  9 C        6.7140     0.4640    -1.0320 C.3   1 <1>   0.2090 
 10 C        5.4750    -1.6480    -0.3580 C.3   1 <1>   0.2090 
 11 C        7.7050     0.2230     0.1250 C.3   1 <1>   0.3430 
 12 C        6.5010    -1.8640     0.7770 C.3   1 <1>   0.3430 
 13 N        7.8340    -1.2370     0.4770 N.4   1 <1>  -0.9590 
 14 C        8.8360    -1.4720     1.5450 C.3   1 <1>   0.4860 
 15 C       10.1940    -1.0440     1.0260 C.ar  1 <1>  -0.1430 
 16 C       10.7370    -1.6530    -0.1020 C.ar  1 <1>   0.0830 
 17 C       10.8960    -0.0400     1.6760 C.ar  1 <1>  -0.1500 
 18 O       10.0040    -2.6280    -0.7080 O.3   1 <1>  -0.3630 
 19 C       11.9840    -1.2460    -0.5690 C.ar  1 <1>  -0.1500 
 20 C       12.1340     0.3600     1.2050 C.ar  1 <1>  -0.1500 
 21 C       10.5760    -3.4540    -1.7040 C.3   1 <1>   0.0400 
 22 C       12.6760    -0.2430     0.0840 C.ar  1 <1>  -0.1500 
 23 H        4.1410    -0.0990     1.5990 H     1 <1>   0.1500 
 24 H        1.2850     2.8250     0.4530 H     1 <1>   0.1500 
 25 H        2.2620     2.8990    -1.8230 H     1 <1>   0.1500 
 26 H        4.1780     1.4580    -2.3700 H     1 <1>   0.1500 
 27 H        6.5590     1.5230    -1.1480 H     1 <1>   0.0800 
 28 H        7.1310     0.0930    -1.9510 H     1 <1>   0.0800 
 29 H        5.7510    -2.2450    -1.2100 H     1 <1>   0.0800 
 30 H        4.5030    -1.9800    -0.0350 H     1 <1>   0.0800 
 31 H        7.3570     0.7720     0.9840 H     1 <1>   0.0800 
 32 H        8.6680     0.6210    -0.1530 H     1 <1>   0.0800 
 33 H        6.6220    -2.9220     0.9410 H     1 <1>   0.0800 
 34 H        6.0990    -1.4330     1.6780 H     1 <1>   0.0800 
 35 H        8.2450    -1.7100    -0.3470 H     1 <1>   0.4500 
 36 H        8.8740    -2.5210     1.7910 H     1 <1>   0.0800 
 37 H        8.5800    -0.9160     2.4310 H     1 <1>   0.0800 
 38 H       10.4970     0.4410     2.5540 H     1 <1>   0.1500 
 39 H       12.4350    -1.6910    -1.4370 H     1 <1>   0.1500 
 40 H       12.6820     1.1380     1.7110 H     1 <1>   0.1500 
 41 H       10.8080    -2.8570    -2.5690 H     1 <1>   0.0800 
 42 H        9.8600    -4.2130    -1.9690 H     1 <1>   0.0800 
 43 H       11.4640    -3.9170    -1.3100 H     1 <1>   0.0800 
 44 H       13.6410     0.0700    -0.2780 H     1 <1>   0.1500 
@<TRIPOS>BOND
  1   1   2  1   
  2   2   3  ar  
  3   2   4  ar  
  4   3   5  ar  
  5   3  23  1   
  6   4   6  ar  
  7   4  24  1   
  8   5   7  1   
  9   5   8  ar  
 10   6   8  ar  
 11   6  25  1   
 12   7   9  1   
 13   7  10  1   
 14   8  26  1   
 15   9  11  1   
 16   9  27  1   
 17   9  28  1   
 18  10  12  1   
 19  10  29  1   
 20  10  30  1   
 21  11  13  1   
 22  11  31  1   
 23  11  32  1   
 24  12  13  1   
 25  12  33  1   
 26  12  34  1   
 27  13  14  1   
 28  13  35  1   
 29  14  15  1   
 30  14  36  1   
 31  14  37  1   
 32  15  16  ar  
 33  15  17  ar  
 34  16  18  1   
 35  16  19  ar  
 36  17  20  ar  
 37  17  38  1   
 38  18  21  1   
 39  19  22  ar  
 40  19  39  1   
 41  20  22  ar  
 42  20  40  1   
 43  21  41  1   
 44  21  42  1   
 45  21  43  1   
 46  22  44  1   
@<TRIPOS>SUBSTRUCTURE
  1 ****  11 GROUP 4 **** **** 0

# MOE 2024.06 (io_trps.svl 2023.06)
