@<TRIPOS>MOLECULE
NONAME
47 48 1 0 0 
SMALL
USER_CHARGES


@<TRIPOS>ATOM
  1 O       -0.6700    -2.5080    -1.8840 O.2   1 <1>  -0.5700 
  2 C       -1.0140    -2.0650    -0.8040 C.2   1 <1>   0.5440 
  3 N       -0.0720    -1.8380     0.1680 N.am  1 <1>  -0.5470 
  4 C       -2.4150    -1.8020    -0.5410 C.ar  1 <1>   0.0860 
  5 C        1.3120    -2.0780     0.1580 C.ar  1 <1>   0.1170 
  6 C       -2.8670    -0.7540     0.2740 C.ar  1 <1>   0.0830 
  7 C       -3.3830    -2.6250    -1.1170 C.ar  1 <1>  -0.1500 
  8 C        1.8340    -3.3700     0.0420 C.ar  1 <1>  -0.1440 
  9 C        2.1890    -1.0010     0.3030 C.ar  1 <1>  -0.1430 
 10 O       -1.9560     0.0970     0.8120 O.3   1 <1>  -0.3630 
 11 C       -4.2280    -0.5730     0.5410 C.ar  1 <1>   0.0830 
 12 C       -4.7300    -2.4530    -0.8720 C.ar  1 <1>  -0.1500 
 13 C        3.2050    -3.5630     0.0550 C.ar  1 <1>  -0.1500 
 14 C        0.9360    -4.5940    -0.0940 C.3   1 <1>  -0.0970 
 15 C        3.5570    -1.2170     0.3190 C.ar  1 <1>  -0.1500 
 16 C        1.6690     0.4250     0.4340 C.3   1 <1>  -0.0970 
 17 C       -1.8580     1.3760     0.2240 C.3   1 <1>   0.0400 
 18 O       -4.5700     0.4510     1.3850 O.3   1 <1>  -0.3630 
 19 C       -5.1720    -1.4380    -0.0280 C.ar  1 <1>   0.0830 
 20 C        4.0730    -2.4950     0.1950 C.ar  1 <1>  -0.1430 
 21 C       -5.6540     1.2980     1.0640 C.3   1 <1>   0.0400 
 22 O       -6.4940    -1.2880     0.2630 O.3   1 <1>  -0.3630 
 23 C        5.5730    -2.7220     0.2060 C.3   1 <1>  -0.0970 
 24 C       -7.4720    -2.2240    -0.1350 C.3   1 <1>   0.0400 
 25 H       -0.4040    -1.2280     0.9170 H     1 <1>   0.3700 
 26 H       -3.0620    -3.4200    -1.7690 H     1 <1>   0.1500 
 27 H       -5.4190    -3.1260    -1.3460 H     1 <1>   0.1500 
 28 H        3.6050    -4.5560    -0.0460 H     1 <1>   0.1500 
 29 H        0.5910    -4.6780    -1.1090 H     1 <1>   0.0800 
 30 H        0.0860    -4.5110     0.5580 H     1 <1>   0.0800 
 31 H        1.4680    -5.4910     0.1620 H     1 <1>   0.0800 
 32 H        4.2310    -0.3870     0.4250 H     1 <1>   0.1500 
 33 H        1.0720     0.5180     1.3230 H     1 <1>   0.0800 
 34 H        1.0690     0.6690    -0.4240 H     1 <1>   0.0800 
 35 H        2.4790     1.1290     0.4920 H     1 <1>   0.0800 
 36 H       -1.0940     1.9280     0.7410 H     1 <1>   0.0800 
 37 H       -2.8000     1.8850     0.3180 H     1 <1>   0.0800 
 38 H       -1.5950     1.2620    -0.8140 H     1 <1>   0.0800 
 39 H       -5.4870     2.2480     1.5370 H     1 <1>   0.0800 
 40 H       -6.5600     0.8610     1.4440 H     1 <1>   0.0800 
 41 H       -5.7080     1.4180    -0.0030 H     1 <1>   0.0800 
 42 H        5.8040    -3.6820     0.6320 H     1 <1>   0.0800 
 43 H        6.0650    -1.9650     0.7900 H     1 <1>   0.0800 
 44 H        5.9520    -2.6870    -0.8000 H     1 <1>   0.0800 
 45 H       -8.4150    -1.9170     0.2800 H     1 <1>   0.0800 
 46 H       -7.2050    -3.1930     0.2470 H     1 <1>   0.0800 
 47 H       -7.5320    -2.2330    -1.2090 H     1 <1>   0.0800 
@<TRIPOS>BOND
  1   1   2  2   
  2   2   3  am  
  3   2   4  1   
  4   3   5  1   
  5   3  25  1   
  6   4   6  ar  
  7   4   7  ar  
  8   5   8  ar  
  9   5   9  ar  
 10   6  10  1   
 11   6  11  ar  
 12   7  12  ar  
 13   7  26  1   
 14   8  13  ar  
 15   8  14  1   
 16   9  15  ar  
 17   9  16  1   
 18  10  17  1   
 19  11  18  1   
 20  11  19  ar  
 21  12  19  ar  
 22  12  27  1   
 23  13  20  ar  
 24  13  28  1   
 25  14  29  1   
 26  14  30  1   
 27  14  31  1   
 28  15  20  ar  
 29  15  32  1   
 30  16  33  1   
 31  16  34  1   
 32  16  35  1   
 33  17  36  1   
 34  17  37  1   
 35  17  38  1   
 36  18  21  1   
 37  19  22  1   
 38  20  23  1   
 39  21  39  1   
 40  21  40  1   
 41  21  41  1   
 42  22  24  1   
 43  23  42  1   
 44  23  43  1   
 45  23  44  1   
 46  24  45  1   
 47  24  46  1   
 48  24  47  1   
@<TRIPOS>SUBSTRUCTURE
  1 ****   2 GROUP 4 **** **** 0

# MOE 2024.06 (io_trps.svl 2023.06)
