@<TRIPOS>MOLECULE
NONAME
38 39 1 0 0 
SMALL
USER_CHARGES


@<TRIPOS>ATOM
  1 CL      -1.2420    -0.0590     0.3460 Cl    1 <1>  -0.1770 
  2 C       -1.2880     1.6170     0.8540 C.ar  1 <1>   0.1770 
  3 C       -2.3290     2.4340     0.4080 C.ar  1 <1>   0.1170 
  4 C       -0.2880     2.0810     1.6860 C.ar  1 <1>  -0.1500 
  5 N       -3.3160     1.8960    -0.4410 N.am  1 <1>  -0.5470 
  6 C       -2.3280     3.7660     0.8180 C.ar  1 <1>  -0.1500 
  7 C       -0.3260     3.4040     2.0800 C.ar  1 <1>   0.1770 
  8 C       -4.6110     2.2580    -0.6370 C.2   1 <1>   0.6900 
  9 C       -1.3340     4.2500     1.6530 C.ar  1 <1>  -0.1500 
 10 CL       0.9230     4.0190     3.1330 Cl    1 <1>  -0.1770 
 11 O       -5.1400     3.1470     0.0010 O.2   1 <1>  -0.5700 
 12 N       -5.3460     1.5600    -1.5380 N.am  1 <1>  -0.7300 
 13 C       -6.6780     1.9700    -2.0810 C.3   1 <1>   0.1400 
 14 C       -7.8470     1.6000    -1.1410 C.3   1 <1>   0.3430 
 15 N       -7.7400     2.3020     0.1710 N.4   1 <1>  -0.9590 
 16 C       -8.3380     1.5370     1.3130 C.3   1 <1>   0.3430 
 17 C       -8.2500     3.7140     0.1340 C.3   1 <1>   0.3430 
 18 C       -8.2100     2.3190     2.6350 C.3   1 <1>   0.1200 
 19 C       -8.1180     4.3850     1.5140 C.3   1 <1>   0.1200 
 20 O       -8.7430     3.6040     2.4930 O.3   1 <1>  -0.5600 
 21 H        0.5000     1.4320     2.0190 H     1 <1>   0.1500 
 22 H       -3.0470     1.0100    -0.8670 H     1 <1>   0.3700 
 23 H       -3.1010     4.4360     0.4850 H     1 <1>   0.1500 
 24 H       -1.3350     5.2780     1.9730 H     1 <1>   0.1500 
 25 H       -4.8360     0.8970    -2.1280 H     1 <1>   0.3700 
 26 H       -6.8280     1.4810    -3.0280 H     1 <1>   0.0800 
 27 H       -6.6800     3.0320    -2.2630 H     1 <1>   0.0800 
 28 H       -7.8260     0.5340    -0.9860 H     1 <1>   0.0800 
 29 H       -8.7850     1.8470    -1.6100 H     1 <1>   0.0800 
 30 H       -6.7190     2.4030     0.3560 H     1 <1>   0.4500 
 31 H       -7.8460     0.5840     1.4160 H     1 <1>   0.0800 
 32 H       -9.3830     1.3560     1.1250 H     1 <1>   0.0800 
 33 H       -9.2870     3.7250    -0.1550 H     1 <1>   0.0800 
 34 H       -7.6900     4.2860    -0.5870 H     1 <1>   0.0800 
 35 H       -7.1790     2.4030     2.9370 H     1 <1>   0.0800 
 36 H       -8.7570     1.8220     3.4160 H     1 <1>   0.0800 
 37 H       -8.5970     5.3490     1.5070 H     1 <1>   0.0800 
 38 H       -7.0830     4.5170     1.7800 H     1 <1>   0.0800 
@<TRIPOS>BOND
  1   1   2  1   
  2   2   3  ar  
  3   2   4  ar  
  4   3   5  1   
  5   3   6  ar  
  6   4   7  ar  
  7   4  21  1   
  8   5   8  am  
  9   5  22  1   
 10   6   9  ar  
 11   6  23  1   
 12   7   9  ar  
 13   7  10  1   
 14   8  11  2   
 15   8  12  am  
 16   9  24  1   
 17  12  13  1   
 18  12  25  1   
 19  13  14  1   
 20  13  26  1   
 21  13  27  1   
 22  14  15  1   
 23  14  28  1   
 24  14  29  1   
 25  15  16  1   
 26  15  17  1   
 27  15  30  1   
 28  16  18  1   
 29  16  31  1   
 30  16  32  1   
 31  17  19  1   
 32  17  33  1   
 33  17  34  1   
 34  18  20  1   
 35  18  35  1   
 36  18  36  1   
 37  19  20  1   
 38  19  37  1   
 39  19  38  1   
@<TRIPOS>SUBSTRUCTURE
  1 ****  11 GROUP 4 **** **** 0

# MOE 2024.06 (io_trps.svl 2023.06)
