@<TRIPOS>MOLECULE
NONAME
47 49 1 0 0 
SMALL
USER_CHARGES


@<TRIPOS>ATOM
  1 BR      -0.2790    -1.5500     2.1490 Br    1 <1>  -0.1100 
  2 C       -0.2210    -1.9760     0.2740 C.2   1 <1>  -0.0280 
  3 C        0.8680    -1.7380    -0.4810 C.2   1 <1>  -0.1780 
  4 C       -1.5340    -2.5980    -0.1610 C.3   1 <1>   0.4810 
  5 C        2.1210    -1.1310    -0.1020 C.ar  1 <1>   0.0280 
  6 N       -2.6430    -1.6310     0.0680 N.4   1 <1>  -0.9590 
  7 C        2.1880     0.0390     0.6510 C.ar  1 <1>  -0.1500 
  8 C        3.3200    -1.7070    -0.5140 C.ar  1 <1>  -0.1500 
  9 C       -2.4780    -0.3860    -0.7370 C.3   1 <1>   0.4860 
 10 C       -3.9900    -2.2270    -0.1570 C.3   1 <1>   0.3430 
 11 C        3.4030     0.6050     0.9910 C.ar  1 <1>  -0.1500 
 12 C        4.5380    -1.1450    -0.1790 C.ar  1 <1>  -0.1500 
 13 C       -3.6100     0.5820    -0.4400 C.ar  1 <1>  -0.1440 
 14 C       -5.0730    -1.3050     0.4120 C.3   1 <1>  -0.0170 
 15 C        4.5820     0.0130     0.5760 C.ar  1 <1>  -0.1500 
 16 C       -4.8250     0.1610     0.0830 C.ar  1 <1>  -0.1440 
 17 C       -3.4200     1.9260    -0.7100 C.ar  1 <1>  -0.1500 
 18 C       -5.8260     1.0880     0.3250 C.ar  1 <1>  -0.1500 
 19 C       -4.4090     2.8650    -0.4730 C.ar  1 <1>   0.0820 
 20 C       -5.6420     2.4430     0.0560 C.ar  1 <1>   0.0820 
 21 O       -4.0410     4.1370    -0.8010 O.3   1 <1>  -0.3620 
 22 O       -6.6340     3.3480     0.3030 O.3   1 <1>  -0.3620 
 23 C       -4.9010     5.2510    -0.7080 C.3   1 <1>   0.0400 
 24 C       -7.8880     2.9880     0.8400 C.3   1 <1>   0.0400 
 25 H        0.8640    -2.0290    -1.5180 H     1 <1>   0.1500 
 26 H       -1.7020    -3.4930     0.4160 H     1 <1>   0.0800 
 27 H       -1.4840    -2.8670    -1.2030 H     1 <1>   0.0800 
 28 H       -2.5880    -1.3270     1.0510 H     1 <1>   0.4500 
 29 H        1.2840     0.5210     0.9750 H     1 <1>   0.1500 
 30 H        3.3040    -2.6080    -1.1000 H     1 <1>   0.1500 
 31 H       -1.5390     0.0870    -0.4990 H     1 <1>   0.0800 
 32 H       -2.4840    -0.6210    -1.7890 H     1 <1>   0.0800 
 33 H       -4.1560    -2.3560    -1.2150 H     1 <1>   0.0800 
 34 H       -4.0610    -3.1920     0.3190 H     1 <1>   0.0800 
 35 H        3.4340     1.5070     1.5770 H     1 <1>   0.1500 
 36 H        5.4550    -1.6070    -0.5040 H     1 <1>   0.1500 
 37 H       -6.0290    -1.6080     0.0210 H     1 <1>   0.0800 
 38 H       -5.1100    -1.4210     1.4810 H     1 <1>   0.0800 
 39 H        5.5300     0.4510     0.8400 H     1 <1>   0.1500 
 40 H       -2.4880     2.2810    -1.1160 H     1 <1>   0.1500 
 41 H       -6.7550     0.7360     0.7320 H     1 <1>   0.1500 
 42 H       -4.3700     6.1150    -1.0610 H     1 <1>   0.0800 
 43 H       -5.1810     5.3900     0.3210 H     1 <1>   0.0800 
 44 H       -5.7660     5.0760    -1.3220 H     1 <1>   0.0800 
 45 H       -8.4770     3.8820     0.9370 H     1 <1>   0.0800 
 46 H       -7.7400     2.5450     1.8090 H     1 <1>   0.0800 
 47 H       -8.3740     2.3040     0.1680 H     1 <1>   0.0800 
@<TRIPOS>BOND
  1   1   2  1   
  2   2   3  2   
  3   2   4  1   
  4   3   5  1   
  5   3  25  1   
  6   4   6  1   
  7   4  26  1   
  8   4  27  1   
  9   5   7  ar  
 10   5   8  ar  
 11   6   9  1   
 12   6  10  1   
 13   6  28  1   
 14   7  11  ar  
 15   7  29  1   
 16   8  12  ar  
 17   8  30  1   
 18   9  13  1   
 19   9  31  1   
 20   9  32  1   
 21  10  14  1   
 22  10  33  1   
 23  10  34  1   
 24  11  15  ar  
 25  11  35  1   
 26  12  15  ar  
 27  12  36  1   
 28  13  16  ar  
 29  13  17  ar  
 30  14  16  1   
 31  14  37  1   
 32  14  38  1   
 33  15  39  1   
 34  16  18  ar  
 35  17  19  ar  
 36  17  40  1   
 37  18  20  ar  
 38  18  41  1   
 39  19  20  ar  
 40  19  21  1   
 41  20  22  1   
 42  21  23  1   
 43  22  24  1   
 44  23  42  1   
 45  23  43  1   
 46  23  44  1   
 47  24  45  1   
 48  24  46  1   
 49  24  47  1   
@<TRIPOS>SUBSTRUCTURE
  1 ****   9 GROUP 4 **** **** 0

# MOE 2024.06 (io_trps.svl 2023.06)
