@<TRIPOS>MOLECULE
NONAME
48 49 1 0 0 
SMALL
USER_CHARGES


@<TRIPOS>ATOM
  1 S        0.1550    -1.1970     0.3020 S.3   1 <1>  -0.0800 
  2 C        0.8220     0.3820    -0.0300 C.2   1 <1>   0.1040 
  3 C       -1.4430    -0.7560    -0.3010 C.2   1 <1>  -0.0450 
  4 N        2.1460     0.6390     0.2690 N.am  1 <1>  -0.4940 
  5 C       -0.1220     1.1990    -0.5980 C.2   1 <1>  -0.0860 
  6 C       -1.3990     0.5370    -0.7290 C.2   1 <1>  -0.1810 
  7 C       -2.4750    -1.7660    -0.2840 C.2   1 <1>   0.7150 
  8 C        3.0980    -0.0070     1.0140 C.2   1 <1>   0.5690 
  9 C        0.1880     2.5540    -0.9910 C.2   1 <1>   0.8060 
 10 C       -2.6300     1.2370    -1.2970 C.3   1 <1>  -0.0590 
 11 O       -3.1940    -1.8990    -1.2610 O.2   1 <1>  -0.5700 
 12 N       -2.7050    -2.5870     0.8090 N.am  1 <1>  -0.6600 
 13 O        2.9070    -1.0210     1.6390 O.2   1 <1>  -0.5700 
 14 C        4.4850     0.6400     1.0490 C.3   1 <1>   0.1710 
 15 O        1.1620     3.1580    -0.5760 O.2   1 <1>  -0.5700 
 16 O       -0.6070     3.1860    -1.8640 O.3   1 <1>  -0.4300 
 17 C       -3.5550    -3.8060     0.7080 C.3   1 <1>   0.0600 
 18 C       -2.2310    -2.2750     2.1860 C.3   1 <1>   0.0600 
 19 N        4.5140     2.0450     0.5420 N.3   1 <1>  -0.8100 
 20 C       -0.3430     4.5030    -2.3080 C.3   1 <1>   0.0400 
 21 C        5.8860     2.4610     0.1950 C.3   1 <1>   0.1100 
 22 C        3.9510     3.0020     1.5240 C.3   1 <1>   0.1100 
 23 C        5.9120     3.9210    -0.2940 C.3   1 <1>   0.1200 
 24 C        4.0310     4.4440     0.9920 C.3   1 <1>   0.1200 
 25 O        5.3530     4.7700     0.6680 O.3   1 <1>  -0.5600 
 26 H        2.5150     1.5430    -0.0660 H     1 <1>   0.3700 
 27 H       -3.5150     0.6390    -1.1750 H     1 <1>   0.0800 
 28 H       -2.4980     1.4210    -2.3480 H     1 <1>   0.0800 
 29 H       -2.7960     2.1710    -0.7920 H     1 <1>   0.0800 
 30 H        5.1240     0.0300     0.4370 H     1 <1>   0.0800 
 31 H        4.8610     0.6030     2.0560 H     1 <1>   0.0800 
 32 H       -3.6910    -4.0890    -0.3220 H     1 <1>   0.0800 
 33 H       -4.5190    -3.6120     1.1440 H     1 <1>   0.0800 
 34 H       -3.0850    -4.6230     1.2260 H     1 <1>   0.0800 
 35 H       -1.9640    -1.2360     2.2700 H     1 <1>   0.0800 
 36 H       -1.3700    -2.8790     2.4180 H     1 <1>   0.0800 
 37 H       -3.0100    -2.4820     2.8990 H     1 <1>   0.0800 
 38 H       -1.1140     4.7890    -3.0020 H     1 <1>   0.0800 
 39 H        0.6170     4.5210    -2.7950 H     1 <1>   0.0800 
 40 H       -0.3440     5.1650    -1.4600 H     1 <1>   0.0800 
 41 H        6.2680     1.8260    -0.5850 H     1 <1>   0.0800 
 42 H        6.5300     2.3680     1.0530 H     1 <1>   0.0800 
 43 H        4.4950     2.9440     2.4520 H     1 <1>   0.0800 
 44 H        2.9210     2.7650     1.7250 H     1 <1>   0.0800 
 45 H        5.3540     4.0230    -1.2080 H     1 <1>   0.0800 
 46 H        6.9240     4.2410    -0.4650 H     1 <1>   0.0800 
 47 H        3.6950     5.1380     1.7410 H     1 <1>   0.0800 
 48 H        3.4200     4.5570     0.1130 H     1 <1>   0.0800 
@<TRIPOS>BOND
  1   1   2  1   
  2   1   3  1   
  3   2   4  1   
  4   2   5  2   
  5   3   6  2   
  6   3   7  1   
  7   4   8  am  
  8   4  26  1   
  9   5   6  1   
 10   5   9  1   
 11   6  10  1   
 12   7  11  2   
 13   7  12  am  
 14   8  13  2   
 15   8  14  1   
 16   9  15  2   
 17   9  16  1   
 18  10  27  1   
 19  10  28  1   
 20  10  29  1   
 21  12  17  1   
 22  12  18  1   
 23  14  19  1   
 24  14  30  1   
 25  14  31  1   
 26  16  20  1   
 27  17  32  1   
 28  17  33  1   
 29  17  34  1   
 30  18  35  1   
 31  18  36  1   
 32  18  37  1   
 33  19  21  1   
 34  19  22  1   
 35  20  38  1   
 36  20  39  1   
 37  20  40  1   
 38  21  23  1   
 39  21  41  1   
 40  21  42  1   
 41  22  24  1   
 42  22  43  1   
 43  22  44  1   
 44  23  25  1   
 45  23  45  1   
 46  23  46  1   
 47  24  25  1   
 48  24  47  1   
 49  24  48  1   
@<TRIPOS>SUBSTRUCTURE
  1 ****   2 GROUP 4 **** **** 0

# MOE 2024.06 (io_trps.svl 2023.06)
