@<TRIPOS>MOLECULE
NONAME
64 67 1 0 0 
SMALL
USER_CHARGES


@<TRIPOS>ATOM
  1 O        0.3490    -1.5880    -1.6560 O.2   1 <1>  -0.5700 
  2 C        0.3130    -2.2190    -0.6250 C.2   1 <1>   0.4950 
  3 C        1.4110    -2.3650     0.2720 C.2   1 <1>  -0.1240 
  4 C       -0.9770    -2.9630    -0.3130 C.3   1 <1>  -0.0990 
  5 C        1.4040    -3.2130     1.3310 C.2   1 <1>  -0.0380 
  6 C        2.6510    -1.5150    -0.0110 C.3   1 <1>   0.3400 
  7 C       -1.1040    -3.3280     1.1760 C.3   1 <1>  -0.1600 
  8 N        2.5190    -3.4100     2.1070 N.pl3 1 <1>  -0.6000 
  9 C        0.1660    -4.0130     1.7020 C.3   1 <1>  -0.0220 
 10 C        3.8780    -1.9260     0.8160 C.2   1 <1>  -0.1240 
 11 C        2.3220    -0.0440     0.2600 C.ar  1 <1>  -0.1430 
 12 C        3.7370    -2.8280     1.8240 C.2   1 <1>  -0.0380 
 13 C        5.0760    -1.2340     0.4390 C.2   1 <1>   0.6160 
 14 C        2.0970     0.8280    -0.7950 C.ar  1 <1>  -0.1500 
 15 C        2.2330     0.4350     1.5580 C.ar  1 <1>  -0.1500 
 16 C        4.8600    -3.2990     2.7330 C.3   1 <1>  -0.1020 
 17 O        5.7770    -0.7030     1.2840 O.2   1 <1>  -0.5700 
 18 N        5.4780    -1.1580    -0.8760 N.am  1 <1>  -0.6600 
 19 C        1.7780     2.1640    -0.5740 C.ar  1 <1>   0.0830 
 20 C        1.9410     1.7670     1.7930 C.ar  1 <1>  -0.1500 
 21 C        5.4400    -2.3390    -1.7860 C.3   1 <1>   0.1400 
 22 C        6.4000    -0.0830    -1.3440 C.3   1 <1>   0.1400 
 23 O        1.5010     2.9840    -1.6270 O.3   1 <1>  -0.3630 
 24 C        1.7240     2.6440     0.7440 C.ar  1 <1>   0.0830 
 25 C        6.8680    -2.7960    -2.1340 C.3   1 <1>   0.1200 
 26 C        7.7710    -0.6730    -1.7070 C.3   1 <1>   0.1200 
 27 C        0.8320     2.4630    -2.7560 C.3   1 <1>   0.0400 
 28 O        1.4590     3.9300     1.1070 O.3   1 <1>  -0.3630 
 29 O        7.6270    -1.7260    -2.6210 O.3   1 <1>  -0.5600 
 30 C        1.8900     5.0040     0.3040 C.3   1 <1>   0.1200 
 31 C        1.9660     6.2560     1.1790 C.3   1 <1>  -0.1600 
 32 C        2.4290     7.4740     0.3720 C.3   1 <1>  -0.2400 
 33 H       -0.9990    -3.8560    -0.9100 H     1 <1>   0.0800 
 34 H       -1.8110    -2.3490    -0.6050 H     1 <1>   0.0800 
 35 H        2.8850    -1.6370    -1.0520 H     1 <1>   0.0800 
 36 H       -1.9580    -3.9660     1.3280 H     1 <1>   0.0800 
 37 H       -1.2640    -2.4240     1.7390 H     1 <1>   0.0800 
 38 H        2.4620    -4.0460     2.9120 H     1 <1>   0.4000 
 39 H        0.0930    -4.0990     2.7720 H     1 <1>   0.0800 
 40 H        0.2510    -5.0040     1.2900 H     1 <1>   0.0800 
 41 H        2.1650     0.4510    -1.7980 H     1 <1>   0.1500 
 42 H        2.3970    -0.2260     2.3920 H     1 <1>   0.1500 
 43 H        4.6960    -2.9330     3.7300 H     1 <1>   0.0800 
 44 H        5.8190    -2.9480     2.4010 H     1 <1>   0.0800 
 45 H        4.8920    -4.3730     2.7530 H     1 <1>   0.0800 
 46 H        1.8840     2.1350     2.8000 H     1 <1>   0.1500 
 47 H        4.9220    -2.0750    -2.6910 H     1 <1>   0.0800 
 48 H        4.9130    -3.1550    -1.3210 H     1 <1>   0.0800 
 49 H        6.5200     0.6690    -0.5820 H     1 <1>   0.0800 
 50 H        5.9770     0.3940    -2.2100 H     1 <1>   0.0800 
 51 H        6.8410    -3.5530    -2.8960 H     1 <1>   0.0800 
 52 H        7.3580    -3.1970    -1.2640 H     1 <1>   0.0800 
 53 H        8.2660    -1.0420    -0.8250 H     1 <1>   0.0800 
 54 H        8.3910     0.0780    -2.1630 H     1 <1>   0.0800 
 55 H        0.0250     1.8310    -2.4250 H     1 <1>   0.0800 
 56 H        1.5310     1.9070    -3.3530 H     1 <1>   0.0800 
 57 H        0.4420     3.2870    -3.3240 H     1 <1>   0.0800 
 58 H        1.1780     5.1390    -0.4900 H     1 <1>   0.0800 
 59 H        2.8570     4.7610    -0.1030 H     1 <1>   0.0800 
 60 H        2.6570     6.0790     1.9850 H     1 <1>   0.0800 
 61 H        0.9940     6.4540     1.5950 H     1 <1>   0.0800 
 62 H        3.4070     7.3010    -0.0410 H     1 <1>   0.0800 
 63 H        2.4750     8.3400     1.0090 H     1 <1>   0.0800 
 64 H        1.7420     7.6760    -0.4310 H     1 <1>   0.0800 
@<TRIPOS>BOND
  1   1   2  2   
  2   2   3  1   
  3   2   4  1   
  4   3   5  2   
  5   3   6  1   
  6   4   7  1   
  7   4  33  1   
  8   4  34  1   
  9   5   8  1   
 10   5   9  1   
 11   6  10  1   
 12   6  11  1   
 13   6  35  1   
 14   7   9  1   
 15   7  36  1   
 16   7  37  1   
 17   8  12  1   
 18   8  38  1   
 19   9  39  1   
 20   9  40  1   
 21  10  12  2   
 22  10  13  1   
 23  11  14  ar  
 24  11  15  ar  
 25  12  16  1   
 26  13  17  2   
 27  13  18  am  
 28  14  19  ar  
 29  14  41  1   
 30  15  20  ar  
 31  15  42  1   
 32  16  43  1   
 33  16  44  1   
 34  16  45  1   
 35  18  21  1   
 36  18  22  1   
 37  19  23  1   
 38  19  24  ar  
 39  20  24  ar  
 40  20  46  1   
 41  21  25  1   
 42  21  47  1   
 43  21  48  1   
 44  22  26  1   
 45  22  49  1   
 46  22  50  1   
 47  23  27  1   
 48  24  28  1   
 49  25  29  1   
 50  25  51  1   
 51  25  52  1   
 52  26  29  1   
 53  26  53  1   
 54  26  54  1   
 55  27  55  1   
 56  27  56  1   
 57  27  57  1   
 58  28  30  1   
 59  30  31  1   
 60  30  58  1   
 61  30  59  1   
 62  31  32  1   
 63  31  60  1   
 64  31  61  1   
 65  32  62  1   
 66  32  63  1   
 67  32  64  1   
@<TRIPOS>SUBSTRUCTURE
  1 ****  11 GROUP 4 **** **** 0

# MOE 2024.06 (io_trps.svl 2023.06)
