@<TRIPOS>MOLECULE
NONAME
47 49 1 0 0 
SMALL
USER_CHARGES


@<TRIPOS>ATOM
  1 S       -0.6860     1.1160    -2.5920 S.o2  1 <1>   1.4470 
  2 O       -0.0560    -0.0410    -3.1840 O.2   1 <1>  -0.6500 
  3 O       -1.3980     2.0340    -3.4480 O.2   1 <1>  -0.6500 
  4 N        0.5880     2.0780    -1.9690 N.am  1 <1>  -0.7570 
  5 C       -1.6830     0.7450    -1.1110 C.ar  1 <1>  -0.0090 
  6 C        1.5710     1.5730    -1.1350 C.ar  1 <1>   0.1990 
  7 C       -1.5190    -0.3920    -0.3120 C.ar  1 <1>  -0.1440 
  8 C       -2.6440     1.6710    -0.7210 C.ar  1 <1>  -0.1500 
  9 C        1.5460     1.7950     0.2440 C.ar  1 <1>  -0.1440 
 10 C        2.6070     0.8250    -1.6830 C.ar  1 <1>  -0.1500 
 11 C       -2.3070    -0.5700     0.8150 C.ar  1 <1>  -0.1500 
 12 C       -0.4830    -1.4660    -0.6230 C.3   1 <1>  -0.0970 
 13 C       -3.4450     1.5130     0.4040 C.ar  1 <1>   0.0860 
 14 C        2.5430     1.2570     1.0410 C.ar  1 <1>  -0.1500 
 15 C        0.4470     2.6160     0.9110 C.3   1 <1>  -0.0970 
 16 C        3.6000     0.2950    -0.8810 C.ar  1 <1>  -0.1500 
 17 C       -3.2540     0.3690     1.1690 C.ar  1 <1>  -0.1500 
 18 C       -4.4260     2.5190     0.7640 C.2   1 <1>   0.5440 
 19 C        3.5670     0.5100     0.4840 C.ar  1 <1>  -0.1500 
 20 O       -4.0800     3.6800     0.8710 O.2   1 <1>  -0.5700 
 21 N       -5.7450     2.1950     0.9810 N.am  1 <1>  -0.6600 
 22 C       -6.3890     0.9270     0.5720 C.3   1 <1>   0.1400 
 23 C       -6.7590     3.2170     1.3230 C.3   1 <1>   0.1400 
 24 C       -7.8570     1.2850     0.3750 C.3   1 <1>  -0.1600 
 25 C       -8.0900     2.4720     1.3060 C.3   1 <1>  -0.1600 
 26 H        0.9090     2.6770    -2.7210 H     1 <1>   0.4200 
 27 H       -2.7810     2.5640    -1.3090 H     1 <1>   0.1500 
 28 H        2.6280     0.6490    -2.7430 H     1 <1>   0.1500 
 29 H       -2.1830    -1.4440     1.4320 H     1 <1>   0.1500 
 30 H        0.4970    -1.0330    -0.7100 H     1 <1>   0.0800 
 31 H       -0.7280    -1.9640    -1.5440 H     1 <1>   0.0800 
 32 H       -0.4430    -2.2080     0.1550 H     1 <1>   0.0800 
 33 H        2.5290     1.4180     2.1050 H     1 <1>   0.1500 
 34 H       -0.3690     1.9770     1.1930 H     1 <1>   0.0800 
 35 H        0.0770     3.3810     0.2530 H     1 <1>   0.0800 
 36 H        0.8220     3.0990     1.7960 H     1 <1>   0.0800 
 37 H        4.3950    -0.2850    -1.3170 H     1 <1>   0.1500 
 38 H       -3.8510     0.2240     2.0530 H     1 <1>   0.1500 
 39 H        4.3370     0.0980     1.1140 H     1 <1>   0.1500 
 40 H       -6.2860     0.2080     1.3670 H     1 <1>   0.0800 
 41 H       -5.9530     0.5390    -0.3330 H     1 <1>   0.0800 
 42 H       -6.7460     3.9900     0.5730 H     1 <1>   0.0800 
 43 H       -6.5530     3.6490     2.2870 H     1 <1>   0.0800 
 44 H       -8.5070     0.4570     0.5950 H     1 <1>   0.0800 
 45 H       -8.0070     1.5880    -0.6460 H     1 <1>   0.0800 
 46 H       -8.8950     3.1040     0.9740 H     1 <1>   0.0800 
 47 H       -8.3050     2.1220     2.3000 H     1 <1>   0.0800 
@<TRIPOS>BOND
  1   1   2  2   
  2   1   3  2   
  3   1   4  am  
  4   1   5  1   
  5   4   6  1   
  6   4  26  1   
  7   5   7  ar  
  8   5   8  ar  
  9   6   9  ar  
 10   6  10  ar  
 11   7  11  ar  
 12   7  12  1   
 13   8  13  ar  
 14   8  27  1   
 15   9  14  ar  
 16   9  15  1   
 17  10  16  ar  
 18  10  28  1   
 19  11  17  ar  
 20  11  29  1   
 21  12  30  1   
 22  12  31  1   
 23  12  32  1   
 24  13  17  ar  
 25  13  18  1   
 26  14  19  ar  
 27  14  33  1   
 28  15  34  1   
 29  15  35  1   
 30  15  36  1   
 31  16  19  ar  
 32  16  37  1   
 33  17  38  1   
 34  18  20  2   
 35  18  21  am  
 36  19  39  1   
 37  21  22  1   
 38  21  23  1   
 39  22  24  1   
 40  22  40  1   
 41  22  41  1   
 42  23  25  1   
 43  23  42  1   
 44  23  43  1   
 45  24  25  1   
 46  24  44  1   
 47  24  45  1   
 48  25  46  1   
 49  25  47  1   
@<TRIPOS>SUBSTRUCTURE
  1 ****   5 GROUP 4 **** **** 0

# MOE 2024.06 (io_trps.svl 2023.06)
