@<TRIPOS>MOLECULE
NONAME
36 38 1 0 0 
SMALL
USER_CHARGES


@<TRIPOS>ATOM
  1 O       -1.4770    -1.7430     2.7350 O.2   1 <1>  -0.5700 
  2 C       -1.1420    -2.3980     1.7790 C.2   1 <1>   0.5700 
  3 N       -1.8750    -2.5320     0.6410 N.am  1 <1>  -0.7300 
  4 C       -3.1870    -1.9370     0.3270 C.3   1 <1>   0.3000 
  5 C       -3.1080    -0.3990     0.3430 C.3   1 <1>  -0.1600 
  6 C       -4.2580    -2.4170     1.3230 C.3   1 <1>  -0.1600 
  7 C       -3.5770    -2.4010    -1.0880 C.3   1 <1>  -0.1600 
  8 C       -4.4740     0.2100    -0.0370 C.3   1 <1>   0.0000 
  9 C       -5.6350    -1.8280     0.9510 C.3   1 <1>   0.0000 
 10 C       -4.9440    -1.8130    -1.4830 C.3   1 <1>  -0.0800 
 11 C       -5.5350    -0.2870     0.9680 C.3   1 <1>  -0.1600 
 12 C       -4.8610    -0.2760    -1.4490 C.3   1 <1>  -0.1600 
 13 C       -4.3940     1.7410    -0.0090 C.3   1 <1>  -0.2400 
 14 C       -6.0070    -2.2850    -0.4740 C.3   1 <1>  -0.1600 
 15 C       -6.6980    -2.2990     1.9520 C.3   1 <1>  -0.2400 
 16 H       -0.1980    -2.9130     1.8250 H     1 <1>   0.0600 
 17 H       -1.5050    -3.1080    -0.1120 H     1 <1>   0.3700 
 18 H       -2.3540    -0.0680    -0.3470 H     1 <1>   0.0800 
 19 H       -2.8340    -0.0610     1.3270 H     1 <1>   0.0800 
 20 H       -3.9970    -2.1010     2.3170 H     1 <1>   0.0800 
 21 H       -4.3050    -3.4910     1.3140 H     1 <1>   0.0800 
 22 H       -3.6330    -3.4740    -1.1190 H     1 <1>   0.0800 
 23 H       -2.8360    -2.0770    -1.7970 H     1 <1>   0.0800 
 24 H       -5.2120    -2.1410    -2.4730 H     1 <1>   0.0800 
 25 H       -6.4920     0.1390     0.7220 H     1 <1>   0.0800 
 26 H       -5.2760     0.0460     1.9580 H     1 <1>   0.0800 
 27 H       -5.8130     0.1410    -1.7300 H     1 <1>   0.0800 
 28 H       -4.1340     0.0620    -2.1660 H     1 <1>   0.0800 
 29 H       -3.6550     2.0930    -0.7060 H     1 <1>   0.0800 
 30 H       -4.1240     2.0840     0.9740 H     1 <1>   0.0800 
 31 H       -5.3440     2.1720    -0.2710 H     1 <1>   0.0800 
 32 H       -6.9660    -1.8830    -0.7480 H     1 <1>   0.0800 
 33 H       -6.0840    -3.3580    -0.5060 H     1 <1>   0.0800 
 34 H       -6.4420    -1.9820     2.9470 H     1 <1>   0.0800 
 35 H       -6.7710    -3.3720     1.9450 H     1 <1>   0.0800 
 36 H       -7.6600    -1.8900     1.7000 H     1 <1>   0.0800 
@<TRIPOS>BOND
  1   1   2  2   
  2   2   3  am  
  3   2  16  1   
  4   3   4  1   
  5   3  17  1   
  6   4   5  1   
  7   4   6  1   
  8   4   7  1   
  9   5   8  1   
 10   5  18  1   
 11   5  19  1   
 12   6   9  1   
 13   6  20  1   
 14   6  21  1   
 15   7  10  1   
 16   7  22  1   
 17   7  23  1   
 18   8  11  1   
 19   8  12  1   
 20   8  13  1   
 21   9  11  1   
 22   9  14  1   
 23   9  15  1   
 24  10  12  1   
 25  10  14  1   
 26  10  24  1   
 27  11  25  1   
 28  11  26  1   
 29  12  27  1   
 30  12  28  1   
 31  13  29  1   
 32  13  30  1   
 33  13  31  1   
 34  14  32  1   
 35  14  33  1   
 36  15  34  1   
 37  15  35  1   
 38  15  36  1   
@<TRIPOS>SUBSTRUCTURE
  1 ****   4 GROUP 4 **** **** 0

# MOE 2024.06 (io_trps.svl 2023.06)
