@<TRIPOS>MOLECULE
NONAME
50 53 1 0 0 
SMALL
USER_CHARGES


@<TRIPOS>ATOM
  1 S       -1.8050     0.0170    -1.7270 S.3   1 <1>  -0.0800 
  2 C       -2.1100     0.1690    -0.0110 C.2   1 <1>   0.1980 
  3 C       -3.5150     0.1270    -2.0210 C.2   1 <1>  -0.1100 
  4 N       -3.3420     0.2810     0.2940 N.2   1 <1>  -0.5650 
  5 C       -0.9090     0.1530     0.9070 C.3   1 <1>  -0.0600 
  6 C       -4.1460     0.2650    -0.8440 C.2   1 <1>   0.0460 
  7 C       -5.6450     0.3910    -0.6240 C.3   1 <1>   0.5240 
  8 N       -6.0050    -0.4820     0.5220 N.4   1 <1>  -0.9590 
  9 C       -5.9480    -1.9390     0.1340 C.3   1 <1>   0.3430 
 10 C       -7.3120    -0.0700     1.1430 C.3   1 <1>   0.3430 
 11 C       -6.4040    -2.8550     1.2820 C.3   1 <1>   0.1400 
 12 C       -7.7880    -1.0420     2.2410 C.3   1 <1>   0.1400 
 13 N       -7.7670    -2.4370     1.7150 N.am  1 <1>  -0.6600 
 14 C       -8.8590    -2.9620     1.0720 C.2   1 <1>   0.6900 
 15 O       -8.7090    -3.7760     0.1810 O.2   1 <1>  -0.5700 
 16 N      -10.1050    -2.5370     1.3830 N.am  1 <1>  -0.5790 
 17 C      -10.9650    -1.9240     0.3650 C.3   1 <1>   0.1810 
 18 C      -10.3100    -0.7570    -0.3650 C.ar  1 <1>  -0.0320 
 19 C      -12.4280    -1.8840     0.6710 C.3   1 <1>  -0.2000 
 20 C      -11.9050    -2.8280    -0.3640 C.3   1 <1>  -0.2000 
 21 C       -9.5450    -0.9870    -1.4990 C.ar  1 <1>  -0.1500 
 22 C      -10.4670     0.5420     0.0940 C.ar  1 <1>  -0.1500 
 23 C       -8.9500     0.0670    -2.1710 C.ar  1 <1>  -0.1500 
 24 C       -9.8690     1.5990    -0.5730 C.ar  1 <1>  -0.1500 
 25 C       -9.1110     1.3610    -1.7070 C.ar  1 <1>  -0.1500 
 26 H       -3.8460     0.0770    -3.0430 H     1 <1>   0.1500 
 27 H       -0.2550     0.9700     0.6650 H     1 <1>   0.0800 
 28 H       -0.3740    -0.7710     0.7940 H     1 <1>   0.0800 
 29 H       -1.2260     0.2520     1.9290 H     1 <1>   0.0800 
 30 H       -6.1920     0.1130    -1.5090 H     1 <1>   0.0800 
 31 H       -5.8690     1.4170    -0.3820 H     1 <1>   0.0800 
 32 H       -5.2290    -0.3210     1.1870 H     1 <1>   0.4500 
 33 H       -4.9430    -2.2030    -0.1540 H     1 <1>   0.0800 
 34 H       -6.5960    -2.1170    -0.7090 H     1 <1>   0.0800 
 35 H       -8.0670    -0.0410     0.3790 H     1 <1>   0.0800 
 36 H       -7.2280     0.9210     1.5580 H     1 <1>   0.0800 
 37 H       -5.7190    -2.7880     2.1090 H     1 <1>   0.0800 
 38 H       -6.4130    -3.8800     0.9480 H     1 <1>   0.0800 
 39 H       -8.7800    -0.7680     2.5580 H     1 <1>   0.0800 
 40 H       -7.1430    -0.9730     3.1000 H     1 <1>   0.0800 
 41 H      -10.6310    -3.2550     1.8760 H     1 <1>   0.3700 
 42 H      -13.0170    -1.0520     0.3260 H     1 <1>   0.1000 
 43 H      -12.7860    -2.2840     1.6030 H     1 <1>   0.1000 
 44 H      -11.8640    -3.8830    -0.1570 H     1 <1>   0.1000 
 45 H      -12.1310    -2.6210    -1.3950 H     1 <1>   0.1000 
 46 H       -9.4270    -1.9960    -1.8600 H     1 <1>   0.1500 
 47 H      -11.0670     0.7300     0.9690 H     1 <1>   0.1500 
 48 H       -8.3800    -0.1220    -3.0660 H     1 <1>   0.1500 
 49 H      -10.0090     2.6060    -0.2180 H     1 <1>   0.1500 
 50 H       -8.6660     2.1870    -2.2370 H     1 <1>   0.1500 
@<TRIPOS>BOND
  1   1   2  1   
  2   1   3  1   
  3   2   4  2   
  4   2   5  1   
  5   3   6  2   
  6   3  26  1   
  7   4   6  1   
  8   5  27  1   
  9   5  28  1   
 10   5  29  1   
 11   6   7  1   
 12   7   8  1   
 13   7  30  1   
 14   7  31  1   
 15   8   9  1   
 16   8  10  1   
 17   8  32  1   
 18   9  11  1   
 19   9  33  1   
 20   9  34  1   
 21  10  12  1   
 22  10  35  1   
 23  10  36  1   
 24  11  13  1   
 25  11  37  1   
 26  11  38  1   
 27  12  13  1   
 28  12  39  1   
 29  12  40  1   
 30  13  14  am  
 31  14  15  2   
 32  14  16  am  
 33  16  17  1   
 34  16  41  1   
 35  17  18  1   
 36  17  19  1   
 37  17  20  1   
 38  18  21  ar  
 39  18  22  ar  
 40  19  20  1   
 41  19  42  1   
 42  19  43  1   
 43  20  44  1   
 44  20  45  1   
 45  21  23  ar  
 46  21  46  1   
 47  22  24  ar  
 48  22  47  1   
 49  23  25  ar  
 50  23  48  1   
 51  24  25  ar  
 52  24  49  1   
 53  25  50  1   
@<TRIPOS>SUBSTRUCTURE
  1 ****  10 GROUP 4 **** **** 0

# MOE 2024.06 (io_trps.svl 2023.06)
