@<TRIPOS>MOLECULE
NONAME
31 32 1 0 0 
SMALL
USER_CHARGES


@<TRIPOS>ATOM
  1 S       -0.3680     0.0320     0.8400 S.3   1 <1>  -0.0800 
  2 C        0.9540     0.9850     0.2800 C.2   1 <1>   0.4340 
  3 C       -1.3880     1.0910    -0.0850 C.2   1 <1>   0.4420 
  4 S        2.5790     0.5030     0.8420 S.3   1 <1>  -0.2860 
  5 N        0.6280     1.9440    -0.4860 N.2   1 <1>  -0.3380 
  6 N       -0.7240     2.0070    -0.6980 N.2   1 <1>  -0.3380 
  7 N       -2.7390     0.8200    -0.0440 N.am  1 <1>  -0.4940 
  8 C        3.7000     1.7560     0.0770 C.3   1 <1>   0.1500 
  9 C       -3.7850     1.4630    -0.6520 C.2   1 <1>   0.7150 
 10 C        5.0860     1.1060    -0.0400 C.3   1 <1>  -0.1600 
 11 C        3.6720     2.9990     0.9730 C.3   1 <1>  -0.2400 
 12 O       -3.5810     2.4350    -1.3470 O.2   1 <1>  -0.5700 
 13 C       -5.1160     0.9510    -0.4380 C.2   1 <1>  -0.0450 
 14 C        6.1030     1.9870    -0.7780 C.3   1 <1>  -0.2400 
 15 S       -6.4780     1.7780    -1.2070 S.3   1 <1>  -0.0800 
 16 C       -5.6030    -0.1020     0.2740 C.2   1 <1>  -0.1500 
 17 C       -7.6400     0.6620    -0.5300 C.2   1 <1>  -0.1100 
 18 C       -7.0180    -0.2630     0.2220 C.2   1 <1>  -0.1500 
 19 H       -3.0040     0.0230     0.5220 H     1 <1>   0.3700 
 20 H        3.3030     1.9770    -0.8990 H     1 <1>   0.0800 
 21 H        4.9840     0.1800    -0.5790 H     1 <1>   0.0800 
 22 H        5.4590     0.8760     0.9420 H     1 <1>   0.0800 
 23 H        4.0570     2.7660     1.9490 H     1 <1>   0.0800 
 24 H        2.6650     3.3610     1.0710 H     1 <1>   0.0800 
 25 H        4.2660     3.7840     0.5430 H     1 <1>   0.0800 
 26 H        5.7330     2.2540    -1.7530 H     1 <1>   0.0800 
 27 H        7.0280     1.4520    -0.9010 H     1 <1>   0.0800 
 28 H        6.3070     2.8860    -0.2240 H     1 <1>   0.0800 
 29 H       -5.0140    -0.7930     0.8500 H     1 <1>   0.1500 
 30 H       -8.6780     0.8170    -0.7690 H     1 <1>   0.1500 
 31 H       -7.5100    -1.0640     0.7480 H     1 <1>   0.1500 
@<TRIPOS>BOND
  1   1   2  1   
  2   1   3  1   
  3   2   4  1   
  4   2   5  2   
  5   3   6  2   
  6   3   7  1   
  7   4   8  1   
  8   5   6  1   
  9   7   9  am  
 10   7  19  1   
 11   8  10  1   
 12   8  11  1   
 13   8  20  1   
 14   9  12  2   
 15   9  13  1   
 16  10  14  1   
 17  10  21  1   
 18  10  22  1   
 19  11  23  1   
 20  11  24  1   
 21  11  25  1   
 22  13  15  1   
 23  13  16  2   
 24  14  26  1   
 25  14  27  1   
 26  14  28  1   
 27  15  17  1   
 28  16  18  1   
 29  16  29  1   
 30  17  18  2   
 31  17  30  1   
 32  18  31  1   
@<TRIPOS>SUBSTRUCTURE
  1 ****   3 GROUP 4 **** **** 0

# MOE 2024.06 (io_trps.svl 2023.06)
