@<TRIPOS>MOLECULE
NONAME
32 33 1 0 0 
SMALL
USER_CHARGES


@<TRIPOS>ATOM
  1 CL       0.1380     0.2220    -0.0180 Cl    1 <1>  -0.1770 
  2 C       -1.4640     0.9090     0.0880 C.ar  1 <1>   0.1770 
  3 C       -1.6430     2.1160     0.7360 C.ar  1 <1>  -0.1500 
  4 C       -2.5310     0.2370    -0.4770 C.ar  1 <1>  -0.1500 
  5 C       -2.9140     2.6580     0.8180 C.ar  1 <1>  -0.1500 
  6 C       -3.7990     0.7860    -0.3900 C.ar  1 <1>  -0.1500 
  7 C       -4.0080     2.0040     0.2550 C.ar  1 <1>   0.1170 
  8 N       -5.2760     2.5940     0.3780 N.am  1 <1>  -0.5470 
  9 C       -6.4140     2.4380    -0.3680 C.2   1 <1>   0.5690 
 10 O       -6.4770     1.7270    -1.3410 O.2   1 <1>  -0.5700 
 11 C       -7.6540     3.2250     0.0620 C.3   1 <1>  -0.0190 
 12 C       -8.8390     2.2880     0.3700 C.3   1 <1>  -0.1600 
 13 C       -8.0520     4.2670    -1.0020 C.3   1 <1>  -0.1600 
 14 C      -10.0860     3.0760     0.7930 C.3   1 <1>  -0.1600 
 15 C       -9.2990     5.0560    -0.5800 C.3   1 <1>  -0.1600 
 16 C      -10.4700     4.1150    -0.2690 C.3   1 <1>  -0.1600 
 17 H       -0.7960     2.6190     1.1680 H     1 <1>   0.1500 
 18 H       -2.3700    -0.7010    -0.9770 H     1 <1>   0.1500 
 19 H       -3.0540     3.5980     1.3190 H     1 <1>   0.1500 
 20 H       -4.6270     0.2570    -0.8260 H     1 <1>   0.1500 
 21 H       -5.3490     3.2820     1.1230 H     1 <1>   0.3700 
 22 H       -7.4180     3.7560     0.9660 H     1 <1>   0.0800 
 23 H       -8.5640     1.6010     1.1510 H     1 <1>   0.0800 
 24 H       -9.0690     1.7070    -0.5090 H     1 <1>   0.0800 
 25 H       -8.2500     3.7630    -1.9330 H     1 <1>   0.0800 
 26 H       -7.2340     4.9470    -1.1670 H     1 <1>   0.0800 
 27 H       -9.8970     3.5750     1.7280 H     1 <1>   0.0800 
 28 H      -10.9070     2.3960     0.9420 H     1 <1>   0.0800 
 29 H       -9.5810     5.7310    -1.3700 H     1 <1>   0.0800 
 30 H       -9.0740     5.6460     0.2920 H     1 <1>   0.0800 
 31 H      -11.3130     4.6890     0.0760 H     1 <1>   0.0800 
 32 H      -10.7660     3.6070    -1.1710 H     1 <1>   0.0800 
@<TRIPOS>BOND
  1   1   2  1   
  2   2   3  ar  
  3   2   4  ar  
  4   3   5  ar  
  5   3  17  1   
  6   4   6  ar  
  7   4  18  1   
  8   5   7  ar  
  9   5  19  1   
 10   6   7  ar  
 11   6  20  1   
 12   7   8  1   
 13   8   9  am  
 14   8  21  1   
 15   9  10  2   
 16   9  11  1   
 17  11  12  1   
 18  11  13  1   
 19  11  22  1   
 20  12  14  1   
 21  12  23  1   
 22  12  24  1   
 23  13  15  1   
 24  13  25  1   
 25  13  26  1   
 26  14  16  1   
 27  14  27  1   
 28  14  28  1   
 29  15  16  1   
 30  15  29  1   
 31  15  30  1   
 32  16  31  1   
 33  16  32  1   
@<TRIPOS>SUBSTRUCTURE
  1 ****   8 GROUP 4 **** **** 0

# MOE 2024.06 (io_trps.svl 2023.06)
