@<TRIPOS>MOLECULE
NONAME
44 46 1 0 0 
SMALL
USER_CHARGES


@<TRIPOS>ATOM
  1 F        5.5850     3.4050    -1.5690 F     1 <1>  -0.3400 
  2 C        5.6830     2.2530    -0.9140 C.3   1 <1>   1.1640 
  3 F        6.0690     1.3550    -1.8120 F     1 <1>  -0.3400 
  4 F        6.7040     2.4000    -0.0770 F     1 <1>  -0.3400 
  5 C        4.3900     1.8460    -0.1980 C.ar  1 <1>  -0.1440 
  6 C        4.3670     0.7260     0.6410 C.ar  1 <1>   0.1170 
  7 C        3.2220     2.5820    -0.3860 C.ar  1 <1>  -0.1500 
  8 N        5.5220    -0.0410     0.8750 N.am  1 <1>  -0.5470 
  9 C        3.1710     0.3820     1.2650 C.ar  1 <1>  -0.1500 
 10 C        2.0440     2.2230     0.2430 C.ar  1 <1>  -0.1500 
 11 C        5.6960    -1.3680     1.1520 C.2   1 <1>   0.5690 
 12 C        2.0190     1.1190     1.0710 C.ar  1 <1>  -0.1500 
 13 O        4.7970    -2.1700     1.2370 O.2   1 <1>  -0.5700 
 14 C        7.1400    -1.8300     1.3530 C.3   1 <1>   0.1710 
 15 N        8.1420    -0.9230     0.7170 N.3   1 <1>  -0.8100 
 16 C        8.1990    -1.1480    -0.7530 C.3   1 <1>   0.1100 
 17 C        9.4890    -1.1270     1.3010 C.3   1 <1>   0.1100 
 18 C        9.2280    -0.2320    -1.4410 C.3   1 <1>   0.2090 
 19 C       10.5530    -0.2190     0.6530 C.3   1 <1>   0.2090 
 20 N       10.5780    -0.4220    -0.8270 N.pl3 1 <1>  -0.8380 
 21 C       11.6040    -1.0910    -1.4600 C.ar  1 <1>   0.7200 
 22 N       12.7950    -1.0760    -0.8620 N.ar  1 <1>  -0.6200 
 23 N       11.3190    -1.7020    -2.6100 N.ar  1 <1>  -0.6200 
 24 C       13.7650    -1.7090    -1.4740 C.ar  1 <1>   0.1600 
 25 C       12.3080    -2.3280    -3.2000 C.ar  1 <1>   0.1600 
 26 C       13.5720    -2.3620    -2.6660 C.ar  1 <1>  -0.1500 
 27 H        3.2080     3.4470    -1.0290 H     1 <1>   0.1500 
 28 H        6.4360     0.4220     0.7820 H     1 <1>   0.3700 
 29 H        3.1350    -0.4730     1.9160 H     1 <1>   0.1500 
 30 H        1.1480     2.8000     0.0880 H     1 <1>   0.1500 
 31 H        1.1060     0.8310     1.5640 H     1 <1>   0.1500 
 32 H        7.2480    -2.8300     0.9710 H     1 <1>   0.0800 
 33 H        7.3120    -1.8620     2.4140 H     1 <1>   0.0800 
 34 H        7.2320    -0.9670    -1.1890 H     1 <1>   0.0800 
 35 H        8.4670    -2.1700    -0.9590 H     1 <1>   0.0800 
 36 H        9.7930    -2.1520     1.1730 H     1 <1>   0.0800 
 37 H        9.4570    -0.9160     2.3550 H     1 <1>   0.0800 
 38 H        8.9280     0.7930    -1.3180 H     1 <1>   0.0800 
 39 H        9.2450    -0.4360    -2.4970 H     1 <1>   0.0800 
 40 H       11.5110    -0.4300     1.0940 H     1 <1>   0.0800 
 41 H       10.3190     0.8100     0.8620 H     1 <1>   0.0800 
 42 H       14.7380    -1.7060    -1.0140 H     1 <1>   0.1500 
 43 H       12.1050    -2.8260    -4.1320 H     1 <1>   0.1500 
 44 H       14.3740    -2.8770    -3.1590 H     1 <1>   0.1500 
@<TRIPOS>BOND
  1   1   2  1   
  2   2   3  1   
  3   2   4  1   
  4   2   5  1   
  5   5   6  ar  
  6   5   7  ar  
  7   6   8  1   
  8   6   9  ar  
  9   7  10  ar  
 10   7  27  1   
 11   8  11  am  
 12   8  28  1   
 13   9  12  ar  
 14   9  29  1   
 15  10  12  ar  
 16  10  30  1   
 17  11  13  2   
 18  11  14  1   
 19  12  31  1   
 20  14  15  1   
 21  14  32  1   
 22  14  33  1   
 23  15  16  1   
 24  15  17  1   
 25  16  18  1   
 26  16  34  1   
 27  16  35  1   
 28  17  19  1   
 29  17  36  1   
 30  17  37  1   
 31  18  20  1   
 32  18  38  1   
 33  18  39  1   
 34  19  20  1   
 35  19  40  1   
 36  19  41  1   
 37  20  21  1   
 38  21  22  ar  
 39  21  23  ar  
 40  22  24  ar  
 41  23  25  ar  
 42  24  26  ar  
 43  24  42  1   
 44  25  26  ar  
 45  25  43  1   
 46  26  44  1   
@<TRIPOS>SUBSTRUCTURE
  1 ****  16 GROUP 4 **** **** 0

# MOE 2024.06 (io_trps.svl 2023.06)
