@<TRIPOS>MOLECULE
NONAME
44 46 1 0 0 
SMALL
USER_CHARGES


@<TRIPOS>ATOM
  1 BR      -1.3030    -1.8040    -2.4520 Br    1 <1>  -0.1110 
  2 C        0.1460    -2.5460    -1.4170 C.ar  1 <1>   0.1110 
  3 C       -0.0360    -2.8090    -0.0660 C.ar  1 <1>  -0.1440 
  4 C        1.3330    -2.8080    -2.0730 C.ar  1 <1>  -0.1500 
  5 C        1.0290    -3.3500     0.6410 C.ar  1 <1>  -0.1500 
  6 C       -1.3550    -2.5220     0.6220 C.3   1 <1>   0.4870 
  7 C        2.3800    -3.3540    -1.3530 C.ar  1 <1>  -0.1500 
  8 C        2.2260    -3.6220    -0.0020 C.ar  1 <1>  -0.1500 
  9 N       -2.3800    -3.4670     0.0840 N.4   1 <1>  -0.9590 
 10 C       -3.8360    -2.9790     0.4820 C.3   1 <1>   0.3430 
 11 C       -1.9340    -4.9680     0.3590 C.3   1 <1>   0.3430 
 12 C       -5.0030    -4.1160     0.2870 C.3   1 <1>   0.0000 
 13 C       -3.1310    -6.0720     0.1700 C.3   1 <1>   0.0000 
 14 C       -5.3480    -4.3540    -1.2680 C.3   1 <1>   0.3430 
 15 C       -4.4000    -5.4460     0.8040 C.3   1 <1>  -0.1600 
 16 C       -6.2680    -3.7500     1.0750 C.3   1 <1>  -0.2400 
 17 C       -3.4740    -6.3100    -1.3840 C.3   1 <1>   0.3430 
 18 C       -2.7750    -7.3970     0.8590 C.3   1 <1>  -0.2400 
 19 N       -4.8480    -5.7220    -1.8190 N.4   1 <1>  -0.9060 
 20 H        1.4440    -2.5880    -3.1210 H     1 <1>   0.1500 
 21 H        0.9510    -3.5610     1.6950 H     1 <1>   0.1500 
 22 H       -1.6420    -1.5020     0.4220 H     1 <1>   0.0800 
 23 H       -1.2520    -2.6450     1.6880 H     1 <1>   0.0800 
 24 H        3.3180    -3.5660    -1.8410 H     1 <1>   0.1500 
 25 H        3.0520    -4.0410     0.5510 H     1 <1>   0.1500 
 26 H       -2.2880    -3.3260    -0.9330 H     1 <1>   0.4500 
 27 H       -4.0930    -2.0880    -0.0690 H     1 <1>   0.0800 
 28 H       -3.8250    -2.7130     1.5270 H     1 <1>   0.0800 
 29 H       -1.5990    -5.0340     1.3830 H     1 <1>   0.0800 
 30 H       -1.0910    -5.2260    -0.2640 H     1 <1>   0.0800 
 31 H       -4.9120    -3.5560    -1.8470 H     1 <1>   0.0800 
 32 H       -6.4180    -4.2930    -1.4010 H     1 <1>   0.0800 
 33 H       -4.1300    -5.2500     1.8300 H     1 <1>   0.0800 
 34 H       -3.9490    -4.9760     0.1540 H     1 <1>   0.0800 
 35 H       -7.0100    -4.5270     0.9900 H     1 <1>   0.0800 
 36 H       -6.6990    -2.8320     0.7110 H     1 <1>   0.0800 
 37 H       -6.0450    -3.6230     2.1210 H     1 <1>   0.0800 
 38 H       -3.4670    -7.3700    -1.5850 H     1 <1>   0.0800 
 39 H       -2.6920    -5.8700    -1.9830 H     1 <1>   0.0800 
 40 H       -2.5770    -7.2440     1.9060 H     1 <1>   0.0800 
 41 H       -1.9000    -7.8400     0.4140 H     1 <1>   0.0800 
 42 H       -3.5880    -8.1000     0.7780 H     1 <1>   0.0800 
 43 H       -4.9180    -5.7280    -2.8490 H     1 <1>   0.4500 
 44 H       -5.5510    -6.4140    -1.5180 H     1 <1>   0.4500 
@<TRIPOS>BOND
  1   1   2  1   
  2   2   3  ar  
  3   2   4  ar  
  4   3   5  ar  
  5   3   6  1   
  6   4   7  ar  
  7   4  20  1   
  8   5   8  ar  
  9   5  21  1   
 10   6   9  1   
 11   6  22  1   
 12   6  23  1   
 13   7   8  ar  
 14   7  24  1   
 15   8  25  1   
 16   9  10  1   
 17   9  11  1   
 18   9  26  1   
 19  10  12  1   
 20  10  27  1   
 21  10  28  1   
 22  11  13  1   
 23  11  29  1   
 24  11  30  1   
 25  12  14  1   
 26  12  15  1   
 27  12  16  1   
 28  13  15  1   
 29  13  17  1   
 30  13  18  1   
 31  14  19  1   
 32  14  31  1   
 33  14  32  1   
 34  15  33  1   
 35  15  34  1   
 36  16  35  1   
 37  16  36  1   
 38  16  37  1   
 39  17  19  1   
 40  17  38  1   
 41  17  39  1   
 42  18  40  1   
 43  18  41  1   
 44  18  42  1   
 45  19  43  1   
 46  19  44  1   
@<TRIPOS>SUBSTRUCTURE
  1 ****   9 GROUP 4 **** **** 0

# MOE 2024.06 (io_trps.svl 2023.06)
