@<TRIPOS>MOLECULE
NONAME
51 53 1 0 0 
SMALL
USER_CHARGES


@<TRIPOS>ATOM
  1 O        1.6440     1.6150     2.4270 O.2   1 <1>  -0.5700 
  2 C        2.0540     1.4820     1.2920 C.2   1 <1>   0.6340 
  3 O        1.3120     1.9480     0.2820 O.3   1 <1>  -0.4300 
  4 C        3.3150     0.8420     0.9750 C.ar  1 <1>   0.0860 
  5 C        0.0730     2.5820     0.5070 C.3   1 <1>   0.1200 
  6 C        4.1370     0.3280     1.9810 C.ar  1 <1>  -0.1500 
  7 C        3.7750     0.7060    -0.3380 C.ar  1 <1>  -0.1500 
  8 C       -0.5040     2.9870    -0.8450 C.3   1 <1>  -0.2400 
  9 C        5.3420    -0.2840     1.6960 C.ar  1 <1>  -0.1500 
 10 C        4.9800     0.0950    -0.6260 C.ar  1 <1>  -0.1500 
 11 C        5.7870    -0.4150     0.3860 C.ar  1 <1>   0.1170 
 12 N        7.0200    -1.0300     0.1500 N.am  1 <1>  -0.5470 
 13 C        7.5470    -1.5940    -0.9860 C.2   1 <1>   0.5690 
 14 O        6.9230    -1.7200    -2.0110 O.2   1 <1>  -0.5700 
 15 C        8.9760    -2.1520    -0.9190 C.3   1 <1>   0.1710 
 16 N       10.0820    -1.1550    -1.0000 N.3   1 <1>  -0.8100 
 17 C       11.3860    -1.8480    -1.1500 C.3   1 <1>   0.1100 
 18 C       10.1320    -0.2040     0.1370 C.3   1 <1>   0.1100 
 19 C       12.5730    -0.8730    -1.2600 C.3   1 <1>   0.2090 
 20 C       11.3120     0.7840     0.0320 C.3   1 <1>   0.2090 
 21 N       12.6030     0.0560    -0.0920 N.pl3 1 <1>  -0.8380 
 22 C       13.7530     0.7890     0.1310 C.ar  1 <1>   0.4100 
 23 N       14.4920     1.1120    -0.9250 N.ar  1 <1>  -0.6200 
 24 C       14.0820     1.1610     1.4320 C.ar  1 <1>  -0.1500 
 25 C       15.5770     1.8250    -0.6760 C.ar  1 <1>   0.1600 
 26 C       15.2130     1.9030     1.6780 C.ar  1 <1>  -0.1500 
 27 C       15.9790     2.2420     0.5810 C.ar  1 <1>  -0.1500 
 28 H        0.2400     3.4440     1.1310 H     1 <1>   0.0800 
 29 H       -0.5770     1.8890     1.0140 H     1 <1>   0.0800 
 30 H        3.8160     0.4130     3.0060 H     1 <1>   0.1500 
 31 H        3.1780     1.0850    -1.1500 H     1 <1>   0.1500 
 32 H        0.1620     3.6690    -1.3420 H     1 <1>   0.0800 
 33 H       -1.4510     3.4740    -0.7040 H     1 <1>   0.0800 
 34 H       -0.6530     2.1170    -1.4590 H     1 <1>   0.0800 
 35 H        5.9390    -0.6680     2.5020 H     1 <1>   0.1500 
 36 H        5.2930     0.0210    -1.6520 H     1 <1>   0.1500 
 37 H        7.6350    -1.0740     0.9580 H     1 <1>   0.3700 
 38 H        9.0770    -2.8340    -1.7450 H     1 <1>   0.0800 
 39 H        9.0800    -2.7270    -0.0160 H     1 <1>   0.0800 
 40 H       11.3640    -2.4560    -2.0380 H     1 <1>   0.0800 
 41 H       11.5550    -2.4930    -0.3060 H     1 <1>   0.0800 
 42 H       10.2230    -0.7460     1.0630 H     1 <1>   0.0800 
 43 H        9.2260     0.3740     0.1610 H     1 <1>   0.0800 
 44 H       12.4860    -0.3040    -2.1700 H     1 <1>   0.0800 
 45 H       13.4940    -1.4270    -1.2990 H     1 <1>   0.0800 
 46 H       11.3320     1.4150     0.9020 H     1 <1>   0.0800 
 47 H       11.1740     1.4100    -0.8330 H     1 <1>   0.0800 
 48 H       13.4400     0.8510     2.2330 H     1 <1>   0.1500 
 49 H       16.1820     2.0940    -1.5240 H     1 <1>   0.1500 
 50 H       15.4900     2.2030     2.6740 H     1 <1>   0.1500 
 51 H       16.8760     2.8210     0.6990 H     1 <1>   0.1500 
@<TRIPOS>BOND
  1   1   2  2   
  2   2   3  1   
  3   2   4  1   
  4   3   5  1   
  5   4   6  ar  
  6   4   7  ar  
  7   5   8  1   
  8   5  28  1   
  9   5  29  1   
 10   6   9  ar  
 11   6  30  1   
 12   7  10  ar  
 13   7  31  1   
 14   8  32  1   
 15   8  33  1   
 16   8  34  1   
 17   9  11  ar  
 18   9  35  1   
 19  10  11  ar  
 20  10  36  1   
 21  11  12  1   
 22  12  13  am  
 23  12  37  1   
 24  13  14  2   
 25  13  15  1   
 26  15  16  1   
 27  15  38  1   
 28  15  39  1   
 29  16  17  1   
 30  16  18  1   
 31  17  19  1   
 32  17  40  1   
 33  17  41  1   
 34  18  20  1   
 35  18  42  1   
 36  18  43  1   
 37  19  21  1   
 38  19  44  1   
 39  19  45  1   
 40  20  21  1   
 41  20  46  1   
 42  20  47  1   
 43  21  22  1   
 44  22  23  ar  
 45  22  24  ar  
 46  23  25  ar  
 47  24  26  ar  
 48  24  48  1   
 49  25  27  ar  
 50  25  49  1   
 51  26  27  ar  
 52  26  50  1   
 53  27  51  1   
@<TRIPOS>SUBSTRUCTURE
  1 ****  12 GROUP 4 **** **** 0

# MOE 2024.06 (io_trps.svl 2023.06)
