@<TRIPOS>MOLECULE
NONAME
46 47 1 0 0 
SMALL
USER_CHARGES


@<TRIPOS>ATOM
  1 S       -0.0360     0.1930    -1.8600 S.o2  1 <1>   1.4470 
  2 O        0.5950    -0.8130    -2.6890 O.2   1 <1>  -0.6500 
  3 O       -0.9100     1.1660    -2.4780 O.2   1 <1>  -0.6500 
  4 N        1.2220     1.0500    -1.1110 N.am  1 <1>  -0.8490 
  5 C       -0.8970    -0.5890    -0.4670 C.ar  1 <1>  -0.0090 
  6 C        1.8030     2.0430    -2.0190 C.3   1 <1>   0.1960 
  7 C        2.2450     0.1530    -0.5630 C.3   1 <1>   0.1960 
  8 C       -1.2270    -1.9390    -0.4890 C.ar  1 <1>  -0.1500 
  9 C       -1.2520     0.1490     0.6570 C.ar  1 <1>  -0.1500 
 10 C        2.8350     2.9000    -1.2820 C.3   1 <1>  -0.1600 
 11 C        3.2800     0.9520     0.2310 C.3   1 <1>  -0.1600 
 12 C       -1.8820    -2.5360     0.5750 C.ar  1 <1>  -0.1500 
 13 C       -1.9070    -0.4390     1.7260 C.ar  1 <1>  -0.1500 
 14 C        3.9340     2.0340    -0.6450 C.3   1 <1>  -0.0190 
 15 C       -2.2220    -1.7850     1.6850 C.ar  1 <1>  -0.1500 
 16 C        4.9280     2.8800     0.1470 C.2   1 <1>   0.5690 
 17 O        4.5420     3.4780     1.1220 O.2   1 <1>  -0.5700 
 18 N        6.2170     2.9230    -0.2900 N.am  1 <1>  -0.7300 
 19 C        7.3540     3.6540     0.2790 C.3   1 <1>   0.3000 
 20 C        7.6270     3.1620     1.7000 C.3   1 <1>  -0.2400 
 21 C        8.5560     3.3440    -0.6100 C.3   1 <1>  -0.2400 
 22 C        7.0690     5.1560     0.2510 C.3   1 <1>  -0.2400 
 23 H        1.0270     2.6910    -2.3930 H     1 <1>   0.0800 
 24 H        2.2590     1.5460    -2.8600 H     1 <1>   0.0800 
 25 H        2.7310    -0.3840    -1.3620 H     1 <1>   0.0800 
 26 H        1.7850    -0.5670     0.0940 H     1 <1>   0.0800 
 27 H       -0.9680    -2.5320    -1.3510 H     1 <1>   0.1500 
 28 H       -1.0090     1.1980     0.6940 H     1 <1>   0.1500 
 29 H        2.3310     3.4680    -0.5190 H     1 <1>   0.0800 
 30 H        3.2770     3.5980    -1.9700 H     1 <1>   0.0800 
 31 H        4.0350     0.2860     0.6080 H     1 <1>   0.0800 
 32 H        2.7940     1.4090     1.0760 H     1 <1>   0.0800 
 33 H       -2.1280    -3.5840     0.5380 H     1 <1>   0.1500 
 34 H       -2.1710     0.1510     2.5870 H     1 <1>   0.1500 
 35 H        4.4670     1.5400    -1.4370 H     1 <1>   0.0800 
 36 H       -2.7310    -2.2460     2.5140 H     1 <1>   0.1500 
 37 H        6.4660     2.3950    -1.1220 H     1 <1>   0.3700 
 38 H        6.8050     3.4020     2.3500 H     1 <1>   0.0800 
 39 H        8.5070     3.6380     2.0930 H     1 <1>   0.0800 
 40 H        7.7810     2.0980     1.7090 H     1 <1>   0.0800 
 41 H        8.7650     2.2890    -0.6120 H     1 <1>   0.0800 
 42 H        9.4270     3.8560    -0.2410 H     1 <1>   0.0800 
 43 H        8.3790     3.6750    -1.6180 H     1 <1>   0.0800 
 44 H        7.9290     5.7010     0.5940 H     1 <1>   0.0800 
 45 H        6.8350     5.4780    -0.7470 H     1 <1>   0.0800 
 46 H        6.2460     5.3980     0.8990 H     1 <1>   0.0800 
@<TRIPOS>BOND
  1   1   2  2   
  2   1   3  2   
  3   1   4  am  
  4   1   5  1   
  5   4   6  1   
  6   4   7  1   
  7   5   8  ar  
  8   5   9  ar  
  9   6  10  1   
 10   6  23  1   
 11   6  24  1   
 12   7  11  1   
 13   7  25  1   
 14   7  26  1   
 15   8  12  ar  
 16   8  27  1   
 17   9  13  ar  
 18   9  28  1   
 19  10  14  1   
 20  10  29  1   
 21  10  30  1   
 22  11  14  1   
 23  11  31  1   
 24  11  32  1   
 25  12  15  ar  
 26  12  33  1   
 27  13  15  ar  
 28  13  34  1   
 29  14  16  1   
 30  14  35  1   
 31  15  36  1   
 32  16  17  2   
 33  16  18  am  
 34  18  19  1   
 35  18  37  1   
 36  19  20  1   
 37  19  21  1   
 38  19  22  1   
 39  20  38  1   
 40  20  39  1   
 41  20  40  1   
 42  21  41  1   
 43  21  42  1   
 44  21  43  1   
 45  22  44  1   
 46  22  45  1   
 47  22  46  1   
@<TRIPOS>SUBSTRUCTURE
  1 ****  11 GROUP 4 **** **** 0

# MOE 2024.06 (io_trps.svl 2023.06)
