@<TRIPOS>MOLECULE
NONAME
42 45 1 0 0 
SMALL
USER_CHARGES


@<TRIPOS>ATOM
  1 CL       0.1330     0.8520     1.8710 Cl    1 <1>  -0.1770 
  2 C       -0.1310     2.1250     0.7060 C.ar  1 <1>   0.1770 
  3 C       -1.3170     2.8300     0.7360 C.ar  1 <1>  -0.1500 
  4 C        0.8530     2.4030    -0.2250 C.ar  1 <1>  -0.1500 
  5 C       -1.5370     3.8460    -0.1870 C.ar  1 <1>   0.1000 
  6 C        0.6390     3.4140    -1.1470 C.ar  1 <1>  -0.1500 
  7 N       -2.7160     4.5810    -0.1910 N.pl3 1 <1>  -0.8380 
  8 C       -0.5490     4.1270    -1.1240 C.ar  1 <1>  -0.1500 
  9 C       -2.9170     5.5150     0.9560 C.3   1 <1>   0.2090 
 10 C       -3.9520     3.8510    -0.6010 C.3   1 <1>   0.2090 
 11 C       -4.0620     6.5070     0.6570 C.3   1 <1>   0.3430 
 12 C       -5.0970     4.8430    -0.9000 C.3   1 <1>   0.3430 
 13 N       -5.3310     5.8130     0.2320 N.4   1 <1>  -0.9590 
 14 C       -6.4430     6.7600    -0.0520 C.3   1 <1>   0.4810 
 15 C       -7.7680     6.0160     0.1210 C.2   1 <1>   0.0330 
 16 N       -7.8140     5.1110     1.1520 N.2   1 <1>  -0.6210 
 17 C       -8.8410     6.2300    -0.6870 C.2   1 <1>  -0.1360 
 18 C       -8.9450     4.4990     1.3130 C.2   1 <1>   0.6510 
 19 C      -10.0550     5.5260    -0.4790 C.2   1 <1>   0.6160 
 20 S       -9.2160     3.2990     2.5770 S.3   1 <1>  -0.2420 
 21 N      -10.0860     4.6410     0.5700 N.am  1 <1>  -0.2290 
 22 O      -11.0280     5.6870    -1.1950 O.2   1 <1>  -0.5700 
 23 C      -10.8900     3.0400     2.0500 C.2   1 <1>  -0.0490 
 24 C      -11.1570     3.8240     0.9970 C.2   1 <1>  -0.0410 
 25 H       -2.0580     2.5880     1.4720 H     1 <1>   0.1500 
 26 H        1.7670     1.8370    -0.2260 H     1 <1>   0.1500 
 27 H        1.3940     3.6440    -1.8800 H     1 <1>   0.1500 
 28 H       -0.7180     4.9120    -1.8380 H     1 <1>   0.1500 
 29 H       -2.0060     6.0620     1.1310 H     1 <1>   0.0800 
 30 H       -3.1420     4.9530     1.8460 H     1 <1>   0.0800 
 31 H       -4.2500     3.1730     0.1800 H     1 <1>   0.0800 
 32 H       -3.7430     3.2690    -1.4830 H     1 <1>   0.0800 
 33 H       -3.7310     7.1650    -0.1290 H     1 <1>   0.0800 
 34 H       -4.2450     7.1030     1.5350 H     1 <1>   0.0800 
 35 H       -5.9980     4.2860    -1.0980 H     1 <1>   0.0800 
 36 H       -4.8390     5.3870    -1.7930 H     1 <1>   0.0800 
 37 H       -5.6940     5.2560     1.0260 H     1 <1>   0.4500 
 38 H       -6.3570     7.1690    -1.0450 H     1 <1>   0.0800 
 39 H       -6.4160     7.5690     0.6590 H     1 <1>   0.0800 
 40 H       -8.8410     6.9280    -1.5030 H     1 <1>   0.1500 
 41 H      -11.4770     2.3240     2.6010 H     1 <1>   0.1500 
 42 H      -12.0920     3.8870     0.4600 H     1 <1>   0.1500 
@<TRIPOS>BOND
  1   1   2  1   
  2   2   3  ar  
  3   2   4  ar  
  4   3   5  ar  
  5   3  25  1   
  6   4   6  ar  
  7   4  26  1   
  8   5   7  1   
  9   5   8  ar  
 10   6   8  ar  
 11   6  27  1   
 12   7   9  1   
 13   7  10  1   
 14   8  28  1   
 15   9  11  1   
 16   9  29  1   
 17   9  30  1   
 18  10  12  1   
 19  10  31  1   
 20  10  32  1   
 21  11  13  1   
 22  11  33  1   
 23  11  34  1   
 24  12  13  1   
 25  12  35  1   
 26  12  36  1   
 27  13  14  1   
 28  13  37  1   
 29  14  15  1   
 30  14  38  1   
 31  14  39  1   
 32  15  16  1   
 33  15  17  2   
 34  16  18  2   
 35  17  19  1   
 36  17  40  1   
 37  18  20  1   
 38  18  21  1   
 39  19  21  am  
 40  19  22  2   
 41  20  23  1   
 42  21  24  1   
 43  23  24  2   
 44  23  41  1   
 45  24  42  1   
@<TRIPOS>SUBSTRUCTURE
  1 ****  12 GROUP 4 **** **** 0

# MOE 2024.06 (io_trps.svl 2023.06)
