@<TRIPOS>MOLECULE
NONAME
50 51 1 0 0 
SMALL
USER_CHARGES


@<TRIPOS>ATOM
  1 CL      -0.4990    -0.7710    -1.9620 Cl    1 <1>  -0.1770 
  2 C       -1.9580    -1.2240    -1.1160 C.ar  1 <1>   0.1770 
  3 C       -2.4910    -0.3610    -0.1780 C.ar  1 <1>  -0.1500 
  4 C       -2.5510    -2.4400    -1.3950 C.ar  1 <1>  -0.1500 
  5 C       -3.6510    -0.7100     0.4950 C.ar  1 <1>  -0.1440 
  6 C       -3.7110    -2.8070    -0.7320 C.ar  1 <1>  -0.1440 
  7 C       -4.2660    -1.9260     0.1970 C.ar  1 <1>   0.0830 
  8 C       -4.2080     0.2390     1.5470 C.3   1 <1>  -0.0960 
  9 C       -4.3320    -4.1640    -1.0310 C.3   1 <1>  -0.0960 
 10 O       -5.4150    -2.2590     0.8270 O.3   1 <1>  -0.3630 
 11 C       -6.6000    -1.8740     0.1780 C.3   1 <1>   0.1200 
 12 C       -7.7710    -2.3310     1.0520 C.3   1 <1>   0.3430 
 13 N       -9.1100    -2.0530     0.4300 N.4   1 <1>  -0.9590 
 14 C       -9.3950    -0.5900     0.3230 C.3   1 <1>   0.3430 
 15 C      -10.1820    -2.7580     1.1890 C.3   1 <1>   0.3430 
 16 C      -10.7050    -0.3810    -0.4340 C.3   1 <1>  -0.1600 
 17 C      -11.5130    -2.6060     0.4550 C.3   1 <1>  -0.1600 
 18 C      -11.8810    -1.1280     0.2240 C.3   1 <1>  -0.0190 
 19 C      -13.1470    -1.0100    -0.6210 C.2   1 <1>   0.6590 
 20 O      -13.1720    -1.4000    -1.7590 O.2   1 <1>  -0.5700 
 21 O      -14.1940    -0.4620    -0.0260 O.3   1 <1>  -0.4300 
 22 C      -15.4210    -0.3000    -0.7010 C.3   1 <1>   0.1200 
 23 C      -16.4070     0.3540     0.2600 C.3   1 <1>  -0.2400 
 24 H       -1.9910     0.5710     0.0170 H     1 <1>   0.1500 
 25 H       -2.0960    -3.0870    -2.1240 H     1 <1>   0.1500 
 26 H       -3.4480     0.9220     1.8820 H     1 <1>   0.0800 
 27 H       -4.5550    -0.3140     2.4010 H     1 <1>   0.0800 
 28 H       -5.0220     0.8080     1.1380 H     1 <1>   0.0800 
 29 H       -3.5980    -4.8320    -1.4450 H     1 <1>   0.0800 
 30 H       -5.1340    -4.0570    -1.7380 H     1 <1>   0.0800 
 31 H       -4.7110    -4.6100    -0.1290 H     1 <1>   0.0800 
 32 H       -6.6230    -2.3530    -0.7850 H     1 <1>   0.0800 
 33 H       -6.5820    -0.8050     0.0640 H     1 <1>   0.0800 
 34 H       -7.7050    -1.8390     2.0080 H     1 <1>   0.0800 
 35 H       -7.6690    -3.3920     1.2120 H     1 <1>   0.0800 
 36 H       -9.1150    -2.4420    -0.5240 H     1 <1>   0.4500 
 37 H       -8.5990    -0.0900    -0.2060 H     1 <1>   0.0800 
 38 H       -9.4720    -0.1580     1.3080 H     1 <1>   0.0800 
 39 H      -10.2660    -2.3420     2.1810 H     1 <1>   0.0800 
 40 H       -9.9440    -3.8070     1.2810 H     1 <1>   0.0800 
 41 H      -10.5810    -0.7100    -1.4520 H     1 <1>   0.0800 
 42 H      -10.9280     0.6720    -0.4660 H     1 <1>   0.0800 
 43 H      -12.2890    -3.0790     1.0320 H     1 <1>   0.0800 
 44 H      -11.4580    -3.1240    -0.4880 H     1 <1>   0.0800 
 45 H      -12.0820    -0.6730     1.1790 H     1 <1>   0.0800 
 46 H      -15.7710    -1.2700    -1.0140 H     1 <1>   0.0800 
 47 H      -15.2560     0.3200    -1.5670 H     1 <1>   0.0800 
 48 H      -16.5570    -0.2700     1.1230 H     1 <1>   0.0800 
 49 H      -17.3540     0.4900    -0.2300 H     1 <1>   0.0800 
 50 H      -16.0420     1.3170     0.5700 H     1 <1>   0.0800 
@<TRIPOS>BOND
  1   1   2  1   
  2   2   3  ar  
  3   2   4  ar  
  4   3   5  ar  
  5   3  24  1   
  6   4   6  ar  
  7   4  25  1   
  8   5   7  ar  
  9   5   8  1   
 10   6   7  ar  
 11   6   9  1   
 12   7  10  1   
 13   8  26  1   
 14   8  27  1   
 15   8  28  1   
 16   9  29  1   
 17   9  30  1   
 18   9  31  1   
 19  10  11  1   
 20  11  12  1   
 21  11  32  1   
 22  11  33  1   
 23  12  13  1   
 24  12  34  1   
 25  12  35  1   
 26  13  14  1   
 27  13  15  1   
 28  13  36  1   
 29  14  16  1   
 30  14  37  1   
 31  14  38  1   
 32  15  17  1   
 33  15  39  1   
 34  15  40  1   
 35  16  18  1   
 36  16  41  1   
 37  16  42  1   
 38  17  18  1   
 39  17  43  1   
 40  17  44  1   
 41  18  19  1   
 42  18  45  1   
 43  19  20  2   
 44  19  21  1   
 45  21  22  1   
 46  22  23  1   
 47  22  46  1   
 48  22  47  1   
 49  23  48  1   
 50  23  49  1   
 51  23  50  1   
@<TRIPOS>SUBSTRUCTURE
  1 ****  13 GROUP 4 **** **** 0

# MOE 2024.06 (io_trps.svl 2023.06)
