@<TRIPOS>MOLECULE
NONAME
35 35 1 0 0 
SMALL
USER_CHARGES


@<TRIPOS>ATOM
  1 CL       0.4230    -0.0560    -0.5850 Cl    1 <1>  -0.1770 
  2 C        0.1730     1.6560    -0.3050 C.ar  1 <1>   0.1770 
  3 C        1.2590     2.5230    -0.2620 C.ar  1 <1>   0.0820 
  4 C       -1.1190     2.1070    -0.1290 C.ar  1 <1>  -0.1500 
  5 O        2.5070     2.0010    -0.4460 O.3   1 <1>  -0.3630 
  6 C        1.0230     3.8760    -0.0310 C.ar  1 <1>  -0.1500 
  7 C       -1.3630     3.4560     0.0950 C.ar  1 <1>   0.1170 
  8 C        3.6590     2.8140    -0.4400 C.3   1 <1>   0.0400 
  9 C       -0.2780     4.3400     0.1490 C.ar  1 <1>   0.0830 
 10 N       -2.6570     3.9790     0.2860 N.am  1 <1>  -0.5470 
 11 O       -0.5660     5.6570     0.3850 O.3   1 <1>  -0.3630 
 12 C       -3.9000     3.4900     0.0300 C.2   1 <1>   0.6900 
 13 C        0.4400     6.6480     0.3710 C.3   1 <1>   0.0400 
 14 O       -4.0780     2.4140    -0.5040 O.2   1 <1>  -0.5700 
 15 N       -4.9560     4.2600     0.3910 N.am  1 <1>  -0.7300 
 16 C       -6.3730     3.9070     0.1680 C.3   1 <1>   0.1400 
 17 C       -7.1330     5.1530    -0.2880 C.3   1 <1>  -0.1600 
 18 C       -8.6130     4.8430    -0.5350 C.3   1 <1>  -0.2400 
 19 H       -1.9230     1.3970    -0.1660 H     1 <1>   0.1500 
 20 H        1.8470     4.5570     0.0110 H     1 <1>   0.1500 
 21 H        4.5120     2.1820    -0.6160 H     1 <1>   0.0800 
 22 H        3.7490     3.2870     0.5210 H     1 <1>   0.0800 
 23 H        3.5780     3.5420    -1.2270 H     1 <1>   0.0800 
 24 H       -2.6350     4.9650     0.5340 H     1 <1>   0.3700 
 25 H       -0.0280     7.6010     0.5420 H     1 <1>   0.0800 
 26 H        0.9200     6.6460    -0.5920 H     1 <1>   0.0800 
 27 H        1.1450     6.4430     1.1570 H     1 <1>   0.0800 
 28 H       -4.7930     5.0890     0.9570 H     1 <1>   0.3700 
 29 H       -6.7920     3.5270     1.0840 H     1 <1>   0.0800 
 30 H       -6.4460     3.1380    -0.5840 H     1 <1>   0.0800 
 31 H       -6.6940     5.5200    -1.2000 H     1 <1>   0.0800 
 32 H       -7.0550     5.9180     0.4650 H     1 <1>   0.0800 
 33 H       -8.7170     4.0930    -1.2990 H     1 <1>   0.0800 
 34 H       -9.1260     5.7320    -0.8580 H     1 <1>   0.0800 
 35 H       -9.0800     4.4870     0.3670 H     1 <1>   0.0800 
@<TRIPOS>BOND
  1   1   2  1   
  2   2   3  ar  
  3   2   4  ar  
  4   3   5  1   
  5   3   6  ar  
  6   4   7  ar  
  7   4  19  1   
  8   5   8  1   
  9   6   9  ar  
 10   6  20  1   
 11   7   9  ar  
 12   7  10  1   
 13   8  21  1   
 14   8  22  1   
 15   8  23  1   
 16   9  11  1   
 17  10  12  am  
 18  10  24  1   
 19  11  13  1   
 20  12  14  2   
 21  12  15  am  
 22  13  25  1   
 23  13  26  1   
 24  13  27  1   
 25  15  16  1   
 26  15  28  1   
 27  16  17  1   
 28  16  29  1   
 29  16  30  1   
 30  17  18  1   
 31  17  31  1   
 32  17  32  1   
 33  18  33  1   
 34  18  34  1   
 35  18  35  1   
@<TRIPOS>SUBSTRUCTURE
  1 ****   7 GROUP 4 **** **** 0

# MOE 2024.06 (io_trps.svl 2023.06)
