@<TRIPOS>MOLECULE
NONAME
40 42 1 0 0 
SMALL
USER_CHARGES


@<TRIPOS>ATOM
  1 O       -1.1580    -0.5120    -1.2450 O.co2 1 <1>  -0.9000 
  2 C       -1.9800     0.4160    -1.1590 C.2   1 <1>   0.9060 
  3 O       -2.4330     0.9390    -2.1880 O.co2 1 <1>  -0.9000 
  4 C       -2.2600     0.9850     0.2430 C.3   1 <1>  -0.1860 
  5 C       -3.7470     1.1230     0.6560 C.3   1 <1>  -0.1860 
  6 C       -1.5340     2.3240     0.5410 C.3   1 <1>   0.0580 
  7 C       -4.4930    -0.2080     0.7940 C.2   1 <1>   0.9060 
  8 C       -4.4710     2.2020    -0.1810 C.3   1 <1>   0.0580 
  9 C       -2.3420     3.5690     0.1230 C.2   1 <1>  -0.2760 
 10 C       -0.1130     2.3190    -0.0710 C.3   1 <1>  -0.1600 
 11 O       -5.3360    -0.5780    -0.0360 O.co2 1 <1>  -0.9000 
 12 O       -4.3200    -0.8490     1.8420 O.co2 1 <1>  -0.9000 
 13 C       -3.6250     3.4930    -0.2870 C.2   1 <1>  -0.2760 
 14 C       -5.8350     2.5080     0.4870 C.3   1 <1>  -0.1600 
 15 C       -1.5250     4.8610     0.2620 C.3   1 <1>  -0.0220 
 16 C        0.6510     3.6200     0.1700 C.3   1 <1>  -0.1600 
 17 C       -4.4240     4.6270    -0.9350 C.3   1 <1>  -0.0220 
 18 C       -6.5960     3.6640    -0.1670 C.3   1 <1>  -0.1600 
 19 C       -0.1540     4.7830    -0.4100 C.3   1 <1>  -0.1600 
 20 C       -5.7240     4.9180    -0.1880 C.3   1 <1>  -0.1600 
 21 H       -1.8360     0.2580     0.9100 H     1 <1>   0.0800 
 22 H       -3.7240     1.4980     1.6610 H     1 <1>   0.0800 
 23 H       -1.4190     2.3850     1.6080 H     1 <1>   0.0800 
 24 H       -4.6420     1.8160    -1.1720 H     1 <1>   0.0800 
 25 H       -0.1840     2.1820    -1.1360 H     1 <1>   0.0800 
 26 H        0.4410     1.4850     0.3240 H     1 <1>   0.0800 
 27 H       -5.6690     2.7460     1.5220 H     1 <1>   0.0800 
 28 H       -6.4560     1.6300     0.4510 H     1 <1>   0.0800 
 29 H       -1.3790     5.0370     1.3130 H     1 <1>   0.0800 
 30 H       -2.0380     5.7170    -0.1200 H     1 <1>   0.0800 
 31 H        1.6110     3.5640    -0.3130 H     1 <1>   0.0800 
 32 H        0.8060     3.7620     1.2250 H     1 <1>   0.0800 
 33 H       -4.6600     4.3200    -1.9390 H     1 <1>   0.0800 
 34 H       -3.8650     5.5340    -1.0240 H     1 <1>   0.0800 
 35 H       -7.5030     3.8530     0.3800 H     1 <1>   0.0800 
 36 H       -6.8600     3.3840    -1.1720 H     1 <1>   0.0800 
 37 H        0.3770     5.7050    -0.2610 H     1 <1>   0.0800 
 38 H       -0.2920     4.6350    -1.4680 H     1 <1>   0.0800 
 39 H       -6.2510     5.7190    -0.6750 H     1 <1>   0.0800 
 40 H       -5.4930     5.2200     0.8190 H     1 <1>   0.0800 
@<TRIPOS>BOND
  1   1   2  ar  
  2   2   3  ar  
  3   2   4  1   
  4   4   5  1   
  5   4   6  1   
  6   4  21  1   
  7   5   7  1   
  8   5   8  1   
  9   5  22  1   
 10   6   9  1   
 11   6  10  1   
 12   6  23  1   
 13   7  11  ar  
 14   7  12  ar  
 15   8  13  1   
 16   8  14  1   
 17   8  24  1   
 18   9  13  2   
 19   9  15  1   
 20  10  16  1   
 21  10  25  1   
 22  10  26  1   
 23  13  17  1   
 24  14  18  1   
 25  14  27  1   
 26  14  28  1   
 27  15  19  1   
 28  15  29  1   
 29  15  30  1   
 30  16  19  1   
 31  16  31  1   
 32  16  32  1   
 33  17  20  1   
 34  17  33  1   
 35  17  34  1   
 36  18  20  1   
 37  18  35  1   
 38  18  36  1   
 39  19  37  1   
 40  19  38  1   
 41  20  39  1   
 42  20  40  1   
@<TRIPOS>SUBSTRUCTURE
  1 ****   8 GROUP 4 **** **** 0

# MOE 2024.06 (io_trps.svl 2023.06)
