@<TRIPOS>MOLECULE
NONAME
35 37 1 0 0 
SMALL
USER_CHARGES


@<TRIPOS>ATOM
  1 O       -0.7110    -2.3510    -2.3580 O.2   1 <1>  -0.5700 
  2 C        0.0630    -2.1600    -1.4480 C.2   1 <1>   0.5690 
  3 N       -0.3240    -1.7170    -0.2250 N.am  1 <1>  -0.5790 
  4 C        1.5550    -2.4260    -1.6620 C.3   1 <1>   0.1710 
  5 C       -1.6860    -1.3830     0.2060 C.3   1 <1>   0.0490 
  6 N        2.4440    -1.6780    -0.7240 N.3   1 <1>  -0.8100 
  7 C       -1.8650    -0.2160     1.1180 C.3   1 <1>  -0.2000 
  8 C       -2.0450    -1.6110     1.6360 C.3   1 <1>  -0.2000 
  9 C        3.7970    -2.2660    -0.7020 C.3   1 <1>   0.2530 
 10 C        2.5190    -0.2510    -1.0780 C.3   1 <1>   0.1100 
 11 C        4.7780    -1.4450     0.1330 C.ar  1 <1>  -0.1430 
 12 C        3.2020     0.5240     0.0530 C.3   1 <1>  -0.0170 
 13 C        4.5110    -0.1250     0.4760 C.ar  1 <1>  -0.1430 
 14 C        5.9690    -2.0260     0.5420 C.ar  1 <1>  -0.1500 
 15 C        5.4320     0.5970     1.2190 C.ar  1 <1>  -0.1500 
 16 C        6.8870    -1.3030     1.2830 C.ar  1 <1>  -0.1500 
 17 C        6.6190     0.0110     1.6210 C.ar  1 <1>  -0.1500 
 18 H        0.4340    -1.5510     0.4460 H     1 <1>   0.3700 
 19 H        1.8080    -2.1870    -2.6790 H     1 <1>   0.0800 
 20 H        1.7040    -3.4820    -1.5250 H     1 <1>   0.0800 
 21 H       -2.4300    -1.5690    -0.5530 H     1 <1>   0.1000 
 22 H       -2.7390     0.4000     1.0010 H     1 <1>   0.1000 
 23 H       -0.9980     0.3460     1.4180 H     1 <1>   0.1000 
 24 H       -1.3030    -2.0270     2.2950 H     1 <1>   0.1000 
 25 H       -3.0410    -1.9440     1.8690 H     1 <1>   0.1000 
 26 H        4.1790    -2.3330    -1.7070 H     1 <1>   0.0800 
 27 H        3.7390    -3.2600    -0.2950 H     1 <1>   0.0800 
 28 H        1.5310     0.1520    -1.2290 H     1 <1>   0.0800 
 29 H        3.0780    -0.1280    -1.9900 H     1 <1>   0.0800 
 30 H        2.5410     0.5600     0.9000 H     1 <1>   0.0800 
 31 H        3.3820     1.5330    -0.2720 H     1 <1>   0.0800 
 32 H        6.1890    -3.0470     0.2830 H     1 <1>   0.1500 
 33 H        5.2270     1.6170     1.4890 H     1 <1>   0.1500 
 34 H        7.8090    -1.7610     1.5960 H     1 <1>   0.1500 
 35 H        7.3300     0.5750     2.1970 H     1 <1>   0.1500 
@<TRIPOS>BOND
  1   1   2  2   
  2   2   3  am  
  3   2   4  1   
  4   3   5  1   
  5   3  18  1   
  6   4   6  1   
  7   4  19  1   
  8   4  20  1   
  9   5   7  1   
 10   5   8  1   
 11   5  21  1   
 12   6   9  1   
 13   6  10  1   
 14   7   8  1   
 15   7  22  1   
 16   7  23  1   
 17   8  24  1   
 18   8  25  1   
 19   9  11  1   
 20   9  26  1   
 21   9  27  1   
 22  10  12  1   
 23  10  28  1   
 24  10  29  1   
 25  11  13  ar  
 26  11  14  ar  
 27  12  13  1   
 28  12  30  1   
 29  12  31  1   
 30  13  15  ar  
 31  14  16  ar  
 32  14  32  1   
 33  15  17  ar  
 34  15  33  1   
 35  16  17  ar  
 36  16  34  1   
 37  17  35  1   
@<TRIPOS>SUBSTRUCTURE
  1 ****   6 GROUP 4 **** **** 0

# MOE 2024.06 (io_trps.svl 2023.06)
