@<TRIPOS>MOLECULE
NONAME
56 57 1 0 0 
SMALL
USER_CHARGES


@<TRIPOS>ATOM
  1 O       -6.2460     5.3950     1.2390 O.3   1 <1>  -0.3630 
  2 C       -7.5720     5.3520     0.9410 C.ar  1 <1>   0.0830 
  3 C       -5.3010     5.2310     0.2010 C.3   1 <1>   0.1200 
  4 C       -8.1740     4.3300     0.1930 C.ar  1 <1>   0.0830 
  5 C       -8.3410     6.3890     1.4380 C.ar  1 <1>  -0.1500 
  6 C       -4.4520     3.9930     0.5090 C.3   1 <1>   0.2000 
  7 O       -7.4160     3.2820    -0.2520 O.3   1 <1>  -0.3630 
  8 C       -9.5420     4.4050    -0.0620 C.ar  1 <1>  -0.1500 
  9 C       -9.7000     6.4420     1.1860 C.ar  1 <1>  -0.1500 
 10 O       -3.8930     4.1280     1.7820 O.3   1 <1>  -0.6800 
 11 C       -3.3240     3.7850    -0.5180 C.3   1 <1>   0.3430 
 12 C       -8.0290     2.0900    -0.6990 C.3   1 <1>   0.0400 
 13 C      -10.3070     5.4520     0.4300 C.ar  1 <1>  -0.1430 
 14 N       -2.2470     2.9070     0.0580 N.4   1 <1>  -0.9590 
 15 C      -11.8000     5.5040     0.1380 C.3   1 <1>   0.1220 
 16 C       -0.8870     2.9970    -0.5360 C.3   1 <1>   0.4230 
 17 C       -2.6760     1.4920     0.3050 C.3   1 <1>   0.4230 
 18 C      -12.4930     4.2650     0.6800 C.2   1 <1>  -0.2880 
 19 C        0.1300     2.5310     0.5240 C.3   1 <1>  -0.1600 
 20 C       -0.5410     4.4090    -1.0080 C.3   1 <1>  -0.2400 
 21 C       -1.4940     0.6230     0.7760 C.3   1 <1>  -0.1600 
 22 C       -3.3190     0.8730    -0.9390 C.3   1 <1>  -0.2400 
 23 C      -13.2030     3.3950    -0.0450 C.2   1 <1>  -0.3000 
 24 C       -0.4020     1.4420     1.4740 C.3   1 <1>  -0.1600 
 25 H       -4.6900     6.1150     0.1750 H     1 <1>   0.0800 
 26 H       -5.8100     5.1380    -0.7430 H     1 <1>   0.0800 
 27 H       -7.8730     7.1580     2.0250 H     1 <1>   0.1500 
 28 H       -5.0850     3.1240     0.5250 H     1 <1>   0.0800 
 29 H      -10.0410     3.6520    -0.6420 H     1 <1>   0.1500 
 30 H      -10.2780     7.2590     1.5820 H     1 <1>   0.1500 
 31 H       -4.5980     4.4560     2.3890 H     1 <1>   0.4000 
 32 H       -2.9190     4.7550    -0.7460 H     1 <1>   0.0800 
 33 H       -3.7160     3.3700    -1.4310 H     1 <1>   0.0800 
 34 H       -7.2620     1.3540    -0.8580 H     1 <1>   0.0800 
 35 H       -8.5430     2.2840    -1.6230 H     1 <1>   0.0800 
 36 H       -8.7140     1.7440     0.0550 H     1 <1>   0.0800 
 37 H       -2.1520     3.2970     1.0120 H     1 <1>   0.4500 
 38 H      -11.9510     5.5760    -0.9250 H     1 <1>   0.0800 
 39 H      -12.2380     6.3760     0.5910 H     1 <1>   0.0800 
 40 H       -0.8350     2.3280    -1.3800 H     1 <1>   0.0800 
 41 H       -3.4110     1.5030     1.0960 H     1 <1>   0.0800 
 42 H      -12.3490     4.1510     1.7420 H     1 <1>   0.1500 
 43 H        0.4660     3.3670     1.1150 H     1 <1>   0.0800 
 44 H        0.9930     2.1540     0.0040 H     1 <1>   0.0800 
 45 H       -0.6780     5.1270    -0.2190 H     1 <1>   0.0800 
 46 H       -1.1290     4.6840    -1.8650 H     1 <1>   0.0800 
 47 H        0.4900     4.4410    -1.3120 H     1 <1>   0.0800 
 48 H       -1.0540     0.1110    -0.0630 H     1 <1>   0.0800 
 49 H       -1.8640    -0.1350     1.4440 H     1 <1>   0.0800 
 50 H       -2.6640     0.9400    -1.7890 H     1 <1>   0.0800 
 51 H       -4.2600     1.3380    -1.1670 H     1 <1>   0.0800 
 52 H       -3.5210    -0.1680    -0.7550 H     1 <1>   0.0800 
 53 H      -13.6820     2.5240     0.3670 H     1 <1>   0.1500 
 54 H      -13.3670     3.4780    -1.1060 H     1 <1>   0.1500 
 55 H       -0.8160     1.9010     2.3570 H     1 <1>   0.0800 
 56 H        0.4050     0.8010     1.7900 H     1 <1>   0.0800 
@<TRIPOS>BOND
  1   1   2  1   
  2   1   3  1   
  3   2   4  ar  
  4   2   5  ar  
  5   3   6  1   
  6   3  25  1   
  7   3  26  1   
  8   4   7  1   
  9   4   8  ar  
 10   5   9  ar  
 11   5  27  1   
 12   6  10  1   
 13   6  11  1   
 14   6  28  1   
 15   7  12  1   
 16   8  13  ar  
 17   8  29  1   
 18   9  13  ar  
 19   9  30  1   
 20  10  31  1   
 21  11  14  1   
 22  11  32  1   
 23  11  33  1   
 24  12  34  1   
 25  12  35  1   
 26  12  36  1   
 27  13  15  1   
 28  14  16  1   
 29  14  17  1   
 30  14  37  1   
 31  15  18  1   
 32  15  38  1   
 33  15  39  1   
 34  16  19  1   
 35  16  20  1   
 36  16  40  1   
 37  17  21  1   
 38  17  22  1   
 39  17  41  1   
 40  18  23  2   
 41  18  42  1   
 42  19  24  1   
 43  19  43  1   
 44  19  44  1   
 45  20  45  1   
 46  20  46  1   
 47  20  47  1   
 48  21  24  1   
 49  21  48  1   
 50  21  49  1   
 51  22  50  1   
 52  22  51  1   
 53  22  52  1   
 54  23  53  1   
 55  23  54  1   
 56  24  55  1   
 57  24  56  1   
@<TRIPOS>SUBSTRUCTURE
  1 ****   6 GROUP 4 **** **** 0

# MOE 2024.06 (io_trps.svl 2023.06)
