@<TRIPOS>MOLECULE
NONAME
55 56 1 0 0 
SMALL
USER_CHARGES


@<TRIPOS>ATOM
  1 O        0.1590     3.0120    -0.9190 O.2   1 <1>  -0.5700 
  2 C        0.7050     2.1050    -0.3130 C.2   1 <1>   0.5440 
  3 N       -0.0960     1.2590     0.4100 N.am  1 <1>  -0.7300 
  4 C        2.1540     1.9500    -0.3570 C.ar  1 <1>   0.0860 
  5 C       -1.5630     1.2420     0.5440 C.3   1 <1>   0.2200 
  6 C        2.8490     0.8020     0.0760 C.ar  1 <1>   0.0830 
  7 C        2.9280     3.0030    -0.8610 C.ar  1 <1>  -0.1500 
  8 C       -2.2130     1.0030    -0.8250 C.3   1 <1>  -0.1600 
  9 C       -2.0450     2.5350     1.2130 C.3   1 <1>  -0.1600 
 10 O        2.1420    -0.2530     0.5640 O.3   1 <1>  -0.3630 
 11 C        4.2390     0.7490     0.0000 C.ar  1 <1>  -0.1500 
 12 C        4.3040     2.9450    -0.9360 C.ar  1 <1>  -0.1500 
 13 C       -3.7250     1.1710    -0.7640 C.3   1 <1>   0.3430 
 14 C       -3.5640     2.6440     1.1950 C.3   1 <1>   0.3430 
 15 C        2.7410    -1.4680     0.9550 C.3   1 <1>   0.1200 
 16 C        4.9720     1.8080    -0.5000 C.ar  1 <1>   0.0830 
 17 N       -4.0470     2.5140    -0.2100 N.4   1 <1>  -0.9590 
 18 C        1.6320    -2.4130     1.4070 C.3   1 <1>  -0.2400 
 19 O        6.3160     1.6620    -0.5340 O.3   1 <1>  -0.3630 
 20 C       -5.4980     2.8130    -0.3510 C.3   1 <1>   0.3430 
 21 C        7.1610     2.6750    -1.0280 C.3   1 <1>   0.1200 
 22 C       -5.7530     4.3130    -0.1820 C.3   1 <1>  -0.1600 
 23 C        8.6010     2.1830    -0.9220 C.3   1 <1>  -0.2400 
 24 C       -7.2250     4.6500    -0.4420 C.3   1 <1>  -0.2400 
 25 H        0.4000     0.4590     0.8250 H     1 <1>   0.3700 
 26 H       -1.8250     0.4170     1.1860 H     1 <1>   0.0800 
 27 H        2.4330     3.8960    -1.2040 H     1 <1>   0.1500 
 28 H       -1.9810     0.0070    -1.1570 H     1 <1>   0.0800 
 29 H       -1.8300     1.6880    -1.5580 H     1 <1>   0.0800 
 30 H       -1.6430     3.3990     0.7170 H     1 <1>   0.0800 
 31 H       -1.7010     2.5540     2.2320 H     1 <1>   0.0800 
 32 H        4.7950    -0.1090     0.3250 H     1 <1>   0.1500 
 33 H        4.8380     3.7890    -1.3320 H     1 <1>   0.1500 
 34 H       -4.1550     0.4030    -0.1420 H     1 <1>   0.0800 
 35 H       -4.1320     1.0730    -1.7580 H     1 <1>   0.0800 
 36 H       -3.8510     3.5990     1.6040 H     1 <1>   0.0800 
 37 H       -3.9950     1.8680     1.8060 H     1 <1>   0.0800 
 38 H        3.4250    -1.2700     1.7630 H     1 <1>   0.0800 
 39 H        3.2690    -1.8780     0.1100 H     1 <1>   0.0800 
 40 H       -3.5220     3.2010    -0.7740 H     1 <1>   0.4500 
 41 H        1.1060    -1.9950     2.2470 H     1 <1>   0.0800 
 42 H        2.0590    -3.3530     1.7070 H     1 <1>   0.0800 
 43 H        0.9460    -2.5930     0.6000 H     1 <1>   0.0800 
 44 H       -6.0670     2.2580     0.3770 H     1 <1>   0.0800 
 45 H       -5.8310     2.5190    -1.3340 H     1 <1>   0.0800 
 46 H        7.0170     3.5600    -0.4320 H     1 <1>   0.0800 
 47 H        6.8990     2.8680    -2.0540 H     1 <1>   0.0800 
 48 H       -5.1470     4.8660    -0.8790 H     1 <1>   0.0800 
 49 H       -5.5060     4.6270     0.8160 H     1 <1>   0.0800 
 50 H        8.8470     1.9780     0.1050 H     1 <1>   0.0800 
 51 H        9.2730     2.9360    -1.2920 H     1 <1>   0.0800 
 52 H        8.7300     1.2900    -1.5070 H     1 <1>   0.0800 
 53 H       -7.5090     4.3800    -1.4450 H     1 <1>   0.0800 
 54 H       -7.3860     5.7080    -0.3220 H     1 <1>   0.0800 
 55 H       -7.8660     4.1320     0.2510 H     1 <1>   0.0800 
@<TRIPOS>BOND
  1   1   2  2   
  2   2   3  am  
  3   2   4  1   
  4   3   5  1   
  5   3  25  1   
  6   4   6  ar  
  7   4   7  ar  
  8   5   8  1   
  9   5   9  1   
 10   5  26  1   
 11   6  10  1   
 12   6  11  ar  
 13   7  12  ar  
 14   7  27  1   
 15   8  13  1   
 16   8  28  1   
 17   8  29  1   
 18   9  14  1   
 19   9  30  1   
 20   9  31  1   
 21  10  15  1   
 22  11  16  ar  
 23  11  32  1   
 24  12  16  ar  
 25  12  33  1   
 26  13  17  1   
 27  13  34  1   
 28  13  35  1   
 29  14  17  1   
 30  14  36  1   
 31  14  37  1   
 32  15  18  1   
 33  15  38  1   
 34  15  39  1   
 35  16  19  1   
 36  17  20  1   
 37  17  40  1   
 38  18  41  1   
 39  18  42  1   
 40  18  43  1   
 41  19  21  1   
 42  20  22  1   
 43  20  44  1   
 44  20  45  1   
 45  21  23  1   
 46  21  46  1   
 47  21  47  1   
 48  22  24  1   
 49  22  48  1   
 50  22  49  1   
 51  23  50  1   
 52  23  51  1   
 53  23  52  1   
 54  24  53  1   
 55  24  54  1   
 56  24  55  1   
@<TRIPOS>SUBSTRUCTURE
  1 ****   2 GROUP 4 **** **** 0

# MOE 2024.06 (io_trps.svl 2023.06)
