@<TRIPOS>MOLECULE
NONAME
33 35 1 0 0 
SMALL
USER_CHARGES


@<TRIPOS>ATOM
  1 O        1.1860     2.4840     2.7360 O.2   1 <1>  -0.5700 
  2 C        1.0440     2.6240     1.5430 C.2   1 <1>   0.5690 
  3 N        1.5700     1.7290     0.6460 N.am  1 <1>  -0.6600 
  4 C        0.2230     3.8170     1.0880 C.3   1 <1>   0.0810 
  5 C        2.4230     0.5860     1.0900 C.3   1 <1>   0.1400 
  6 C        1.2830     1.7040    -0.8230 C.3   1 <1>   0.1400 
  7 C       -1.1590     3.3750     0.6510 C.2   1 <1>   0.0060 
  8 C        3.6530     0.4410     0.1800 C.3   1 <1>   0.1200 
  9 C        2.5760     1.4850    -1.6270 C.3   1 <1>   0.1200 
 10 N       -1.6760     3.6370    -0.4990 N.2   1 <1>  -0.5650 
 11 N       -1.9620     2.6400     1.4640 N.pl3 1 <1>   0.0330 
 12 O        3.2680     0.3600    -1.1640 O.3   1 <1>  -0.5600 
 13 C       -2.9030     3.0450    -0.4570 C.ar  1 <1>   0.2270 
 14 C       -3.0980     2.4160     0.7590 C.ar  1 <1>  -0.1520 
 15 C       -3.9040     3.0060    -1.4270 C.ar  1 <1>  -0.1500 
 16 C       -4.2820     1.7330     1.0420 C.ar  1 <1>  -0.1500 
 17 C       -5.0770     2.3350    -1.1560 C.ar  1 <1>  -0.1500 
 18 C       -5.2650     1.6990     0.0780 C.ar  1 <1>  -0.1500 
 19 H        0.7250     4.3230     0.2850 H     1 <1>   0.0800 
 20 H        0.1280     4.5130     1.9000 H     1 <1>   0.0800 
 21 H        1.8460    -0.3210     1.0550 H     1 <1>   0.0800 
 22 H        2.7500     0.7320     2.1050 H     1 <1>   0.0800 
 23 H        0.8200     2.6160    -1.1510 H     1 <1>   0.0800 
 24 H        0.5990     0.9000    -1.0340 H     1 <1>   0.0800 
 25 H        4.1890    -0.4590     0.4220 H     1 <1>   0.0800 
 26 H        4.3140     1.2810     0.3000 H     1 <1>   0.0800 
 27 H        3.2210     2.3430    -1.5480 H     1 <1>   0.0800 
 28 H        2.3440     1.3230    -2.6650 H     1 <1>   0.0800 
 29 H       -1.7400     2.3000     2.4050 H     1 <1>   0.2700 
 30 H       -3.7340     3.5030    -2.3630 H     1 <1>   0.1500 
 31 H       -4.4150     1.2470     1.9930 H     1 <1>   0.1500 
 32 H       -5.8610     2.2950    -1.8930 H     1 <1>   0.1500 
 33 H       -6.1900     1.1810     0.2640 H     1 <1>   0.1500 
@<TRIPOS>BOND
  1   1   2  2   
  2   2   3  am  
  3   2   4  1   
  4   3   5  1   
  5   3   6  1   
  6   4   7  1   
  7   4  19  1   
  8   4  20  1   
  9   5   8  1   
 10   5  21  1   
 11   5  22  1   
 12   6   9  1   
 13   6  23  1   
 14   6  24  1   
 15   7  10  2   
 16   7  11  1   
 17   8  12  1   
 18   8  25  1   
 19   8  26  1   
 20   9  12  1   
 21   9  27  1   
 22   9  28  1   
 23  10  13  1   
 24  11  14  1   
 25  11  29  1   
 26  13  14  ar  
 27  13  15  ar  
 28  14  16  ar  
 29  15  17  ar  
 30  15  30  1   
 31  16  18  ar  
 32  16  31  1   
 33  17  18  ar  
 34  17  32  1   
 35  18  33  1   
@<TRIPOS>SUBSTRUCTURE
  1 ****   7 GROUP 4 **** **** 0

# MOE 2024.06 (io_trps.svl 2023.06)
