@<TRIPOS>MOLECULE
NONAME
52 54 1 0 0 
SMALL
USER_CHARGES


@<TRIPOS>ATOM
  1 O       -0.7970    -2.3930    -1.9500 O.2   1 <1>  -0.5700 
  2 C       -1.0680    -1.9650    -0.8460 C.2   1 <1>   0.5440 
  3 N       -0.0470    -1.6350    -0.0010 N.am  1 <1>  -0.7300 
  4 C       -2.4540    -1.8070    -0.4420 C.ar  1 <1>   0.0860 
  5 C        1.3870    -1.6460    -0.3630 C.3   1 <1>   0.2200 
  6 C       -3.4350    -1.4900    -1.3800 C.ar  1 <1>  -0.1500 
  7 C       -2.8670    -1.9690     0.8810 C.ar  1 <1>  -0.1500 
  8 C        1.9150    -3.0910    -0.3750 C.3   1 <1>   0.1200 
  9 C        2.1130    -0.7530     0.6450 C.3   1 <1>  -0.2400 
 10 C       -4.7620    -1.3400    -1.0230 C.ar  1 <1>  -0.1500 
 11 C       -4.1940    -1.8230     1.2480 C.ar  1 <1>  -0.1500 
 12 O        3.2980    -3.1010    -0.5810 O.3   1 <1>  -0.5600 
 13 C       -5.1540    -1.5140     0.2960 C.ar  1 <1>  -0.1430 
 14 C        3.8370    -4.3770    -0.6940 C.3   1 <1>   0.0400 
 15 C       -6.6140    -1.3790     0.6890 C.3   1 <1>   0.4860 
 16 N       -7.3650    -2.5340     0.1330 N.4   1 <1>  -0.9590 
 17 C       -8.8330    -2.3890     0.3150 C.3   1 <1>   0.4860 
 18 C       -6.9020    -3.8480     0.6730 C.3   1 <1>   0.3430 
 19 C       -9.5560    -3.5590    -0.3310 C.ar  1 <1>  -0.1430 
 20 C       -7.4600    -4.9880    -0.1820 C.3   1 <1>  -0.0170 
 21 C       -8.9210    -4.7780    -0.5520 C.ar  1 <1>  -0.1430 
 22 C      -10.8850    -3.4040    -0.6980 C.ar  1 <1>  -0.1500 
 23 C       -9.6210    -5.8220    -1.1350 C.ar  1 <1>  -0.1500 
 24 C      -11.5780    -4.4510    -1.2790 C.ar  1 <1>  -0.1500 
 25 C      -10.9460    -5.6600    -1.4970 C.ar  1 <1>  -0.1500 
 26 H       -0.2520    -1.1570     0.8750 H     1 <1>   0.3700 
 27 H        1.4970    -1.2360    -1.3540 H     1 <1>   0.0800 
 28 H       -3.1390    -1.3600    -2.4090 H     1 <1>   0.1500 
 29 H       -2.1380    -2.2210     1.6310 H     1 <1>   0.1500 
 30 H        1.4460    -3.6380    -1.1750 H     1 <1>   0.0800 
 31 H        1.7120    -3.5680     0.5670 H     1 <1>   0.0800 
 32 H        2.0430    -1.1630     1.6360 H     1 <1>   0.0800 
 33 H        1.7050     0.2410     0.6280 H     1 <1>   0.0800 
 34 H        3.1540    -0.6880     0.3820 H     1 <1>   0.0800 
 35 H       -5.4760    -1.0860    -1.7890 H     1 <1>   0.1500 
 36 H       -4.4630    -1.9560     2.2830 H     1 <1>   0.1500 
 37 H        4.8980    -4.2800    -0.8440 H     1 <1>   0.0800 
 38 H        3.3950    -4.8750    -1.5400 H     1 <1>   0.0800 
 39 H        3.6470    -4.9260     0.2120 H     1 <1>   0.0800 
 40 H       -7.0030    -0.4550     0.2900 H     1 <1>   0.0800 
 41 H       -6.7060    -1.3540     1.7630 H     1 <1>   0.0800 
 42 H       -7.1970    -2.5620    -0.8800 H     1 <1>   0.4500 
 43 H       -9.1730    -1.4720    -0.1380 H     1 <1>   0.0800 
 44 H       -9.0770    -2.3630     1.3640 H     1 <1>   0.0800 
 45 H       -7.2450    -3.9630     1.6890 H     1 <1>   0.0800 
 46 H       -5.8250    -3.9020     0.6690 H     1 <1>   0.0800 
 47 H       -7.3500    -5.9130     0.3570 H     1 <1>   0.0800 
 48 H       -6.8780    -5.0690    -1.0830 H     1 <1>   0.0800 
 49 H      -11.4020    -2.4730    -0.5360 H     1 <1>   0.1500 
 50 H       -9.1430    -6.7710    -1.3140 H     1 <1>   0.1500 
 51 H      -12.6100    -4.3280    -1.5620 H     1 <1>   0.1500 
 52 H      -11.4850    -6.4760    -1.9490 H     1 <1>   0.1500 
@<TRIPOS>BOND
  1   1   2  2   
  2   2   3  am  
  3   2   4  1   
  4   3   5  1   
  5   3  26  1   
  6   4   6  ar  
  7   4   7  ar  
  8   5   8  1   
  9   5   9  1   
 10   5  27  1   
 11   6  10  ar  
 12   6  28  1   
 13   7  11  ar  
 14   7  29  1   
 15   8  12  1   
 16   8  30  1   
 17   8  31  1   
 18   9  32  1   
 19   9  33  1   
 20   9  34  1   
 21  10  13  ar  
 22  10  35  1   
 23  11  13  ar  
 24  11  36  1   
 25  12  14  1   
 26  13  15  1   
 27  14  37  1   
 28  14  38  1   
 29  14  39  1   
 30  15  16  1   
 31  15  40  1   
 32  15  41  1   
 33  16  17  1   
 34  16  18  1   
 35  16  42  1   
 36  17  19  1   
 37  17  43  1   
 38  17  44  1   
 39  18  20  1   
 40  18  45  1   
 41  18  46  1   
 42  19  21  ar  
 43  19  22  ar  
 44  20  21  1   
 45  20  47  1   
 46  20  48  1   
 47  21  23  ar  
 48  22  24  ar  
 49  22  49  1   
 50  23  25  ar  
 51  23  50  1   
 52  24  25  ar  
 53  24  51  1   
 54  25  52  1   
@<TRIPOS>SUBSTRUCTURE
  1 ****  13 GROUP 4 **** **** 0

# MOE 2024.06 (io_trps.svl 2023.06)
