@<TRIPOS>MOLECULE
NONAME
36 38 1 0 0 
SMALL
USER_CHARGES


@<TRIPOS>ATOM
  1 CL      -0.7940     1.1480    -1.3420 Cl    1 <1>  -0.1770 
  2 C        0.1140     2.5350    -0.7970 C.ar  1 <1>   0.1770 
  3 C       -0.5580     3.6030    -0.2310 C.ar  1 <1>  -0.1500 
  4 C        1.4880     2.5420    -0.9400 C.ar  1 <1>  -0.1500 
  5 C        0.1590     4.7070     0.2070 C.ar  1 <1>  -0.1440 
  6 C        2.2050     3.6450    -0.5080 C.ar  1 <1>  -0.1500 
  7 C        1.5410     4.7200     0.0620 C.ar  1 <1>  -0.1500 
  8 C       -0.5490     5.8940     0.8400 C.3   1 <1>   0.2840 
  9 N       -0.3710     7.0740    -0.0120 N.am  1 <1>  -0.7300 
 10 C       -1.2240     8.1220    -0.0680 C.2   1 <1>   0.5690 
 11 O       -2.3460     8.0230     0.3770 O.2   1 <1>  -0.5700 
 12 C       -0.7960     9.4220    -0.7720 C.3   1 <1>  -0.0190 
 13 C        0.8380     9.9400    -0.6110 C.3   1 <1>  -0.1860 
 14 C       -1.7320    10.7430    -0.3930 C.3   1 <1>   0.0580 
 15 C        1.7070     9.0570     0.2710 C.2   1 <1>   0.9060 
 16 C        0.7900    11.5350    -0.1620 C.3   1 <1>   0.0580 
 17 C       -1.5910    12.3310    -0.1250 C.2   1 <1>  -0.2880 
 18 C       -0.4340    11.0210    -0.2880 C.3   1 <1>  -0.1600 
 19 O        2.2100     8.0580    -0.2560 O.co2 1 <1>  -0.9000 
 20 O        1.8300     9.2850     1.4750 O.co2 1 <1>  -0.9000 
 21 C       -0.2710    12.7450    -0.0030 C.2   1 <1>  -0.2880 
 22 H       -1.6280     3.5690    -0.1390 H     1 <1>   0.1500 
 23 H        1.9860     1.7000    -1.3850 H     1 <1>   0.1500 
 24 H        3.2750     3.6790    -0.6140 H     1 <1>   0.1500 
 25 H        2.1060     5.5810     0.3890 H     1 <1>   0.1500 
 26 H       -0.1190     6.0990     1.8050 H     1 <1>   0.0800 
 27 H       -1.5980     5.6890     0.9670 H     1 <1>   0.0800 
 28 H        0.6260     7.2420    -0.2580 H     1 <1>   0.3700 
 29 H       -0.9550     9.2010    -1.8170 H     1 <1>   0.0800 
 30 H        1.3030     9.8820    -1.5830 H     1 <1>   0.0800 
 31 H       -2.2920    10.4340     0.4780 H     1 <1>   0.0800 
 32 H        1.2900    11.5550     0.7970 H     1 <1>   0.0800 
 33 H       -2.4910    12.9180    -0.0590 H     1 <1>   0.1500 
 34 H       -0.4620    10.7850     0.8550 H     1 <1>   0.0800 
 35 H       -0.4180    11.3220    -1.4680 H     1 <1>   0.0800 
 36 H        0.1110    13.7340     0.1830 H     1 <1>   0.1500 
@<TRIPOS>BOND
  1   1   2  1   
  2   2   3  ar  
  3   2   4  ar  
  4   3   5  ar  
  5   3  22  1   
  6   4   6  ar  
  7   4  23  1   
  8   5   7  ar  
  9   5   8  1   
 10   6   7  ar  
 11   6  24  1   
 12   7  25  1   
 13   8   9  1   
 14   8  26  1   
 15   8  27  1   
 16   9  10  am  
 17   9  28  1   
 18  10  11  2   
 19  10  12  1   
 20  12  13  1   
 21  12  14  1   
 22  12  29  1   
 23  13  15  1   
 24  13  16  1   
 25  13  30  1   
 26  14  17  1   
 27  14  18  1   
 28  14  31  1   
 29  15  19  ar  
 30  15  20  ar  
 31  16  18  1   
 32  16  21  1   
 33  16  32  1   
 34  17  21  2   
 35  17  33  1   
 36  18  34  1   
 37  18  35  1   
 38  21  36  1   
@<TRIPOS>SUBSTRUCTURE
  1 ****   9 GROUP 4 **** **** 0

# MOE 2024.06 (io_trps.svl 2023.06)
