@<TRIPOS>MOLECULE
NONAME
47 49 1 0 0 
SMALL
USER_CHARGES


@<TRIPOS>ATOM
  1 S        0.6460     0.1060     0.6190 S.3   1 <1>  -0.3320 
  2 C       -1.1510     0.0640     0.6090 C.ar  1 <1>   0.1020 
  3 C        1.1150    -1.2650    -0.5470 C.3   1 <1>   0.2110 
  4 C       -1.8200    -1.1040     0.2440 C.ar  1 <1>   0.1170 
  5 C       -1.8280     1.2080     0.9830 C.ar  1 <1>  -0.1500 
  6 C        0.1770    -2.4650    -0.3630 C.2   1 <1>   0.5690 
  7 C        2.5970    -1.5810    -0.3100 C.3   1 <1>  -0.0990 
  8 N       -1.1430    -2.2850    -0.0930 N.am  1 <1>  -0.5470 
  9 C       -3.2100    -1.0830     0.2500 C.ar  1 <1>  -0.1500 
 10 C       -3.2120     1.2070     0.9840 C.ar  1 <1>  -0.1500 
 11 O        0.5980    -3.5880    -0.4900 O.2   1 <1>  -0.5700 
 12 C        3.4670    -0.4400    -0.7750 C.2   1 <1>   0.5690 
 13 C       -3.9000     0.0610     0.6150 C.ar  1 <1>  -0.1500 
 14 O        3.7260    -0.3710    -1.9500 O.2   1 <1>  -0.5700 
 15 N        3.9190     0.4570     0.1460 N.am  1 <1>  -0.5470 
 16 C        4.7480     1.5700    -0.0710 C.ar  1 <1>   0.1170 
 17 C        4.1900     2.8550    -0.0900 C.ar  1 <1>  -0.1430 
 18 C        6.1270     1.4070    -0.2360 C.ar  1 <1>  -0.1430 
 19 C        5.0240     3.9520    -0.2610 C.ar  1 <1>  -0.1500 
 20 C        2.6720     3.0140     0.0670 C.3   1 <1>  -0.0170 
 21 C        6.9330     2.5190    -0.4060 C.ar  1 <1>  -0.1500 
 22 C        6.7980     0.0350    -0.2320 C.3   1 <1>  -0.0170 
 23 C        6.3870     3.7870    -0.4170 C.ar  1 <1>  -0.1500 
 24 C        2.1240     4.4430    -0.0340 C.3   1 <1>  -0.2400 
 25 C        7.0770    -0.4340     1.1980 C.3   1 <1>  -0.2400 
 26 H        0.9770    -0.8770    -1.5410 H     1 <1>   0.0800 
 27 H       -1.2800     2.0890     1.2670 H     1 <1>   0.1500 
 28 H        2.8720    -2.4490    -0.8810 H     1 <1>   0.0800 
 29 H        2.7720    -1.8000     0.7270 H     1 <1>   0.0800 
 30 H       -1.6750    -3.1550    -0.0710 H     1 <1>   0.3700 
 31 H       -3.7580    -1.9650    -0.0290 H     1 <1>   0.1500 
 32 H       -3.7530     2.0930     1.2700 H     1 <1>   0.1500 
 33 H       -4.9770     0.0620     0.6160 H     1 <1>   0.1500 
 34 H        3.4960     0.4110     1.0710 H     1 <1>   0.3700 
 35 H        4.6370     4.9530    -0.2810 H     1 <1>   0.1500 
 36 H        2.3830     2.6120     1.0220 H     1 <1>   0.0800 
 37 H        2.1930     2.4240    -0.6950 H     1 <1>   0.0800 
 38 H        7.9960     2.4060    -0.5300 H     1 <1>   0.1500 
 39 H        7.7260     0.0860    -0.7730 H     1 <1>   0.0800 
 40 H        6.1850    -0.6850    -0.7430 H     1 <1>   0.0800 
 41 H        7.0210     4.6450    -0.5500 H     1 <1>   0.1500 
 42 H        2.5340     5.0590     0.7470 H     1 <1>   0.0800 
 43 H        1.0540     4.4300     0.0700 H     1 <1>   0.0800 
 44 H        2.3670     4.8690    -0.9910 H     1 <1>   0.0800 
 45 H        7.7160     0.2710     1.7000 H     1 <1>   0.0800 
 46 H        7.5620    -1.3940     1.1840 H     1 <1>   0.0800 
 47 H        6.1580    -0.5190     1.7480 H     1 <1>   0.0800 
@<TRIPOS>BOND
  1   1   2  1   
  2   1   3  1   
  3   2   4  ar  
  4   2   5  ar  
  5   3   6  1   
  6   3   7  1   
  7   3  26  1   
  8   4   8  1   
  9   4   9  ar  
 10   5  10  ar  
 11   5  27  1   
 12   6   8  am  
 13   6  11  2   
 14   7  12  1   
 15   7  28  1   
 16   7  29  1   
 17   8  30  1   
 18   9  13  ar  
 19   9  31  1   
 20  10  13  ar  
 21  10  32  1   
 22  12  14  2   
 23  12  15  am  
 24  13  33  1   
 25  15  16  1   
 26  15  34  1   
 27  16  17  ar  
 28  16  18  ar  
 29  17  19  ar  
 30  17  20  1   
 31  18  21  ar  
 32  18  22  1   
 33  19  23  ar  
 34  19  35  1   
 35  20  24  1   
 36  20  36  1   
 37  20  37  1   
 38  21  23  ar  
 39  21  38  1   
 40  22  25  1   
 41  22  39  1   
 42  22  40  1   
 43  23  41  1   
 44  24  42  1   
 45  24  43  1   
 46  24  44  1   
 47  25  45  1   
 48  25  46  1   
 49  25  47  1   
@<TRIPOS>SUBSTRUCTURE
  1 ****   1 GROUP 4 **** **** 0

# MOE 2024.06 (io_trps.svl 2023.06)
