@<TRIPOS>MOLECULE
NONAME
51 53 1 0 0 
SMALL
USER_CHARGES


@<TRIPOS>ATOM
  1 O       -1.9470    -0.0250    -1.4670 O.3   1 <1>  -0.3630 
  2 C       -2.4080     0.6060    -0.3520 C.ar  1 <1>   0.0830 
  3 C       -0.8770    -0.9310    -1.2790 C.3   1 <1>   0.0400 
  4 C       -3.6800     0.3230     0.1780 C.ar  1 <1>   0.0830 
  5 C       -1.5970     1.5530     0.2840 C.ar  1 <1>   0.0820 
  6 O       -4.6100    -0.5280    -0.3660 O.3   1 <1>  -0.3630 
  7 C       -4.0790     0.9470     1.3600 C.ar  1 <1>  -0.1430 
  8 O       -0.3830     1.9230    -0.1910 O.3   1 <1>  -0.3630 
  9 C       -2.0110     2.1540     1.4590 C.ar  1 <1>  -0.1500 
 10 C       -4.4500    -1.1770    -1.6130 C.3   1 <1>   0.0400 
 11 C       -3.2450     1.8520     1.9980 C.ar  1 <1>  -0.1500 
 12 C       -5.4350     0.6400     1.9680 C.3   1 <1>   0.4860 
 13 C       -0.3660     2.6530    -1.3990 C.3   1 <1>   0.0400 
 14 N       -6.4910     1.0600     1.0150 N.4   1 <1>  -0.9590 
 15 C       -6.4790     2.5430     0.7510 C.3   1 <1>   0.3430 
 16 C       -7.8570     0.5730     1.4110 C.3   1 <1>   0.3430 
 17 C       -7.5660     2.9670    -0.2570 C.3   1 <1>   0.2090 
 18 C       -8.9440     0.9950     0.4020 C.3   1 <1>   0.2090 
 19 N       -8.9150     2.4670     0.1480 N.pl3 1 <1>  -0.8380 
 20 C       -9.9410     2.9200    -0.6510 C.ar  1 <1>   0.4100 
 21 N       -9.9620     2.4580    -1.8940 N.ar  1 <1>  -0.6200 
 22 C      -10.8770     3.8130    -0.1400 C.ar  1 <1>  -0.1500 
 23 C      -10.9530     2.9030    -2.6510 C.ar  1 <1>   0.1600 
 24 C      -11.9010     4.2660    -0.9390 C.ar  1 <1>  -0.1500 
 25 C      -11.9300     3.7890    -2.2340 C.ar  1 <1>  -0.1500 
 26 H       -0.7000    -1.4410    -2.2080 H     1 <1>   0.0800 
 27 H       -1.1490    -1.6380    -0.5150 H     1 <1>   0.0800 
 28 H        0.0050    -0.3900    -0.9880 H     1 <1>   0.0800 
 29 H       -1.3560     2.8590     1.9430 H     1 <1>   0.1500 
 30 H       -4.2550    -0.4410    -2.3730 H     1 <1>   0.0800 
 31 H       -5.3580    -1.7040    -1.8410 H     1 <1>   0.0800 
 32 H       -3.6370    -1.8760    -1.5410 H     1 <1>   0.0800 
 33 H       -3.5380     2.3300     2.9180 H     1 <1>   0.1500 
 34 H       -5.5510     1.1560     2.9070 H     1 <1>   0.0800 
 35 H       -5.5030    -0.4210     2.1470 H     1 <1>   0.0800 
 36 H        0.6490     2.9420    -1.6010 H     1 <1>   0.0800 
 37 H       -0.9820     3.5280    -1.2850 H     1 <1>   0.0800 
 38 H       -0.7350     2.0350    -2.1970 H     1 <1>   0.0800 
 39 H       -6.2210     0.5940     0.1320 H     1 <1>   0.4500 
 40 H       -5.5150     2.8400     0.3700 H     1 <1>   0.0800 
 41 H       -6.6490     3.0760     1.6710 H     1 <1>   0.0800 
 42 H       -8.1200     0.9800     2.3730 H     1 <1>   0.0800 
 43 H       -7.8550    -0.5010     1.4930 H     1 <1>   0.0800 
 44 H       -7.3200     2.5880    -1.2350 H     1 <1>   0.0800 
 45 H       -7.5930     4.0420    -0.3220 H     1 <1>   0.0800 
 46 H       -9.9130     0.7230     0.7850 H     1 <1>   0.0800 
 47 H       -8.8000     0.4670    -0.5260 H     1 <1>   0.0800 
 48 H      -10.7860     4.1370     0.8780 H     1 <1>   0.1500 
 49 H      -10.9900     2.5400    -3.6640 H     1 <1>   0.1500 
 50 H      -12.6420     4.9570    -0.5760 H     1 <1>   0.1500 
 51 H      -12.7030     4.1020    -2.9130 H     1 <1>   0.1500 
@<TRIPOS>BOND
  1   1   2  1   
  2   1   3  1   
  3   2   4  ar  
  4   2   5  ar  
  5   3  26  1   
  6   3  27  1   
  7   3  28  1   
  8   4   6  1   
  9   4   7  ar  
 10   5   8  1   
 11   5   9  ar  
 12   6  10  1   
 13   7  11  ar  
 14   7  12  1   
 15   8  13  1   
 16   9  11  ar  
 17   9  29  1   
 18  10  30  1   
 19  10  31  1   
 20  10  32  1   
 21  11  33  1   
 22  12  14  1   
 23  12  34  1   
 24  12  35  1   
 25  13  36  1   
 26  13  37  1   
 27  13  38  1   
 28  14  15  1   
 29  14  16  1   
 30  14  39  1   
 31  15  17  1   
 32  15  40  1   
 33  15  41  1   
 34  16  18  1   
 35  16  42  1   
 36  16  43  1   
 37  17  19  1   
 38  17  44  1   
 39  17  45  1   
 40  18  19  1   
 41  18  46  1   
 42  18  47  1   
 43  19  20  1   
 44  20  21  ar  
 45  20  22  ar  
 46  21  23  ar  
 47  22  24  ar  
 48  22  48  1   
 49  23  25  ar  
 50  23  49  1   
 51  24  25  ar  
 52  24  50  1   
 53  25  51  1   
@<TRIPOS>SUBSTRUCTURE
  1 ****  15 GROUP 4 **** **** 0

# MOE 2024.06 (io_trps.svl 2023.06)
