@<TRIPOS>MOLECULE
NONAME
50 52 1 0 0 
SMALL
USER_CHARGES


@<TRIPOS>ATOM
  1 CL       1.4060    -0.2980    -0.8220 Cl    1 <1>  -0.1770 
  2 C        3.0580    -0.1010    -0.2930 C.ar  1 <1>   0.1770 
  3 C        3.6600     1.1350    -0.3920 C.ar  1 <1>  -0.1500 
  4 C        3.7330    -1.1910     0.2180 C.ar  1 <1>  -0.1500 
  5 C        4.9760     1.3040     0.0260 C.ar  1 <1>   0.1170 
  6 C        5.0420    -1.0330     0.6390 C.ar  1 <1>  -0.1500 
  7 N        5.6280     2.5430    -0.0520 N.am  1 <1>  -0.5470 
  8 C        5.6660     0.2030     0.5470 C.ar  1 <1>  -0.1430 
  9 C        5.3490     3.7290    -0.6680 C.2   1 <1>   0.5690 
 10 C        7.1100     0.3330     1.0210 C.3   1 <1>  -0.0960 
 11 O        4.3590     3.9490    -1.3220 O.2   1 <1>  -0.5700 
 12 C        6.4000     4.8290    -0.4990 C.3   1 <1>   0.1710 
 13 N        7.7600     4.3040    -0.1700 N.3   1 <1>  -0.8100 
 14 C        8.6240     5.3810     0.3680 C.3   1 <1>   0.1100 
 15 C        8.4070     3.7240    -1.3770 C.3   1 <1>   0.1100 
 16 C       10.0390     4.8740     0.7090 C.3   1 <1>   0.2090 
 17 C        9.8180     3.1810    -1.0800 C.3   1 <1>   0.2090 
 18 N       10.6820     4.2350    -0.4750 N.pl3 1 <1>  -0.8380 
 19 C       12.0230     3.9000    -0.3260 C.ar  1 <1>   0.1000 
 20 C       12.4380     2.9210     0.5680 C.ar  1 <1>  -0.1500 
 21 C       12.9790     4.5550    -1.0890 C.ar  1 <1>  -0.1500 
 22 C       13.7770     2.5980     0.7030 C.ar  1 <1>   0.0820 
 23 C       14.3210     4.2420    -0.9640 C.ar  1 <1>  -0.1500 
 24 O       14.0840     1.6280     1.6030 O.3   1 <1>  -0.3620 
 25 C       14.7250     3.2650    -0.0700 C.ar  1 <1>  -0.1500 
 26 C       15.4200     1.2360     1.8240 C.3   1 <1>   0.0400 
 27 H        3.0960     1.9560    -0.7920 H     1 <1>   0.1500 
 28 H        3.2400    -2.1440     0.2840 H     1 <1>   0.1500 
 29 H        5.5690    -1.8830     1.0380 H     1 <1>   0.1500 
 30 H        6.5570     2.5790     0.3790 H     1 <1>   0.3700 
 31 H        7.1730     1.0440     1.8250 H     1 <1>   0.0800 
 32 H        7.7360     0.6600     0.2100 H     1 <1>   0.0800 
 33 H        7.4870    -0.6100     1.3760 H     1 <1>   0.0800 
 34 H        6.0600     5.4630     0.3000 H     1 <1>   0.0800 
 35 H        6.4360     5.4200    -1.3970 H     1 <1>   0.0800 
 36 H        8.1800     5.7830     1.2620 H     1 <1>   0.0800 
 37 H        8.7100     6.1770    -0.3520 H     1 <1>   0.0800 
 38 H        8.4890     4.4750    -2.1450 H     1 <1>   0.0800 
 39 H        7.8050     2.9210    -1.7640 H     1 <1>   0.0800 
 40 H        9.9770     4.1640     1.5150 H     1 <1>   0.0800 
 41 H       10.6470     5.7000     1.0370 H     1 <1>   0.0800 
 42 H       10.2690     2.8380    -1.9940 H     1 <1>   0.0800 
 43 H        9.7430     2.3450    -0.4070 H     1 <1>   0.0800 
 44 H       11.7140     2.4040     1.1660 H     1 <1>   0.1500 
 45 H       12.6550     5.3110    -1.7800 H     1 <1>   0.1500 
 46 H       15.0490     4.7600    -1.5630 H     1 <1>   0.1500 
 47 H       15.7700     3.0400     0.0090 H     1 <1>   0.1500 
 48 H       15.4220     0.4660     2.5740 H     1 <1>   0.0800 
 49 H       15.9800     2.0860     2.1710 H     1 <1>   0.0800 
 50 H       15.8270     0.8520     0.9050 H     1 <1>   0.0800 
@<TRIPOS>BOND
  1   1   2  1   
  2   2   3  ar  
  3   2   4  ar  
  4   3   5  ar  
  5   3  27  1   
  6   4   6  ar  
  7   4  28  1   
  8   5   7  1   
  9   5   8  ar  
 10   6   8  ar  
 11   6  29  1   
 12   7   9  am  
 13   7  30  1   
 14   8  10  1   
 15   9  11  2   
 16   9  12  1   
 17  10  31  1   
 18  10  32  1   
 19  10  33  1   
 20  12  13  1   
 21  12  34  1   
 22  12  35  1   
 23  13  14  1   
 24  13  15  1   
 25  14  16  1   
 26  14  36  1   
 27  14  37  1   
 28  15  17  1   
 29  15  38  1   
 30  15  39  1   
 31  16  18  1   
 32  16  40  1   
 33  16  41  1   
 34  17  18  1   
 35  17  42  1   
 36  17  43  1   
 37  18  19  1   
 38  19  20  ar  
 39  19  21  ar  
 40  20  22  ar  
 41  20  44  1   
 42  21  23  ar  
 43  21  45  1   
 44  22  24  1   
 45  22  25  ar  
 46  23  25  ar  
 47  23  46  1   
 48  24  26  1   
 49  25  47  1   
 50  26  48  1   
 51  26  49  1   
 52  26  50  1   
@<TRIPOS>SUBSTRUCTURE
  1 ****  17 GROUP 4 **** **** 0

# MOE 2024.06 (io_trps.svl 2023.06)
