@<TRIPOS>MOLECULE
NONAME
34 35 1 0 0 
SMALL
USER_CHARGES


@<TRIPOS>ATOM
  1 S        0.2710     0.0110    -0.5080 S.o2  1 <1>   1.2950 
  2 O        0.1410    -1.2640     0.1680 O.2   1 <1>  -0.6500 
  3 O        0.7230     0.0440    -1.8850 O.2   1 <1>  -0.6500 
  4 N        1.3270     1.0530     0.4470 N.pl3 1 <1>   0.3170 
  5 C       -1.2950     0.9100    -0.3810 C.ar  1 <1>  -0.0090 
  6 C        2.1900     1.9790    -0.0360 C.2   1 <1>   0.0360 
  7 C        1.3990     1.2220     1.7910 C.2   1 <1>  -0.3020 
  8 C       -1.5930     1.9590    -1.2390 C.ar  1 <1>  -0.1500 
  9 C       -2.2270     0.5980     0.5990 C.ar  1 <1>  -0.1500 
 10 N        2.7800     2.6920     0.8680 N.2   1 <1>  -0.5650 
 11 C        2.2840     2.2140     2.0240 C.2   1 <1>   0.0770 
 12 C       -2.7730     2.6700    -1.1170 C.ar  1 <1>  -0.1500 
 13 C       -3.4080     1.3090     0.7230 C.ar  1 <1>  -0.1500 
 14 C       -3.7050     2.3630    -0.1340 C.ar  1 <1>  -0.1430 
 15 C       -5.0090     3.1870    -0.0380 C.3   1 <1>   0.1440 
 16 C       -5.9340     2.7270     1.1010 C.3   1 <1>  -0.2400 
 17 C       -4.6660     4.6630     0.2130 C.3   1 <1>  -0.2400 
 18 C       -5.7940     3.0620    -1.3520 C.3   1 <1>  -0.2400 
 19 H        2.3520     2.0910    -1.0950 H     1 <1>   0.1500 
 20 H        0.8270     0.6320     2.4850 H     1 <1>   0.1500 
 21 H       -0.8990     2.2270    -2.0190 H     1 <1>   0.1500 
 22 H       -2.0340    -0.2150     1.2790 H     1 <1>   0.1500 
 23 H        2.5960     2.6190     2.9740 H     1 <1>   0.1500 
 24 H       -2.9580     3.4740    -1.8070 H     1 <1>   0.1500 
 25 H       -4.0850     1.0130     1.5030 H     1 <1>   0.1500 
 26 H       -5.4400     2.8200     2.0520 H     1 <1>   0.0800 
 27 H       -6.2300     1.7030     0.9580 H     1 <1>   0.0800 
 28 H       -6.8250     3.3280     1.1310 H     1 <1>   0.0800 
 29 H       -4.0860     4.7590     1.1140 H     1 <1>   0.0800 
 30 H       -5.5620     5.2490     0.3190 H     1 <1>   0.0800 
 31 H       -4.0960     5.0740    -0.6000 H     1 <1>   0.0800 
 32 H       -6.0100     2.0270    -1.5530 H     1 <1>   0.0800 
 33 H       -5.2340     3.4560    -2.1790 H     1 <1>   0.0800 
 34 H       -6.7230     3.6000    -1.2920 H     1 <1>   0.0800 
@<TRIPOS>BOND
  1   1   2  2   
  2   1   3  2   
  3   1   4  1   
  4   1   5  1   
  5   4   6  1   
  6   4   7  1   
  7   5   8  ar  
  8   5   9  ar  
  9   6  10  2   
 10   6  19  1   
 11   7  11  2   
 12   7  20  1   
 13   8  12  ar  
 14   8  21  1   
 15   9  13  ar  
 16   9  22  1   
 17  10  11  1   
 18  11  23  1   
 19  12  14  ar  
 20  12  24  1   
 21  13  14  ar  
 22  13  25  1   
 23  14  15  1   
 24  15  16  1   
 25  15  17  1   
 26  15  18  1   
 27  16  26  1   
 28  16  27  1   
 29  16  28  1   
 30  17  29  1   
 31  17  30  1   
 32  17  31  1   
 33  18  32  1   
 34  18  33  1   
 35  18  34  1   
@<TRIPOS>SUBSTRUCTURE
  1 ****   5 GROUP 4 **** **** 0

# MOE 2024.06 (io_trps.svl 2023.06)
