@<TRIPOS>MOLECULE
NONAME
34 35 1 0 0 
SMALL
USER_CHARGES


@<TRIPOS>ATOM
  1 O        1.0030     1.3800     0.5150 O.2   1 <1>  -0.5700 
  2 C        0.5170     2.2600    -0.1710 C.2   1 <1>   0.5440 
  3 N        1.3050     2.7980    -1.1520 N.am  1 <1>  -0.7300 
  4 C       -0.8400     2.7260     0.0550 C.ar  1 <1>   0.0860 
  5 C        2.5800     2.2170    -1.6750 C.3   1 <1>   0.1400 
  6 C       -1.7890     1.8760     0.6360 C.ar  1 <1>  -0.1500 
  7 C       -1.2460     4.0270    -0.2920 C.ar  1 <1>  -0.1500 
  8 C        3.7990     2.5580    -0.7900 C.3   1 <1>   0.3430 
  9 C       -3.0730     2.3340     0.8360 C.ar  1 <1>   0.0830 
 10 C       -2.5440     4.4730    -0.0850 C.ar  1 <1>  -0.1500 
 11 N        3.6900     1.9380     0.5660 N.4   1 <1>  -0.9590 
 12 O       -4.1110     1.6810     1.3680 O.3   1 <1>  -0.3630 
 13 C       -3.4450     3.5970     0.4840 C.ar  1 <1>   0.0830 
 14 C        4.3390     2.7560     1.6280 C.3   1 <1>   0.2630 
 15 C        4.1510     0.5190     0.5930 C.3   1 <1>   0.2630 
 16 C       -5.2130     2.5870     1.3570 C.3   1 <1>   0.4000 
 17 O       -4.7300     3.7970     0.7770 O.3   1 <1>  -0.3630 
 18 H        0.8460     3.4540    -1.7930 H     1 <1>   0.3700 
 19 H        2.7520     2.6050    -2.6640 H     1 <1>   0.0800 
 20 H        2.4790     1.1480    -1.7600 H     1 <1>   0.0800 
 21 H       -1.5290     0.8730     0.9270 H     1 <1>   0.1500 
 22 H       -0.5380     4.7110    -0.7230 H     1 <1>   0.1500 
 23 H        3.8530     3.6300    -0.6970 H     1 <1>   0.0800 
 24 H        4.7020     2.2210    -1.2700 H     1 <1>   0.0800 
 25 H       -2.8560     5.4680    -0.3510 H     1 <1>   0.1500 
 26 H        2.6610     1.9000     0.7620 H     1 <1>   0.4500 
 27 H        5.4020     2.8190     1.4580 H     1 <1>   0.0800 
 28 H        4.1690     2.3100     2.5950 H     1 <1>   0.0800 
 29 H        3.9270     3.7520     1.6350 H     1 <1>   0.0800 
 30 H        5.2010     0.4580     0.3590 H     1 <1>   0.0800 
 31 H        3.5960    -0.0650    -0.1240 H     1 <1>   0.0800 
 32 H        3.9860     0.0960     1.5700 H     1 <1>   0.0800 
 33 H       -5.5370     2.7740     2.3650 H     1 <1>   0.0800 
 34 H       -6.0050     2.1850     0.7500 H     1 <1>   0.0800 
@<TRIPOS>BOND
  1   1   2  2   
  2   2   3  am  
  3   2   4  1   
  4   3   5  1   
  5   3  18  1   
  6   4   6  ar  
  7   4   7  ar  
  8   5   8  1   
  9   5  19  1   
 10   5  20  1   
 11   6   9  ar  
 12   6  21  1   
 13   7  10  ar  
 14   7  22  1   
 15   8  11  1   
 16   8  23  1   
 17   8  24  1   
 18   9  12  1   
 19   9  13  ar  
 20  10  13  ar  
 21  10  25  1   
 22  11  14  1   
 23  11  15  1   
 24  11  26  1   
 25  12  16  1   
 26  13  17  1   
 27  14  27  1   
 28  14  28  1   
 29  14  29  1   
 30  15  30  1   
 31  15  31  1   
 32  15  32  1   
 33  16  17  1   
 34  16  33  1   
 35  16  34  1   
@<TRIPOS>SUBSTRUCTURE
  1 ****   4 GROUP 4 **** **** 0

# MOE 2024.06 (io_trps.svl 2023.06)
