@<TRIPOS>MOLECULE
NONAME
43 44 1 0 0 
SMALL
USER_CHARGES


@<TRIPOS>ATOM
  1 O        1.5050     0.2580     3.0950 O.2   1 <1>  -0.5700 
  2 C        0.5480     0.2270     2.3610 C.2   1 <1>   0.5690 
  3 N        0.6750    -0.0560     1.0420 N.am  1 <1>  -0.7300 
  4 C       -0.8320     0.5070     2.9380 C.3   1 <1>   0.0440 
  5 C        1.9050    -0.5000     0.3690 C.3   1 <1>   0.3200 
  6 C       -1.9590     0.2240     1.9460 C.ar  1 <1>  -0.1440 
  7 C        1.5440    -1.5950    -0.6180 C.2   1 <1>  -0.0400 
  8 C       -2.2680    -1.0850     1.6150 C.ar  1 <1>  -0.1500 
  9 C       -2.6610     1.2570     1.3460 C.ar  1 <1>  -0.1500 
 10 O        0.6960    -1.3250    -1.5950 O.3   1 <1>  -0.2800 
 11 C        1.9490    -2.8820    -0.6900 C.2   1 <1>  -0.1500 
 12 C       -3.2450    -1.3630     0.6770 C.ar  1 <1>   0.0820 
 13 C       -3.6550     0.9880     0.4190 C.ar  1 <1>  -0.1500 
 14 C        0.5470    -2.4230    -2.3090 C.2   1 <1>  -0.0100 
 15 C        1.2960    -3.4250    -1.8040 C.2   1 <1>  -0.1500 
 16 O       -3.4580    -2.6670     0.3810 O.3   1 <1>  -0.3630 
 17 C       -3.9610    -0.3260     0.0720 C.ar  1 <1>   0.0820 
 18 C       -3.0890    -3.0770    -0.9170 C.3   1 <1>   0.1200 
 19 O       -4.9320    -0.6410    -0.8330 O.3   1 <1>  -0.3620 
 20 C       -2.8600    -4.5920    -0.9210 C.3   1 <1>  -0.1600 
 21 C       -5.8160     0.3370    -1.3340 C.3   1 <1>   0.0400 
 22 C       -1.7510    -5.0240     0.0480 C.3   1 <1>  -0.2400 
 23 H       -0.1670    -0.1390     0.4640 H     1 <1>   0.3700 
 24 H       -0.8620     1.5330     3.2540 H     1 <1>   0.0800 
 25 H       -0.9640    -0.1060     3.8100 H     1 <1>   0.0800 
 26 H        2.6110    -0.8690     1.0930 H     1 <1>   0.0800 
 27 H        2.3440     0.3300    -0.1560 H     1 <1>   0.0800 
 28 H       -1.7420    -1.9070     2.0680 H     1 <1>   0.1500 
 29 H       -2.4350     2.2810     1.5920 H     1 <1>   0.1500 
 30 H        2.6290    -3.4120    -0.0460 H     1 <1>   0.1500 
 31 H       -4.1760     1.8150    -0.0220 H     1 <1>   0.1500 
 32 H       -0.1100    -2.4020    -3.1610 H     1 <1>   0.1500 
 33 H        1.3930    -4.4370    -2.1540 H     1 <1>   0.1500 
 34 H       -2.1870    -2.5590    -1.1950 H     1 <1>   0.0800 
 35 H       -3.8810    -2.8080    -1.5930 H     1 <1>   0.0800 
 36 H       -2.5920    -4.8930    -1.9180 H     1 <1>   0.0800 
 37 H       -3.7810    -5.0850    -0.6670 H     1 <1>   0.0800 
 38 H       -6.5360    -0.1560    -1.9620 H     1 <1>   0.0800 
 39 H       -5.2560     1.0510    -1.9110 H     1 <1>   0.0800 
 40 H       -6.3160     0.8110    -0.5080 H     1 <1>   0.0800 
 41 H       -0.8330    -4.5120    -0.1790 H     1 <1>   0.0800 
 42 H       -1.5850    -6.0830    -0.0280 H     1 <1>   0.0800 
 43 H       -2.0300    -4.7930     1.0610 H     1 <1>   0.0800 
@<TRIPOS>BOND
  1   1   2  2   
  2   2   3  am  
  3   2   4  1   
  4   3   5  1   
  5   3  23  1   
  6   4   6  1   
  7   4  24  1   
  8   4  25  1   
  9   5   7  1   
 10   5  26  1   
 11   5  27  1   
 12   6   8  ar  
 13   6   9  ar  
 14   7  10  1   
 15   7  11  2   
 16   8  12  ar  
 17   8  28  1   
 18   9  13  ar  
 19   9  29  1   
 20  10  14  1   
 21  11  15  1   
 22  11  30  1   
 23  12  16  1   
 24  12  17  ar  
 25  13  17  ar  
 26  13  31  1   
 27  14  15  2   
 28  14  32  1   
 29  15  33  1   
 30  16  18  1   
 31  17  19  1   
 32  18  20  1   
 33  18  34  1   
 34  18  35  1   
 35  19  21  1   
 36  20  22  1   
 37  20  36  1   
 38  20  37  1   
 39  21  38  1   
 40  21  39  1   
 41  21  40  1   
 42  22  41  1   
 43  22  42  1   
 44  22  43  1   
@<TRIPOS>SUBSTRUCTURE
  1 ****   8 GROUP 4 **** **** 0

# MOE 2024.06 (io_trps.svl 2023.06)
