@<TRIPOS>MOLECULE
NONAME
47 48 1 0 0 
SMALL
USER_CHARGES


@<TRIPOS>ATOM
  1 S        0.7020     0.5220    -1.1460 S.o2  1 <1>   1.3330 
  2 O        0.6270    -0.1560     0.1230 O.2   1 <1>  -0.6500 
  3 O        1.9420     0.5230    -1.8890 O.2   1 <1>  -0.6500 
  4 N        0.2530     2.1750    -0.9090 N.am  1 <1>  -0.6930 
  5 C       -0.5920    -0.0660    -2.2170 C.3   1 <1>  -0.1350 
  6 C       -0.8470     2.4680    -0.1060 C.ar  1 <1>   0.1990 
  7 C        1.3780     3.1660    -0.9920 C.3   1 <1>   0.3370 
  8 C       -2.0480     2.8520    -0.6910 C.ar  1 <1>  -0.1500 
  9 C       -0.7740     2.3880     1.2790 C.ar  1 <1>  -0.1500 
 10 C        2.3870     3.0430     0.1770 C.2   1 <1>   0.5690 
 11 C        0.8220     4.5890    -1.1700 C.3   1 <1>  -0.2400 
 12 C       -3.1550     3.1460     0.0840 C.ar  1 <1>  -0.1500 
 13 C       -1.8770     2.6810     2.0600 C.ar  1 <1>  -0.1500 
 14 O        2.3560     3.8270     1.0990 O.2   1 <1>  -0.5700 
 15 N        3.3010     2.0380     0.1410 N.am  1 <1>  -0.7300 
 16 C       -3.0730     3.0610     1.4720 C.ar  1 <1>   0.0830 
 17 C        4.2240     1.6740     1.2230 C.3   1 <1>   0.2200 
 18 O       -4.1080     3.3320     2.3120 O.3   1 <1>  -0.3630 
 19 C        5.5540     1.2620     0.6060 C.3   1 <1>  -0.1600 
 20 C        3.7260     0.3880     1.8710 C.3   1 <1>  -0.1600 
 21 C       -5.3520     3.7680     1.8120 C.3   1 <1>   0.0400 
 22 C        5.3560    -0.1810     0.1280 C.3   1 <1>  -0.1600 
 23 C        4.1940    -0.7480     0.9540 C.3   1 <1>  -0.1600 
 24 H       -0.4190    -1.0930    -2.4710 H     1 <1>   0.0800 
 25 H       -0.6190     0.5130    -3.1180 H     1 <1>   0.0800 
 26 H       -1.5410     0.0110    -1.7240 H     1 <1>   0.0800 
 27 H        1.9310     2.9550    -1.8890 H     1 <1>   0.0800 
 28 H       -2.1070     2.9230    -1.7610 H     1 <1>   0.1500 
 29 H        0.1490     2.0920     1.7450 H     1 <1>   0.1500 
 30 H        0.3000     4.9080    -0.2850 H     1 <1>   0.0800 
 31 H        0.1610     4.6320    -2.0160 H     1 <1>   0.0800 
 32 H        1.6360     5.2720    -1.3350 H     1 <1>   0.0800 
 33 H       -4.0650     3.4400    -0.4030 H     1 <1>   0.1500 
 34 H       -1.8160     2.6170     3.1310 H     1 <1>   0.1500 
 35 H        3.2310     1.3250    -0.5970 H     1 <1>   0.3700 
 36 H        4.3240     2.4820     1.9300 H     1 <1>   0.0800 
 37 H        6.3050     1.2750     1.3770 H     1 <1>   0.0800 
 38 H        5.8590     1.9250    -0.1840 H     1 <1>   0.0800 
 39 H        2.6590     0.3910     2.0130 H     1 <1>   0.0800 
 40 H        4.2000     0.2830     2.8300 H     1 <1>   0.0800 
 41 H       -6.0070     3.9360     2.6480 H     1 <1>   0.0800 
 42 H       -5.7610     3.0030     1.1760 H     1 <1>   0.0800 
 43 H       -5.2090     4.6860     1.2700 H     1 <1>   0.0800 
 44 H        6.2540    -0.7590     0.2600 H     1 <1>   0.0800 
 45 H        5.0890    -0.1870    -0.9160 H     1 <1>   0.0800 
 46 H        3.3900    -1.0400     0.2980 H     1 <1>   0.0800 
 47 H        4.4980    -1.6040     1.5300 H     1 <1>   0.0800 
@<TRIPOS>BOND
  1   1   2  2   
  2   1   3  2   
  3   1   4  am  
  4   1   5  1   
  5   4   6  1   
  6   4   7  1   
  7   5  24  1   
  8   5  25  1   
  9   5  26  1   
 10   6   8  ar  
 11   6   9  ar  
 12   7  10  1   
 13   7  11  1   
 14   7  27  1   
 15   8  12  ar  
 16   8  28  1   
 17   9  13  ar  
 18   9  29  1   
 19  10  14  2   
 20  10  15  am  
 21  11  30  1   
 22  11  31  1   
 23  11  32  1   
 24  12  16  ar  
 25  12  33  1   
 26  13  16  ar  
 27  13  34  1   
 28  15  17  1   
 29  15  35  1   
 30  16  18  1   
 31  17  19  1   
 32  17  20  1   
 33  17  36  1   
 34  18  21  1   
 35  19  22  1   
 36  19  37  1   
 37  19  38  1   
 38  20  23  1   
 39  20  39  1   
 40  20  40  1   
 41  21  41  1   
 42  21  42  1   
 43  21  43  1   
 44  22  23  1   
 45  22  44  1   
 46  22  45  1   
 47  23  46  1   
 48  23  47  1   
@<TRIPOS>SUBSTRUCTURE
  1 ****   4 GROUP 4 **** **** 0

# MOE 2024.06 (io_trps.svl 2023.06)
