@<TRIPOS>MOLECULE
NONAME
32 33 1 0 0 
SMALL
USER_CHARGES


@<TRIPOS>ATOM
  1 O       -0.0380    -0.5800     0.0460 O.2   1 <1>  -0.5700 
  2 C       -0.4720    -1.7040     0.0360 C.2   1 <1>   0.5690 
  3 N        0.2090    -2.8130    -0.3560 N.am  1 <1>  -0.4200 
  4 C       -1.8780    -2.0610     0.4770 C.3   1 <1>  -0.0190 
  5 C       -0.5540    -3.9330    -0.2460 C.2   1 <1>   0.5690 
  6 C        1.6050    -2.8040    -0.8390 C.3   1 <1>   0.1400 
  7 C       -1.9340    -3.5960     0.2820 C.3   1 <1>  -0.0190 
  8 C       -2.9480    -1.2650    -0.2900 C.3   1 <1>  -0.0220 
  9 O       -0.2030    -5.0530    -0.5200 O.2   1 <1>  -0.5700 
 10 C        2.5600    -2.9880     0.3390 C.3   1 <1>  -0.2400 
 11 C       -3.0520    -4.0960    -0.6480 C.3   1 <1>  -0.0220 
 12 C       -4.2900    -1.9850    -0.2500 C.2   1 <1>  -0.2760 
 13 C       -4.3390    -3.3140    -0.4180 C.2   1 <1>  -0.2760 
 14 C       -5.4620    -1.0340    -0.0390 C.3   1 <1>  -0.1020 
 15 C       -5.5790    -4.2000    -0.4400 C.3   1 <1>  -0.1020 
 16 H       -1.9710    -1.8410     1.5250 H     1 <1>   0.0800 
 17 H        1.8050    -1.8670    -1.3330 H     1 <1>   0.0800 
 18 H        1.7410    -3.6000    -1.5520 H     1 <1>   0.0800 
 19 H       -2.0530    -4.0620     1.2440 H     1 <1>   0.0800 
 20 H       -2.6580    -1.1450    -1.3200 H     1 <1>   0.0800 
 21 H       -3.0180    -0.2830     0.1450 H     1 <1>   0.0800 
 22 H        2.4400    -2.1860     1.0450 H     1 <1>   0.0800 
 23 H        3.5750    -2.9810    -0.0150 H     1 <1>   0.0800 
 24 H        2.3750    -3.9300     0.8250 H     1 <1>   0.0800 
 25 H       -3.1980    -5.1480    -0.4710 H     1 <1>   0.0800 
 26 H       -2.7620    -3.9770    -1.6780 H     1 <1>   0.0800 
 27 H       -5.4790    -0.2990    -0.8240 H     1 <1>   0.0800 
 28 H       -5.3580    -0.5280     0.9040 H     1 <1>   0.0800 
 29 H       -6.4080    -1.5380    -0.0390 H     1 <1>   0.0800 
 30 H       -5.6420    -4.7130    -1.3820 H     1 <1>   0.0800 
 31 H       -6.4850    -3.6440    -0.3050 H     1 <1>   0.0800 
 32 H       -5.5200    -4.9300     0.3470 H     1 <1>   0.0800 
@<TRIPOS>BOND
  1   1   2  2   
  2   2   3  am  
  3   2   4  1   
  4   3   5  am  
  5   3   6  1   
  6   4   7  1   
  7   4   8  1   
  8   4  16  1   
  9   5   7  1   
 10   5   9  2   
 11   6  10  1   
 12   6  17  1   
 13   6  18  1   
 14   7  11  1   
 15   7  19  1   
 16   8  12  1   
 17   8  20  1   
 18   8  21  1   
 19  10  22  1   
 20  10  23  1   
 21  10  24  1   
 22  11  13  1   
 23  11  25  1   
 24  11  26  1   
 25  12  13  2   
 26  12  14  1   
 27  13  15  1   
 28  14  27  1   
 29  14  28  1   
 30  14  29  1   
 31  15  30  1   
 32  15  31  1   
 33  15  32  1   
@<TRIPOS>SUBSTRUCTURE
  1 ****   7 GROUP 4 **** **** 0

# MOE 2024.06 (io_trps.svl 2023.06)
