@<TRIPOS>MOLECULE
NONAME
36 37 1 0 0 
SMALL
USER_CHARGES


@<TRIPOS>ATOM
  1 S       -0.3240    -0.5260    -0.4370 S.3   1 <1>  -0.0800 
  2 C       -1.3940     0.7960     0.0440 C.2   1 <1>   0.1040 
  3 C        1.0480     0.5410    -0.4200 C.2   1 <1>  -0.1400 
  4 N       -2.7130     0.3870     0.1740 N.am  1 <1>  -0.4940 
  5 C       -0.7020     1.9850     0.1600 C.2   1 <1>  -0.0860 
  6 C        0.7010     1.7740    -0.1010 C.2   1 <1>  -0.1810 
  7 C        2.4940     0.2860    -0.7000 C.3   1 <1>   0.0200 
  8 C       -3.6380     0.5990     1.1570 C.2   1 <1>   0.5690 
  9 C       -1.1970     3.3140     0.4340 C.2   1 <1>   0.7160 
 10 C        1.9180     2.6670    -0.1040 C.3   1 <1>   0.0210 
 11 C        3.0850     1.6940    -0.4390 C.3   1 <1>  -0.1600 
 12 O       -3.4210     1.2530     2.1460 O.2   1 <1>  -0.5700 
 13 C       -5.0000    -0.0490     0.9930 C.3   1 <1>  -0.0990 
 14 O       -0.5480     4.3120     0.1860 O.2   1 <1>  -0.5700 
 15 N       -2.3990     3.5490     0.9880 N.am  1 <1>  -0.8000 
 16 C       -5.8390     0.6300    -0.1020 C.3   1 <1>  -0.1600 
 17 C       -7.2130    -0.0350    -0.2440 C.3   1 <1>  -0.1600 
 18 C       -8.0430     0.6440    -1.3360 C.3   1 <1>  -0.2400 
 19 H       -2.9770    -0.3460    -0.4820 H     1 <1>   0.3700 
 20 H        2.6330    -0.0230    -1.7210 H     1 <1>   0.0800 
 21 H        2.8940    -0.4480    -0.0230 H     1 <1>   0.0800 
 22 H        2.0530     3.1270     0.8600 H     1 <1>   0.0800 
 23 H        1.8180     3.4290    -0.8570 H     1 <1>   0.0800 
 24 H        3.6190     2.0410    -1.3060 H     1 <1>   0.0800 
 25 H        3.7670     1.6520     0.3910 H     1 <1>   0.0800 
 26 H       -5.5220     0.0150     1.9320 H     1 <1>   0.0800 
 27 H       -4.8660    -1.0900     0.7650 H     1 <1>   0.0800 
 28 H       -2.6140     4.5000     1.2750 H     1 <1>   0.3700 
 29 H       -2.8640     2.8030     1.5190 H     1 <1>   0.3700 
 30 H       -5.3190     0.5790    -1.0440 H     1 <1>   0.0800 
 31 H       -5.9680     1.6700     0.1470 H     1 <1>   0.0800 
 32 H       -7.7440     0.0260     0.6920 H     1 <1>   0.0800 
 33 H       -7.0910    -1.0770    -0.4900 H     1 <1>   0.0800 
 34 H       -8.2000     1.6820    -1.0990 H     1 <1>   0.0800 
 35 H       -9.0030     0.1650    -1.4200 H     1 <1>   0.0800 
 36 H       -7.5440     0.5770    -2.2870 H     1 <1>   0.0800 
@<TRIPOS>BOND
  1   1   2  1   
  2   1   3  1   
  3   2   4  1   
  4   2   5  2   
  5   3   6  2   
  6   3   7  1   
  7   4   8  am  
  8   4  19  1   
  9   5   6  1   
 10   5   9  1   
 11   6  10  1   
 12   7  11  1   
 13   7  20  1   
 14   7  21  1   
 15   8  12  2   
 16   8  13  1   
 17   9  14  2   
 18   9  15  am  
 19  10  11  1   
 20  10  22  1   
 21  10  23  1   
 22  11  24  1   
 23  11  25  1   
 24  13  16  1   
 25  13  26  1   
 26  13  27  1   
 27  15  28  1   
 28  15  29  1   
 29  16  17  1   
 30  16  30  1   
 31  16  31  1   
 32  17  18  1   
 33  17  32  1   
 34  17  33  1   
 35  18  34  1   
 36  18  35  1   
 37  18  36  1   
@<TRIPOS>SUBSTRUCTURE
  1 ****   2 GROUP 4 **** **** 0

# MOE 2024.06 (io_trps.svl 2023.06)
