@<TRIPOS>MOLECULE
NONAME
37 38 1 0 0 
SMALL
USER_CHARGES


@<TRIPOS>ATOM
  1 O        0.5870     0.5590     0.6780 O.2   1 <1>  -0.5700 
  2 C        1.4080     1.3890     0.3740 C.2   1 <1>   0.5690 
  3 N        1.1770     2.6850     0.0090 N.am  1 <1>  -0.4770 
  4 C        2.8790     1.0770     0.3820 C.3   1 <1>  -0.0990 
  5 C       -0.0530     3.3680    -0.0800 C.ar  1 <1>   0.1170 
  6 C        2.4530     3.3740    -0.2730 C.3   1 <1>   0.1400 
  7 C        3.5220     2.4690     0.3550 C.3   1 <1>  -0.0190 
  8 C       -0.2630     4.3370    -1.0590 C.ar  1 <1>  -0.1500 
  9 C       -1.0890     3.1030     0.8110 C.ar  1 <1>  -0.1500 
 10 C        4.8540     2.5030    -0.3740 C.2   1 <1>   0.5690 
 11 C       -1.4610     5.0240    -1.1370 C.ar  1 <1>  -0.1500 
 12 C       -2.2890     3.7870     0.7360 C.ar  1 <1>  -0.1500 
 13 O        4.8700     2.6020    -1.5760 O.2   1 <1>  -0.5700 
 14 N        5.9970     2.4140     0.3550 N.am  1 <1>  -0.7300 
 15 C       -2.4770     4.7510    -0.2390 C.ar  1 <1>  -0.1500 
 16 C        7.3640     2.4240    -0.2100 C.3   1 <1>   0.1400 
 17 C        8.1040     3.6580     0.3000 C.3   1 <1>  -0.1600 
 18 C        9.5130     3.7190    -0.2860 C.3   1 <1>   0.1200 
 19 O       10.1550     4.8190     0.2470 O.3   1 <1>  -0.6800 
 20 H        3.1150     0.5170    -0.5060 H     1 <1>   0.0800 
 21 H        3.1530     0.5180     1.2570 H     1 <1>   0.0800 
 22 H        2.4640     4.3580     0.1640 H     1 <1>   0.0800 
 23 H        2.5780     3.4480    -1.3400 H     1 <1>   0.0800 
 24 H        3.6680     2.8010     1.3670 H     1 <1>   0.0800 
 25 H        0.5090     4.5540    -1.7720 H     1 <1>   0.1500 
 26 H       -0.9550     2.3550     1.5720 H     1 <1>   0.1500 
 27 H       -1.6060     5.7700    -1.8990 H     1 <1>   0.1500 
 28 H       -3.0770     3.5660     1.4350 H     1 <1>   0.1500 
 29 H        5.9490     2.3240     1.3720 H     1 <1>   0.3700 
 30 H       -3.4110     5.2830    -0.2980 H     1 <1>   0.1500 
 31 H        7.3160     2.4430    -1.2870 H     1 <1>   0.0800 
 32 H        7.8790     1.5270     0.0900 H     1 <1>   0.0800 
 33 H        8.1720     3.6150     1.3730 H     1 <1>   0.0800 
 34 H        7.5590     4.5380     0.0060 H     1 <1>   0.0800 
 35 H        9.4940     3.8210    -1.3580 H     1 <1>   0.0800 
 36 H       10.0830     2.8440    -0.0180 H     1 <1>   0.0800 
 37 H        9.7000     5.6430    -0.0110 H     1 <1>   0.4000 
@<TRIPOS>BOND
  1   1   2  2   
  2   2   3  am  
  3   2   4  1   
  4   3   5  1   
  5   3   6  1   
  6   4   7  1   
  7   4  20  1   
  8   4  21  1   
  9   5   8  ar  
 10   5   9  ar  
 11   6   7  1   
 12   6  22  1   
 13   6  23  1   
 14   7  10  1   
 15   7  24  1   
 16   8  11  ar  
 17   8  25  1   
 18   9  12  ar  
 19   9  26  1   
 20  10  13  2   
 21  10  14  am  
 22  11  15  ar  
 23  11  27  1   
 24  12  15  ar  
 25  12  28  1   
 26  14  16  1   
 27  14  29  1   
 28  15  30  1   
 29  16  17  1   
 30  16  31  1   
 31  16  32  1   
 32  17  18  1   
 33  17  33  1   
 34  17  34  1   
 35  18  19  1   
 36  18  35  1   
 37  18  36  1   
 38  19  37  1   
@<TRIPOS>SUBSTRUCTURE
  1 ****   6 GROUP 4 **** **** 0

# MOE 2024.06 (io_trps.svl 2023.06)
