@<TRIPOS>MOLECULE
NONAME
24 24 1 0 0 
SMALL
USER_CHARGES


@<TRIPOS>ATOM
  1 S       -0.3540     0.3560    -0.0110 S.3   1 <1>  -0.2660 
  2 C        1.1090    -0.6990    -0.0120 C.1   1 <1>   0.5930 
  3 C       -1.7340    -0.8680    -0.0100 C.3   1 <1>   0.0700 
  4 N        2.0090    -1.3940    -0.0130 N.1   1 <1>  -0.5570 
  5 C       -3.0550    -0.0970    -0.0090 C.3   1 <1>  -0.1600 
  6 C       -4.2480    -1.0530    -0.0080 C.3   1 <1>   0.1200 
  7 O       -5.4230    -0.2790    -0.0070 O.3   1 <1>  -0.3630 
  8 C       -6.6580    -0.8530    -0.0050 C.ar  1 <1>   0.0830 
  9 C       -7.7800    -0.0290    -0.0040 C.ar  1 <1>   0.1900 
 10 C       -6.8640    -2.2320    -0.0050 C.ar  1 <1>  -0.1500 
 11 F       -7.6290     1.2720    -0.0050 F     1 <1>  -0.1900 
 12 C       -9.0680    -0.5280    -0.0030 C.ar  1 <1>  -0.1500 
 13 C       -8.1530    -2.7450    -0.0040 C.ar  1 <1>  -0.1500 
 14 C       -9.2520    -1.9010    -0.0030 C.ar  1 <1>  -0.1500 
 15 H       -1.6240    -1.4730     0.8740 H     1 <1>   0.0800 
 16 H       -1.6260    -1.4730    -0.8930 H     1 <1>   0.0800 
 17 H       -3.1050     0.5260    -0.8850 H     1 <1>   0.0800 
 18 H       -3.1030     0.5270     0.8670 H     1 <1>   0.0800 
 19 H       -4.2460    -1.6660     0.8770 H     1 <1>   0.0800 
 20 H       -4.2480    -1.6670    -0.8920 H     1 <1>   0.0800 
 21 H       -6.0400    -2.9200    -0.0060 H     1 <1>   0.1500 
 22 H       -9.9060     0.1460    -0.0030 H     1 <1>   0.1500 
 23 H       -8.3030    -3.8120    -0.0040 H     1 <1>   0.1500 
 24 H      -10.2480    -2.3110    -0.0020 H     1 <1>   0.1500 
@<TRIPOS>BOND
  1   1   2  1   
  2   1   3  1   
  3   2   4  3   
  4   3   5  1   
  5   3  15  1   
  6   3  16  1   
  7   5   6  1   
  8   5  17  1   
  9   5  18  1   
 10   6   7  1   
 11   6  19  1   
 12   6  20  1   
 13   7   8  1   
 14   8   9  ar  
 15   8  10  ar  
 16   9  11  1   
 17   9  12  ar  
 18  10  13  ar  
 19  10  21  1   
 20  12  14  ar  
 21  12  22  1   
 22  13  14  ar  
 23  13  23  1   
 24  14  24  1   
@<TRIPOS>SUBSTRUCTURE
  1 ****   6 GROUP 4 **** **** 0

# MOE 2024.06 (io_trps.svl 2023.06)
