@<TRIPOS>MOLECULE
NONAME
49 51 1 0 0 
SMALL
USER_CHARGES


@<TRIPOS>ATOM
  1 CL      -2.3650     1.2460     1.9590 Cl    1 <1>  -0.1770 
  2 C       -3.2200     2.7650     1.8810 C.ar  1 <1>   0.1770 
  3 C       -3.6260     3.2480     0.6530 C.ar  1 <1>  -0.1500 
  4 C       -3.4760     3.4570     3.0500 C.ar  1 <1>  -0.1500 
  5 C       -4.3070     4.4570     0.5720 C.ar  1 <1>   0.1170 
  6 C       -4.1570     4.6600     2.9810 C.ar  1 <1>  -0.1500 
  7 N       -4.7170     4.9180    -0.6880 N.am  1 <1>  -0.5470 
  8 C       -4.5680     5.1510     1.7530 C.ar  1 <1>  -0.1500 
  9 C       -4.8980     6.1870    -1.1460 C.2   1 <1>   0.6900 
 10 O       -4.6510     7.1590    -0.4610 O.2   1 <1>  -0.5700 
 11 N       -5.3900     6.3450    -2.4050 N.am  1 <1>  -0.7300 
 12 C       -5.3200     7.5390    -3.3190 C.3   1 <1>   0.1400 
 13 C       -5.2410     8.9370    -2.6570 C.3   1 <1>   0.3430 
 14 N       -6.1990     9.1140    -1.5260 N.4   1 <1>  -0.9590 
 15 C       -7.6510     8.9280    -1.8880 C.3   1 <1>   0.3430 
 16 C       -5.9620    10.4060    -0.7880 C.3   1 <1>   0.3430 
 17 C       -8.5910     9.1050    -0.6770 C.3   1 <1>   0.2090 
 18 C       -6.9030    10.5790     0.4220 C.3   1 <1>   0.2090 
 19 N       -8.3260    10.4010     0.0110 N.pl3 1 <1>  -0.8380 
 20 C       -9.2860    10.8170     0.9260 C.ar  1 <1>   0.1000 
 21 C      -10.0800    11.9180     0.6350 C.ar  1 <1>  -0.1500 
 22 C       -9.4770    10.1550     2.1350 C.ar  1 <1>  -0.1500 
 23 C      -11.0430    12.3520     1.5280 C.ar  1 <1>  -0.1500 
 24 C      -10.4390    10.5860     3.0300 C.ar  1 <1>  -0.1500 
 25 C      -11.2230    11.6860     2.7280 C.ar  1 <1>  -0.1500 
 26 H       -3.4040     2.6790    -0.2290 H     1 <1>   0.1500 
 27 H       -3.1470     3.0580     3.9930 H     1 <1>   0.1500 
 28 H       -4.3650     5.2110     3.8820 H     1 <1>   0.1500 
 29 H       -4.7560     4.1970    -1.4030 H     1 <1>   0.3700 
 30 H       -5.1000     6.0830     1.7210 H     1 <1>   0.1500 
 31 H       -5.6310     5.4810    -2.8950 H     1 <1>   0.3700 
 32 H       -6.1840     7.5210    -3.9600 H     1 <1>   0.0800 
 33 H       -4.4600     7.4240    -3.9570 H     1 <1>   0.0800 
 34 H       -5.4110     9.6940    -3.4040 H     1 <1>   0.0800 
 35 H       -4.2380     9.0660    -2.2830 H     1 <1>   0.0800 
 36 H       -5.9360     8.3530    -0.8650 H     1 <1>   0.4500 
 37 H       -7.8020     7.9450    -2.3030 H     1 <1>   0.0800 
 38 H       -7.9310     9.6530    -2.6350 H     1 <1>   0.0800 
 39 H       -6.1220    11.2360    -1.4560 H     1 <1>   0.0800 
 40 H       -4.9410    10.4460    -0.4440 H     1 <1>   0.0800 
 41 H       -8.4520     8.2920     0.0140 H     1 <1>   0.0800 
 42 H       -9.6150     9.0860    -1.0110 H     1 <1>   0.0800 
 43 H       -6.7750    11.5640     0.8380 H     1 <1>   0.0800 
 44 H       -6.6510     9.8610     1.1830 H     1 <1>   0.0800 
 45 H       -9.9360    12.4330    -0.2970 H     1 <1>   0.1500 
 46 H       -8.8710     9.3020     2.3740 H     1 <1>   0.1500 
 47 H      -11.6510    13.2070     1.2910 H     1 <1>   0.1500 
 48 H      -10.5800    10.0680     3.9630 H     1 <1>   0.1500 
 49 H      -11.9730    12.0220     3.4230 H     1 <1>   0.1500 
@<TRIPOS>BOND
  1   1   2  1   
  2   2   3  ar  
  3   2   4  ar  
  4   3   5  ar  
  5   3  26  1   
  6   4   6  ar  
  7   4  27  1   
  8   5   7  1   
  9   5   8  ar  
 10   6   8  ar  
 11   6  28  1   
 12   7   9  am  
 13   7  29  1   
 14   8  30  1   
 15   9  10  2   
 16   9  11  am  
 17  11  12  1   
 18  11  31  1   
 19  12  13  1   
 20  12  32  1   
 21  12  33  1   
 22  13  14  1   
 23  13  34  1   
 24  13  35  1   
 25  14  15  1   
 26  14  16  1   
 27  14  36  1   
 28  15  17  1   
 29  15  37  1   
 30  15  38  1   
 31  16  18  1   
 32  16  39  1   
 33  16  40  1   
 34  17  19  1   
 35  17  41  1   
 36  17  42  1   
 37  18  19  1   
 38  18  43  1   
 39  18  44  1   
 40  19  20  1   
 41  20  21  ar  
 42  20  22  ar  
 43  21  23  ar  
 44  21  45  1   
 45  22  24  ar  
 46  22  46  1   
 47  23  25  ar  
 48  23  47  1   
 49  24  25  ar  
 50  24  48  1   
 51  25  49  1   
@<TRIPOS>SUBSTRUCTURE
  1 ****  10 GROUP 4 **** **** 0

# MOE 2024.06 (io_trps.svl 2023.06)
