@<TRIPOS>MOLECULE
NONAME
44 45 1 0 0 
SMALL
USER_CHARGES


@<TRIPOS>ATOM
  1 O        0.3680     0.1850     1.2190 O.2   1 <1>  -0.5700 
  2 C        0.6400     1.2150     0.6320 C.2   1 <1>   0.5440 
  3 N       -0.3370     2.1470     0.3970 N.am  1 <1>  -0.4930 
  4 C        1.9930     1.4590     0.1650 C.ar  1 <1>   0.0860 
  5 C       -1.7000     2.1160     0.7830 C.2   1 <1>   0.0630 
  6 C        2.5350     2.7450     0.0980 C.ar  1 <1>  -0.1500 
  7 C        2.8090     0.4030    -0.2400 C.ar  1 <1>  -0.1500 
  8 C       -2.3640     3.0670     1.5580 C.2   1 <1>   0.1080 
  9 C       -2.6440     1.1970     0.4810 C.2   1 <1>  -0.3320 
 10 C        3.8190     2.9630    -0.3670 C.ar  1 <1>  -0.1500 
 11 C        4.0930     0.6170    -0.7060 C.ar  1 <1>  -0.1500 
 12 N       -3.6150     2.7780     1.7280 N.2   1 <1>  -0.7070 
 13 C       -1.7360     4.3040     2.1600 C.3   1 <1>  -0.0590 
 14 N       -3.7940     1.6190     1.0650 N.pl3 1 <1>   0.3140 
 15 C       -2.5060    -0.0790    -0.3390 C.3   1 <1>  -0.0600 
 16 C        4.6060     1.9000    -0.7760 C.ar  1 <1>  -0.1430 
 17 C       -5.0890     0.9320     1.1000 C.3   1 <1>   0.1570 
 18 C        6.0160     2.1370    -1.2860 C.3   1 <1>  -0.0970 
 19 C       -5.7260     0.9700    -0.2640 C.2   1 <1>   0.6590 
 20 O       -5.8330    -0.0300    -0.9290 O.2   1 <1>  -0.5700 
 21 O       -6.1820     2.1470    -0.6760 O.3   1 <1>  -0.4300 
 22 C       -6.8130     2.3350    -1.9230 C.3   1 <1>   0.1200 
 23 C       -8.3010     2.0270    -1.7740 C.3   1 <1>  -0.2400 
 24 H       -0.0650     2.9680    -0.1370 H     1 <1>   0.3700 
 25 H        1.9540     3.5880     0.4230 H     1 <1>   0.1500 
 26 H        2.4230    -0.6010    -0.1870 H     1 <1>   0.1500 
 27 H        4.2090     3.9660    -0.4070 H     1 <1>   0.1500 
 28 H        4.6940    -0.2230    -1.0110 H     1 <1>   0.1500 
 29 H       -0.7400     4.0850     2.4960 H     1 <1>   0.0800 
 30 H       -2.3200     4.6330     3.0000 H     1 <1>   0.0800 
 31 H       -1.7070     5.0880     1.4270 H     1 <1>   0.0800 
 32 H       -1.4940    -0.2010    -0.6810 H     1 <1>   0.0800 
 33 H       -3.1460    -0.0470    -1.2020 H     1 <1>   0.0800 
 34 H       -2.7600    -0.9350     0.2590 H     1 <1>   0.0800 
 35 H       -5.7270     1.4250     1.8070 H     1 <1>   0.0800 
 36 H       -4.9350    -0.0840     1.4050 H     1 <1>   0.0800 
 37 H        6.0950     3.1060    -1.7450 H     1 <1>   0.0800 
 38 H        6.2810     1.3940    -2.0170 H     1 <1>   0.0800 
 39 H        6.7120     2.0820    -0.4680 H     1 <1>   0.0800 
 40 H       -6.3480     1.6980    -2.6570 H     1 <1>   0.0800 
 41 H       -6.6680     3.3630    -2.2080 H     1 <1>   0.0800 
 42 H       -8.4440     0.9950    -1.5050 H     1 <1>   0.0800 
 43 H       -8.8010     2.2040    -2.7090 H     1 <1>   0.0800 
 44 H       -8.7400     2.6620    -1.0260 H     1 <1>   0.0800 
@<TRIPOS>BOND
  1   1   2  2   
  2   2   3  am  
  3   2   4  1   
  4   3   5  1   
  5   3  24  1   
  6   4   6  ar  
  7   4   7  ar  
  8   5   8  1   
  9   5   9  2   
 10   6  10  ar  
 11   6  25  1   
 12   7  11  ar  
 13   7  26  1   
 14   8  12  2   
 15   8  13  1   
 16   9  14  1   
 17   9  15  1   
 18  10  16  ar  
 19  10  27  1   
 20  11  16  ar  
 21  11  28  1   
 22  12  14  1   
 23  13  29  1   
 24  13  30  1   
 25  13  31  1   
 26  14  17  1   
 27  15  32  1   
 28  15  33  1   
 29  15  34  1   
 30  16  18  1   
 31  17  19  1   
 32  17  35  1   
 33  17  36  1   
 34  18  37  1   
 35  18  38  1   
 36  18  39  1   
 37  19  20  2   
 38  19  21  1   
 39  21  22  1   
 40  22  23  1   
 41  22  40  1   
 42  22  41  1   
 43  23  42  1   
 44  23  43  1   
 45  23  44  1   
@<TRIPOS>SUBSTRUCTURE
  1 ****   5 GROUP 4 **** **** 0

# MOE 2024.06 (io_trps.svl 2023.06)
