@<TRIPOS>MOLECULE
NONAME
27 27 1 0 0 
SMALL
USER_CHARGES


@<TRIPOS>ATOM
  1 P       -0.0230    -0.2930    -1.3960 P.3   1 <1>   0.9000 
  2 O       -0.3930     0.5650    -2.5670 O.co2 1 <1>  -0.9500 
  3 O       -0.0440    -1.7850    -1.5570 O.co2 1 <1>  -0.9500 
  4 C        1.6950     0.0550    -0.8840 C.3   1 <1>   0.3440 
  5 C       -1.0850     0.0800     0.0190 C.3   1 <1>  -0.1600 
  6 O        2.1760    -1.0010    -0.1020 O.3   1 <1>  -0.6800 
  7 C        2.0350     1.4040    -0.2350 C.ar  1 <1>  -0.1440 
  8 C       -1.3190     1.5600     0.4110 C.3   1 <1>  -0.2660 
  9 C        2.4630     1.5330     1.0820 C.ar  1 <1>  -0.1500 
 10 C        1.8920     2.5500    -1.0040 C.ar  1 <1>  -0.1500 
 11 C       -2.2520     1.7250     1.5930 C.2   1 <1>   0.9060 
 12 C        2.7530     2.7800     1.6100 C.ar  1 <1>  -0.1500 
 13 C        2.1830     3.7970    -0.4800 C.ar  1 <1>  -0.1500 
 14 O       -1.8940     1.3130     2.7030 O.co2 1 <1>  -0.9000 
 15 O       -3.3410     2.2890     1.4280 O.co2 1 <1>  -0.9000 
 16 C        2.6170     3.9130     0.8290 C.ar  1 <1>  -0.1500 
 17 H        2.2960     0.0040    -1.7720 H     1 <1>   0.0800 
 18 H       -0.7190    -0.4280     0.8920 H     1 <1>   0.0800 
 19 H       -2.0570    -0.3340    -0.1720 H     1 <1>   0.0800 
 20 H        1.5970    -1.7590    -0.3790 H     1 <1>   0.4000 
 21 H       -1.7330     2.0860    -0.4280 H     1 <1>   0.0800 
 22 H       -0.3940     2.0260     0.6770 H     1 <1>   0.0800 
 23 H        2.5600     0.6610     1.7030 H     1 <1>   0.1500 
 24 H        1.5330     2.4640    -2.0180 H     1 <1>   0.1500 
 25 H        3.0740     2.8610     2.6320 H     1 <1>   0.1500 
 26 H        2.0600     4.6730    -1.0910 H     1 <1>   0.1500 
 27 H        2.8360     4.8810     1.2410 H     1 <1>   0.1500 
@<TRIPOS>BOND
  1   1   2  ar  
  2   1   3  ar  
  3   1   4  1   
  4   1   5  1   
  5   4   6  1   
  6   4   7  1   
  7   4  17  1   
  8   5   8  1   
  9   5  18  1   
 10   5  19  1   
 11   6  20  1   
 12   7   9  ar  
 13   7  10  ar  
 14   8  11  1   
 15   8  21  1   
 16   8  22  1   
 17   9  12  ar  
 18   9  23  1   
 19  10  13  ar  
 20  10  24  1   
 21  11  14  ar  
 22  11  15  ar  
 23  12  16  ar  
 24  12  25  1   
 25  13  16  ar  
 26  13  26  1   
 27  16  27  1   
@<TRIPOS>SUBSTRUCTURE
  1 ****   7 GROUP 4 **** **** 0

# MOE 2024.06 (io_trps.svl 2023.06)
