@<TRIPOS>MOLECULE
NONAME
39 41 1 0 0 
SMALL
USER_CHARGES


@<TRIPOS>ATOM
  1 S       -0.5030     1.4400     1.2250 S.o2  1 <1>   1.4240 
  2 O       -0.5490     0.0700     1.6940 O.2   1 <1>  -0.6500 
  3 O       -0.4920     2.5050     2.2070 O.2   1 <1>  -0.6500 
  4 N        0.9280     1.5770     0.3120 N.am  1 <1>  -0.8490 
  5 N       -1.8000     1.7590     0.0610 N.pl3 1 <1>   0.3170 
  6 C        1.0330     0.4940    -0.6750 C.3   1 <1>   0.1960 
  7 C        2.1090     1.6630     1.1830 C.3   1 <1>   0.1960 
  8 C       -2.6830     0.8660    -0.4900 C.ar  1 <1>  -0.1520 
  9 C       -1.9970     2.9140    -0.6500 C.2   1 <1>   0.0060 
 10 C        2.1560     0.7110    -1.6970 C.3   1 <1>  -0.1600 
 11 C        3.2300     2.4340     0.4800 C.3   1 <1>  -0.1600 
 12 C       -3.3470     1.5560    -1.4860 C.ar  1 <1>   0.2270 
 13 C       -2.9830    -0.4780    -0.2360 C.ar  1 <1>  -0.1500 
 14 N       -2.8980     2.8350    -1.5640 N.2   1 <1>  -0.5650 
 15 C       -1.2130     4.1900    -0.3950 C.3   1 <1>  -0.0600 
 16 C        3.5510     0.4120    -1.1310 C.3   1 <1>  -0.1600 
 17 C        4.1870     1.5820    -0.3680 C.3   1 <1>  -0.1600 
 18 C       -4.3230     0.9240    -2.2530 C.ar  1 <1>  -0.1500 
 19 C       -3.9480    -1.0970    -0.9980 C.ar  1 <1>  -0.1500 
 20 C       -4.6200    -0.3980    -2.0070 C.ar  1 <1>  -0.1500 
 21 H        0.1110     0.4350    -1.2300 H     1 <1>   0.0800 
 22 H        1.1670    -0.4520    -0.1760 H     1 <1>   0.0800 
 23 H        2.4350     0.6840     1.4950 H     1 <1>   0.0800 
 24 H        1.8650     2.2180     2.0730 H     1 <1>   0.0800 
 25 H        2.1030     1.7040    -2.1090 H     1 <1>   0.0800 
 26 H        1.9820     0.0240    -2.5050 H     1 <1>   0.0800 
 27 H        3.8180     2.9310     1.2320 H     1 <1>   0.0800 
 28 H        2.7900     3.2060    -0.1270 H     1 <1>   0.0800 
 29 H       -2.4750    -1.0220     0.5420 H     1 <1>   0.1500 
 30 H       -1.3650     4.5270     0.6150 H     1 <1>   0.0800 
 31 H       -1.5450     4.9630    -1.0650 H     1 <1>   0.0800 
 32 H       -0.1630     4.0260    -0.5590 H     1 <1>   0.0800 
 33 H        4.2080     0.1520    -1.9440 H     1 <1>   0.0800 
 34 H        3.4970    -0.4490    -0.4870 H     1 <1>   0.0800 
 35 H        4.9590     1.1840     0.2680 H     1 <1>   0.0800 
 36 H        4.6710     2.2350    -1.0750 H     1 <1>   0.0800 
 37 H       -4.8210     1.4880    -3.0200 H     1 <1>   0.1500 
 38 H       -4.1980    -2.1300    -0.8220 H     1 <1>   0.1500 
 39 H       -5.3710    -0.9030    -2.5900 H     1 <1>   0.1500 
@<TRIPOS>BOND
  1   1   2  2   
  2   1   3  2   
  3   1   4  am  
  4   1   5  1   
  5   4   6  1   
  6   4   7  1   
  7   5   8  1   
  8   5   9  1   
  9   6  10  1   
 10   6  21  1   
 11   6  22  1   
 12   7  11  1   
 13   7  23  1   
 14   7  24  1   
 15   8  12  ar  
 16   8  13  ar  
 17   9  14  2   
 18   9  15  1   
 19  10  16  1   
 20  10  25  1   
 21  10  26  1   
 22  11  17  1   
 23  11  27  1   
 24  11  28  1   
 25  12  14  1   
 26  12  18  ar  
 27  13  19  ar  
 28  13  29  1   
 29  15  30  1   
 30  15  31  1   
 31  15  32  1   
 32  16  17  1   
 33  16  33  1   
 34  16  34  1   
 35  17  35  1   
 36  17  36  1   
 37  18  20  ar  
 38  18  37  1   
 39  19  20  ar  
 40  19  38  1   
 41  20  39  1   
@<TRIPOS>SUBSTRUCTURE
  1 ****   5 GROUP 4 **** **** 0

# MOE 2024.06 (io_trps.svl 2023.06)
