@<TRIPOS>MOLECULE
NONAME
50 53 1 0 0 
SMALL
USER_CHARGES


@<TRIPOS>ATOM
  1 O       -3.2520    -1.0780    -3.3090 O.2   1 <1>  -0.5700 
  2 C       -2.7950    -0.8160    -2.2300 C.2   1 <1>   0.6590 
  3 O       -3.5230    -0.7640    -1.1260 O.3   1 <1>  -0.4300 
  4 C       -1.3230    -0.4820    -2.0730 C.3   1 <1>   0.3890 
  5 C       -4.9160    -1.0270    -1.1220 C.3   1 <1>   0.2000 
  6 N       -1.1310     0.9890    -1.8700 N.ar  1 <1>  -0.2100 
  7 C       -5.6300    -0.3330     0.0690 C.3   1 <1>   0.0000 
  8 C       -5.1850    -2.5220    -0.8680 C.3   1 <1>  -0.1600 
  9 C       -1.1520     1.5550    -0.5950 C.ar  1 <1>   0.3610 
 10 C       -0.9720     1.7480    -2.9590 C.ar  1 <1>   0.2110 
 11 C       -5.4970    -1.3510     1.2290 C.3   1 <1>   0.0000 
 12 C       -7.1340    -0.4300    -0.2850 C.3   1 <1>  -0.1600 
 13 C       -5.1900     1.1130     0.3510 C.3   1 <1>  -0.2400 
 14 C       -6.0850    -2.4980     0.3900 C.3   1 <1>  -0.0800 
 15 C       -0.9750     2.9570    -0.4790 C.ar  1 <1>   0.0000 
 16 C       -1.3410     0.8180     0.5950 C.ar  1 <1>  -0.1500 
 17 C       -0.8000     3.1240    -2.8680 C.ar  1 <1>  -0.1500 
 18 C       -6.3150    -1.0120     2.5040 C.3   1 <1>  -0.2400 
 19 C       -4.0630    -1.6270     1.7490 C.3   1 <1>  -0.2400 
 20 C       -7.4430    -1.9270    -0.0750 C.3   1 <1>  -0.1600 
 21 C       -0.7980     3.7280    -1.6410 C.ar  1 <1>  -0.1500 
 22 C       -0.9820     3.5510     0.7990 C.ar  1 <1>  -0.1500 
 23 C       -1.3450     1.4230     1.8240 C.ar  1 <1>  -0.1500 
 24 C       -1.1630     2.8020     1.9260 C.ar  1 <1>  -0.1500 
 25 H       -0.8160    -0.7870    -2.9710 H     1 <1>   0.0800 
 26 H       -0.9000    -1.0460    -1.2660 H     1 <1>   0.0800 
 27 H       -5.3320    -0.7000    -2.0610 H     1 <1>   0.0800 
 28 H       -4.2800    -3.0710    -0.6860 H     1 <1>   0.0800 
 29 H       -5.6940    -2.9700    -1.7040 H     1 <1>   0.0800 
 30 H       -0.9790     1.2980    -3.9410 H     1 <1>   0.1500 
 31 H       -7.3360    -0.1220    -1.2960 H     1 <1>   0.0800 
 32 H       -7.7340     0.1770     0.3700 H     1 <1>   0.0800 
 33 H       -4.1610     1.1470     0.6510 H     1 <1>   0.0800 
 34 H       -5.7840     1.5360     1.1420 H     1 <1>   0.0800 
 35 H       -5.3170     1.7180    -0.5290 H     1 <1>   0.0800 
 36 H       -6.1610    -3.4460     0.8940 H     1 <1>   0.0800 
 37 H       -1.4970    -0.2420     0.5750 H     1 <1>   0.1500 
 38 H       -0.6710     3.7060    -3.7670 H     1 <1>   0.1500 
 39 H       -5.8780    -0.1680     3.0080 H     1 <1>   0.0800 
 40 H       -6.2990    -1.8480     3.1810 H     1 <1>   0.0800 
 41 H       -7.3440    -0.7740     2.3230 H     1 <1>   0.0800 
 42 H       -4.0940    -2.3960     2.5010 H     1 <1>   0.0800 
 43 H       -3.6620    -0.7390     2.2020 H     1 <1>   0.0800 
 44 H       -3.3750    -1.9570     1.0010 H     1 <1>   0.0800 
 45 H       -7.7920    -2.3950    -0.9800 H     1 <1>   0.0800 
 46 H       -8.1960    -2.0610     0.6830 H     1 <1>   0.0800 
 47 H       -0.6640     4.7950    -1.5510 H     1 <1>   0.1500 
 48 H       -0.8440     4.6170     0.8780 H     1 <1>   0.1500 
 49 H       -1.4910     0.8510     2.7270 H     1 <1>   0.1500 
 50 H       -1.1690     3.2630     2.9020 H     1 <1>   0.1500 
@<TRIPOS>BOND
  1   1   2  2   
  2   2   3  1   
  3   2   4  1   
  4   3   5  1   
  5   4   6  1   
  6   4  25  1   
  7   4  26  1   
  8   5   7  1   
  9   5   8  1   
 10   5  27  1   
 11   6   9  ar  
 12   6  10  ar  
 13   7  11  1   
 14   7  12  1   
 15   7  13  1   
 16   8  14  1   
 17   8  28  1   
 18   8  29  1   
 19   9  15  ar  
 20   9  16  ar  
 21  10  17  ar  
 22  10  30  1   
 23  11  14  1   
 24  11  18  1   
 25  11  19  1   
 26  12  20  1   
 27  12  31  1   
 28  12  32  1   
 29  13  33  1   
 30  13  34  1   
 31  13  35  1   
 32  14  20  1   
 33  14  36  1   
 34  15  21  ar  
 35  15  22  ar  
 36  16  23  ar  
 37  16  37  1   
 38  17  21  ar  
 39  17  38  1   
 40  18  39  1   
 41  18  40  1   
 42  18  41  1   
 43  19  42  1   
 44  19  43  1   
 45  19  44  1   
 46  20  45  1   
 47  20  46  1   
 48  21  47  1   
 49  22  24  ar  
 50  22  48  1   
 51  23  24  ar  
 52  23  49  1   
 53  24  50  1   
@<TRIPOS>SUBSTRUCTURE
  1 ****   3 GROUP 4 **** **** 0

# MOE 2024.06 (io_trps.svl 2023.06)
