@<TRIPOS>MOLECULE
NONAME
42 43 1 0 0 
SMALL
USER_CHARGES


@<TRIPOS>ATOM
  1 O        0.6300     0.3730    -0.4750 O.3   1 <1>  -0.6800 
  2 C        0.4540    -0.9560    -0.8180 C.3   1 <1>   0.1200 
  3 C        0.9640    -1.8050     0.3560 C.3   1 <1>   0.3430 
  4 N        0.9950    -3.2780     0.0460 N.4   1 <1>  -0.9590 
  5 C       -0.2140    -3.9770     0.5690 C.3   1 <1>   0.4860 
  6 C        2.2370    -3.9340     0.5540 C.3   1 <1>   0.3430 
  7 C       -1.4230    -3.5290    -0.2230 C.ar  1 <1>  -0.1440 
  8 C        3.4780    -3.4880    -0.2370 C.3   1 <1>  -0.0800 
  9 C       -1.6010    -3.9540    -1.5330 C.ar  1 <1>  -0.1500 
 10 C       -2.3600    -2.6820     0.3540 C.ar  1 <1>  -0.1500 
 11 C        4.2250    -4.7200    -0.7860 C.3   1 <1>  -0.0220 
 12 C        4.4260    -2.6300     0.6260 C.3   1 <1>  -0.1600 
 13 C       -2.6950    -3.5210    -2.2620 C.ar  1 <1>  -0.1500 
 14 C       -3.4530    -2.2520    -0.3770 C.ar  1 <1>  -0.1500 
 15 C        5.5700    -4.3230    -1.3660 C.2   1 <1>  -0.2880 
 16 C        5.5970    -2.0830    -0.2070 C.3   1 <1>  -0.0220 
 17 C       -3.6190    -2.6690    -1.6850 C.ar  1 <1>  -0.1500 
 18 C        6.1680    -3.1550    -1.1180 C.2   1 <1>  -0.2880 
 19 H        0.2810     0.9730    -1.1690 H     1 <1>   0.4000 
 20 H        1.0250    -1.1430    -1.7100 H     1 <1>   0.0800 
 21 H       -0.5940    -1.1150    -1.0030 H     1 <1>   0.0800 
 22 H        0.3470    -1.6200     1.2190 H     1 <1>   0.0800 
 23 H        1.9600    -1.4650     0.5810 H     1 <1>   0.0800 
 24 H        0.9700    -3.3830    -0.9760 H     1 <1>   0.4500 
 25 H       -0.3530    -3.7560     1.6150 H     1 <1>   0.0800 
 26 H       -0.1030    -5.0440     0.4590 H     1 <1>   0.0800 
 27 H        2.1370    -5.0030     0.4590 H     1 <1>   0.0800 
 28 H        2.3730    -3.7110     1.6010 H     1 <1>   0.0800 
 29 H        3.1790    -2.8980    -1.0870 H     1 <1>   0.0800 
 30 H       -0.9030    -4.6260    -2.0020 H     1 <1>   0.1500 
 31 H       -2.2550    -2.3450     1.3720 H     1 <1>   0.1500 
 32 H        3.6360    -5.1850    -1.5570 H     1 <1>   0.0800 
 33 H        4.3960    -5.4430    -0.0080 H     1 <1>   0.0800 
 34 H        4.8290    -3.2360     1.4200 H     1 <1>   0.0800 
 35 H        3.9090    -1.8010     1.0760 H     1 <1>   0.0800 
 36 H       -2.8350    -3.8500    -3.2780 H     1 <1>   0.1500 
 37 H       -4.1790    -1.5930     0.0700 H     1 <1>   0.1500 
 38 H        6.0060    -5.0780    -2.0010 H     1 <1>   0.1500 
 39 H        6.3670    -1.7270     0.4560 H     1 <1>   0.0800 
 40 H        5.2690    -1.2550    -0.8100 H     1 <1>   0.0800 
 41 H       -4.4710    -2.3340    -2.2530 H     1 <1>   0.1500 
 42 H        7.1170    -2.8820    -1.5510 H     1 <1>   0.1500 
@<TRIPOS>BOND
  1   1   2  1   
  2   1  19  1   
  3   2   3  1   
  4   2  20  1   
  5   2  21  1   
  6   3   4  1   
  7   3  22  1   
  8   3  23  1   
  9   4   5  1   
 10   4   6  1   
 11   4  24  1   
 12   5   7  1   
 13   5  25  1   
 14   5  26  1   
 15   6   8  1   
 16   6  27  1   
 17   6  28  1   
 18   7   9  ar  
 19   7  10  ar  
 20   8  11  1   
 21   8  12  1   
 22   8  29  1   
 23   9  13  ar  
 24   9  30  1   
 25  10  14  ar  
 26  10  31  1   
 27  11  15  1   
 28  11  32  1   
 29  11  33  1   
 30  12  16  1   
 31  12  34  1   
 32  12  35  1   
 33  13  17  ar  
 34  13  36  1   
 35  14  17  ar  
 36  14  37  1   
 37  15  18  2   
 38  15  38  1   
 39  16  18  1   
 40  16  39  1   
 41  16  40  1   
 42  17  41  1   
 43  18  42  1   
@<TRIPOS>SUBSTRUCTURE
  1 ****   4 GROUP 4 **** **** 0

# MOE 2024.06 (io_trps.svl 2023.06)
