@<TRIPOS>MOLECULE
12119
43 44 1 0 0 
SMALL
USER_CHARGES


@<TRIPOS>ATOM
  1 S        0.3720    -0.4910     0.6780 S.3   1 <1>  -0.0800 
  2 C       -0.9370    -0.6780    -0.4490 C.2   1 <1>   0.4420 
  3 C        1.3630    -0.0390    -0.6670 C.2   1 <1>   0.1980 
  4 N       -0.5810    -0.4160    -1.6520 N.2   1 <1>  -0.3380 
  5 N       -2.1970    -1.0670    -0.0490 N.am  1 <1>  -0.4940 
  6 N        0.7320    -0.0530    -1.7700 N.2   1 <1>  -0.3380 
  7 C        2.8170     0.3050    -0.4050 C.3   1 <1>   0.0200 
  8 C       -2.7250    -1.3800     1.1720 C.2   1 <1>   0.5690 
  9 C        2.9620     1.6680     0.2870 C.3   1 <1>  -0.1600 
 10 O       -2.0950    -1.3580     2.1990 O.2   1 <1>  -0.5700 
 11 C       -4.1920    -1.7800     1.2330 C.3   1 <1>   0.1810 
 12 C        4.4330     2.0280     0.5220 C.3   1 <1>  -0.2400 
 13 O       -4.7800    -1.7400    -0.0590 O.3   1 <1>  -0.3620 
 14 C       -6.0790    -2.1040    -0.1130 C.ar  1 <1>   0.0820 
 15 C       -7.0820    -1.1580     0.1070 C.ar  1 <1>  -0.1440 
 16 C       -6.3880    -3.4320    -0.3920 C.ar  1 <1>  -0.1440 
 17 C       -8.4120    -1.5700     0.0920 C.ar  1 <1>  -0.1440 
 18 C       -6.7320     0.3090     0.3560 C.3   1 <1>  -0.0970 
 19 C       -7.7150    -3.8200    -0.4110 C.ar  1 <1>  -0.1500 
 20 C       -5.3030    -4.4620    -0.6780 C.3   1 <1>  -0.0970 
 21 C       -8.7150    -2.8980    -0.1660 C.ar  1 <1>  -0.1500 
 22 C       -9.5610    -0.6040     0.3510 C.3   1 <1>  -0.0970 
 23 H       -2.8670    -1.1330    -0.8160 H     1 <1>   0.3700 
 24 H        3.3370     0.3240    -1.3460 H     1 <1>   0.0800 
 25 H        3.2560    -0.4670     0.2030 H     1 <1>   0.0800 
 26 H        2.4470     1.6500     1.2320 H     1 <1>   0.0800 
 27 H        2.5030     2.4260    -0.3260 H     1 <1>   0.0800 
 28 H       -4.7250    -1.1030     1.8740 H     1 <1>   0.0800 
 29 H       -4.2790    -2.7790     1.6180 H     1 <1>   0.0800 
 30 H        4.9060     1.2940     1.1520 H     1 <1>   0.0800 
 31 H        4.5030     2.9870     1.0050 H     1 <1>   0.0800 
 32 H        4.9640     2.0790    -0.4120 H     1 <1>   0.0800 
 33 H       -5.7390     0.5420     0.0170 H     1 <1>   0.0800 
 34 H       -6.7990     0.5270     1.4060 H     1 <1>   0.0800 
 35 H       -7.4050     0.9540    -0.1780 H     1 <1>   0.0800 
 36 H       -7.9810    -4.8420    -0.6180 H     1 <1>   0.1500 
 37 H       -4.5720    -4.0520    -1.3510 H     1 <1>   0.0800 
 38 H       -5.7210    -5.3410    -1.1330 H     1 <1>   0.0800 
 39 H       -4.8170    -4.7470     0.2370 H     1 <1>   0.0800 
 40 H       -9.7400    -3.2250    -0.1840 H     1 <1>   0.1500 
 41 H       -9.6640     0.0730    -0.4780 H     1 <1>   0.0800 
 42 H       -9.3800    -0.0400     1.2480 H     1 <1>   0.0800 
 43 H      -10.4890    -1.1330     0.4730 H     1 <1>   0.0800 
@<TRIPOS>BOND
  1   1   2  1   
  2   1   3  1   
  3   2   4  2   
  4   2   5  1   
  5   3   6  2   
  6   3   7  1   
  7   4   6  1   
  8   5   8  am  
  9   5  23  1   
 10   7   9  1   
 11   7  24  1   
 12   7  25  1   
 13   8  10  2   
 14   8  11  1   
 15   9  12  1   
 16   9  26  1   
 17   9  27  1   
 18  11  13  1   
 19  11  28  1   
 20  11  29  1   
 21  12  30  1   
 22  12  31  1   
 23  12  32  1   
 24  13  14  1   
 25  14  15  ar  
 26  14  16  ar  
 27  15  17  ar  
 28  15  18  1   
 29  16  19  ar  
 30  16  20  1   
 31  17  21  ar  
 32  17  22  1   
 33  18  33  1   
 34  18  34  1   
 35  18  35  1   
 36  19  21  ar  
 37  19  36  1   
 38  20  37  1   
 39  20  38  1   
 40  20  39  1   
 41  21  40  1   
 42  22  41  1   
 43  22  42  1   
 44  22  43  1   
@<TRIPOS>SUBSTRUCTURE
  1 ****   5 GROUP 4 **** **** 0

# MOE 2024.06 (io_trps.svl 2023.06)
