@<TRIPOS>MOLECULE
NONAME
32 32 1 0 0 
SMALL
USER_CHARGES


@<TRIPOS>ATOM
  1 O       -0.3340     0.0220     0.2710 O.2   1 <1>  -0.5700 
  2 C       -0.7110    -1.0880    -0.0510 C.2   1 <1>   0.6900 
  3 N        0.1420    -2.1370    -0.2020 N.am  1 <1>  -0.5470 
  4 N       -2.0280    -1.3230    -0.2720 N.am  1 <1>  -0.7300 
  5 C        1.5400    -2.2710    -0.1030 C.ar  1 <1>   0.1170 
  6 C       -3.0960    -0.3160    -0.1360 C.3   1 <1>   0.1400 
  7 C        2.0770    -3.5630    -0.0680 C.ar  1 <1>   0.0830 
  8 C        2.4070    -1.1850    -0.0490 C.ar  1 <1>  -0.1500 
  9 C       -4.3440    -1.0010     0.4100 C.3   1 <1>  -0.2400 
 10 O        1.1960    -4.6090    -0.1340 O.3   1 <1>  -0.3630 
 11 C        3.4520    -3.7440     0.0290 C.ar  1 <1>  -0.1500 
 12 C        3.7750    -1.3690     0.0480 C.ar  1 <1>  -0.1500 
 13 C        1.6460    -5.9440    -0.0560 C.3   1 <1>   0.0400 
 14 C        4.3040    -2.6540     0.0880 C.ar  1 <1>   0.0830 
 15 O        5.6330    -2.9240     0.1830 O.3   1 <1>  -0.3630 
 16 C        6.5780    -1.8810     0.2680 C.3   1 <1>   0.0400 
 17 H       -0.3130    -3.0410    -0.3000 H     1 <1>   0.3700 
 18 H       -2.3110    -2.2170    -0.6640 H     1 <1>   0.3700 
 19 H       -3.2990     0.1210    -1.0990 H     1 <1>   0.0800 
 20 H       -2.7800     0.4660     0.5350 H     1 <1>   0.0800 
 21 H        2.0200    -0.1840    -0.0840 H     1 <1>   0.1500 
 22 H       -4.6830    -1.7640    -0.2670 H     1 <1>   0.0800 
 23 H       -5.1280    -0.2750     0.5270 H     1 <1>   0.0800 
 24 H       -4.1370    -1.4350     1.3720 H     1 <1>   0.0800 
 25 H        3.8970    -4.7190     0.0590 H     1 <1>   0.1500 
 26 H        4.4040    -0.5000     0.0890 H     1 <1>   0.1500 
 27 H        0.7890    -6.5910    -0.1080 H     1 <1>   0.0800 
 28 H        2.1550    -6.0870     0.8820 H     1 <1>   0.0800 
 29 H        2.3030    -6.1410    -0.8850 H     1 <1>   0.0800 
 30 H        7.5560    -2.3210     0.3440 H     1 <1>   0.0800 
 31 H        6.3720    -1.2940     1.1460 H     1 <1>   0.0800 
 32 H        6.5150    -1.2800    -0.6210 H     1 <1>   0.0800 
@<TRIPOS>BOND
  1   1   2  2   
  2   2   3  am  
  3   2   4  am  
  4   3   5  1   
  5   3  17  1   
  6   4   6  1   
  7   4  18  1   
  8   5   7  ar  
  9   5   8  ar  
 10   6   9  1   
 11   6  19  1   
 12   6  20  1   
 13   7  10  1   
 14   7  11  ar  
 15   8  12  ar  
 16   8  21  1   
 17   9  22  1   
 18   9  23  1   
 19   9  24  1   
 20  10  13  1   
 21  11  14  ar  
 22  11  25  1   
 23  12  14  ar  
 24  12  26  1   
 25  13  27  1   
 26  13  28  1   
 27  13  29  1   
 28  14  15  1   
 29  15  16  1   
 30  16  30  1   
 31  16  31  1   
 32  16  32  1   
@<TRIPOS>SUBSTRUCTURE
  1 ****   5 GROUP 4 **** **** 0

# MOE 2024.06 (io_trps.svl 2023.06)
