@<TRIPOS>MOLECULE
NONAME
35 36 1 0 0 
SMALL
USER_CHARGES


@<TRIPOS>ATOM
  1 O       -0.0510    -0.2270     1.3810 O.2   1 <1>  -0.5700 
  2 C       -0.0510    -0.9720     0.4220 C.2   1 <1>   0.6900 
  3 N        1.0960    -1.3520    -0.2090 N.am  1 <1>  -0.5470 
  4 N       -1.2140    -1.4710    -0.0580 N.am  1 <1>  -0.7300 
  5 C        2.4300    -0.9590    -0.0290 C.ar  1 <1>   0.1170 
  6 C       -2.5500    -1.1850     0.4900 C.3   1 <1>   0.2200 
  7 C        3.4370    -1.8010    -0.4820 C.ar  1 <1>  -0.1500 
  8 C        2.7950     0.2460     0.5650 C.ar  1 <1>  -0.1500 
  9 C       -3.3000    -2.5000     0.6610 C.3   1 <1>  -0.1600 
 10 C       -3.3660    -0.4500    -0.5650 C.3   1 <1>  -0.1600 
 11 C        4.7720    -1.4650    -0.3470 C.ar  1 <1>   0.0830 
 12 C        4.1270     0.5920     0.7070 C.ar  1 <1>  -0.1500 
 13 C       -3.8520    -2.8490    -0.7260 C.3   1 <1>  -0.1600 
 14 C       -3.8950    -1.5330    -1.5130 C.3   1 <1>  -0.1600 
 15 O        5.6760    -2.3590    -0.8220 O.3   1 <1>  -0.3630 
 16 C        5.1200    -0.2580     0.2540 C.ar  1 <1>  -0.1500 
 17 C        7.0620    -2.1250    -0.7100 C.3   1 <1>   0.0400 
 18 H        0.9640    -2.1240    -0.8520 H     1 <1>   0.3700 
 19 H       -1.2290    -1.9790    -0.9360 H     1 <1>   0.3700 
 20 H       -2.4780    -0.6310     1.4130 H     1 <1>   0.0800 
 21 H        3.1900    -2.7370    -0.9440 H     1 <1>   0.1500 
 22 H        2.0380     0.9210     0.9180 H     1 <1>   0.1500 
 23 H       -4.1240    -2.3340     1.3330 H     1 <1>   0.0800 
 24 H       -2.6750    -3.2740     1.0710 H     1 <1>   0.0800 
 25 H       -2.7900     0.3050    -1.0710 H     1 <1>   0.0800 
 26 H       -4.1990     0.0250    -0.0780 H     1 <1>   0.0800 
 27 H        4.3870     1.5270     1.1730 H     1 <1>   0.1500 
 28 H       -4.8300    -3.2930    -0.6470 H     1 <1>   0.0800 
 29 H       -3.1950    -3.5460    -1.2180 H     1 <1>   0.0800 
 30 H       -3.2590    -1.6060    -2.3790 H     1 <1>   0.0800 
 31 H       -4.8960    -1.3010    -1.8380 H     1 <1>   0.0800 
 32 H        6.1450     0.0340     0.3760 H     1 <1>   0.1500 
 33 H        7.5780    -2.9640    -1.1410 H     1 <1>   0.0800 
 34 H        7.3180    -2.0350     0.3310 H     1 <1>   0.0800 
 35 H        7.3100    -1.2280    -1.2490 H     1 <1>   0.0800 
@<TRIPOS>BOND
  1   1   2  2   
  2   2   3  am  
  3   2   4  am  
  4   3   5  1   
  5   3  18  1   
  6   4   6  1   
  7   4  19  1   
  8   5   7  ar  
  9   5   8  ar  
 10   6   9  1   
 11   6  10  1   
 12   6  20  1   
 13   7  11  ar  
 14   7  21  1   
 15   8  12  ar  
 16   8  22  1   
 17   9  13  1   
 18   9  23  1   
 19   9  24  1   
 20  10  14  1   
 21  10  25  1   
 22  10  26  1   
 23  11  15  1   
 24  11  16  ar  
 25  12  16  ar  
 26  12  27  1   
 27  13  14  1   
 28  13  28  1   
 29  13  29  1   
 30  14  30  1   
 31  14  31  1   
 32  15  17  1   
 33  16  32  1   
 34  17  33  1   
 35  17  34  1   
 36  17  35  1   
@<TRIPOS>SUBSTRUCTURE
  1 ****   3 GROUP 4 **** **** 0

# MOE 2024.06 (io_trps.svl 2023.06)
