@<TRIPOS>MOLECULE
NONAME
52 53 1 0 0 
SMALL
USER_CHARGES


@<TRIPOS>ATOM
  1 S       -0.8000     0.1790     1.4000 S.o2  1 <1>   1.4470 
  2 O       -0.2760     0.5680     2.6900 O.2   1 <1>  -0.6500 
  3 O       -0.9760    -1.2260     1.1100 O.2   1 <1>  -0.6500 
  4 N       -2.3310     0.9080     1.2410 N.am  1 <1>  -0.8490 
  5 C        0.1970     0.8900     0.0570 C.ar  1 <1>  -0.0090 
  6 C       -3.3780     0.0510     1.8730 C.3   1 <1>   0.2570 
  7 C       -2.4150     2.2620     1.8170 C.3   1 <1>   0.1960 
  8 C       -0.2630     0.8630    -1.2580 C.ar  1 <1>  -0.1500 
  9 C        1.4410     1.4670     0.3120 C.ar  1 <1>  -0.1500 
 10 C       -4.8060     0.4010     1.4480 C.2   1 <1>   0.5690 
 11 C       -1.7360     3.2940     0.9220 C.3   1 <1>  -0.2400 
 12 C        0.4810     1.4070    -2.2920 C.ar  1 <1>  -0.1500 
 13 C        2.2010     2.0160    -0.7090 C.ar  1 <1>  -0.1500 
 14 O       -5.7000     0.3130     2.2540 O.2   1 <1>  -0.5700 
 15 N       -4.9900     0.8110     0.1590 N.am  1 <1>  -0.5470 
 16 C        1.7030     1.9760    -1.9960 C.ar  1 <1>   0.1900 
 17 C       -6.1760     1.1750    -0.4950 C.ar  1 <1>   0.1170 
 18 F        2.4090     2.4940    -2.9630 F     1 <1>  -0.1900 
 19 C       -7.0930     0.1990    -0.9010 C.ar  1 <1>  -0.1430 
 20 C       -6.4240     2.5250    -0.7720 C.ar  1 <1>  -0.1430 
 21 C       -8.2390     0.5770    -1.5780 C.ar  1 <1>  -0.1500 
 22 C       -6.8810    -1.2900    -0.6350 C.3   1 <1>  -0.0170 
 23 C       -7.5840     2.8740    -1.4520 C.ar  1 <1>  -0.1500 
 24 C       -5.4140     3.5830    -0.3070 C.3   1 <1>  -0.0170 
 25 C       -8.4850     1.9080    -1.8530 C.ar  1 <1>  -0.1500 
 26 C       -5.9350    -1.9060    -1.6690 C.3   1 <1>  -0.2400 
 27 C       -5.7200     5.0330    -0.7000 C.3   1 <1>  -0.2400 
 28 H       -3.3040     0.1090     2.9460 H     1 <1>   0.0800 
 29 H       -3.2430    -0.9780     1.5960 H     1 <1>   0.0800 
 30 H       -1.9940     2.2890     2.8100 H     1 <1>   0.0800 
 31 H       -3.4480     2.5540     1.9070 H     1 <1>   0.0800 
 32 H       -1.2160     0.4090    -1.4730 H     1 <1>   0.1500 
 33 H        1.8180     1.4890     1.3220 H     1 <1>   0.1500 
 34 H       -2.0250     3.1600    -0.1050 H     1 <1>   0.0800 
 35 H       -0.6680     3.2390     1.0120 H     1 <1>   0.0800 
 36 H       -2.0330     4.2800     1.2320 H     1 <1>   0.0800 
 37 H        0.1270     1.3890    -3.3080 H     1 <1>   0.1500 
 38 H        3.1600     2.4630    -0.5150 H     1 <1>   0.1500 
 39 H       -4.1250     0.9670    -0.3590 H     1 <1>   0.3700 
 40 H       -8.9510    -0.1630    -1.8980 H     1 <1>   0.1500 
 41 H       -7.8260    -1.8020    -0.6750 H     1 <1>   0.0800 
 42 H       -6.4930    -1.4420     0.3560 H     1 <1>   0.0800 
 43 H       -7.8150     3.8980    -1.6810 H     1 <1>   0.1500 
 44 H       -4.4490     3.3300    -0.7060 H     1 <1>   0.0800 
 45 H       -5.3510     3.5320     0.7660 H     1 <1>   0.0800 
 46 H       -9.3800     2.1910    -2.3790 H     1 <1>   0.1500 
 47 H       -6.3350    -1.7730    -2.6590 H     1 <1>   0.0800 
 48 H       -5.8160    -2.9580    -1.4810 H     1 <1>   0.0800 
 49 H       -4.9700    -1.4350    -1.6210 H     1 <1>   0.0800 
 50 H       -5.7730     5.1280    -1.7700 H     1 <1>   0.0800 
 51 H       -4.9420     5.6810    -0.3390 H     1 <1>   0.0800 
 52 H       -6.6520     5.3500    -0.2670 H     1 <1>   0.0800 
@<TRIPOS>BOND
  1   1   2  2   
  2   1   3  2   
  3   1   4  am  
  4   1   5  1   
  5   4   6  1   
  6   4   7  1   
  7   5   8  ar  
  8   5   9  ar  
  9   6  10  1   
 10   6  28  1   
 11   6  29  1   
 12   7  11  1   
 13   7  30  1   
 14   7  31  1   
 15   8  12  ar  
 16   8  32  1   
 17   9  13  ar  
 18   9  33  1   
 19  10  14  2   
 20  10  15  am  
 21  11  34  1   
 22  11  35  1   
 23  11  36  1   
 24  12  16  ar  
 25  12  37  1   
 26  13  16  ar  
 27  13  38  1   
 28  15  17  1   
 29  15  39  1   
 30  16  18  1   
 31  17  19  ar  
 32  17  20  ar  
 33  19  21  ar  
 34  19  22  1   
 35  20  23  ar  
 36  20  24  1   
 37  21  25  ar  
 38  21  40  1   
 39  22  26  1   
 40  22  41  1   
 41  22  42  1   
 42  23  25  ar  
 43  23  43  1   
 44  24  27  1   
 45  24  44  1   
 46  24  45  1   
 47  25  46  1   
 48  26  47  1   
 49  26  48  1   
 50  26  49  1   
 51  27  50  1   
 52  27  51  1   
 53  27  52  1   
@<TRIPOS>SUBSTRUCTURE
  1 ****   4 GROUP 4 **** **** 0

# MOE 2024.06 (io_trps.svl 2023.06)
