@<TRIPOS>MOLECULE
NONAME
38 40 1 0 0 
SMALL
USER_CHARGES


@<TRIPOS>ATOM
  1 BR       3.4570    -1.8120    -0.0490 Br    1 <1>  -0.0580 
  2 C        3.1430     0.0640     0.2250 C.2   1 <1>   0.1980 
  3 O        4.0620     0.9050    -0.1770 O.3   1 <1>  -0.2800 
  4 C        2.0820     0.6700     0.7900 C.2   1 <1>  -0.1500 
  5 C        3.6280     2.1340     0.1210 C.2   1 <1>   0.0550 
  6 C        2.4010     2.0280     0.7170 C.2   1 <1>  -0.1500 
  7 C        4.3860     3.3270    -0.2000 C.2   1 <1>   0.7150 
  8 O        3.8030     4.3980    -0.2200 O.2   1 <1>  -0.5700 
  9 N        5.7400     3.3230    -0.4830 N.am  1 <1>  -0.6600 
 10 C        6.4030     4.4760    -1.1730 C.3   1 <1>   0.1400 
 11 C        6.7090     2.3060     0.0370 C.3   1 <1>   0.1400 
 12 C        7.4600     5.1400    -0.2770 C.3   1 <1>   0.2090 
 13 C        7.8110     2.9450     0.9050 C.3   1 <1>   0.2090 
 14 N        8.4310     4.1470     0.2710 N.pl3 1 <1>  -0.8380 
 15 C        9.6700     4.0150    -0.3530 C.ar  1 <1>   0.1000 
 16 C       10.8150     4.6040     0.1920 C.ar  1 <1>  -0.1440 
 17 C        9.7830     3.2940    -1.5360 C.ar  1 <1>  -0.1500 
 18 C       12.0420     4.4660    -0.4400 C.ar  1 <1>  -0.1500 
 19 C       10.7240     5.3990     1.4870 C.3   1 <1>  -0.0970 
 20 C       11.0100     3.1670    -2.1510 C.ar  1 <1>   0.1770 
 21 C       12.1460     3.7450    -1.6180 C.ar  1 <1>  -0.1500 
 22 CL      11.1320     2.2570    -3.6350 Cl    1 <1>  -0.1770 
 23 H        1.1910     0.2330     1.2020 H     1 <1>   0.1500 
 24 H        1.7830     2.8370     1.0660 H     1 <1>   0.1500 
 25 H        5.6770     5.2140    -1.4660 H     1 <1>   0.0800 
 26 H        6.8780     4.1190    -2.0690 H     1 <1>   0.0800 
 27 H        7.1630     1.7980    -0.7950 H     1 <1>   0.0800 
 28 H        6.2080     1.5700     0.6370 H     1 <1>   0.0800 
 29 H        6.9680     5.6380     0.5400 H     1 <1>   0.0800 
 30 H        7.9920     5.8850    -0.8440 H     1 <1>   0.0800 
 31 H        8.5750     2.2140     1.1070 H     1 <1>   0.0800 
 32 H        7.3860     3.2380     1.8490 H     1 <1>   0.0800 
 33 H        8.9190     2.8370    -1.9740 H     1 <1>   0.1500 
 34 H       12.9230     4.9190    -0.0210 H     1 <1>   0.1500 
 35 H       10.0570     6.2310     1.3540 H     1 <1>   0.0800 
 36 H       11.6860     5.7720     1.7860 H     1 <1>   0.0800 
 37 H       10.3380     4.7720     2.2700 H     1 <1>   0.0800 
 38 H       13.0910     3.6320    -2.1160 H     1 <1>   0.1500 
@<TRIPOS>BOND
  1   1   2  1   
  2   2   3  1   
  3   2   4  2   
  4   3   5  1   
  5   4   6  1   
  6   4  23  1   
  7   5   6  2   
  8   5   7  1   
  9   6  24  1   
 10   7   8  2   
 11   7   9  am  
 12   9  10  1   
 13   9  11  1   
 14  10  12  1   
 15  10  25  1   
 16  10  26  1   
 17  11  13  1   
 18  11  27  1   
 19  11  28  1   
 20  12  14  1   
 21  12  29  1   
 22  12  30  1   
 23  13  14  1   
 24  13  31  1   
 25  13  32  1   
 26  14  15  1   
 27  15  16  ar  
 28  15  17  ar  
 29  16  18  ar  
 30  16  19  1   
 31  17  20  ar  
 32  17  33  1   
 33  18  21  ar  
 34  18  34  1   
 35  19  35  1   
 36  19  36  1   
 37  19  37  1   
 38  20  21  ar  
 39  20  22  1   
 40  21  38  1   
@<TRIPOS>SUBSTRUCTURE
  1 ****  11 GROUP 4 **** **** 0

# MOE 2024.06 (io_trps.svl 2023.06)
