@<TRIPOS>MOLECULE
NONAME
31 31 1 0 0 
SMALL
USER_CHARGES


@<TRIPOS>ATOM
  1 O       -0.4930    -0.1330     1.0790 O.2   1 <1>  -0.5700 
  2 C       -1.4410    -0.6440     0.5440 C.2   1 <1>   0.5690 
  3 N       -2.6890    -0.4370     1.0340 N.am  1 <1>  -0.5470 
  4 C       -1.2190    -1.5000    -0.6810 C.3   1 <1>  -0.1790 
  5 C       -3.9210    -0.9410     0.6010 C.ar  1 <1>   0.1170 
  6 C       -4.9340    -0.0630     0.2450 C.ar  1 <1>  -0.1500 
  7 C       -4.1470    -2.3090     0.5350 C.ar  1 <1>  -0.1500 
  8 C       -6.1650    -0.5380    -0.1920 C.ar  1 <1>   0.0830 
  9 C       -5.3690    -2.8070     0.1000 C.ar  1 <1>   0.0830 
 10 O       -7.1860     0.2940    -0.5510 O.3   1 <1>  -0.3630 
 11 C       -6.3770    -1.9150    -0.2680 C.ar  1 <1>   0.0830 
 12 O       -5.6320    -4.1450     0.0220 O.3   1 <1>  -0.3630 
 13 C       -6.9730     1.6720    -0.7600 C.3   1 <1>   0.0400 
 14 O       -7.5680    -2.3920    -0.7250 O.3   1 <1>  -0.3630 
 15 C       -4.6300    -5.1110     0.2450 C.3   1 <1>   0.0400 
 16 C       -8.5450    -2.5950     0.2670 C.3   1 <1>   0.0400 
 17 H       -2.7060     0.2280     1.8080 H     1 <1>   0.3700 
 18 H       -1.9830    -1.3110    -1.4120 H     1 <1>   0.0800 
 19 H       -1.2330    -2.5370    -0.4050 H     1 <1>   0.0800 
 20 H       -0.2630    -1.2690    -1.1130 H     1 <1>   0.0800 
 21 H       -4.7380     0.9890     0.3160 H     1 <1>   0.1500 
 22 H       -3.3560    -2.9670     0.8370 H     1 <1>   0.1500 
 23 H       -7.8860     2.0940    -1.1410 H     1 <1>   0.0800 
 24 H       -6.1840     1.7990    -1.4810 H     1 <1>   0.0800 
 25 H       -6.7220     2.1340     0.1770 H     1 <1>   0.0800 
 26 H       -5.0590    -6.0810     0.0710 H     1 <1>   0.0800 
 27 H       -4.2950    -5.0390     1.2650 H     1 <1>   0.0800 
 28 H       -3.8210    -4.9410    -0.4430 H     1 <1>   0.0800 
 29 H       -9.4330    -2.9690    -0.2080 H     1 <1>   0.0800 
 30 H       -8.7490    -1.6550     0.7490 H     1 <1>   0.0800 
 31 H       -8.1730    -3.3130     0.9770 H     1 <1>   0.0800 
@<TRIPOS>BOND
  1   1   2  2   
  2   2   3  am  
  3   2   4  1   
  4   3   5  1   
  5   3  17  1   
  6   4  18  1   
  7   4  19  1   
  8   4  20  1   
  9   5   6  ar  
 10   5   7  ar  
 11   6   8  ar  
 12   6  21  1   
 13   7   9  ar  
 14   7  22  1   
 15   8  10  1   
 16   8  11  ar  
 17   9  11  ar  
 18   9  12  1   
 19  10  13  1   
 20  11  14  1   
 21  12  15  1   
 22  13  23  1   
 23  13  24  1   
 24  13  25  1   
 25  14  16  1   
 26  15  26  1   
 27  15  27  1   
 28  15  28  1   
 29  16  29  1   
 30  16  30  1   
 31  16  31  1   
@<TRIPOS>SUBSTRUCTURE
  1 ****   7 GROUP 4 **** **** 0

# MOE 2024.06 (io_trps.svl 2023.06)
