@<TRIPOS>MOLECULE
NONAME
50 52 1 0 0 
SMALL
USER_CHARGES


@<TRIPOS>ATOM
  1 F        0.7670    -0.0620     0.5380 F     1 <1>  -0.3400 
  2 C        0.7410     0.8060    -0.4670 C.3   1 <1>   1.1640 
  3 F        1.1190     0.1340    -1.5470 F     1 <1>  -0.3400 
  4 F       -0.5360     1.1210    -0.6520 F     1 <1>  -0.3400 
  5 C        1.6290     2.0350    -0.2200 C.ar  1 <1>  -0.1440 
  6 C        1.3280     3.2550    -0.8170 C.ar  1 <1>  -0.1500 
  7 C        2.7570     1.9530     0.5910 C.ar  1 <1>  -0.1500 
  8 C        2.1150     4.3810    -0.6040 C.ar  1 <1>   0.1170 
  9 C        3.5560     3.0640     0.8020 C.ar  1 <1>  -0.1500 
 10 N        1.8130     5.6100    -1.1980 N.am  1 <1>  -0.5470 
 11 C        3.2360     4.2690     0.2070 C.ar  1 <1>  -0.1500 
 12 C        0.6560     6.3230    -1.2310 C.2   1 <1>   0.5690 
 13 O        0.6240     7.3650    -1.8340 O.2   1 <1>  -0.5700 
 14 C       -0.5860     5.8300    -0.5030 C.3   1 <1>  -0.0990 
 15 C       -1.6160     6.9430    -0.2210 C.3   1 <1>  -0.0990 
 16 C       -2.8470     6.4670     0.5380 C.2   1 <1>   0.5690 
 17 O       -2.9120     5.3010     0.8530 O.2   1 <1>  -0.5700 
 18 N       -3.8490     7.3490     0.8520 N.am  1 <1>  -0.6600 
 19 C       -3.8950     8.7990     0.4670 C.3   1 <1>   0.1400 
 20 C       -5.0780     6.9040     1.5830 C.3   1 <1>   0.1400 
 21 C       -5.1830     9.1340    -0.3060 C.3   1 <1>   0.2090 
 22 C       -6.3550     7.2480     0.7970 C.3   1 <1>   0.2090 
 23 N       -6.3980     8.6990     0.4490 N.pl3 1 <1>  -0.8380 
 24 C       -7.6220     9.2020     0.0520 C.ar  1 <1>   0.4100 
 25 N       -7.7790     9.4810    -1.2370 N.ar  1 <1>  -0.6200 
 26 C       -8.6260     9.3850     0.9990 C.ar  1 <1>  -0.1500 
 27 C       -8.9660     9.9480    -1.5870 C.ar  1 <1>   0.1600 
 28 C       -9.8560     9.8710     0.6230 C.ar  1 <1>  -0.1500 
 29 C      -10.0220    10.1580    -0.7170 C.ar  1 <1>  -0.1500 
 30 H        0.4750     3.3370    -1.4660 H     1 <1>   0.1500 
 31 H        3.0230     1.0220     1.0660 H     1 <1>   0.1500 
 32 H        4.4260     2.9880     1.4310 H     1 <1>   0.1500 
 33 H        2.5880     6.1040    -1.6410 H     1 <1>   0.3700 
 34 H        3.8570     5.1310     0.3770 H     1 <1>   0.1500 
 35 H       -0.2890     5.3880     0.4310 H     1 <1>   0.0800 
 36 H       -1.0540     5.0700    -1.1010 H     1 <1>   0.0800 
 37 H       -1.9380     7.3590    -1.1580 H     1 <1>   0.0800 
 38 H       -1.1420     7.7190     0.3520 H     1 <1>   0.0800 
 39 H       -3.0490     9.0720    -0.1350 H     1 <1>   0.0800 
 40 H       -3.8670     9.3960     1.3620 H     1 <1>   0.0800 
 41 H       -5.1140     7.3940     2.5400 H     1 <1>   0.0800 
 42 H       -5.0530     5.8430     1.7590 H     1 <1>   0.0800 
 43 H       -5.1640     8.6440    -1.2640 H     1 <1>   0.0800 
 44 H       -5.2330    10.1950    -0.4770 H     1 <1>   0.0800 
 45 H       -7.2170     6.9880     1.3850 H     1 <1>   0.0800 
 46 H       -6.3820     6.6650    -0.1080 H     1 <1>   0.0800 
 47 H       -8.4170     9.1460     2.0240 H     1 <1>   0.1500 
 48 H       -9.1070    10.1760    -2.6290 H     1 <1>   0.1500 
 49 H      -10.6480    10.0230     1.3350 H     1 <1>   0.1500 
 50 H      -10.9570    10.5420    -1.0820 H     1 <1>   0.1500 
@<TRIPOS>BOND
  1   1   2  1   
  2   2   3  1   
  3   2   4  1   
  4   2   5  1   
  5   5   6  ar  
  6   5   7  ar  
  7   6   8  ar  
  8   6  30  1   
  9   7   9  ar  
 10   7  31  1   
 11   8  10  1   
 12   8  11  ar  
 13   9  11  ar  
 14   9  32  1   
 15  10  12  am  
 16  10  33  1   
 17  11  34  1   
 18  12  13  2   
 19  12  14  1   
 20  14  15  1   
 21  14  35  1   
 22  14  36  1   
 23  15  16  1   
 24  15  37  1   
 25  15  38  1   
 26  16  17  2   
 27  16  18  am  
 28  18  19  1   
 29  18  20  1   
 30  19  21  1   
 31  19  39  1   
 32  19  40  1   
 33  20  22  1   
 34  20  41  1   
 35  20  42  1   
 36  21  23  1   
 37  21  43  1   
 38  21  44  1   
 39  22  23  1   
 40  22  45  1   
 41  22  46  1   
 42  23  24  1   
 43  24  25  ar  
 44  24  26  ar  
 45  25  27  ar  
 46  26  28  ar  
 47  26  47  1   
 48  27  29  ar  
 49  27  48  1   
 50  28  29  ar  
 51  28  49  1   
 52  29  50  1   
@<TRIPOS>SUBSTRUCTURE
  1 ****  16 GROUP 4 **** **** 0

# MOE 2024.06 (io_trps.svl 2023.06)
