@<TRIPOS>MOLECULE
NONAME
42 43 1 0 0 
SMALL
USER_CHARGES


@<TRIPOS>ATOM
  1 N        0.3150     0.2610    -0.4410 N.4   1 <1>  -0.9590 
  2 C        1.2920    -0.0100    -1.5470 C.3   1 <1>   0.4860 
  3 C       -0.9900    -0.4620    -0.6650 C.3   1 <1>   0.3430 
  4 C        0.1680     1.7470    -0.2510 C.3   1 <1>   0.2630 
  5 C        2.6610     0.4130    -1.0600 C.ar  1 <1>  -0.1440 
  6 C       -1.9720    -0.4060     0.5430 C.3   1 <1>   0.3430 
  7 C        3.3260    -0.3490    -0.0650 C.ar  1 <1>   0.0000 
  8 C        3.2280     1.5520    -1.5720 C.ar  1 <1>  -0.1500 
  9 N       -3.2900    -1.1160     0.3230 N.4   1 <1>  -0.9590 
 10 C        4.5480     0.1440     0.4460 C.ar  1 <1>   0.0000 
 11 C        2.8480    -1.5800     0.4490 C.ar  1 <1>  -0.1500 
 12 C        4.4580     2.0080    -1.0900 C.ar  1 <1>  -0.1500 
 13 C       -4.2240    -0.8390     1.4680 C.3   1 <1>   0.2630 
 14 C       -3.1540    -2.6050     0.1650 C.3   1 <1>   0.2630 
 15 C        5.0950     1.3220    -0.0970 C.ar  1 <1>  -0.1500 
 16 C        5.1950    -0.5570     1.4820 C.ar  1 <1>  -0.1500 
 17 C        3.5030    -2.2440     1.4480 C.ar  1 <1>  -0.1500 
 18 C        4.6850    -1.7220     1.9790 C.ar  1 <1>  -0.1500 
 19 H        0.8070    -0.0980     0.3970 H     1 <1>   0.4500 
 20 H        1.0250     0.5440    -2.4330 H     1 <1>   0.0800 
 21 H        1.3140    -1.0590    -1.7940 H     1 <1>   0.0800 
 22 H       -0.7770    -1.4970    -0.8790 H     1 <1>   0.0800 
 23 H       -1.4770    -0.0370    -1.5280 H     1 <1>   0.0800 
 24 H       -0.2580     2.2030    -1.1310 H     1 <1>   0.0800 
 25 H        1.1320     2.1970    -0.0700 H     1 <1>   0.0800 
 26 H       -0.4630     1.9660     0.5950 H     1 <1>   0.0800 
 27 H       -2.1760     0.6290     0.7630 H     1 <1>   0.0800 
 28 H       -1.4870    -0.8370     1.4040 H     1 <1>   0.0800 
 29 H        2.7540     2.1320    -2.3460 H     1 <1>   0.1500 
 30 H       -3.7580    -0.7460    -0.5230 H     1 <1>   0.4500 
 31 H        1.9630    -2.0300     0.0460 H     1 <1>   0.1500 
 32 H        4.8920     2.9030    -1.5060 H     1 <1>   0.1500 
 33 H       -3.8150    -1.2170     2.3910 H     1 <1>   0.0800 
 34 H       -5.1770    -1.3160     1.2980 H     1 <1>   0.0800 
 35 H       -4.3920     0.2210     1.5740 H     1 <1>   0.0800 
 36 H       -2.6990    -3.0390     1.0410 H     1 <1>   0.0800 
 37 H       -2.5530    -2.8480    -0.6960 H     1 <1>   0.0800 
 38 H       -4.1260    -3.0550     0.0320 H     1 <1>   0.0800 
 39 H        6.0380     1.6740     0.2850 H     1 <1>   0.1500 
 40 H        6.1130    -0.1580     1.8780 H     1 <1>   0.1500 
 41 H        3.1370    -3.1800     1.8380 H     1 <1>   0.1500 
 42 H        5.1880    -2.2540     2.7700 H     1 <1>   0.1500 
@<TRIPOS>BOND
  1   1   2  1   
  2   1   3  1   
  3   1   4  1   
  4   1  19  1   
  5   2   5  1   
  6   2  20  1   
  7   2  21  1   
  8   3   6  1   
  9   3  22  1   
 10   3  23  1   
 11   4  24  1   
 12   4  25  1   
 13   4  26  1   
 14   5   7  ar  
 15   5   8  ar  
 16   6   9  1   
 17   6  27  1   
 18   6  28  1   
 19   7  10  ar  
 20   7  11  ar  
 21   8  12  ar  
 22   8  29  1   
 23   9  13  1   
 24   9  14  1   
 25   9  30  1   
 26  10  15  ar  
 27  10  16  ar  
 28  11  17  ar  
 29  11  31  1   
 30  12  15  ar  
 31  12  32  1   
 32  13  33  1   
 33  13  34  1   
 34  13  35  1   
 35  14  36  1   
 36  14  37  1   
 37  14  38  1   
 38  15  39  1   
 39  16  18  ar  
 40  16  40  1   
 41  17  18  ar  
 42  17  41  1   
 43  18  42  1   
@<TRIPOS>SUBSTRUCTURE
  1 ****   1 GROUP 4 **** **** 0

# MOE 2024.06 (io_trps.svl 2023.06)
