@<TRIPOS>MOLECULE
NONAME
43 44 1 0 0 
SMALL
USER_CHARGES


@<TRIPOS>ATOM
  1 O       -0.7220     2.1060     2.7110 O.2   1 <1>  -0.5700 
  2 C       -0.2110     2.5610     1.7130 C.2   1 <1>   0.5690 
  3 N       -0.9450     2.7600     0.5680 N.am  1 <1>  -0.6600 
  4 C        1.2660     2.9440     1.7970 C.3   1 <1>   0.1810 
  5 C       -0.3830     3.3070    -0.7060 C.3   1 <1>   0.1400 
  6 C       -2.3760     2.3370     0.4860 C.3   1 <1>   0.1400 
  7 O        2.0250     2.3580     0.7490 O.3   1 <1>  -0.3620 
  8 C       -1.4940     3.8710    -1.6160 C.3   1 <1>   0.2000 
  9 C       -2.7510     1.9210    -0.9510 C.3   1 <1>   0.2000 
 10 C        3.3160     2.7110     0.5390 C.ar  1 <1>   0.0820 
 11 O       -2.4960     2.9290    -1.8940 O.3   1 <1>  -0.5600 
 12 C       -0.9480     4.3450    -2.9600 C.3   1 <1>  -0.2400 
 13 C       -4.2300     1.5630    -1.0780 C.3   1 <1>  -0.2400 
 14 C        3.9120     2.2400    -0.6190 C.ar  1 <1>  -0.1500 
 15 C        4.0530     3.5080     1.4080 C.ar  1 <1>  -0.1500 
 16 C        5.2250     2.5570    -0.9290 C.ar  1 <1>  -0.1440 
 17 C        5.3630     3.8280     1.1030 C.ar  1 <1>  -0.1500 
 18 C        5.9570     3.3610    -0.0600 C.ar  1 <1>  -0.1440 
 19 C        5.8320     2.0150    -2.2150 C.3   1 <1>  -0.0970 
 20 C        7.4020     3.7380    -0.3560 C.3   1 <1>  -0.0970 
 21 H        1.6710     2.6030     2.7310 H     1 <1>   0.0800 
 22 H        1.3550     4.0120     1.7280 H     1 <1>   0.0800 
 23 H        0.1410     2.5240    -1.2270 H     1 <1>   0.0800 
 24 H        0.3210     4.0910    -0.4870 H     1 <1>   0.0800 
 25 H       -3.0050     3.1500     0.8030 H     1 <1>   0.0800 
 26 H       -2.5470     1.5060     1.1490 H     1 <1>   0.0800 
 27 H       -1.9660     4.6990    -1.1140 H     1 <1>   0.0800 
 28 H       -2.1560     1.0680    -1.2290 H     1 <1>   0.0800 
 29 H       -0.5010     3.5230    -3.4900 H     1 <1>   0.0800 
 30 H       -0.2060     5.1070    -2.8110 H     1 <1>   0.0800 
 31 H       -1.7460     4.7560    -3.5520 H     1 <1>   0.0800 
 32 H       -4.8410     2.4130    -0.8350 H     1 <1>   0.0800 
 33 H       -4.4740     0.7570    -0.4110 H     1 <1>   0.0800 
 34 H       -4.4420     1.2490    -2.0840 H     1 <1>   0.0800 
 35 H        3.3310     1.6190    -1.2750 H     1 <1>   0.1500 
 36 H        3.6320     3.8830     2.3210 H     1 <1>   0.1500 
 37 H        5.9230     4.4460     1.7830 H     1 <1>   0.1500 
 38 H        5.1240     1.4100    -2.7510 H     1 <1>   0.0800 
 39 H        6.6900     1.4080    -1.9890 H     1 <1>   0.0800 
 40 H        6.1320     2.8270    -2.8520 H     1 <1>   0.0800 
 41 H        8.0080     2.8530    -0.4190 H     1 <1>   0.0800 
 42 H        7.8040     4.3670     0.4180 H     1 <1>   0.0800 
 43 H        7.4610     4.2720    -1.2870 H     1 <1>   0.0800 
@<TRIPOS>BOND
  1   1   2  2   
  2   2   3  am  
  3   2   4  1   
  4   3   5  1   
  5   3   6  1   
  6   4   7  1   
  7   4  21  1   
  8   4  22  1   
  9   5   8  1   
 10   5  23  1   
 11   5  24  1   
 12   6   9  1   
 13   6  25  1   
 14   6  26  1   
 15   7  10  1   
 16   8  11  1   
 17   8  12  1   
 18   8  27  1   
 19   9  11  1   
 20   9  13  1   
 21   9  28  1   
 22  10  14  ar  
 23  10  15  ar  
 24  12  29  1   
 25  12  30  1   
 26  12  31  1   
 27  13  32  1   
 28  13  33  1   
 29  13  34  1   
 30  14  16  ar  
 31  14  35  1   
 32  15  17  ar  
 33  15  36  1   
 34  16  18  ar  
 35  16  19  1   
 36  17  18  ar  
 37  17  37  1   
 38  18  20  1   
 39  19  38  1   
 40  19  39  1   
 41  19  40  1   
 42  20  41  1   
 43  20  42  1   
 44  20  43  1   
@<TRIPOS>SUBSTRUCTURE
  1 ****   7 GROUP 4 **** **** 0

# MOE 2024.06 (io_trps.svl 2023.06)
