@<TRIPOS>MOLECULE
NONAME
38 39 1 0 0 
SMALL
USER_CHARGES


@<TRIPOS>ATOM
  1 F       -3.2810     3.9840     2.2050 F     1 <1>  -0.1900 
  2 C       -2.2120     4.0050     1.4570 C.ar  1 <1>   0.1900 
  3 C       -1.9500     5.1260     0.6940 C.ar  1 <1>  -0.1500 
  4 C       -1.3780     2.9050     1.4510 C.ar  1 <1>  -0.1500 
  5 C       -0.8140     5.1400    -0.0960 C.ar  1 <1>  -0.1500 
  6 C       -0.2460     2.9360     0.6550 C.ar  1 <1>  -0.1500 
  7 C        0.0600     4.0500    -0.1330 C.ar  1 <1>   0.0530 
  8 C        1.2440     4.0790    -0.9620 C.2   1 <1>   0.0870 
  9 O        2.2760     3.2900    -0.6910 O.3   1 <1>  -0.2800 
 10 C        1.5450     4.8210    -2.0610 C.2   1 <1>  -0.1500 
 11 C        3.2230     3.5060    -1.5830 C.2   1 <1>  -0.0400 
 12 C        2.8300     4.4510    -2.4640 C.2   1 <1>  -0.1500 
 13 C        4.5090     2.7220    -1.4590 C.3   1 <1>   0.5230 
 14 N        4.9770     2.9110    -0.0650 N.4   1 <1>  -0.9060 
 15 C        6.1310     2.1120     0.3950 C.3   1 <1>   0.5030 
 16 C        6.4260     2.4860     1.8780 C.3   1 <1>   0.1200 
 17 C        5.7720     0.6260     0.2780 C.3   1 <1>  -0.2400 
 18 C        7.3340     2.4440    -0.4950 C.3   1 <1>  -0.2400 
 19 O        7.5130     1.7760     2.3780 O.3   1 <1>  -0.6800 
 20 H       -2.6230     5.9640     0.7240 H     1 <1>   0.1500 
 21 H       -1.6160     2.0480     2.0560 H     1 <1>   0.1500 
 22 H       -0.6040     6.0110    -0.6900 H     1 <1>   0.1500 
 23 H        0.4050     2.0810     0.6380 H     1 <1>   0.1500 
 24 H        0.9300     5.5560    -2.5510 H     1 <1>   0.1500 
 25 H        3.3510     4.8650    -3.3110 H     1 <1>   0.1500 
 26 H        5.2390     3.0820    -2.1650 H     1 <1>   0.0800 
 27 H        4.3070     1.6820    -1.6530 H     1 <1>   0.0800 
 28 H        4.1580     2.7080     0.5210 H     1 <1>   0.4500 
 29 H        5.1710     3.9080     0.0610 H     1 <1>   0.4500 
 30 H        5.5790     2.2540     2.5010 H     1 <1>   0.0800 
 31 H        6.6610     3.5330     1.9640 H     1 <1>   0.0800 
 32 H        4.8920     0.3940     0.8520 H     1 <1>   0.0800 
 33 H        6.5780     0.0290     0.6680 H     1 <1>   0.0800 
 34 H        5.6270     0.3210    -0.7420 H     1 <1>   0.0800 
 35 H        7.5720     3.4920    -0.4500 H     1 <1>   0.0800 
 36 H        7.1750     2.1530    -1.5170 H     1 <1>   0.0800 
 37 H        8.1980     1.9030    -0.1480 H     1 <1>   0.0800 
 38 H        7.7010     2.0010     3.3140 H     1 <1>   0.4000 
@<TRIPOS>BOND
  1   1   2  1   
  2   2   3  ar  
  3   2   4  ar  
  4   3   5  ar  
  5   3  20  1   
  6   4   6  ar  
  7   4  21  1   
  8   5   7  ar  
  9   5  22  1   
 10   6   7  ar  
 11   6  23  1   
 12   7   8  1   
 13   8   9  1   
 14   8  10  2   
 15   9  11  1   
 16  10  12  1   
 17  10  24  1   
 18  11  12  2   
 19  11  13  1   
 20  12  25  1   
 21  13  14  1   
 22  13  26  1   
 23  13  27  1   
 24  14  15  1   
 25  14  28  1   
 26  14  29  1   
 27  15  16  1   
 28  15  17  1   
 29  15  18  1   
 30  16  19  1   
 31  16  30  1   
 32  16  31  1   
 33  17  32  1   
 34  17  33  1   
 35  17  34  1   
 36  18  35  1   
 37  18  36  1   
 38  18  37  1   
 39  19  38  1   
@<TRIPOS>SUBSTRUCTURE
  1 ****   9 GROUP 4 **** **** 0

# MOE 2024.06 (io_trps.svl 2023.06)
