@<TRIPOS>MOLECULE
NONAME
47 49 1 0 0 
SMALL
USER_CHARGES


@<TRIPOS>ATOM
  1 CL       0.0650     4.7700    -1.3780 Cl    1 <1>  -0.1770 
  2 C        0.4630     3.5420    -0.1930 C.ar  1 <1>   0.1770 
  3 C       -0.3880     2.4480    -0.0360 C.ar  1 <1>   0.1170 
  4 C        1.6120     3.6990     0.5580 C.ar  1 <1>  -0.1500 
  5 N       -1.5400     2.3550    -0.8380 N.am  1 <1>  -0.5470 
  6 C       -0.0330     1.4950     0.9160 C.ar  1 <1>  -0.1500 
  7 C        1.9400     2.7410     1.5020 C.ar  1 <1>  -0.1500 
  8 C       -2.6740     1.6110    -0.7450 C.2   1 <1>   0.6900 
  9 C        1.1160     1.6420     1.6770 C.ar  1 <1>  -0.1500 
 10 O       -2.8470     0.7640     0.1100 O.2   1 <1>  -0.5700 
 11 N       -3.6900     1.8850    -1.6130 N.am  1 <1>  -0.6600 
 12 C       -4.5680     0.7520    -2.0270 C.3   1 <1>   0.1400 
 13 C       -4.4420     3.1530    -1.4020 C.3   1 <1>   0.1400 
 14 C       -5.6720     0.5200    -0.9750 C.3   1 <1>   0.3430 
 15 C       -5.5480     2.9380    -0.3470 C.3   1 <1>   0.3430 
 16 N       -6.4520     1.7760    -0.6850 N.4   1 <1>  -0.9590 
 17 C       -7.4490     1.5460     0.3960 C.3   1 <1>   0.4860 
 18 C       -8.3190     2.7810     0.5110 C.ar  1 <1>  -0.1430 
 19 C       -9.2940     3.0450    -0.4410 C.ar  1 <1>  -0.1500 
 20 C       -8.1420     3.6640     1.5660 C.ar  1 <1>  -0.1500 
 21 C      -10.0690     4.1870    -0.3450 C.ar  1 <1>  -0.1500 
 22 C       -8.9190     4.8040     1.6580 C.ar  1 <1>  -0.1500 
 23 C       -9.8830     5.0740     0.7010 C.ar  1 <1>  -0.1430 
 24 C      -10.7370     6.3250     0.8060 C.3   1 <1>  -0.0970 
 25 H        2.2400     4.5580     0.4070 H     1 <1>   0.1500 
 26 H       -1.5380     2.9800    -1.6430 H     1 <1>   0.3700 
 27 H       -0.6460     0.6270     1.0710 H     1 <1>   0.1500 
 28 H        2.8320     2.8480     2.0960 H     1 <1>   0.1500 
 29 H        1.3690     0.8930     2.4080 H     1 <1>   0.1500 
 30 H       -3.9760    -0.1430    -2.1230 H     1 <1>   0.0800 
 31 H       -5.0040     0.9620    -2.9880 H     1 <1>   0.0800 
 32 H       -4.8740     3.4780    -2.3330 H     1 <1>   0.0800 
 33 H       -3.7740     3.9260    -1.0610 H     1 <1>   0.0800 
 34 H       -5.1990     0.1710    -0.0710 H     1 <1>   0.0800 
 35 H       -6.3340    -0.2570    -1.3220 H     1 <1>   0.0800 
 36 H       -6.1300     3.8420    -0.2570 H     1 <1>   0.0800 
 37 H       -5.0730     2.7570     0.6040 H     1 <1>   0.0800 
 38 H       -6.9840     2.0420    -1.5220 H     1 <1>   0.4500 
 39 H       -6.9480     1.3580     1.3320 H     1 <1>   0.0800 
 40 H       -8.0670     0.6960     0.1610 H     1 <1>   0.0800 
 41 H       -9.4700     2.3710    -1.2620 H     1 <1>   0.1500 
 42 H       -7.4050     3.4780     2.3300 H     1 <1>   0.1500 
 43 H      -10.8250     4.3850    -1.0870 H     1 <1>   0.1500 
 44 H       -8.7770     5.4840     2.4820 H     1 <1>   0.1500 
 45 H      -11.6280     6.1120     1.3700 H     1 <1>   0.0800 
 46 H      -11.0220     6.6710    -0.1720 H     1 <1>   0.0800 
 47 H      -10.1960     7.1130     1.2980 H     1 <1>   0.0800 
@<TRIPOS>BOND
  1   1   2  1   
  2   2   3  ar  
  3   2   4  ar  
  4   3   5  1   
  5   3   6  ar  
  6   4   7  ar  
  7   4  25  1   
  8   5   8  am  
  9   5  26  1   
 10   6   9  ar  
 11   6  27  1   
 12   7   9  ar  
 13   7  28  1   
 14   8  10  2   
 15   8  11  am  
 16   9  29  1   
 17  11  12  1   
 18  11  13  1   
 19  12  14  1   
 20  12  30  1   
 21  12  31  1   
 22  13  15  1   
 23  13  32  1   
 24  13  33  1   
 25  14  16  1   
 26  14  34  1   
 27  14  35  1   
 28  15  16  1   
 29  15  36  1   
 30  15  37  1   
 31  16  17  1   
 32  16  38  1   
 33  17  18  1   
 34  17  39  1   
 35  17  40  1   
 36  18  19  ar  
 37  18  20  ar  
 38  19  21  ar  
 39  19  41  1   
 40  20  22  ar  
 41  20  42  1   
 42  21  23  ar  
 43  21  43  1   
 44  22  23  ar  
 45  22  44  1   
 46  23  24  1   
 47  24  45  1   
 48  24  46  1   
 49  24  47  1   
@<TRIPOS>SUBSTRUCTURE
  1 ****  15 GROUP 4 **** **** 0

# MOE 2024.06 (io_trps.svl 2023.06)
