@<TRIPOS>MOLECULE
NONAME
36 36 1 0 0 
SMALL
USER_CHARGES


@<TRIPOS>ATOM
  1 S        1.3930    -2.6390     2.5090 S.2   1 <1>  -0.6770 
  2 P        1.2260    -1.7900     0.7760 P.3   1 <1>   0.8160 
  3 C        2.6050    -0.7470     0.3440 C.ar  1 <1>  -0.1390 
  4 C       -0.2030    -0.7470     0.6700 C.3   1 <1>  -0.1600 
  5 C        1.0800    -2.9700    -0.5400 C.3   1 <1>  -0.1600 
  6 C        3.6720    -0.5600     1.2130 C.ar  1 <1>  -0.1500 
  7 C        2.6780    -0.0790    -0.8730 C.ar  1 <1>  -0.1500 
  8 C       -1.5490    -1.4390     0.9450 C.3   1 <1>  -0.2400 
  9 C        2.3070    -3.8760    -0.7320 C.3   1 <1>  -0.2400 
 10 C        4.7510     0.2430     0.8910 C.ar  1 <1>  -0.1500 
 11 C        3.7530     0.7260    -1.2020 C.ar  1 <1>  -0.1500 
 12 C        4.8240     0.9120    -0.3300 C.ar  1 <1>   0.0860 
 13 C        5.9490     1.7580    -0.6890 C.2   1 <1>   0.6340 
 14 O        6.0240     2.3490    -1.7470 O.2   1 <1>  -0.5700 
 15 O        6.9450     1.8860     0.1920 O.3   1 <1>  -0.4300 
 16 C        8.0740     2.6850    -0.0780 C.3   1 <1>   0.1200 
 17 C        9.0070     2.6050     1.1260 C.3   1 <1>  -0.2400 
 18 H       -0.2690    -0.2840    -0.2970 H     1 <1>   0.0800 
 19 H       -0.1110     0.0550     1.3810 H     1 <1>   0.0800 
 20 H        0.8920    -2.4770    -1.4760 H     1 <1>   0.0800 
 21 H        0.2380    -3.6130    -0.3600 H     1 <1>   0.0800 
 22 H        3.6680    -1.0550     2.1710 H     1 <1>   0.1500 
 23 H        1.8830    -0.1830    -1.5920 H     1 <1>   0.1500 
 24 H       -1.7420    -2.2080     0.2190 H     1 <1>   0.0800 
 25 H       -2.3510    -0.7220     0.9030 H     1 <1>   0.0800 
 26 H       -1.5450    -1.8850     1.9260 H     1 <1>   0.0800 
 27 H        3.1790    -3.2910    -0.9720 H     1 <1>   0.0800 
 28 H        2.1340    -4.5760    -1.5310 H     1 <1>   0.0800 
 29 H        2.5060    -4.4300     0.1700 H     1 <1>   0.0800 
 30 H        5.5500     0.3510     1.6040 H     1 <1>   0.1500 
 31 H        3.7680     1.2250    -2.1580 H     1 <1>   0.1500 
 32 H        7.7450     3.6960    -0.2460 H     1 <1>   0.0800 
 33 H        8.5550     2.3080    -0.9650 H     1 <1>   0.0800 
 34 H        8.5110     2.9760     2.0050 H     1 <1>   0.0800 
 35 H        9.8800     3.2060     0.9480 H     1 <1>   0.0800 
 36 H        9.3180     1.5890     1.2880 H     1 <1>   0.0800 
@<TRIPOS>BOND
  1   1   2  2   
  2   2   3  1   
  3   2   4  1   
  4   2   5  1   
  5   3   6  ar  
  6   3   7  ar  
  7   4   8  1   
  8   4  18  1   
  9   4  19  1   
 10   5   9  1   
 11   5  20  1   
 12   5  21  1   
 13   6  10  ar  
 14   6  22  1   
 15   7  11  ar  
 16   7  23  1   
 17   8  24  1   
 18   8  25  1   
 19   8  26  1   
 20   9  27  1   
 21   9  28  1   
 22   9  29  1   
 23  10  12  ar  
 24  10  30  1   
 25  11  12  ar  
 26  11  31  1   
 27  12  13  1   
 28  13  14  2   
 29  13  15  1   
 30  15  16  1   
 31  16  17  1   
 32  16  32  1   
 33  16  33  1   
 34  17  34  1   
 35  17  35  1   
 36  17  36  1   
@<TRIPOS>SUBSTRUCTURE
  1 ****   6 GROUP 4 **** **** 0

# MOE 2024.06 (io_trps.svl 2023.06)
