@<TRIPOS>MOLECULE
NONAME
39 39 1 0 0 
SMALL
USER_CHARGES


@<TRIPOS>ATOM
  1 CL       0.8330     0.5320    -1.4130 Cl    1 <1>  -0.1770 
  2 C        2.3330    -0.3120    -1.1240 C.ar  1 <1>   0.1770 
  3 C        3.2780     0.2560    -0.2880 C.ar  1 <1>  -0.1500 
  4 C        2.5530    -1.5320    -1.7380 C.ar  1 <1>  -0.1500 
  5 C        4.4670    -0.4170    -0.0560 C.ar  1 <1>  -0.1500 
  6 C        3.7430    -2.2020    -1.5050 C.ar  1 <1>  -0.1500 
  7 C        4.6900    -1.6520    -0.6510 C.ar  1 <1>   0.0830 
  8 O        5.8610    -2.2960    -0.4380 O.3   1 <1>  -0.3630 
  9 C        6.0290    -3.2440     0.6280 C.3   1 <1>   0.3410 
 10 C        7.4990    -3.7460     0.6020 C.2   1 <1>   0.5690 
 11 C        5.0610    -4.4210     0.4090 C.3   1 <1>  -0.2400 
 12 C        5.7330    -2.5540     1.9720 C.3   1 <1>  -0.2400 
 13 O        7.8600    -4.5860     1.3980 O.2   1 <1>  -0.5700 
 14 N        8.3700    -3.2330    -0.3130 N.am  1 <1>  -0.7300 
 15 C        9.8000    -3.5740    -0.4390 C.3   1 <1>   0.1400 
 16 C       10.6170    -2.2860    -0.5020 C.3   1 <1>  -0.1600 
 17 C       12.1090    -2.5960    -0.5880 C.3   1 <1>   0.1200 
 18 O       12.7860    -1.3890    -0.6880 O.3   1 <1>  -0.5600 
 19 C       14.1690    -1.5180    -0.7520 C.3   1 <1>   0.0400 
 20 H        3.0840     1.2090     0.1690 H     1 <1>   0.1500 
 21 H        1.8050    -1.9450    -2.3900 H     1 <1>   0.1500 
 22 H        5.2200     0.0130     0.5800 H     1 <1>   0.1500 
 23 H        3.9390    -3.1440    -1.9830 H     1 <1>   0.1500 
 24 H        4.0380    -4.1050     0.4900 H     1 <1>   0.0800 
 25 H        5.2330    -4.8650    -0.5550 H     1 <1>   0.0800 
 26 H        5.2330    -5.1740     1.1580 H     1 <1>   0.0800 
 27 H        5.9280    -3.2390     2.7780 H     1 <1>   0.0800 
 28 H        4.7040    -2.2530     2.0370 H     1 <1>   0.0800 
 29 H        6.3740    -1.7010     2.0980 H     1 <1>   0.0800 
 30 H        8.0070    -2.5300    -0.9640 H     1 <1>   0.3700 
 31 H        9.9480    -4.1540    -1.3340 H     1 <1>   0.0800 
 32 H       10.1090    -4.1660     0.4070 H     1 <1>   0.0800 
 33 H       10.4340    -1.7050     0.3850 H     1 <1>   0.0800 
 34 H       10.3280    -1.7190    -1.3680 H     1 <1>   0.0800 
 35 H       12.3280    -3.1860    -1.4610 H     1 <1>   0.0800 
 36 H       12.4430    -3.1090     0.2990 H     1 <1>   0.0800 
 37 H       14.5930    -0.5330    -0.8280 H     1 <1>   0.0800 
 38 H       14.4320    -2.0950    -1.6210 H     1 <1>   0.0800 
 39 H       14.5230    -1.9960     0.1450 H     1 <1>   0.0800 
@<TRIPOS>BOND
  1   1   2  1   
  2   2   3  ar  
  3   2   4  ar  
  4   3   5  ar  
  5   3  20  1   
  6   4   6  ar  
  7   4  21  1   
  8   5   7  ar  
  9   5  22  1   
 10   6   7  ar  
 11   6  23  1   
 12   7   8  1   
 13   8   9  1   
 14   9  10  1   
 15   9  11  1   
 16   9  12  1   
 17  10  13  2   
 18  10  14  am  
 19  11  24  1   
 20  11  25  1   
 21  11  26  1   
 22  12  27  1   
 23  12  28  1   
 24  12  29  1   
 25  14  15  1   
 26  14  30  1   
 27  15  16  1   
 28  15  31  1   
 29  15  32  1   
 30  16  17  1   
 31  16  33  1   
 32  16  34  1   
 33  17  18  1   
 34  17  35  1   
 35  17  36  1   
 36  18  19  1   
 37  19  37  1   
 38  19  38  1   
 39  19  39  1   
@<TRIPOS>SUBSTRUCTURE
  1 ****   8 GROUP 4 **** **** 0

# MOE 2024.06 (io_trps.svl 2023.06)
