@<TRIPOS>MOLECULE
NONAME
43 45 1 0 0 
SMALL
USER_CHARGES


@<TRIPOS>ATOM
  1 O       -0.6960     0.8700     1.3760 O.2   1 <1>  -0.5700 
  2 C       -0.8600    -0.2700     1.0060 C.2   1 <1>   0.5690 
  3 N       -1.9730    -0.6330     0.2870 N.am  1 <1>  -0.6600 
  4 C        0.2130    -1.2840     1.3910 C.3   1 <1>   0.0440 
  5 C       -2.2530    -2.0030    -0.2570 C.3   1 <1>   0.1400 
  6 C       -3.0300     0.3640    -0.0740 C.3   1 <1>   0.1400 
  7 C        0.9360    -1.9210     0.1980 C.ar  1 <1>  -0.1440 
  8 C       -3.6660    -2.4840     0.1190 C.3   1 <1>   0.2090 
  9 C       -4.4330    -0.1350     0.3130 C.3   1 <1>   0.2090 
 10 C        1.2570    -3.2780     0.1530 C.ar  1 <1>  -0.1440 
 11 C        1.2850    -1.1080    -0.8730 C.ar  1 <1>  -0.1500 
 12 N       -4.7070    -1.4830    -0.2640 N.pl3 1 <1>  -0.8380 
 13 C        1.8980    -3.7920    -0.9640 C.ar  1 <1>  -0.1500 
 14 C        0.9370    -4.2300     1.2980 C.3   1 <1>  -0.0970 
 15 C        1.9260    -1.6290    -1.9810 C.ar  1 <1>  -0.1500 
 16 C       -6.0250    -1.8940    -0.2450 C.ar  1 <1>   0.4100 
 17 C        2.2310    -2.9750    -2.0290 C.ar  1 <1>  -0.1500 
 18 N       -6.3810    -2.7610     0.6960 N.ar  1 <1>  -0.6200 
 19 C       -6.9120    -1.3830    -1.1880 C.ar  1 <1>  -0.1500 
 20 C       -7.6530    -3.1230     0.6950 C.ar  1 <1>   0.1600 
 21 C       -8.2330    -1.7670    -1.1780 C.ar  1 <1>  -0.1500 
 22 C       -8.6050    -2.6660    -0.2000 C.ar  1 <1>  -0.1500 
 23 H       -0.2600    -2.0210     2.0080 H     1 <1>   0.0800 
 24 H        0.9470    -0.7870     1.9980 H     1 <1>   0.0800 
 25 H       -1.5430    -2.7190     0.1080 H     1 <1>   0.0800 
 26 H       -2.1680    -1.9760    -1.3290 H     1 <1>   0.0800 
 27 H       -3.0000     0.5350    -1.1360 H     1 <1>   0.0800 
 28 H       -2.8480     1.3040     0.4160 H     1 <1>   0.0800 
 29 H       -3.7120    -2.6570     1.1800 H     1 <1>   0.0800 
 30 H       -3.8710    -3.4160    -0.3780 H     1 <1>   0.0800 
 31 H       -5.1690     0.5660    -0.0390 H     1 <1>   0.0800 
 32 H       -4.5080    -0.1870     1.3850 H     1 <1>   0.0800 
 33 H        1.0590    -0.0550    -0.8520 H     1 <1>   0.1500 
 34 H        2.1490    -4.8370    -1.0150 H     1 <1>   0.1500 
 35 H       -0.1270    -4.3540     1.3920 H     1 <1>   0.0800 
 36 H        1.3330    -3.8450     2.2210 H     1 <1>   0.0800 
 37 H        1.3740    -5.1980     1.1290 H     1 <1>   0.0800 
 38 H        2.1880    -0.9860    -2.8030 H     1 <1>   0.1500 
 39 H        2.7290    -3.3850    -2.8900 H     1 <1>   0.1500 
 40 H       -6.5420    -0.6920    -1.9200 H     1 <1>   0.1500 
 41 H       -7.9550    -3.8250     1.4530 H     1 <1>   0.1500 
 42 H       -8.9400    -1.3880    -1.8950 H     1 <1>   0.1500 
 43 H       -9.6210    -3.0100    -0.1320 H     1 <1>   0.1500 
@<TRIPOS>BOND
  1   1   2  2   
  2   2   3  am  
  3   2   4  1   
  4   3   5  1   
  5   3   6  1   
  6   4   7  1   
  7   4  23  1   
  8   4  24  1   
  9   5   8  1   
 10   5  25  1   
 11   5  26  1   
 12   6   9  1   
 13   6  27  1   
 14   6  28  1   
 15   7  10  ar  
 16   7  11  ar  
 17   8  12  1   
 18   8  29  1   
 19   8  30  1   
 20   9  12  1   
 21   9  31  1   
 22   9  32  1   
 23  10  13  ar  
 24  10  14  1   
 25  11  15  ar  
 26  11  33  1   
 27  12  16  1   
 28  13  17  ar  
 29  13  34  1   
 30  14  35  1   
 31  14  36  1   
 32  14  37  1   
 33  15  17  ar  
 34  15  38  1   
 35  16  18  ar  
 36  16  19  ar  
 37  17  39  1   
 38  18  20  ar  
 39  19  21  ar  
 40  19  40  1   
 41  20  22  ar  
 42  20  41  1   
 43  21  22  ar  
 44  21  42  1   
 45  22  43  1   
@<TRIPOS>SUBSTRUCTURE
  1 ****   5 GROUP 4 **** **** 0

# MOE 2024.06 (io_trps.svl 2023.06)
