@<TRIPOS>MOLECULE
NONAME
47 48 1 0 0 
SMALL
USER_CHARGES


@<TRIPOS>ATOM
  1 O       -0.4920    -0.9200     0.9150 O.3   1 <1>  -0.3630 
  2 C        0.6770    -1.4260     0.4380 C.ar  1 <1>   0.0830 
  3 C       -1.6340    -1.2850     0.1840 C.3   1 <1>   0.1200 
  4 C        1.4180    -0.6970    -0.4920 C.ar  1 <1>   0.0820 
  5 C        1.1360    -2.6610     0.9000 C.ar  1 <1>   0.0820 
  6 C       -2.8520    -0.6400     0.8420 C.3   1 <1>  -0.1600 
  7 O        0.9180     0.4990    -0.9210 O.3   1 <1>  -0.3630 
  8 C        2.6270    -1.2110    -0.9530 C.ar  1 <1>  -0.1500 
  9 O        0.3670    -3.3410     1.7990 O.3   1 <1>  -0.3620 
 10 C        2.3470    -3.1570     0.4260 C.ar  1 <1>  -0.1500 
 11 C       -4.1260    -1.0070     0.0850 C.3   1 <1>   0.1200 
 12 C        1.7200     1.4150    -1.6330 C.3   1 <1>   0.0400 
 13 C        3.0860    -2.4330    -0.4930 C.ar  1 <1>  -0.1500 
 14 C        0.8800    -4.4400     2.5180 C.3   1 <1>   0.0400 
 15 O       -5.2180    -0.3900     0.7270 O.3   1 <1>  -0.3630 
 16 C       -6.4850    -0.5450     0.2670 C.ar  1 <1>   0.0830 
 17 C       -7.4850     0.1050     0.9720 C.ar  1 <1>  -0.1500 
 18 C       -6.8190    -1.3060    -0.8500 C.ar  1 <1>  -0.1500 
 19 C       -8.8080     0.0060     0.5760 C.ar  1 <1>  -0.1430 
 20 C       -8.1400    -1.4130    -1.2520 C.ar  1 <1>  -0.1430 
 21 C       -9.1280    -0.7550    -0.5370 C.ar  1 <1>  -0.1500 
 22 C       -9.9030     0.7190     1.3480 C.3   1 <1>  -0.0970 
 23 C       -8.5130    -2.2410    -2.4690 C.3   1 <1>  -0.0970 
 24 H       -1.7110    -2.3580     0.1960 H     1 <1>   0.0800 
 25 H       -1.5100    -0.9360    -0.8270 H     1 <1>   0.0800 
 26 H       -2.7300     0.4290     0.8360 H     1 <1>   0.0800 
 27 H       -2.9290    -0.9880     1.8570 H     1 <1>   0.0800 
 28 H        3.2210    -0.6790    -1.6710 H     1 <1>   0.1500 
 29 H        2.7290    -4.1040     0.7560 H     1 <1>   0.1500 
 30 H       -4.2840    -2.0710     0.0990 H     1 <1>   0.0800 
 31 H       -4.0840    -0.6470    -0.9290 H     1 <1>   0.0800 
 32 H        1.1560     2.3210    -1.7610 H     1 <1>   0.0800 
 33 H        1.9610     0.9960    -2.5940 H     1 <1>   0.0800 
 34 H        2.6090     1.6160    -1.0620 H     1 <1>   0.0800 
 35 H        4.0220    -2.8230    -0.8550 H     1 <1>   0.1500 
 36 H        0.1430    -4.7360     3.2430 H     1 <1>   0.0800 
 37 H        1.7830    -4.1380     3.0180 H     1 <1>   0.0800 
 38 H        1.0660    -5.2490     1.8350 H     1 <1>   0.0800 
 39 H       -7.2110     0.6880     1.8320 H     1 <1>   0.1500 
 40 H       -6.0630    -1.8180    -1.4140 H     1 <1>   0.1500 
 41 H      -10.1550    -0.8350    -0.8480 H     1 <1>   0.1500 
 42 H       -9.4850     1.4340     2.0320 H     1 <1>   0.0800 
 43 H      -10.4790     0.0020     1.9050 H     1 <1>   0.0800 
 44 H      -10.5550     1.2380     0.6680 H     1 <1>   0.0800 
 45 H       -7.7470    -2.9620    -2.6890 H     1 <1>   0.0800 
 46 H       -8.6400    -1.5970    -3.3200 H     1 <1>   0.0800 
 47 H       -9.4340    -2.7680    -2.2910 H     1 <1>   0.0800 
@<TRIPOS>BOND
  1   1   2  1   
  2   1   3  1   
  3   2   4  ar  
  4   2   5  ar  
  5   3   6  1   
  6   3  24  1   
  7   3  25  1   
  8   4   7  1   
  9   4   8  ar  
 10   5   9  1   
 11   5  10  ar  
 12   6  11  1   
 13   6  26  1   
 14   6  27  1   
 15   7  12  1   
 16   8  13  ar  
 17   8  28  1   
 18   9  14  1   
 19  10  13  ar  
 20  10  29  1   
 21  11  15  1   
 22  11  30  1   
 23  11  31  1   
 24  12  32  1   
 25  12  33  1   
 26  12  34  1   
 27  13  35  1   
 28  14  36  1   
 29  14  37  1   
 30  14  38  1   
 31  15  16  1   
 32  16  17  ar  
 33  16  18  ar  
 34  17  19  ar  
 35  17  39  1   
 36  18  20  ar  
 37  18  40  1   
 38  19  21  ar  
 39  19  22  1   
 40  20  21  ar  
 41  20  23  1   
 42  21  41  1   
 43  22  42  1   
 44  22  43  1   
 45  22  44  1   
 46  23  45  1   
 47  23  46  1   
 48  23  47  1   
@<TRIPOS>SUBSTRUCTURE
  1 ****   6 GROUP 4 **** **** 0

# MOE 2024.06 (io_trps.svl 2023.06)
