@<TRIPOS>MOLECULE
NONAME
41 43 1 0 0 
SMALL
USER_CHARGES


@<TRIPOS>ATOM
  1 O        0.1630     2.4400    -2.2630 O.2   1 <1>  -0.5700 
  2 C        0.0810     2.8390    -1.1170 C.2   1 <1>   0.5440 
  3 N        1.2330     3.0450    -0.4110 N.am  1 <1>  -0.7300 
  4 C       -1.2110     3.0750    -0.4990 C.ar  1 <1>   0.0860 
  5 C        2.6000     2.8070    -0.9120 C.3   1 <1>   0.2200 
  6 C       -2.3320     2.3380    -0.8740 C.ar  1 <1>  -0.1500 
  7 C       -1.3890     4.0400     0.4920 C.ar  1 <1>  -0.1500 
  8 C        3.2830     1.6050    -0.2260 C.3   1 <1>  -0.0800 
  9 C        3.5280     3.9790    -0.5540 C.3   1 <1>  -0.1600 
 10 C       -3.5720     2.5230    -0.2900 C.ar  1 <1>   0.0830 
 11 C       -2.6210     4.2520     1.0840 C.ar  1 <1>  -0.1500 
 12 C        4.7490     1.9550    -0.4320 C.3   1 <1>  -0.1600 
 13 C        3.1870     1.7070     1.3100 C.3   1 <1>  -0.1600 
 14 C        4.6510     3.3060     0.2560 C.3   1 <1>  -0.0800 
 15 O       -4.5540     1.7030    -0.7630 O.3   1 <1>  -0.3630 
 16 C       -3.7330     3.5050     0.7030 C.ar  1 <1>   0.0830 
 17 C        4.0900     2.9110     1.6330 C.3   1 <1>  -0.1600 
 18 C       -5.6240     1.2830     0.0530 C.3   1 <1>   0.0400 
 19 O       -4.9560     3.7250     1.2590 O.3   1 <1>  -0.3630 
 20 C       -5.2120     4.7990     2.1380 C.3   1 <1>   0.0400 
 21 H        1.1830     3.2280     0.5880 H     1 <1>   0.3700 
 22 H        2.5900     2.6620    -1.9800 H     1 <1>   0.0800 
 23 H       -2.2300     1.5940    -1.6440 H     1 <1>   0.1500 
 24 H       -0.5530     4.6420     0.7980 H     1 <1>   0.1500 
 25 H        2.9860     0.6540    -0.6330 H     1 <1>   0.0800 
 26 H        3.0320     4.7520     0.0040 H     1 <1>   0.0800 
 27 H        3.9330     4.4000    -1.4580 H     1 <1>   0.0800 
 28 H       -2.6930     5.0100     1.8390 H     1 <1>   0.1500 
 29 H        5.0190     2.0330    -1.4730 H     1 <1>   0.0800 
 30 H        5.4180     1.2770     0.0720 H     1 <1>   0.0800 
 31 H        3.5930     0.8160     1.7580 H     1 <1>   0.0800 
 32 H        2.1810     1.8360     1.6660 H     1 <1>   0.0800 
 33 H        5.5660     3.8730     0.2980 H     1 <1>   0.0800 
 34 H        4.8880     2.6110     2.2900 H     1 <1>   0.0800 
 35 H        3.5420     3.7180     2.0890 H     1 <1>   0.0800 
 36 H       -6.0560     0.4040    -0.3880 H     1 <1>   0.0800 
 37 H       -6.3580     2.0670     0.0940 H     1 <1>   0.0800 
 38 H       -5.2490     1.0570     1.0360 H     1 <1>   0.0800 
 39 H       -6.2600     4.7890     2.3800 H     1 <1>   0.0800 
 40 H       -4.9610     5.7220     1.6460 H     1 <1>   0.0800 
 41 H       -4.6310     4.6650     3.0330 H     1 <1>   0.0800 
@<TRIPOS>BOND
  1   1   2  2   
  2   2   3  am  
  3   2   4  1   
  4   3   5  1   
  5   3  21  1   
  6   4   6  ar  
  7   4   7  ar  
  8   5   8  1   
  9   5   9  1   
 10   5  22  1   
 11   6  10  ar  
 12   6  23  1   
 13   7  11  ar  
 14   7  24  1   
 15   8  12  1   
 16   8  13  1   
 17   8  25  1   
 18   9  14  1   
 19   9  26  1   
 20   9  27  1   
 21  10  15  1   
 22  10  16  ar  
 23  11  16  ar  
 24  11  28  1   
 25  12  14  1   
 26  12  29  1   
 27  12  30  1   
 28  13  17  1   
 29  13  31  1   
 30  13  32  1   
 31  14  17  1   
 32  14  33  1   
 33  15  18  1   
 34  16  19  1   
 35  17  34  1   
 36  17  35  1   
 37  18  36  1   
 38  18  37  1   
 39  18  38  1   
 40  19  20  1   
 41  20  39  1   
 42  20  40  1   
 43  20  41  1   
@<TRIPOS>SUBSTRUCTURE
  1 ****   4 GROUP 4 **** **** 0

# MOE 2024.06 (io_trps.svl 2023.06)
