@<TRIPOS>MOLECULE
NONAME
45 47 1 0 0 
SMALL
USER_CHARGES


@<TRIPOS>ATOM
  1 CL       0.4910    -0.4250     1.3600 Cl    1 <1>  -0.1770 
  2 C        1.9850    -1.1970     0.8870 C.ar  1 <1>   0.1770 
  3 C        2.7600    -1.8210     1.8480 C.ar  1 <1>  -0.1500 
  4 C        2.3710    -1.1740    -0.4400 C.ar  1 <1>  -0.1500 
  5 C        3.9430    -2.4320     1.4710 C.ar  1 <1>  -0.1500 
  6 C        3.5560    -1.7870    -0.8090 C.ar  1 <1>  -0.1500 
  7 C        4.3520    -2.4210     0.1390 C.ar  1 <1>   0.1000 
  8 N        5.5350    -3.0290    -0.2620 N.pl3 1 <1>  -0.8380 
  9 C        5.5610    -4.5200    -0.2240 C.3   1 <1>   0.2090 
 10 C        6.8020    -2.3790     0.1880 C.3   1 <1>   0.2090 
 11 C        6.7740    -5.0650    -1.0080 C.3   1 <1>   0.3430 
 12 C        8.0090    -2.9360    -0.5960 C.3   1 <1>   0.3430 
 13 N        8.0770    -4.4470    -0.5640 N.4   1 <1>  -0.9590 
 14 C        9.2320    -4.9600    -1.3480 C.3   1 <1>   0.4860 
 15 C       10.5060    -4.4510    -0.7040 C.ar  1 <1>  -0.1430 
 16 C       10.8700    -4.9000     0.5570 C.ar  1 <1>  -0.1500 
 17 C       11.3130    -3.5290    -1.3580 C.ar  1 <1>  -0.1500 
 18 C       12.0150    -4.4140     1.1550 C.ar  1 <1>   0.0830 
 19 C       12.4680    -3.0500    -0.7580 C.ar  1 <1>  -0.1500 
 20 O       12.3420    -4.8460     2.3830 O.3   1 <1>  -0.5330 
 21 C       12.8300    -3.4880     0.5110 C.ar  1 <1>   0.0830 
 22 O       13.9440    -3.0670     1.1750 O.3   1 <1>  -0.3630 
 23 C       14.8740    -2.2000     0.5610 C.3   1 <1>   0.0400 
 24 H        2.4350    -1.8230     2.8730 H     1 <1>   0.1500 
 25 H        1.7510    -0.6820    -1.1680 H     1 <1>   0.1500 
 26 H        4.5500    -2.9180     2.2110 H     1 <1>   0.1500 
 27 H        3.8710    -1.7790    -1.8360 H     1 <1>   0.1500 
 28 H        4.6520    -4.8990    -0.6600 H     1 <1>   0.0800 
 29 H        5.6020    -4.8560     0.7980 H     1 <1>   0.0800 
 30 H        6.9420    -2.5430     1.2420 H     1 <1>   0.0800 
 31 H        6.7300    -1.3160     0.0260 H     1 <1>   0.0800 
 32 H        6.6130    -4.8520    -2.0520 H     1 <1>   0.0800 
 33 H        6.8130    -6.1350    -0.8910 H     1 <1>   0.0800 
 34 H        8.9140    -2.5180    -0.1850 H     1 <1>   0.0800 
 35 H        7.9250    -2.6010    -1.6160 H     1 <1>   0.0800 
 36 H        8.2460    -4.7110     0.4150 H     1 <1>   0.4500 
 37 H        9.1710    -4.6220    -2.3700 H     1 <1>   0.0800 
 38 H        9.2380    -6.0380    -1.3420 H     1 <1>   0.0800 
 39 H       10.2890    -5.6280     1.0960 H     1 <1>   0.1500 
 40 H       11.0590    -3.1730    -2.3430 H     1 <1>   0.1500 
 41 H       13.0720    -2.3390    -1.2920 H     1 <1>   0.1500 
 42 H       13.1860    -4.4330     2.6620 H     1 <1>   0.4500 
 43 H       14.3880    -1.2670     0.3350 H     1 <1>   0.0800 
 44 H       15.2520    -2.6660    -0.3320 H     1 <1>   0.0800 
 45 H       15.6810    -2.0310     1.2520 H     1 <1>   0.0800 
@<TRIPOS>BOND
  1   1   2  1   
  2   2   3  ar  
  3   2   4  ar  
  4   3   5  ar  
  5   3  24  1   
  6   4   6  ar  
  7   4  25  1   
  8   5   7  ar  
  9   5  26  1   
 10   6   7  ar  
 11   6  27  1   
 12   7   8  1   
 13   8   9  1   
 14   8  10  1   
 15   9  11  1   
 16   9  28  1   
 17   9  29  1   
 18  10  12  1   
 19  10  30  1   
 20  10  31  1   
 21  11  13  1   
 22  11  32  1   
 23  11  33  1   
 24  12  13  1   
 25  12  34  1   
 26  12  35  1   
 27  13  14  1   
 28  13  36  1   
 29  14  15  1   
 30  14  37  1   
 31  14  38  1   
 32  15  16  ar  
 33  15  17  ar  
 34  16  18  ar  
 35  16  39  1   
 36  17  19  ar  
 37  17  40  1   
 38  18  20  1   
 39  18  21  ar  
 40  19  21  ar  
 41  19  41  1   
 42  20  42  1   
 43  21  22  1   
 44  22  23  1   
 45  23  43  1   
 46  23  44  1   
 47  23  45  1   
@<TRIPOS>SUBSTRUCTURE
  1 ****  12 GROUP 4 **** **** 0

# MOE 2024.06 (io_trps.svl 2023.06)
