@<TRIPOS>MOLECULE
NONAME
47 48 1 0 0 
SMALL
USER_CHARGES


@<TRIPOS>ATOM
  1 O       -0.5950    -0.5470     1.2810 O.3   1 <1>  -0.3630 
  2 C       -1.7120    -0.8690     0.5760 C.ar  1 <1>   0.0830 
  3 C        0.1760     0.6010     0.9990 C.3   1 <1>   0.0400 
  4 C       -2.3090    -2.1090     0.8100 C.ar  1 <1>  -0.1440 
  5 C       -2.2560    -0.0070    -0.3660 C.ar  1 <1>  -0.1500 
  6 C       -3.4410    -2.4870     0.0850 C.ar  1 <1>  -0.1430 
  7 C       -1.6870    -3.0420     1.8560 C.3   1 <1>  -0.0960 
  8 C       -3.3890    -0.3680    -1.0630 C.ar  1 <1>  -0.1500 
  9 C       -3.9950    -1.5940    -0.8340 C.ar  1 <1>  -0.1440 
 10 C       -4.0310    -3.8840     0.3010 C.3   1 <1>  -0.0970 
 11 C       -5.2720    -1.8910    -1.5950 C.3   1 <1>   0.4860 
 12 N       -6.3980    -1.7620    -0.6160 N.4   1 <1>  -0.9590 
 13 C       -7.6510    -2.4160    -1.1390 C.3   1 <1>   0.3430 
 14 C       -6.5270    -0.3240    -0.2150 C.3   1 <1>   0.3430 
 15 C       -8.5700    -3.0030    -0.0270 C.3   1 <1>   0.3430 
 16 C       -7.8070     0.0060     0.5570 C.3   1 <1>  -0.1600 
 17 N       -9.1810    -2.0190     0.9470 N.4   1 <1>  -0.9590 
 18 C       -8.2440    -1.0420     1.5790 C.3   1 <1>   0.3430 
 19 C       -9.9170    -2.7680     2.0230 C.3   1 <1>   0.2630 
 20 H        1.0360     0.5900     1.6440 H     1 <1>   0.0800 
 21 H       -0.4150     1.4770     1.1950 H     1 <1>   0.0800 
 22 H        0.4910     0.5660    -0.0290 H     1 <1>   0.0800 
 23 H       -1.8090     0.9480    -0.5690 H     1 <1>   0.1500 
 24 H       -1.1360    -2.4950     2.6000 H     1 <1>   0.0800 
 25 H       -1.0100    -3.7240     1.3740 H     1 <1>   0.0800 
 26 H       -2.4340    -3.6040     2.3850 H     1 <1>   0.0800 
 27 H       -3.7830     0.3250    -1.7870 H     1 <1>   0.1500 
 28 H       -3.2370    -4.6120     0.3140 H     1 <1>   0.0800 
 29 H       -4.7000    -4.1880    -0.4790 H     1 <1>   0.0800 
 30 H       -4.5420    -3.9310     1.2460 H     1 <1>   0.0800 
 31 H       -5.2220    -2.8880    -2.0000 H     1 <1>   0.0800 
 32 H       -5.3930    -1.1970    -2.4110 H     1 <1>   0.0800 
 33 H       -6.0300    -2.2720     0.2010 H     1 <1>   0.4500 
 34 H       -7.3710    -3.2340    -1.7830 H     1 <1>   0.0800 
 35 H       -8.2090    -1.7170    -1.7410 H     1 <1>   0.0800 
 36 H       -6.4870     0.3030    -1.0920 H     1 <1>   0.0800 
 37 H       -5.6760    -0.0620     0.3980 H     1 <1>   0.0800 
 38 H       -7.9990    -3.7330     0.5230 H     1 <1>   0.0800 
 39 H       -9.3700    -3.5400    -0.5130 H     1 <1>   0.0800 
 40 H       -8.6060     0.2330    -0.1260 H     1 <1>   0.0800 
 41 H       -7.6080     0.9190     1.0920 H     1 <1>   0.0800 
 42 H       -9.9010    -1.4680     0.4500 H     1 <1>   0.4500 
 43 H       -8.7610    -0.5330     2.3790 H     1 <1>   0.0800 
 44 H       -7.3910    -1.5430     2.0080 H     1 <1>   0.0800 
 45 H       -9.2330    -3.3610     2.6090 H     1 <1>   0.0800 
 46 H      -10.6570    -3.4230     1.5910 H     1 <1>   0.0800 
 47 H      -10.4220    -2.0790     2.6830 H     1 <1>   0.0800 
@<TRIPOS>BOND
  1   1   2  1   
  2   1   3  1   
  3   2   4  ar  
  4   2   5  ar  
  5   3  20  1   
  6   3  21  1   
  7   3  22  1   
  8   4   6  ar  
  9   4   7  1   
 10   5   8  ar  
 11   5  23  1   
 12   6   9  ar  
 13   6  10  1   
 14   7  24  1   
 15   7  25  1   
 16   7  26  1   
 17   8   9  ar  
 18   8  27  1   
 19   9  11  1   
 20  10  28  1   
 21  10  29  1   
 22  10  30  1   
 23  11  12  1   
 24  11  31  1   
 25  11  32  1   
 26  12  13  1   
 27  12  14  1   
 28  12  33  1   
 29  13  15  1   
 30  13  34  1   
 31  13  35  1   
 32  14  16  1   
 33  14  36  1   
 34  14  37  1   
 35  15  17  1   
 36  15  38  1   
 37  15  39  1   
 38  16  18  1   
 39  16  40  1   
 40  16  41  1   
 41  17  18  1   
 42  17  19  1   
 43  17  42  1   
 44  18  43  1   
 45  18  44  1   
 46  19  45  1   
 47  19  46  1   
 48  19  47  1   
@<TRIPOS>SUBSTRUCTURE
  1 ****   9 GROUP 4 **** **** 0

# MOE 2024.06 (io_trps.svl 2023.06)
