@<TRIPOS>MOLECULE
NONAME
32 34 1 0 0 
SMALL
USER_CHARGES


@<TRIPOS>ATOM
  1 O        0.3500    -0.3570    -0.8500 O.2   1 <1>  -0.5700 
  2 C        1.1930    -1.1330    -0.4770 C.2   1 <1>   0.5950 
  3 C        2.5900    -1.0150    -0.7560 C.2   1 <1>  -0.0860 
  4 C        0.7820    -2.3540     0.3380 C.3   1 <1>  -0.0990 
  5 C        3.5500    -1.8560    -0.3010 C.2   1 <1>  -0.3320 
  6 C        3.2950    -0.0870    -1.5200 C.2   1 <1>   0.1390 
  7 C        1.8970    -2.8460     1.2950 C.3   1 <1>  -0.1600 
  8 N        4.7600    -1.4550    -0.7790 N.pl3 1 <1>   0.5930 
  9 C        3.2560    -3.0500     0.5940 C.3   1 <1>   0.0200 
 10 N        4.5650    -0.3290    -1.5470 N.2   1 <1>  -0.7070 
 11 C        6.0310    -2.0970    -0.5410 C.ar  1 <1>   0.5970 
 12 N        6.1390    -3.3870    -0.8900 N.ar  1 <1>  -0.6200 
 13 N        6.9990    -1.3730     0.0350 N.ar  1 <1>  -0.6200 
 14 C        7.2960    -3.9640    -0.6730 C.ar  1 <1>   0.1670 
 15 C        8.1450    -1.9710     0.2420 C.ar  1 <1>   0.1670 
 16 C        8.3440    -3.2850    -0.1020 C.ar  1 <1>  -0.1500 
 17 C        7.4260    -5.4160    -1.0810 C.3   1 <1>  -0.0970 
 18 C        9.2430    -1.1450     0.8770 C.3   1 <1>  -0.0970 
 19 H        0.5260    -3.1380    -0.3500 H     1 <1>   0.0800 
 20 H       -0.0980    -2.1110     0.9060 H     1 <1>   0.0800 
 21 H        2.8270     0.7390    -2.0310 H     1 <1>   0.1500 
 22 H        1.5940    -3.7640     1.7680 H     1 <1>   0.0800 
 23 H        2.0260    -2.1090     2.0690 H     1 <1>   0.0800 
 24 H        4.0290    -3.1630     1.3350 H     1 <1>   0.0800 
 25 H        3.2340    -3.9430    -0.0070 H     1 <1>   0.0800 
 26 H        9.2890    -3.7650     0.0700 H     1 <1>   0.1500 
 27 H        7.2410    -5.5100    -2.1350 H     1 <1>   0.0800 
 28 H        6.7030    -6.0060    -0.5490 H     1 <1>   0.0800 
 29 H        8.4090    -5.7920    -0.8660 H     1 <1>   0.0800 
 30 H        8.9160    -0.7900     1.8370 H     1 <1>   0.0800 
 31 H        9.4620    -0.2980     0.2520 H     1 <1>   0.0800 
 32 H       10.1390    -1.7240     1.0060 H     1 <1>   0.0800 
@<TRIPOS>BOND
  1   1   2  2   
  2   2   3  1   
  3   2   4  1   
  4   3   5  2   
  5   3   6  1   
  6   4   7  1   
  7   4  19  1   
  8   4  20  1   
  9   5   8  1   
 10   5   9  1   
 11   6  10  2   
 12   6  21  1   
 13   7   9  1   
 14   7  22  1   
 15   7  23  1   
 16   8  10  1   
 17   8  11  1   
 18   9  24  1   
 19   9  25  1   
 20  11  12  ar  
 21  11  13  ar  
 22  12  14  ar  
 23  13  15  ar  
 24  14  16  ar  
 25  14  17  1   
 26  15  16  ar  
 27  15  18  1   
 28  16  26  1   
 29  17  27  1   
 30  17  28  1   
 31  17  29  1   
 32  18  30  1   
 33  18  31  1   
 34  18  32  1   
@<TRIPOS>SUBSTRUCTURE
  1 ****   8 GROUP 4 **** **** 0

# MOE 2024.06 (io_trps.svl 2023.06)
