@<TRIPOS>MOLECULE
NONAME
52 53 1 0 0 
SMALL
USER_CHARGES


@<TRIPOS>ATOM
  1 O       -4.7210     6.5980    -0.2880 O.3   1 <1>  -0.3630 
  2 C       -5.9700     7.1150    -0.1350 C.ar  1 <1>   0.0830 
  3 C       -3.5550     7.3860    -0.2360 C.3   1 <1>   0.1200 
  4 C       -7.0590     6.2410     0.0140 C.ar  1 <1>  -0.1440 
  5 C       -6.1640     8.4970    -0.1260 C.ar  1 <1>  -0.1500 
  6 C       -2.3510     6.4450    -0.3160 C.3   1 <1>   0.1100 
  7 C       -8.3180     6.8210     0.1780 C.ar  1 <1>  -0.1500 
  8 C       -6.8960     4.6910     0.0020 C.3   1 <1>   0.1440 
  9 C       -7.4230     9.0400     0.0370 C.ar  1 <1>  -0.1440 
 10 N       -1.0700     7.1840    -0.2580 N.3   1 <1>  -0.8100 
 11 C       -8.4990     8.1910     0.1920 C.ar  1 <1>  -0.1500 
 12 C       -8.2310     3.9380     0.1710 C.3   1 <1>  -0.2400 
 13 C       -5.9990     4.2300     1.1640 C.3   1 <1>  -0.2400 
 14 C       -6.3100     4.2160    -1.3400 C.3   1 <1>  -0.2400 
 15 C       -7.6290    10.5440     0.0480 C.3   1 <1>  -0.0970 
 16 C        0.0260     6.3670    -0.8180 C.3   1 <1>   0.1100 
 17 C       -0.7500     7.6420     1.1120 C.3   1 <1>   0.1100 
 18 C        1.3670     7.1290    -0.8030 C.3   1 <1>   0.3430 
 19 C        0.5840     8.4170     1.1510 C.3   1 <1>   0.3430 
 20 N        1.7180     7.6110     0.5790 N.4   1 <1>  -0.9590 
 21 C        2.9910     8.3920     0.5730 C.3   1 <1>   0.2630 
 22 H       -3.5650     7.9290     0.6910 H     1 <1>   0.0800 
 23 H       -3.5610     8.0560    -1.0770 H     1 <1>   0.0800 
 24 H       -5.3420     9.1720    -0.2490 H     1 <1>   0.1500 
 25 H       -2.4200     5.9200    -1.2540 H     1 <1>   0.0800 
 26 H       -2.4010     5.7240     0.4820 H     1 <1>   0.0800 
 27 H       -9.2030     6.2290     0.3020 H     1 <1>   0.1500 
 28 H       -9.4880     8.5930     0.3230 H     1 <1>   0.1500 
 29 H       -8.9080     4.1830    -0.6280 H     1 <1>   0.0800 
 30 H       -8.6890     4.1850     1.1120 H     1 <1>   0.0800 
 31 H       -8.0740     2.8740     0.1530 H     1 <1>   0.0800 
 32 H       -6.3880     4.6030     2.0940 H     1 <1>   0.0800 
 33 H       -4.9940     4.5850     1.0530 H     1 <1>   0.0800 
 34 H       -5.9610     3.1570     1.2130 H     1 <1>   0.0800 
 35 H       -6.9140     4.5820    -2.1510 H     1 <1>   0.0800 
 36 H       -6.2860     3.1430    -1.3870 H     1 <1>   0.0800 
 37 H       -5.3080     4.5690    -1.4840 H     1 <1>   0.0800 
 38 H       -6.8210    11.0440    -0.4550 H     1 <1>   0.0800 
 39 H       -7.6780    10.8970     1.0630 H     1 <1>   0.0800 
 40 H       -8.5460    10.7970    -0.4530 H     1 <1>   0.0800 
 41 H       -0.2100     6.1130    -1.8380 H     1 <1>   0.0800 
 42 H        0.1230     5.4490    -0.2640 H     1 <1>   0.0800 
 43 H       -0.6980     6.7990     1.7810 H     1 <1>   0.0800 
 44 H       -1.5290     8.2940     1.4650 H     1 <1>   0.0800 
 45 H        1.2830     7.9710    -1.4700 H     1 <1>   0.0800 
 46 H        2.1450     6.4850    -1.1770 H     1 <1>   0.0800 
 47 H        0.8040     8.6900     2.1700 H     1 <1>   0.0800 
 48 H        0.4620     9.3250     0.5830 H     1 <1>   0.0800 
 49 H        1.8340     6.7790     1.1730 H     1 <1>   0.4500 
 50 H        2.8890     9.2690    -0.0470 H     1 <1>   0.0800 
 51 H        3.7980     7.7910     0.1870 H     1 <1>   0.0800 
 52 H        3.2440     8.7040     1.5730 H     1 <1>   0.0800 
@<TRIPOS>BOND
  1   1   2  1   
  2   1   3  1   
  3   2   4  ar  
  4   2   5  ar  
  5   3   6  1   
  6   3  22  1   
  7   3  23  1   
  8   4   7  ar  
  9   4   8  1   
 10   5   9  ar  
 11   5  24  1   
 12   6  10  1   
 13   6  25  1   
 14   6  26  1   
 15   7  11  ar  
 16   7  27  1   
 17   8  12  1   
 18   8  13  1   
 19   8  14  1   
 20   9  11  ar  
 21   9  15  1   
 22  10  16  1   
 23  10  17  1   
 24  11  28  1   
 25  12  29  1   
 26  12  30  1   
 27  12  31  1   
 28  13  32  1   
 29  13  33  1   
 30  13  34  1   
 31  14  35  1   
 32  14  36  1   
 33  14  37  1   
 34  15  38  1   
 35  15  39  1   
 36  15  40  1   
 37  16  18  1   
 38  16  41  1   
 39  16  42  1   
 40  17  19  1   
 41  17  43  1   
 42  17  44  1   
 43  18  20  1   
 44  18  45  1   
 45  18  46  1   
 46  19  20  1   
 47  19  47  1   
 48  19  48  1   
 49  20  21  1   
 50  20  49  1   
 51  21  50  1   
 52  21  51  1   
 53  21  52  1   
@<TRIPOS>SUBSTRUCTURE
  1 ****   3 GROUP 4 **** **** 0

# MOE 2024.06 (io_trps.svl 2023.06)
