@<TRIPOS>MOLECULE
NONAME
49 51 1 0 0 
SMALL
USER_CHARGES


@<TRIPOS>ATOM
  1 O        0.8280     2.0700     2.3430 O.2   1 <1>  -0.5700 
  2 C        1.1180     2.1200     1.1620 C.2   1 <1>   0.5440 
  3 N        0.1180     2.0080     0.2370 N.am  1 <1>  -0.7300 
  4 C        2.4940     2.3130     0.7440 C.ar  1 <1>   0.0860 
  5 C       -1.3090     1.7990     0.5320 C.3   1 <1>   0.2200 
  6 C        3.4180     2.9450     1.5770 C.ar  1 <1>  -0.1500 
  7 C        2.9620     1.8820    -0.5000 C.ar  1 <1>  -0.1500 
  8 C       -1.7940     0.5620    -0.2310 C.3   1 <1>  -0.1600 
  9 C       -2.0890     3.0500     0.1160 C.3   1 <1>  -0.1600 
 10 C        4.7270     3.1500     1.1870 C.ar  1 <1>  -0.1500 
 11 C        4.2700     2.0870    -0.8930 C.ar  1 <1>  -0.1500 
 12 C       -3.3060     0.3550    -0.0510 C.3   1 <1>  -0.1600 
 13 C       -3.6010     2.8490     0.2960 C.3   1 <1>  -0.1600 
 14 C        5.1780     2.7310    -0.0580 C.ar  1 <1>   0.1170 
 15 C       -4.0900     1.6080    -0.4640 C.3   1 <1>  -0.1600 
 16 N        6.5140     2.9670    -0.3980 N.am  1 <1>  -0.5470 
 17 C        7.2070     2.8650    -1.5760 C.2   1 <1>   0.5690 
 18 O        6.7100     2.5250    -2.6210 O.2   1 <1>  -0.5700 
 19 C        8.6890     3.2060    -1.5690 C.3   1 <1>   0.0440 
 20 C        9.1710     3.7100    -0.2110 C.ar  1 <1>  -0.1440 
 21 C        9.0980     5.0590     0.1000 C.ar  1 <1>  -0.1500 
 22 C        9.6590     2.8190     0.7330 C.ar  1 <1>  -0.1500 
 23 C        9.5040     5.5120     1.3420 C.ar  1 <1>  -0.1500 
 24 C       10.0650     3.2720     1.9760 C.ar  1 <1>  -0.1500 
 25 C        9.9870     4.6190     2.2820 C.ar  1 <1>  -0.1500 
 26 H        0.3310     2.1640    -0.7460 H     1 <1>   0.3700 
 27 H       -1.4450     1.6340     1.5890 H     1 <1>   0.0800 
 28 H        3.0920     3.2790     2.5480 H     1 <1>   0.1500 
 29 H        2.2960     1.3690    -1.1700 H     1 <1>   0.1500 
 30 H       -1.2710    -0.3050     0.1330 H     1 <1>   0.0800 
 31 H       -1.5800     0.6770    -1.2790 H     1 <1>   0.0800 
 32 H       -1.8860     3.2760    -0.9160 H     1 <1>   0.0800 
 33 H       -1.7670     3.8820     0.7190 H     1 <1>   0.0800 
 34 H        5.4060     3.6440     1.8590 H     1 <1>   0.1500 
 35 H        4.5840     1.7340    -1.8580 H     1 <1>   0.1500 
 36 H       -3.5130     0.1310     0.9820 H     1 <1>   0.0800 
 37 H       -3.6290    -0.4850    -0.6420 H     1 <1>   0.0800 
 38 H       -4.1260     3.7200    -0.0560 H     1 <1>   0.0800 
 39 H       -3.8200     2.7330     1.3440 H     1 <1>   0.0800 
 40 H       -5.1380     1.4570    -0.2700 H     1 <1>   0.0800 
 41 H       -3.9720     1.7700    -1.5230 H     1 <1>   0.0800 
 42 H        7.0960     3.3090     0.3700 H     1 <1>   0.3700 
 43 H        8.8680     3.9540    -2.3190 H     1 <1>   0.0800 
 44 H        9.2400     2.3280    -1.8510 H     1 <1>   0.0800 
 45 H        8.7240     5.7660    -0.6230 H     1 <1>   0.1500 
 46 H        9.7250     1.7670     0.5090 H     1 <1>   0.1500 
 47 H        9.4470     6.5610     1.5780 H     1 <1>   0.1500 
 48 H       10.4440     2.5770     2.7060 H     1 <1>   0.1500 
 49 H       10.3040     4.9710     3.2480 H     1 <1>   0.1500 
@<TRIPOS>BOND
  1   1   2  2   
  2   2   3  am  
  3   2   4  1   
  4   3   5  1   
  5   3  26  1   
  6   4   6  ar  
  7   4   7  ar  
  8   5   8  1   
  9   5   9  1   
 10   5  27  1   
 11   6  10  ar  
 12   6  28  1   
 13   7  11  ar  
 14   7  29  1   
 15   8  12  1   
 16   8  30  1   
 17   8  31  1   
 18   9  13  1   
 19   9  32  1   
 20   9  33  1   
 21  10  14  ar  
 22  10  34  1   
 23  11  14  ar  
 24  11  35  1   
 25  12  15  1   
 26  12  36  1   
 27  12  37  1   
 28  13  15  1   
 29  13  38  1   
 30  13  39  1   
 31  14  16  1   
 32  15  40  1   
 33  15  41  1   
 34  16  17  am  
 35  16  42  1   
 36  17  18  2   
 37  17  19  1   
 38  19  20  1   
 39  19  43  1   
 40  19  44  1   
 41  20  21  ar  
 42  20  22  ar  
 43  21  23  ar  
 44  21  45  1   
 45  22  24  ar  
 46  22  46  1   
 47  23  25  ar  
 48  23  47  1   
 49  24  25  ar  
 50  24  48  1   
 51  25  49  1   
@<TRIPOS>SUBSTRUCTURE
  1 ****  11 GROUP 4 **** **** 0

# MOE 2024.06 (io_trps.svl 2023.06)
