@<TRIPOS>MOLECULE
NONAME
31 33 1 0 0 
SMALL
USER_CHARGES


@<TRIPOS>ATOM
  1 BR       1.5950     3.0280     1.5920 Br    1 <1>  -0.0580 
  2 C        2.5390     1.5660     0.7820 C.2   1 <1>   0.0980 
  3 S        3.7500     0.7920     1.7730 S.3   1 <1>  -0.0800 
  4 C        2.4340     1.0190    -0.4390 C.2   1 <1>  -0.1500 
  5 C        4.1350    -0.3290     0.4590 C.2   1 <1>  -0.0220 
  6 C        3.3520    -0.0670    -0.6130 C.2   1 <1>  -0.1500 
  7 S        5.4270    -1.5630     0.7520 S.o2  1 <1>   1.5000 
  8 O        5.8090    -2.1460    -0.5130 O.2   1 <1>  -0.6500 
  9 O        5.0200    -2.4030     1.8540 O.2   1 <1>  -0.6500 
 10 N        6.7160    -0.6620     1.3400 N.am  1 <1>  -0.9140 
 11 C        7.1780     0.4310     0.5000 C.3   1 <1>   0.2760 
 12 C        8.0260    -0.0090    -0.7150 C.3   1 <1>  -0.0800 
 13 C        8.1540     1.3240     1.2830 C.3   1 <1>  -0.1600 
 14 C        8.8160     1.2610    -0.9910 C.3   1 <1>  -0.1600 
 15 C        9.1580    -0.9600    -0.2790 C.3   1 <1>  -0.1600 
 16 C        9.4160     1.3360     0.4020 C.3   1 <1>  -0.0800 
 17 C       10.0980    -0.0370     0.5140 C.3   1 <1>  -0.1600 
 18 H        1.7560     1.3300    -1.2160 H     1 <1>   0.1500 
 19 H        3.3880    -0.6120    -1.5430 H     1 <1>   0.1500 
 20 H        6.4140    -0.3080     2.2420 H     1 <1>   0.4200 
 21 H        6.3510     1.0340     0.1640 H     1 <1>   0.0800 
 22 H        7.4490    -0.3610    -1.5520 H     1 <1>   0.0800 
 23 H        8.3700     0.9500     2.2690 H     1 <1>   0.0800 
 24 H        7.7550     2.3190     1.3590 H     1 <1>   0.0800 
 25 H        8.1890     2.1060    -1.2240 H     1 <1>   0.0800 
 26 H        9.5600     1.1310    -1.7590 H     1 <1>   0.0800 
 27 H        9.6650    -1.3510    -1.1450 H     1 <1>   0.0800 
 28 H        8.8030    -1.7860     0.3120 H     1 <1>   0.0800 
 29 H       10.0740     2.1700     0.5800 H     1 <1>   0.0800 
 30 H       11.0710    -0.0130     0.0540 H     1 <1>   0.0800 
 31 H       10.2000    -0.3550     1.5380 H     1 <1>   0.0800 
@<TRIPOS>BOND
  1   1   2  1   
  2   2   3  1   
  3   2   4  2   
  4   3   5  1   
  5   4   6  1   
  6   4  18  1   
  7   5   6  2   
  8   5   7  1   
  9   6  19  1   
 10   7   8  2   
 11   7   9  2   
 12   7  10  am  
 13  10  11  1   
 14  10  20  1   
 15  11  12  1   
 16  11  13  1   
 17  11  21  1   
 18  12  14  1   
 19  12  15  1   
 20  12  22  1   
 21  13  16  1   
 22  13  23  1   
 23  13  24  1   
 24  14  16  1   
 25  14  25  1   
 26  14  26  1   
 27  15  17  1   
 28  15  27  1   
 29  15  28  1   
 30  16  17  1   
 31  16  29  1   
 32  17  30  1   
 33  17  31  1   
@<TRIPOS>SUBSTRUCTURE
  1 ****  11 GROUP 4 **** **** 0

# MOE 2024.06 (io_trps.svl 2023.06)
