@<TRIPOS>MOLECULE
NONAME
40 41 1 0 0 
SMALL
USER_CHARGES


@<TRIPOS>ATOM
  1 S       -0.1930     0.1860    -0.1250 S.o2  1 <1>   1.3330 
  2 O        0.3540     0.2120     1.2140 O.2   1 <1>  -0.6500 
  3 O       -0.5850     1.4190    -0.7690 O.2   1 <1>  -0.6500 
  4 N       -1.5390    -0.8450    -0.1080 N.am  1 <1>  -0.8490 
  5 C        0.9510    -0.6680    -1.2210 C.3   1 <1>  -0.0550 
  6 C       -2.7770    -0.1110     0.2090 C.3   1 <1>   0.1960 
  7 C       -1.3670    -1.9700     0.8200 C.3   1 <1>   0.1960 
  8 C        2.2870     0.0640    -1.4420 C.3   1 <1>  -0.2400 
  9 C       -4.0010    -1.0200     0.0300 C.3   1 <1>  -0.0190 
 10 C       -2.5250    -2.9630     0.6650 C.3   1 <1>  -0.1600 
 11 C       -5.2760    -0.2490     0.3420 C.2   1 <1>   0.5690 
 12 C       -3.8780    -2.2810     0.9050 C.3   1 <1>  -0.1600 
 13 O       -5.3400     0.3670     1.3770 O.2   1 <1>  -0.5700 
 14 N       -6.3000    -0.3110    -0.5650 N.am  1 <1>  -0.5470 
 15 C       -7.5670     0.2930    -0.5620 C.ar  1 <1>   0.1170 
 16 C       -7.8630     1.4360     0.1760 C.ar  1 <1>  -0.1500 
 17 C       -8.5740    -0.2670    -1.3470 C.ar  1 <1>  -0.1500 
 18 C       -9.1330     1.9700     0.1120 C.ar  1 <1>   0.1900 
 19 C       -9.8450     0.2830    -1.3990 C.ar  1 <1>  -0.1500 
 20 F       -9.4030     3.0430     0.8070 F     1 <1>  -0.1900 
 21 C      -10.1360     1.4170    -0.6610 C.ar  1 <1>  -0.1500 
 22 H        0.4750    -0.8030    -2.1740 H     1 <1>   0.0800 
 23 H        1.1590    -1.6410    -0.8230 H     1 <1>   0.0800 
 24 H       -2.8840     0.7330    -0.4510 H     1 <1>   0.0800 
 25 H       -2.7310     0.2630     1.2200 H     1 <1>   0.0800 
 26 H       -1.3310    -1.6070     1.8350 H     1 <1>   0.0800 
 27 H       -0.4400    -2.4780     0.6150 H     1 <1>   0.0800 
 28 H        2.1090     1.0350    -1.8710 H     1 <1>   0.0800 
 29 H        2.9170    -0.5000    -2.1060 H     1 <1>   0.0800 
 30 H        2.7970     0.1920    -0.5020 H     1 <1>   0.0800 
 31 H       -4.0260    -1.3170    -1.0030 H     1 <1>   0.0800 
 32 H       -2.3980    -3.7680     1.3660 H     1 <1>   0.0800 
 33 H       -2.4940    -3.3810    -0.3260 H     1 <1>   0.0800 
 34 H       -4.6800    -2.9650     0.6880 H     1 <1>   0.0800 
 35 H       -3.9530    -2.0000     1.9430 H     1 <1>   0.0800 
 36 H       -6.1320    -0.9270    -1.3580 H     1 <1>   0.3700 
 37 H       -7.1230     1.9120     0.7910 H     1 <1>   0.1500 
 38 H       -8.3670    -1.1500    -1.9240 H     1 <1>   0.1500 
 39 H      -10.6080    -0.1690    -2.0110 H     1 <1>   0.1500 
 40 H      -11.1130     1.8660    -0.6820 H     1 <1>   0.1500 
@<TRIPOS>BOND
  1   1   2  2   
  2   1   3  2   
  3   1   4  am  
  4   1   5  1   
  5   4   6  1   
  6   4   7  1   
  7   5   8  1   
  8   5  22  1   
  9   5  23  1   
 10   6   9  1   
 11   6  24  1   
 12   6  25  1   
 13   7  10  1   
 14   7  26  1   
 15   7  27  1   
 16   8  28  1   
 17   8  29  1   
 18   8  30  1   
 19   9  11  1   
 20   9  12  1   
 21   9  31  1   
 22  10  12  1   
 23  10  32  1   
 24  10  33  1   
 25  11  13  2   
 26  11  14  am  
 27  12  34  1   
 28  12  35  1   
 29  14  15  1   
 30  14  36  1   
 31  15  16  ar  
 32  15  17  ar  
 33  16  18  ar  
 34  16  37  1   
 35  17  19  ar  
 36  17  38  1   
 37  18  20  1   
 38  18  21  ar  
 39  19  21  ar  
 40  19  39  1   
 41  21  40  1   
@<TRIPOS>SUBSTRUCTURE
  1 ****  11 GROUP 4 **** **** 0

# MOE 2024.06 (io_trps.svl 2023.06)
