@<TRIPOS>MOLECULE
NONAME
46 48 1 0 0 
SMALL
USER_CHARGES


@<TRIPOS>ATOM
  1 O        0.8260    -2.0490     2.9500 O.2   1 <1>  -0.5700 
  2 C        1.7030    -1.6370     2.2310 C.2   1 <1>   0.6590 
  3 O        2.5050    -0.6300     2.5660 O.3   1 <1>  -0.2270 
  4 C        2.0760    -2.1600     0.8420 C.3   1 <1>   0.4810 
  5 C        3.3330    -0.3510     1.5570 C.2   1 <1>  -0.0610 
  6 C        0.8670    -2.1070    -0.1110 C.2   1 <1>  -0.1240 
  7 C        2.7260    -3.5480     0.9840 C.ar  1 <1>  -0.1440 
  8 C        3.1780    -1.1630     0.4890 C.2   1 <1>  -0.1240 
  9 C        4.2640     0.8220     1.8080 C.3   1 <1>  -0.1020 
 10 C        0.3560    -3.2960    -0.5630 C.2   1 <1>   0.2000 
 11 C        0.3710    -0.8160    -0.4270 C.2   1 <1>   0.7060 
 12 C        2.0730    -4.6620     0.4680 C.ar  1 <1>   0.1000 
 13 C        3.9590    -3.7090     1.6100 C.ar  1 <1>  -0.1500 
 14 C        3.8690    -1.1930    -0.7730 C.2   1 <1>   0.4950 
 15 N        0.8080    -4.5130    -0.1170 N.pl3 1 <1>  -0.5690 
 16 N       -0.6370    -3.3850    -1.4840 N.pl3 1 <1>  -0.9000 
 17 O        0.6930     0.1990     0.1720 O.2   1 <1>  -0.5700 
 18 O       -0.4950    -0.6590    -1.4450 O.3   1 <1>  -0.4300 
 19 C        2.6920    -5.9080     0.5430 C.ar  1 <1>  -0.1500 
 20 C        4.5530    -4.9540     1.6960 C.ar  1 <1>  -0.1500 
 21 O        4.7830    -0.4530    -1.0200 O.2   1 <1>  -0.5700 
 22 C        3.4950    -2.1590    -1.8840 C.3   1 <1>  -0.1790 
 23 C       -0.1890    -5.5940     0.1530 C.3   1 <1>   0.1290 
 24 C       -1.0100     0.6100    -1.7860 C.3   1 <1>   0.1200 
 25 C        3.9210    -6.0560     1.1540 C.ar  1 <1>  -0.1500 
 26 C       -1.9560     0.4310    -2.9690 C.3   1 <1>  -0.2400 
 27 H        3.6840     1.7070     1.9980 H     1 <1>   0.0800 
 28 H        4.9010     1.0110     0.9650 H     1 <1>   0.0800 
 29 H        4.8810     0.6220     2.6650 H     1 <1>   0.0800 
 30 H        4.4820    -2.8700     2.0390 H     1 <1>   0.1500 
 31 H       -1.0280    -2.5420    -1.9250 H     1 <1>   0.4000 
 32 H       -0.8460    -4.2650    -1.9560 H     1 <1>   0.4000 
 33 H        2.2140    -6.7700     0.1170 H     1 <1>   0.1500 
 34 H        5.5090    -5.0650     2.1800 H     1 <1>   0.1500 
 35 H        4.2030    -2.0730    -2.6880 H     1 <1>   0.0800 
 36 H        2.5220    -1.9270    -2.2720 H     1 <1>   0.0800 
 37 H        3.5160    -3.1740    -1.5370 H     1 <1>   0.0800 
 38 H       -1.1740    -5.1750     0.2660 H     1 <1>   0.0800 
 39 H        0.0570    -6.1050     1.0680 H     1 <1>   0.0800 
 40 H       -0.1890    -6.2960    -0.6600 H     1 <1>   0.0800 
 41 H       -0.1880     1.2570    -2.0430 H     1 <1>   0.0800 
 42 H       -1.5310     1.0090    -0.9310 H     1 <1>   0.0800 
 43 H        4.3850    -7.0260     1.2100 H     1 <1>   0.1500 
 44 H       -1.4260     0.0220    -3.8110 H     1 <1>   0.0800 
 45 H       -2.3630     1.3850    -3.2530 H     1 <1>   0.0800 
 46 H       -2.7690    -0.2200    -2.7000 H     1 <1>   0.0800 
@<TRIPOS>BOND
  1   1   2  2   
  2   2   3  1   
  3   2   4  1   
  4   3   5  1   
  5   4   6  1   
  6   4   7  1   
  7   4   8  1   
  8   5   8  2   
  9   5   9  1   
 10   6  10  2   
 11   6  11  1   
 12   7  12  ar  
 13   7  13  ar  
 14   8  14  1   
 15   9  27  1   
 16   9  28  1   
 17   9  29  1   
 18  10  15  1   
 19  10  16  1   
 20  11  17  2   
 21  11  18  1   
 22  12  15  1   
 23  12  19  ar  
 24  13  20  ar  
 25  13  30  1   
 26  14  21  2   
 27  14  22  1   
 28  15  23  1   
 29  16  31  1   
 30  16  32  1   
 31  18  24  1   
 32  19  25  ar  
 33  19  33  1   
 34  20  25  ar  
 35  20  34  1   
 36  22  35  1   
 37  22  36  1   
 38  22  37  1   
 39  23  38  1   
 40  23  39  1   
 41  23  40  1   
 42  24  26  1   
 43  24  41  1   
 44  24  42  1   
 45  25  43  1   
 46  26  44  1   
 47  26  45  1   
 48  26  46  1   
@<TRIPOS>SUBSTRUCTURE
  1 ****   4 GROUP 4 **** **** 0

# MOE 2024.06 (io_trps.svl 2023.06)
