@<TRIPOS>MOLECULE
NONAME
42 43 1 0 0 
SMALL
USER_CHARGES


@<TRIPOS>ATOM
  1 O       -0.2410     0.4010     0.6320 O.3   1 <1>  -0.3630 
  2 C       -0.0370     1.7290     0.4560 C.ar  1 <1>   0.0830 
  3 C       -1.3520    -0.2490     0.0510 C.3   1 <1>   0.0400 
  4 C       -0.8410     2.5410    -0.3340 C.ar  1 <1>  -0.1500 
  5 C        1.0490     2.2770     1.1160 C.ar  1 <1>  -0.1500 
  6 C       -0.5600     3.8900    -0.4590 C.ar  1 <1>   0.0830 
  7 C        1.3470     3.6250     0.9890 C.ar  1 <1>  -0.1430 
  8 O       -1.3970     4.6120    -1.2440 O.3   1 <1>  -0.3630 
  9 C        0.5370     4.4340     0.2040 C.ar  1 <1>  -0.1500 
 10 C        2.5560     4.1930     1.6910 C.3   1 <1>   0.4860 
 11 C       -1.3200     6.0180    -1.3300 C.3   1 <1>   0.0400 
 12 N        3.7070     3.9140     0.8100 N.4   1 <1>  -0.9060 
 13 C        5.0090     4.3940     1.3030 C.3   1 <1>   0.4230 
 14 C        5.0930     5.9100     1.1550 C.3   1 <1>  -0.1600 
 15 C        6.0820     3.9030     0.3400 C.3   1 <1>  -0.1600 
 16 C        5.3700     6.1580    -0.3330 C.3   1 <1>  -0.0800 
 17 C        6.0990     4.9000    -0.8290 C.3   1 <1>  -0.1600 
 18 C        6.1760     7.4390    -0.5660 C.3   1 <1>  -0.2400 
 19 H       -1.3230    -1.2840     0.3410 H     1 <1>   0.0800 
 20 H       -1.2850    -0.1680    -1.0190 H     1 <1>   0.0800 
 21 H       -2.2550     0.2070     0.4160 H     1 <1>   0.0800 
 22 H       -1.6910     2.1530    -0.8610 H     1 <1>   0.1500 
 23 H        1.6450     1.6210     1.7260 H     1 <1>   0.1500 
 24 H        0.7580     5.4810     0.1070 H     1 <1>   0.1500 
 25 H        2.6860     3.7160     2.6490 H     1 <1>   0.0800 
 26 H        2.4340     5.2530     1.8390 H     1 <1>   0.0800 
 27 H       -2.1250     6.3560    -1.9590 H     1 <1>   0.0800 
 28 H       -0.3780     6.2920    -1.7690 H     1 <1>   0.0800 
 29 H       -1.4290     6.4350    -0.3450 H     1 <1>   0.0800 
 30 H        3.5290     4.3330    -0.1080 H     1 <1>   0.4500 
 31 H        3.7430     2.9020     0.6490 H     1 <1>   0.4500 
 32 H        5.1920     4.0630     2.3140 H     1 <1>   0.0800 
 33 H        5.9360     6.2500     1.7330 H     1 <1>   0.0800 
 34 H        4.2220     6.4340     1.5050 H     1 <1>   0.0800 
 35 H        5.9350     2.8870     0.0170 H     1 <1>   0.0800 
 36 H        7.0330     3.9570     0.8430 H     1 <1>   0.0800 
 37 H        4.4320     6.2460    -0.8580 H     1 <1>   0.0800 
 38 H        5.5880     4.4930    -1.6850 H     1 <1>   0.0800 
 39 H        7.1160     5.1130    -1.1170 H     1 <1>   0.0800 
 40 H        7.1310     7.3910    -0.0720 H     1 <1>   0.0800 
 41 H        5.6400     8.2940    -0.1910 H     1 <1>   0.0800 
 42 H        6.3470     7.5850    -1.6180 H     1 <1>   0.0800 
@<TRIPOS>BOND
  1   1   2  1   
  2   1   3  1   
  3   2   4  ar  
  4   2   5  ar  
  5   3  19  1   
  6   3  20  1   
  7   3  21  1   
  8   4   6  ar  
  9   4  22  1   
 10   5   7  ar  
 11   5  23  1   
 12   6   8  1   
 13   6   9  ar  
 14   7   9  ar  
 15   7  10  1   
 16   8  11  1   
 17   9  24  1   
 18  10  12  1   
 19  10  25  1   
 20  10  26  1   
 21  11  27  1   
 22  11  28  1   
 23  11  29  1   
 24  12  13  1   
 25  12  30  1   
 26  12  31  1   
 27  13  14  1   
 28  13  15  1   
 29  13  32  1   
 30  14  16  1   
 31  14  33  1   
 32  14  34  1   
 33  15  17  1   
 34  15  35  1   
 35  15  36  1   
 36  16  17  1   
 37  16  18  1   
 38  16  37  1   
 39  17  38  1   
 40  17  39  1   
 41  18  40  1   
 42  18  41  1   
 43  18  42  1   
@<TRIPOS>SUBSTRUCTURE
  1 ****   7 GROUP 4 **** **** 0

# MOE 2024.06 (io_trps.svl 2023.06)
