@<TRIPOS>MOLECULE
NONAME
39 42 1 0 0 
SMALL
USER_CHARGES


@<TRIPOS>ATOM
  1 O       -0.2410    -1.1940    -1.8140 O.2   1 <1>  -0.5700 
  2 C       -0.1610    -1.7670    -0.7580 C.2   1 <1>   0.5690 
  3 N        0.9160    -2.4560    -0.2590 N.am  1 <1>  -0.1840 
  4 C       -1.3080    -1.7380     0.2320 C.3   1 <1>  -0.0190 
  5 C        2.0920    -2.7940    -0.9650 C.2   1 <1>   0.2500 
  6 C        0.6750    -2.8150     1.0390 C.2   1 <1>   0.5690 
  7 C       -0.7220    -2.4340     1.4820 C.3   1 <1>  -0.0190 
  8 C       -2.5920    -2.3530    -0.3580 C.3   1 <1>  -0.0220 
  9 N        3.2400    -3.1250    -0.3660 N.pl3 1 <1>   0.0330 
 10 N        2.2230    -2.8560    -2.2520 N.2   1 <1>  -0.3380 
 11 O        1.4630    -3.3480     1.7820 O.2   1 <1>  -0.5700 
 12 C       -1.5070    -3.6410     2.0350 C.3   1 <1>  -0.0220 
 13 C       -3.4920    -2.8760     0.7420 C.2   1 <1>  -0.2880 
 14 C        4.0720    -3.3840    -1.3760 C.2   1 <1>   0.0060 
 15 N        3.4840    -3.2280    -2.5090 N.2   1 <1>  -0.3380 
 16 C       -2.9970    -3.4620     1.8330 C.2   1 <1>  -0.2880 
 17 C        5.5170    -3.8110    -1.1890 C.3   1 <1>   0.1630 
 18 C        5.9780    -3.5650     0.2420 C.ar  1 <1>  -0.1440 
 19 C        6.4200    -2.3070     0.6240 C.ar  1 <1>  -0.1500 
 20 C        5.9400    -4.5870     1.1800 C.ar  1 <1>  -0.1500 
 21 C        6.8210    -2.0730     1.9280 C.ar  1 <1>  -0.1500 
 22 C        6.3410    -4.3530     2.4840 C.ar  1 <1>  -0.1500 
 23 C        6.7810    -3.0960     2.8580 C.ar  1 <1>  -0.1500 
 24 H       -1.5120    -0.7110     0.4780 H     1 <1>   0.0800 
 25 H       -0.6360    -1.7030     2.2660 H     1 <1>   0.0800 
 26 H       -2.3530    -3.1670    -1.0220 H     1 <1>   0.0800 
 27 H       -3.1070    -1.6020    -0.9330 H     1 <1>   0.0800 
 28 H        3.4170    -3.1930     0.6420 H     1 <1>   0.2700 
 29 H       -1.2870    -3.7510     3.0840 H     1 <1>   0.0800 
 30 H       -1.2050    -4.5490     1.5410 H     1 <1>   0.0800 
 31 H       -4.5460    -2.7540     0.5510 H     1 <1>   0.1500 
 32 H       -3.6060    -3.8670     2.6250 H     1 <1>   0.1500 
 33 H        6.1370    -3.2600    -1.8730 H     1 <1>   0.0800 
 34 H        5.6080    -4.8530    -1.4340 H     1 <1>   0.0800 
 35 H        6.4540    -1.5030    -0.0920 H     1 <1>   0.1500 
 36 H        5.6000    -5.5700     0.9030 H     1 <1>   0.1500 
 37 H        7.1640    -1.0950     2.2180 H     1 <1>   0.1500 
 38 H        6.3120    -5.1490     3.2080 H     1 <1>   0.1500 
 39 H        7.0940    -2.9150     3.8720 H     1 <1>   0.1500 
@<TRIPOS>BOND
  1   1   2  2   
  2   2   3  am  
  3   2   4  1   
  4   3   5  1   
  5   3   6  am  
  6   4   7  1   
  7   4   8  1   
  8   4  24  1   
  9   5   9  1   
 10   5  10  2   
 11   6   7  1   
 12   6  11  2   
 13   7  12  1   
 14   7  25  1   
 15   8  13  1   
 16   8  26  1   
 17   8  27  1   
 18   9  14  1   
 19   9  28  1   
 20  10  15  1   
 21  12  16  1   
 22  12  29  1   
 23  12  30  1   
 24  13  16  2   
 25  13  31  1   
 26  14  15  2   
 27  14  17  1   
 28  16  32  1   
 29  17  18  1   
 30  17  33  1   
 31  17  34  1   
 32  18  19  ar  
 33  18  20  ar  
 34  19  21  ar  
 35  19  35  1   
 36  20  22  ar  
 37  20  36  1   
 38  21  23  ar  
 39  21  37  1   
 40  22  23  ar  
 41  22  38  1   
 42  23  39  1   
@<TRIPOS>SUBSTRUCTURE
  1 ****   5 GROUP 4 **** **** 0

# MOE 2024.06 (io_trps.svl 2023.06)
