@<TRIPOS>MOLECULE
NONAME
49 50 1 0 0 
SMALL
USER_CHARGES


@<TRIPOS>ATOM
  1 O       -6.2180     1.7930     1.7480 O.2   1 <1>  -0.5700 
  2 C       -6.6050     2.0580     0.6360 C.2   1 <1>   0.6590 
  3 O       -6.0590     3.0720    -0.0360 O.3   1 <1>  -0.4300 
  4 C       -7.7530     1.3130    -0.0790 C.3   1 <1>   0.2050 
  5 C       -5.0910     3.9050     0.5580 C.3   1 <1>   0.1200 
  6 C       -8.8420     2.3440    -0.4340 C.ar  1 <1>  -0.1440 
  7 C       -7.2040     0.5330    -1.2890 C.3   1 <1>  -0.1600 
  8 C       -8.3240     0.1580     0.7690 C.3   1 <1>  -0.1600 
  9 C       -4.9010     5.1250    -0.3480 C.3   1 <1>   0.3430 
 10 C       -9.6580     2.8430     0.5750 C.ar  1 <1>  -0.1500 
 11 C       -9.0230     2.8270    -1.7270 C.ar  1 <1>  -0.1500 
 12 C       -6.5980    -0.7490    -0.7140 C.3   1 <1>  -0.1600 
 13 C       -7.3780    -1.0320     0.5720 C.3   1 <1>  -0.1600 
 14 N       -4.0360     6.1830     0.2810 N.4   1 <1>  -0.9590 
 15 C      -10.6340     3.7860     0.3020 C.ar  1 <1>  -0.1500 
 16 C      -10.0000     3.7690    -2.0020 C.ar  1 <1>  -0.1500 
 17 C       -4.1260     7.4610    -0.4810 C.3   1 <1>   0.3430 
 18 C       -2.6220     5.7300     0.4120 C.3   1 <1>   0.3430 
 19 C      -10.8070     4.2490    -0.9880 C.ar  1 <1>  -0.1500 
 20 C       -5.4560     8.1430    -0.1810 C.3   1 <1>  -0.2400 
 21 C       -1.9150     6.5680     1.4700 C.3   1 <1>  -0.2400 
 22 H       -4.1860     3.3340     0.6660 H     1 <1>   0.0800 
 23 H       -5.4600     4.2050     1.5240 H     1 <1>   0.0800 
 24 H       -6.4860     1.0960    -1.8590 H     1 <1>   0.0800 
 25 H       -8.0210     0.2550    -1.9330 H     1 <1>   0.0800 
 26 H       -9.2960    -0.1060     0.3890 H     1 <1>   0.0800 
 27 H       -8.4220     0.4150     1.8090 H     1 <1>   0.0800 
 28 H       -5.8770     5.5350    -0.5490 H     1 <1>   0.0800 
 29 H       -4.4690     4.8090    -1.2830 H     1 <1>   0.0800 
 30 H       -9.5420     2.5040     1.5900 H     1 <1>   0.1500 
 31 H       -8.4120     2.4840    -2.5410 H     1 <1>   0.1500 
 32 H       -5.5590    -0.5900    -0.4760 H     1 <1>   0.0800 
 33 H       -6.6730    -1.5650    -1.4130 H     1 <1>   0.0800 
 34 H       -7.9340    -1.9510     0.4990 H     1 <1>   0.0800 
 35 H       -6.6960    -1.1050     1.4030 H     1 <1>   0.0800 
 36 H       -4.3930     6.3700     1.2280 H     1 <1>   0.4500 
 37 H      -11.2610     4.1570     1.0950 H     1 <1>   0.1500 
 38 H      -10.1340     4.1270    -3.0080 H     1 <1>   0.1500 
 39 H       -4.0310     7.2750    -1.5390 H     1 <1>   0.0800 
 40 H       -3.3280     8.1230    -0.1850 H     1 <1>   0.0800 
 41 H       -2.1130     5.8140    -0.5360 H     1 <1>   0.0800 
 42 H       -2.5920     4.6970     0.7190 H     1 <1>   0.0800 
 43 H      -11.5680     4.9790    -1.2030 H     1 <1>   0.1500 
 44 H       -6.2900     7.5670    -0.5390 H     1 <1>   0.0800 
 45 H       -5.4820     9.0950    -0.6830 H     1 <1>   0.0800 
 46 H       -5.5650     8.3250     0.8730 H     1 <1>   0.0800 
 47 H       -1.8430     7.6000     1.1800 H     1 <1>   0.0800 
 48 H       -0.9130     6.1970     1.5980 H     1 <1>   0.0800 
 49 H       -2.4170     6.4910     2.4180 H     1 <1>   0.0800 
@<TRIPOS>BOND
  1   1   2  2   
  2   2   3  1   
  3   2   4  1   
  4   3   5  1   
  5   4   6  1   
  6   4   7  1   
  7   4   8  1   
  8   5   9  1   
  9   5  22  1   
 10   5  23  1   
 11   6  10  ar  
 12   6  11  ar  
 13   7  12  1   
 14   7  24  1   
 15   7  25  1   
 16   8  13  1   
 17   8  26  1   
 18   8  27  1   
 19   9  14  1   
 20   9  28  1   
 21   9  29  1   
 22  10  15  ar  
 23  10  30  1   
 24  11  16  ar  
 25  11  31  1   
 26  12  13  1   
 27  12  32  1   
 28  12  33  1   
 29  13  34  1   
 30  13  35  1   
 31  14  17  1   
 32  14  18  1   
 33  14  36  1   
 34  15  19  ar  
 35  15  37  1   
 36  16  19  ar  
 37  16  38  1   
 38  17  20  1   
 39  17  39  1   
 40  17  40  1   
 41  18  21  1   
 42  18  41  1   
 43  18  42  1   
 44  19  43  1   
 45  20  44  1   
 46  20  45  1   
 47  20  46  1   
 48  21  47  1   
 49  21  48  1   
 50  21  49  1   
@<TRIPOS>SUBSTRUCTURE
  1 ****   3 GROUP 4 **** **** 0

# MOE 2024.06 (io_trps.svl 2023.06)
