@<TRIPOS>MOLECULE
NONAME
31 33 1 0 0 
SMALL
USER_CHARGES


@<TRIPOS>ATOM
  1 S       -0.1630     0.1660    -0.5180 S.o2  1 <1>   1.4470 
  2 O       -0.8850     0.3190    -1.7630 O.2   1 <1>  -0.6500 
  3 O        0.2210    -1.1580    -0.0820 O.2   1 <1>  -0.6500 
  4 N       -1.1510     0.8160     0.6960 N.am  1 <1>  -0.8490 
  5 C        1.2920     1.2500    -0.4940 C.ar  1 <1>  -0.0090 
  6 C       -2.3000    -0.0610     1.0140 C.3   1 <1>   0.1960 
  7 C       -1.5690     2.2070     0.4100 C.3   1 <1>   0.1960 
  8 C        2.0300     1.4120     0.6780 C.ar  1 <1>  -0.1500 
  9 C        1.6950     1.9450    -1.6400 C.ar  1 <1>  -0.1500 
 10 C       -3.6190     0.4420     0.3950 C.3   1 <1>   0.1200 
 11 C       -2.8620     2.5900     1.1530 C.3   1 <1>   0.1200 
 12 C        3.1240     2.2520     0.6700 C.ar  1 <1>   0.0820 
 13 C        2.8000     2.7870    -1.6350 C.ar  1 <1>  -0.1500 
 14 O       -3.9370     1.7470     0.8160 O.3   1 <1>  -0.5600 
 15 O        3.9520     2.5440     1.6780 O.3   1 <1>  -0.3630 
 16 C        3.5000     2.9230    -0.4550 C.ar  1 <1>   0.0820 
 17 C        4.9260     3.4480     1.1590 C.3   1 <1>   0.4000 
 18 O        4.5820     3.6660    -0.2090 O.3   1 <1>  -0.3630 
 19 H       -2.4230    -0.0950     2.0820 H     1 <1>   0.0800 
 20 H       -2.1160    -1.0710     0.6870 H     1 <1>   0.0800 
 21 H       -1.7480     2.3420    -0.6440 H     1 <1>   0.0800 
 22 H       -0.7790     2.8790     0.6980 H     1 <1>   0.0800 
 23 H        1.7550     0.8920     1.5790 H     1 <1>   0.1500 
 24 H        1.1350     1.8230    -2.5530 H     1 <1>   0.1500 
 25 H       -4.4350    -0.1990     0.6770 H     1 <1>   0.0800 
 26 H       -3.5430     0.4450    -0.6790 H     1 <1>   0.0800 
 27 H       -3.1510     3.5970     0.9110 H     1 <1>   0.0800 
 28 H       -2.7080     2.5230     2.2160 H     1 <1>   0.0800 
 29 H        3.1110     3.3210    -2.5160 H     1 <1>   0.1500 
 30 H        5.9020     3.0000     1.2180 H     1 <1>   0.0800 
 31 H        4.8800     4.3790     1.6960 H     1 <1>   0.0800 
@<TRIPOS>BOND
  1   1   2  2   
  2   1   3  2   
  3   1   4  am  
  4   1   5  1   
  5   4   6  1   
  6   4   7  1   
  7   5   8  ar  
  8   5   9  ar  
  9   6  10  1   
 10   6  19  1   
 11   6  20  1   
 12   7  11  1   
 13   7  21  1   
 14   7  22  1   
 15   8  12  ar  
 16   8  23  1   
 17   9  13  ar  
 18   9  24  1   
 19  10  14  1   
 20  10  25  1   
 21  10  26  1   
 22  11  14  1   
 23  11  27  1   
 24  11  28  1   
 25  12  15  1   
 26  12  16  ar  
 27  13  16  ar  
 28  13  29  1   
 29  15  17  1   
 30  16  18  1   
 31  17  18  1   
 32  17  30  1   
 33  17  31  1   
@<TRIPOS>SUBSTRUCTURE
  1 ****   5 GROUP 4 **** **** 0

# MOE 2024.06 (io_trps.svl 2023.06)
