@<TRIPOS>MOLECULE
NONAME
54 55 1 0 0 
SMALL
USER_CHARGES


@<TRIPOS>ATOM
  1 S       -0.1860    -0.0670    -0.6850 S.o2  1 <1>   1.3330 
  2 O        1.1660     0.1070    -0.2090 O.2   1 <1>  -0.6500 
  3 O       -1.1470     0.9930    -0.4980 O.2   1 <1>  -0.6500 
  4 N       -0.7910    -1.5220     0.0430 N.am  1 <1>  -0.6930 
  5 C       -0.1180    -0.4750    -2.4180 C.3   1 <1>  -0.1350 
  6 C       -0.1210    -2.7270    -0.1190 C.ar  1 <1>   0.1990 
  7 C       -2.1520    -1.5420     0.6670 C.3   1 <1>   0.3370 
  8 C       -0.6740    -3.7450    -0.8890 C.ar  1 <1>  -0.1500 
  9 C        1.1130    -2.9430     0.4800 C.ar  1 <1>  -0.1500 
 10 C       -3.3390    -1.3080    -0.3140 C.2   1 <1>   0.5690 
 11 C       -2.1430    -0.6220     1.9030 C.3   1 <1>  -0.2400 
 12 C       -0.0140    -4.9490    -1.0480 C.ar  1 <1>  -0.1500 
 13 C        1.7750    -4.1470     0.3220 C.ar  1 <1>  -0.1500 
 14 O       -3.1000    -1.1520    -1.4930 O.2   1 <1>  -0.5700 
 15 N       -4.6500    -1.3360     0.1130 N.am  1 <1>  -0.6600 
 16 C        1.2150    -5.1570    -0.4430 C.ar  1 <1>  -0.1430 
 17 C       -5.1530    -1.9910     1.3640 C.3   1 <1>   0.1400 
 18 C       -5.7490    -0.7850    -0.7460 C.3   1 <1>   0.1400 
 19 C        1.9420    -6.4790    -0.6150 C.3   1 <1>  -0.0970 
 20 C       -6.2150    -3.0590     1.0490 C.3   1 <1>   0.1400 
 21 C       -6.7970    -1.8590    -1.0730 C.3   1 <1>   0.1400 
 22 N       -7.2930    -2.5080     0.1780 N.am  1 <1>  -0.6600 
 23 C       -8.6150    -2.5670     0.5320 C.2   1 <1>   0.7800 
 24 O       -8.9900    -3.0670     1.5760 O.2   1 <1>  -0.5700 
 25 O       -9.5090    -2.0480    -0.3100 O.3   1 <1>  -0.4300 
 26 C      -10.8860    -2.0800    -0.0130 C.3   1 <1>   0.1200 
 27 C      -11.6340    -1.4120    -1.1620 C.3   1 <1>  -0.2400 
 28 H        0.2880     0.3490    -2.9690 H     1 <1>   0.0800 
 29 H       -1.0960    -0.6880    -2.7980 H     1 <1>   0.0800 
 30 H        0.5060    -1.3330    -2.5720 H     1 <1>   0.0800 
 31 H       -2.2910    -2.5390     1.0420 H     1 <1>   0.0800 
 32 H       -1.6220    -3.5860    -1.3710 H     1 <1>   0.1500 
 33 H        1.5510    -2.1590     1.0720 H     1 <1>   0.1500 
 34 H       -2.2320     0.4090     1.6180 H     1 <1>   0.0800 
 35 H       -1.2310    -0.7580     2.4570 H     1 <1>   0.0800 
 36 H       -2.9630    -0.8450     2.5550 H     1 <1>   0.0800 
 37 H       -0.4590    -5.7250    -1.6470 H     1 <1>   0.1500 
 38 H        2.7300    -4.2920     0.7970 H     1 <1>   0.1500 
 39 H       -5.5860    -1.2420     2.0040 H     1 <1>   0.0800 
 40 H       -4.3520    -2.4660     1.8980 H     1 <1>   0.0800 
 41 H       -5.3530    -0.3870    -1.6640 H     1 <1>   0.0800 
 42 H       -6.2280     0.0250    -0.2240 H     1 <1>   0.0800 
 43 H        3.0060    -6.3280    -0.5910 H     1 <1>   0.0800 
 44 H        1.6860    -6.9310    -1.5560 H     1 <1>   0.0800 
 45 H        1.6690    -7.1500     0.1790 H     1 <1>   0.0800 
 46 H       -6.6290    -3.4280     1.9720 H     1 <1>   0.0800 
 47 H       -5.7490    -3.8870     0.5450 H     1 <1>   0.0800 
 48 H       -6.3500    -2.6060    -1.7060 H     1 <1>   0.0800 
 49 H       -7.6060    -1.4060    -1.6180 H     1 <1>   0.0800 
 50 H      -11.0480    -1.5530     0.9130 H     1 <1>   0.0800 
 51 H      -11.1860    -3.1090     0.0980 H     1 <1>   0.0800 
 52 H      -11.3160    -0.3900    -1.2670 H     1 <1>   0.0800 
 53 H      -12.6900    -1.4230    -0.9620 H     1 <1>   0.0800 
 54 H      -11.4540    -1.9430    -2.0800 H     1 <1>   0.0800 
@<TRIPOS>BOND
  1   1   2  2   
  2   1   3  2   
  3   1   4  am  
  4   1   5  1   
  5   4   6  1   
  6   4   7  1   
  7   5  28  1   
  8   5  29  1   
  9   5  30  1   
 10   6   8  ar  
 11   6   9  ar  
 12   7  10  1   
 13   7  11  1   
 14   7  31  1   
 15   8  12  ar  
 16   8  32  1   
 17   9  13  ar  
 18   9  33  1   
 19  10  14  2   
 20  10  15  am  
 21  11  34  1   
 22  11  35  1   
 23  11  36  1   
 24  12  16  ar  
 25  12  37  1   
 26  13  16  ar  
 27  13  38  1   
 28  15  17  1   
 29  15  18  1   
 30  16  19  1   
 31  17  20  1   
 32  17  39  1   
 33  17  40  1   
 34  18  21  1   
 35  18  41  1   
 36  18  42  1   
 37  19  43  1   
 38  19  44  1   
 39  19  45  1   
 40  20  22  1   
 41  20  46  1   
 42  20  47  1   
 43  21  22  1   
 44  21  48  1   
 45  21  49  1   
 46  22  23  am  
 47  23  24  2   
 48  23  25  1   
 49  25  26  1   
 50  26  27  1   
 51  26  50  1   
 52  26  51  1   
 53  27  52  1   
 54  27  53  1   
 55  27  54  1   
@<TRIPOS>SUBSTRUCTURE
  1 ****  10 GROUP 4 **** **** 0

# MOE 2024.06 (io_trps.svl 2023.06)
