@<TRIPOS>MOLECULE
NONAME
44 46 1 0 0 
SMALL
USER_CHARGES


@<TRIPOS>ATOM
  1 S        0.2470    -0.0490    -0.0860 S.3   1 <1>  -0.2860 
  2 C       -1.3290    -0.9080    -0.0510 C.2   1 <1>   0.2420 
  3 C        1.3550    -1.1930     0.8760 C.3   1 <1>   0.1310 
  4 N       -1.4830    -2.0540     0.5080 N.2   1 <1>  -0.3380 
  5 N       -2.4400    -0.4230    -0.5970 N.pl3 1 <1>   0.0480 
  6 C        2.7810    -0.6700     0.9410 C.2   1 <1>   0.5690 
  7 N       -2.7620    -2.3690     0.3340 N.2   1 <1>  -0.3380 
  8 C       -3.3430    -1.3980    -0.3300 C.2   1 <1>   0.1330 
  9 C       -2.6110     0.8750    -1.2910 C.3   1 <1>   0.0160 
 10 O        3.4870    -1.0450     1.8460 O.2   1 <1>  -0.5700 
 11 N        3.2310     0.1860    -0.0140 N.am  1 <1>  -0.7300 
 12 C       -4.7470    -1.3940    -0.7070 C.ar  1 <1>   0.3630 
 13 C        4.5780     0.7720    -0.0770 C.3   1 <1>   0.2200 
 14 N       -5.1880    -0.4950    -1.5990 N.ar  1 <1>  -0.6200 
 15 C       -5.6160    -2.3290    -0.1370 C.ar  1 <1>  -0.1500 
 16 C        4.4640     2.2910     0.0820 C.3   1 <1>  -0.1600 
 17 C        5.2170     0.3980    -1.4180 C.3   1 <1>  -0.1600 
 18 C       -6.4700    -0.5360    -1.9160 C.ar  1 <1>   0.1600 
 19 C       -6.9510    -2.3610    -0.4720 C.ar  1 <1>  -0.1500 
 20 C        5.8310     2.9710    -0.0850 C.3   1 <1>  -0.1600 
 21 C        6.5860     1.0750    -1.5870 C.3   1 <1>  -0.1600 
 22 C       -7.3820    -1.4320    -1.3910 C.ar  1 <1>  -0.1500 
 23 C        6.4770     2.5970    -1.4260 C.3   1 <1>  -0.1600 
 24 H        1.3310    -2.1490     0.3870 H     1 <1>   0.0800 
 25 H        0.9430    -1.2790     1.8640 H     1 <1>   0.0800 
 26 H       -1.7200     1.4680    -1.2100 H     1 <1>   0.0800 
 27 H       -3.4310     1.4100    -0.8460 H     1 <1>   0.0800 
 28 H       -2.8260     0.6950    -2.3290 H     1 <1>   0.0800 
 29 H        2.5770     0.5080    -0.7290 H     1 <1>   0.3700 
 30 H        5.1830     0.3780     0.7240 H     1 <1>   0.0800 
 31 H       -5.2350    -3.0380     0.5760 H     1 <1>   0.1500 
 32 H        4.0720     2.5160     1.0590 H     1 <1>   0.0800 
 33 H        3.7870     2.6820    -0.6570 H     1 <1>   0.0800 
 34 H        4.5740     0.7060    -2.2230 H     1 <1>   0.0800 
 35 H        5.3400    -0.6690    -1.4660 H     1 <1>   0.0800 
 36 H       -6.8180     0.1870    -2.6350 H     1 <1>   0.1500 
 37 H       -7.6240    -3.0800    -0.0370 H     1 <1>   0.1500 
 38 H        6.4800     2.6670     0.7190 H     1 <1>   0.0800 
 39 H        5.7130     4.0400    -0.0260 H     1 <1>   0.0800 
 40 H        6.9860     0.8420    -2.5590 H     1 <1>   0.0800 
 41 H        7.2680     0.6870    -0.8490 H     1 <1>   0.0800 
 42 H       -8.4120    -1.4020    -1.6990 H     1 <1>   0.1500 
 43 H        7.4570     3.0370    -1.4880 H     1 <1>   0.0800 
 44 H        5.8850     2.9990    -2.2310 H     1 <1>   0.0800 
@<TRIPOS>BOND
  1   1   2  1   
  2   1   3  1   
  3   2   4  2   
  4   2   5  1   
  5   3   6  1   
  6   3  24  1   
  7   3  25  1   
  8   4   7  1   
  9   5   8  1   
 10   5   9  1   
 11   6  10  2   
 12   6  11  am  
 13   7   8  2   
 14   8  12  1   
 15   9  26  1   
 16   9  27  1   
 17   9  28  1   
 18  11  13  1   
 19  11  29  1   
 20  12  14  ar  
 21  12  15  ar  
 22  13  16  1   
 23  13  17  1   
 24  13  30  1   
 25  14  18  ar  
 26  15  19  ar  
 27  15  31  1   
 28  16  20  1   
 29  16  32  1   
 30  16  33  1   
 31  17  21  1   
 32  17  34  1   
 33  17  35  1   
 34  18  22  ar  
 35  18  36  1   
 36  19  22  ar  
 37  19  37  1   
 38  20  23  1   
 39  20  38  1   
 40  20  39  1   
 41  21  23  1   
 42  21  40  1   
 43  21  41  1   
 44  22  42  1   
 45  23  43  1   
 46  23  44  1   
@<TRIPOS>SUBSTRUCTURE
  1 ****   1 GROUP 4 **** **** 0

# MOE 2024.06 (io_trps.svl 2023.06)
