@<TRIPOS>MOLECULE
NONAME
31 32 1 0 0 
SMALL
USER_CHARGES


@<TRIPOS>ATOM
  1 O       -0.1770     0.1730     0.2430 O.3   1 <1>  -0.5600 
  2 C       -1.1430     0.8730    -0.4740 C.3   1 <1>   0.2640 
  3 C        1.1300     0.5040    -0.0900 C.3   1 <1>   0.1200 
  4 C       -2.5270     0.4370    -0.0060 C.ar  1 <1>  -0.1440 
  5 C        2.0590    -0.3610     0.7600 C.3   1 <1>  -0.1600 
  6 C       -3.0330    -0.8510    -0.3180 C.ar  1 <1>   0.0000 
  7 C       -3.2860     1.3230     0.7150 C.ar  1 <1>  -0.1500 
  8 C        3.5320    -0.0650     0.4560 C.3   1 <1>  -0.2400 
  9 C       -4.3460    -1.2030     0.0900 C.ar  1 <1>   0.3100 
 10 C       -2.2910    -1.8250    -1.0190 C.ar  1 <1>  -0.1500 
 11 C       -4.5690     0.9830     1.1400 C.ar  1 <1>  -0.1500 
 12 N       -4.8980    -2.4150    -0.2130 N.ar  1 <1>  -0.6200 
 13 C       -5.0910    -0.2470     0.8330 C.ar  1 <1>   0.0820 
 14 C       -2.8690    -3.0260    -1.2920 C.ar  1 <1>  -0.1500 
 15 C       -4.1790    -3.2690    -0.8690 C.ar  1 <1>   0.1600 
 16 O       -6.3410    -0.5260     1.2590 O.3   1 <1>  -0.5320 
 17 H       -1.0190     0.6680    -1.5230 H     1 <1>   0.0800 
 18 H       -0.9980     1.9250    -0.2990 H     1 <1>   0.0800 
 19 H        1.2880     1.5480     0.1200 H     1 <1>   0.0800 
 20 H        1.2840     0.3070    -1.1370 H     1 <1>   0.0800 
 21 H        1.8560    -1.3990     0.5600 H     1 <1>   0.0800 
 22 H        1.8650    -0.1690     1.8010 H     1 <1>   0.0800 
 23 H       -2.9060     2.2980     0.9690 H     1 <1>   0.1500 
 24 H        3.7530    -0.2670    -0.5770 H     1 <1>   0.0800 
 25 H        4.1630    -0.6870     1.0670 H     1 <1>   0.0800 
 26 H        3.7610     0.9650     0.6670 H     1 <1>   0.0800 
 27 H       -1.2810    -1.6250    -1.3230 H     1 <1>   0.1500 
 28 H       -5.1330     1.7010     1.7060 H     1 <1>   0.1500 
 29 H       -2.3410    -3.7970    -1.8220 H     1 <1>   0.1500 
 30 H       -4.6170    -4.2240    -1.1000 H     1 <1>   0.1500 
 31 H       -6.7560     0.1860     1.7720 H     1 <1>   0.4500 
@<TRIPOS>BOND
  1   1   2  1   
  2   1   3  1   
  3   2   4  1   
  4   2  17  1   
  5   2  18  1   
  6   3   5  1   
  7   3  19  1   
  8   3  20  1   
  9   4   6  ar  
 10   4   7  ar  
 11   5   8  1   
 12   5  21  1   
 13   5  22  1   
 14   6   9  ar  
 15   6  10  ar  
 16   7  11  ar  
 17   7  23  1   
 18   8  24  1   
 19   8  25  1   
 20   8  26  1   
 21   9  12  ar  
 22   9  13  ar  
 23  10  14  ar  
 24  10  27  1   
 25  11  13  ar  
 26  11  28  1   
 27  12  15  ar  
 28  13  16  1   
 29  14  15  ar  
 30  14  29  1   
 31  15  30  1   
 32  16  31  1   
@<TRIPOS>SUBSTRUCTURE
  1 ****   6 GROUP 4 **** **** 0

# MOE 2024.06 (io_trps.svl 2023.06)
