@<TRIPOS>MOLECULE
NONAME
27 27 1 0 0 
SMALL
USER_CHARGES


@<TRIPOS>ATOM
  1 CL      -0.5380    -0.6180    -1.0260 Cl    1 <1>  -0.1770 
  2 C       -1.4860     0.7380    -0.4460 C.ar  1 <1>   0.1770 
  3 C       -0.9980     2.0490    -0.4360 C.ar  1 <1>   0.0820 
  4 C       -2.7690     0.4580    -0.0120 C.ar  1 <1>  -0.1500 
  5 O        0.2480     2.4230    -0.8270 O.3   1 <1>  -0.3630 
  6 C       -1.8350     3.0660    -0.0050 C.ar  1 <1>  -0.1500 
  7 C       -3.5880     1.4840     0.4280 C.ar  1 <1>  -0.1500 
  8 C        1.3730     1.6950    -0.3910 C.3   1 <1>   0.1200 
  9 C       -3.1210     2.7880     0.4280 C.ar  1 <1>  -0.1500 
 10 C        2.5490     2.6660    -0.2770 C.3   1 <1>  -0.1600 
 11 C        3.8210     1.9460     0.1890 C.3   1 <1>  -0.1600 
 12 C        4.9960     2.9200     0.2990 C.3   1 <1>   0.0700 
 13 S        6.4740     1.9730     0.8650 S.3   1 <1>  -0.2660 
 14 C        7.7560     3.2400     0.9330 C.1   1 <1>   0.5930 
 15 N        8.5450     4.0590     0.9670 N.1   1 <1>  -0.5570 
 16 H       -3.1240    -0.5560    -0.0240 H     1 <1>   0.1500 
 17 H       -1.4720     4.0790    -0.0080 H     1 <1>   0.1500 
 18 H       -4.5880     1.2700     0.7670 H     1 <1>   0.1500 
 19 H        1.5850     0.9320    -1.1200 H     1 <1>   0.0800 
 20 H        1.1530     1.2470     0.5630 H     1 <1>   0.0800 
 21 H       -3.7590     3.5880     0.7640 H     1 <1>   0.1500 
 22 H        2.2930     3.4400     0.4270 H     1 <1>   0.0800 
 23 H        2.7210     3.1170    -1.2390 H     1 <1>   0.0800 
 24 H        4.0720     1.1680    -0.5120 H     1 <1>   0.0800 
 25 H        3.6470     1.4930     1.1510 H     1 <1>   0.0800 
 26 H        4.8090     3.6900     1.0280 H     1 <1>   0.0800 
 27 H        5.2400     3.3590    -0.6530 H     1 <1>   0.0800 
@<TRIPOS>BOND
  1   1   2  1   
  2   2   3  ar  
  3   2   4  ar  
  4   3   5  1   
  5   3   6  ar  
  6   4   7  ar  
  7   4  16  1   
  8   5   8  1   
  9   6   9  ar  
 10   6  17  1   
 11   7   9  ar  
 12   7  18  1   
 13   8  10  1   
 14   8  19  1   
 15   8  20  1   
 16   9  21  1   
 17  10  11  1   
 18  10  22  1   
 19  10  23  1   
 20  11  12  1   
 21  11  24  1   
 22  11  25  1   
 23  12  13  1   
 24  12  26  1   
 25  12  27  1   
 26  13  14  1   
 27  14  15  3   
@<TRIPOS>SUBSTRUCTURE
  1 ****   8 GROUP 4 **** **** 0

# MOE 2024.06 (io_trps.svl 2023.06)
