@<TRIPOS>MOLECULE
NONAME
35 36 1 0 0 
SMALL
USER_CHARGES


@<TRIPOS>ATOM
  1 CL      -0.5750    -0.0460    -1.6710 Cl    1 <1>  -0.1770 
  2 C       -0.3890    -1.6850    -1.0830 C.ar  1 <1>   0.1770 
  3 C       -1.4660    -2.3250    -0.4710 C.ar  1 <1>   0.1000 
  4 C        0.8370    -2.3020    -1.2450 C.ar  1 <1>  -0.1500 
  5 N       -2.6980    -1.6560    -0.3260 N.pl3 1 <1>  -0.6000 
  6 C       -1.2660    -3.6270    -0.0200 C.ar  1 <1>  -0.1500 
  7 C        1.0120    -3.5970    -0.7890 C.ar  1 <1>  -0.1500 
  8 C       -3.8780    -2.0670     0.2230 C.2   1 <1>  -0.0500 
  9 C       -0.0420    -4.2560    -0.1780 C.ar  1 <1>  -0.1500 
 10 C       -5.0380    -1.3290     0.3190 C.2   1 <1>   0.0290 
 11 C       -6.1940    -1.9160     0.9290 C.2   1 <1>   0.4950 
 12 C       -5.1390     0.0180    -0.1720 C.2   1 <1>   0.4950 
 13 O       -6.2040    -3.0360     1.3820 O.2   1 <1>  -0.5700 
 14 C       -7.5000    -1.1490     1.0610 C.3   1 <1>  -0.0990 
 15 O       -4.2290     0.6170    -0.6990 O.2   1 <1>  -0.5700 
 16 C       -6.4320     0.8070    -0.0410 C.3   1 <1>  -0.0990 
 17 C       -7.6840    -0.0820    -0.0260 C.3   1 <1>   0.0000 
 18 C       -8.9180     0.7740     0.2970 C.3   1 <1>  -0.2400 
 19 C       -7.8980    -0.7400    -1.4020 C.3   1 <1>  -0.2400 
 20 H        1.6420    -1.7730    -1.7230 H     1 <1>   0.1500 
 21 H       -2.6950    -0.6880    -0.7050 H     1 <1>   0.4000 
 22 H       -2.0650    -4.1620     0.4580 H     1 <1>   0.1500 
 23 H        1.9620    -4.0900    -0.9090 H     1 <1>   0.1500 
 24 H       -3.8870    -3.0700     0.6170 H     1 <1>   0.1500 
 25 H        0.0910    -5.2630     0.1780 H     1 <1>   0.1500 
 26 H       -8.3180    -1.8470     1.0250 H     1 <1>   0.0800 
 27 H       -7.5110    -0.6920     2.0340 H     1 <1>   0.0800 
 28 H       -6.3740     1.3790     0.8670 H     1 <1>   0.0800 
 29 H       -6.4970     1.5060    -0.8570 H     1 <1>   0.0800 
 30 H       -9.8050     0.1650     0.3240 H     1 <1>   0.0800 
 31 H       -9.0570     1.5360    -0.4500 H     1 <1>   0.0800 
 32 H       -8.8140     1.2570     1.2530 H     1 <1>   0.0800 
 33 H       -7.0650    -1.3570    -1.6900 H     1 <1>   0.0800 
 34 H       -8.0300     0.0110    -2.1610 H     1 <1>   0.0800 
 35 H       -8.7790    -1.3580    -1.3900 H     1 <1>   0.0800 
@<TRIPOS>BOND
  1   1   2  1   
  2   2   3  ar  
  3   2   4  ar  
  4   3   5  1   
  5   3   6  ar  
  6   4   7  ar  
  7   4  20  1   
  8   5   8  1   
  9   5  21  1   
 10   6   9  ar  
 11   6  22  1   
 12   7   9  ar  
 13   7  23  1   
 14   8  10  2   
 15   8  24  1   
 16   9  25  1   
 17  10  11  1   
 18  10  12  1   
 19  11  13  2   
 20  11  14  1   
 21  12  15  2   
 22  12  16  1   
 23  14  17  1   
 24  14  26  1   
 25  14  27  1   
 26  16  17  1   
 27  16  28  1   
 28  16  29  1   
 29  17  18  1   
 30  17  19  1   
 31  18  30  1   
 32  18  31  1   
 33  18  32  1   
 34  19  33  1   
 35  19  34  1   
 36  19  35  1   
@<TRIPOS>SUBSTRUCTURE
  1 ****   8 GROUP 4 **** **** 0

# MOE 2024.06 (io_trps.svl 2023.06)
