@<TRIPOS>MOLECULE
NONAME
30 31 1 0 0 
SMALL
USER_CHARGES


@<TRIPOS>ATOM
  1 O        0.3640    -0.0920     0.0810 O.2   1 <1>  -0.5700 
  2 C        1.3880    -0.7260     0.0150 C.2   1 <1>   0.5690 
  3 N        2.5880    -0.1260     0.1970 N.am  1 <1>  -0.5470 
  4 C        1.3670    -2.2070    -0.2960 C.3   1 <1>  -0.0990 
  5 C        3.8150    -0.7960     0.2110 C.ar  1 <1>   0.1170 
  6 C        2.5080    -2.9580     0.4260 C.3   1 <1>  -0.0430 
  7 C        3.8360    -2.1850     0.3060 C.ar  1 <1>  -0.1440 
  8 C        5.0040    -0.0860     0.1350 C.ar  1 <1>  -0.1500 
  9 C        2.5790    -4.4170    -0.0270 C.2   1 <1>   0.9060 
 10 C        5.0560    -2.8440     0.3240 C.ar  1 <1>  -0.1500 
 11 C        6.2270    -0.7460     0.1450 C.ar  1 <1>   0.0820 
 12 O        2.8550    -5.2800     0.8150 O.co2 1 <1>  -0.9000 
 13 O        2.3610    -4.7090    -1.2090 O.co2 1 <1>  -0.9000 
 14 C        6.2540    -2.1410     0.2370 C.ar  1 <1>   0.0820 
 15 O        7.4190    -0.0830     0.0660 O.3   1 <1>  -0.3630 
 16 O        7.4710    -2.7660     0.2380 O.3   1 <1>  -0.3630 
 17 C        7.4810     1.3130    -0.1120 C.3   1 <1>   0.0400 
 18 C        7.5540    -4.1720     0.1500 C.3   1 <1>   0.0400 
 19 H        2.5550     0.8780     0.3510 H     1 <1>   0.3700 
 20 H        1.4800    -2.3190    -1.3590 H     1 <1>   0.0800 
 21 H        0.4190    -2.6270    -0.0150 H     1 <1>   0.0800 
 22 H        2.2630    -2.9870     1.4700 H     1 <1>   0.0800 
 23 H        4.9500     0.9810     0.0650 H     1 <1>   0.1500 
 24 H        5.0550    -3.9150     0.4120 H     1 <1>   0.1500 
 25 H        8.5160     1.5940    -0.1780 H     1 <1>   0.0800 
 26 H        7.0250     1.7930     0.7360 H     1 <1>   0.0800 
 27 H        6.9730     1.5710    -1.0240 H     1 <1>   0.0800 
 28 H        8.5920    -4.4430     0.0830 H     1 <1>   0.0800 
 29 H        7.0320    -4.4990    -0.7320 H     1 <1>   0.0800 
 30 H        7.1190    -4.6040     1.0340 H     1 <1>   0.0800 
@<TRIPOS>BOND
  1   1   2  2   
  2   2   3  am  
  3   2   4  1   
  4   3   5  1   
  5   3  19  1   
  6   4   6  1   
  7   4  20  1   
  8   4  21  1   
  9   5   7  ar  
 10   5   8  ar  
 11   6   7  1   
 12   6   9  1   
 13   6  22  1   
 14   7  10  ar  
 15   8  11  ar  
 16   8  23  1   
 17   9  12  ar  
 18   9  13  ar  
 19  10  14  ar  
 20  10  24  1   
 21  11  14  ar  
 22  11  15  1   
 23  14  16  1   
 24  15  17  1   
 25  16  18  1   
 26  17  25  1   
 27  17  26  1   
 28  17  27  1   
 29  18  28  1   
 30  18  29  1   
 31  18  30  1   
@<TRIPOS>SUBSTRUCTURE
  1 ****   7 GROUP 4 **** **** 0

# MOE 2024.06 (io_trps.svl 2023.06)
