@<TRIPOS>MOLECULE
NONAME
45 46 1 0 0 
SMALL
USER_CHARGES


@<TRIPOS>ATOM
  1 O        0.8030    -0.9980    -1.9750 O.3   1 <1>  -0.3630 
  2 C        0.1180    -1.9420    -1.2860 C.ar  1 <1>   0.0820 
  3 C        2.0520    -0.5170    -1.5260 C.3   1 <1>   0.0400 
  4 C        0.5270    -2.4650    -0.0640 C.ar  1 <1>  -0.1500 
  5 C       -1.0580    -2.3870    -1.8660 C.ar  1 <1>  -0.1500 
  6 C       -0.2490    -3.4320     0.5670 C.ar  1 <1>   0.0820 
  7 C       -1.8400    -3.3440    -1.2390 C.ar  1 <1>  -0.1430 
  8 O        0.0650    -3.9990     1.7570 O.3   1 <1>  -0.3630 
  9 C       -1.4230    -3.8670    -0.0250 C.ar  1 <1>  -0.1500 
 10 C       -3.1390    -3.8050    -1.8630 C.3   1 <1>   0.4860 
 11 C        1.2670    -3.6880     2.4280 C.3   1 <1>   0.0400 
 12 N       -4.2640    -3.1760    -1.1220 N.4   1 <1>  -0.9590 
 13 C       -5.5650    -3.8230    -1.4360 C.3   1 <1>   0.4860 
 14 C       -4.3040    -1.6990    -1.2910 C.3   1 <1>   0.3430 
 15 C       -6.5950    -3.3630    -0.4250 C.ar  1 <1>  -0.1430 
 16 C       -4.0640    -1.0540     0.0660 C.3   1 <1>  -0.2400 
 17 C       -6.5650    -3.8490     0.8750 C.ar  1 <1>  -0.1500 
 18 C       -7.5730    -2.4480    -0.7880 C.ar  1 <1>  -0.1500 
 19 C       -7.4950    -3.4140     1.8030 C.ar  1 <1>  -0.1500 
 20 C       -8.5020    -2.0150     0.1410 C.ar  1 <1>  -0.1500 
 21 C       -8.4620    -2.4960     1.4370 C.ar  1 <1>  -0.1500 
 22 H        2.4130     0.1960    -2.2450 H     1 <1>   0.0800 
 23 H        2.7390    -1.3410    -1.4540 H     1 <1>   0.0800 
 24 H        1.9220    -0.0380    -0.5720 H     1 <1>   0.0800 
 25 H        1.4340    -2.1230     0.3900 H     1 <1>   0.1500 
 26 H       -1.3400    -1.9650    -2.8150 H     1 <1>   0.1500 
 27 H       -1.9930    -4.6210     0.4890 H     1 <1>   0.1500 
 28 H       -3.1990    -4.8790    -1.7930 H     1 <1>   0.0800 
 29 H       -3.1710    -3.5250    -2.9040 H     1 <1>   0.0800 
 30 H        1.3090    -4.2750     3.3280 H     1 <1>   0.0800 
 31 H        1.2700    -2.6420     2.6760 H     1 <1>   0.0800 
 32 H        2.0990    -3.9380     1.7920 H     1 <1>   0.0800 
 33 H       -4.0860    -3.3310    -0.1220 H     1 <1>   0.4500 
 34 H       -5.4720    -4.8960    -1.3760 H     1 <1>   0.0800 
 35 H       -5.8830    -3.5630    -2.4320 H     1 <1>   0.0800 
 36 H       -5.2630    -1.3870    -1.6720 H     1 <1>   0.0800 
 37 H       -3.5420    -1.3760    -1.9820 H     1 <1>   0.0800 
 38 H       -4.8330    -1.3300     0.7660 H     1 <1>   0.0800 
 39 H       -4.0870     0.0160    -0.0420 H     1 <1>   0.0800 
 40 H       -3.0990    -1.3240     0.4580 H     1 <1>   0.0800 
 41 H       -5.8270    -4.5700     1.1850 H     1 <1>   0.1500 
 42 H       -7.6280    -2.0620    -1.7920 H     1 <1>   0.1500 
 43 H       -7.4710    -3.7910     2.8120 H     1 <1>   0.1500 
 44 H       -9.2610    -1.3040    -0.1410 H     1 <1>   0.1500 
 45 H       -9.1860    -2.1590     2.1590 H     1 <1>   0.1500 
@<TRIPOS>BOND
  1   1   2  1   
  2   1   3  1   
  3   2   4  ar  
  4   2   5  ar  
  5   3  22  1   
  6   3  23  1   
  7   3  24  1   
  8   4   6  ar  
  9   4  25  1   
 10   5   7  ar  
 11   5  26  1   
 12   6   8  1   
 13   6   9  ar  
 14   7   9  ar  
 15   7  10  1   
 16   8  11  1   
 17   9  27  1   
 18  10  12  1   
 19  10  28  1   
 20  10  29  1   
 21  11  30  1   
 22  11  31  1   
 23  11  32  1   
 24  12  13  1   
 25  12  14  1   
 26  12  33  1   
 27  13  15  1   
 28  13  34  1   
 29  13  35  1   
 30  14  16  1   
 31  14  36  1   
 32  14  37  1   
 33  15  17  ar  
 34  15  18  ar  
 35  16  38  1   
 36  16  39  1   
 37  16  40  1   
 38  17  19  ar  
 39  17  41  1   
 40  18  20  ar  
 41  18  42  1   
 42  19  21  ar  
 43  19  43  1   
 44  20  21  ar  
 45  20  44  1   
 46  21  45  1   
@<TRIPOS>SUBSTRUCTURE
  1 ****  12 GROUP 4 **** **** 0

# MOE 2024.06 (io_trps.svl 2023.06)
