@<TRIPOS>MOLECULE
NONAME
44 46 1 0 0 
SMALL
USER_CHARGES


@<TRIPOS>ATOM
  1 BR       1.3990    -0.1830     1.3120 Br    1 <1>  -0.1110 
  2 C        0.5130    -1.7800     0.6890 C.ar  1 <1>   0.1110 
  3 C        1.0130    -2.4770    -0.3980 C.ar  1 <1>   0.0820 
  4 C       -0.6230    -2.1880     1.3600 C.ar  1 <1>  -0.1500 
  5 O        2.1210    -2.0670    -1.0490 O.3   1 <1>  -0.5330 
  6 C        0.3570    -3.6270    -0.8260 C.ar  1 <1>   0.0830 
  7 C       -1.2920    -3.3260     0.9260 C.ar  1 <1>  -0.1430 
  8 O        0.8920    -4.2870    -1.8920 O.3   1 <1>  -0.3630 
  9 C       -0.7950    -4.0440    -0.1590 C.ar  1 <1>  -0.1500 
 10 C       -2.5570    -3.7730     1.6360 C.3   1 <1>   0.4860 
 11 C        0.4430    -5.5700    -2.2730 C.3   1 <1>   0.0400 
 12 N       -3.7340    -3.3450     0.8340 N.4   1 <1>  -0.9590 
 13 C       -3.8320    -1.8410     0.7220 C.3   1 <1>   0.3430 
 14 C       -5.0190    -3.9180     1.3740 C.3   1 <1>   0.3430 
 15 C       -5.0510    -1.3890    -0.1050 C.3   1 <1>   0.2090 
 16 C       -6.2490    -3.4870     0.5500 C.3   1 <1>   0.2090 
 17 N       -6.3170    -2.0030     0.3970 N.pl3 1 <1>  -0.8380 
 18 C       -7.4430    -1.5660    -0.2650 C.ar  1 <1>   0.4100 
 19 N       -7.5420    -1.9180    -1.5390 N.ar  1 <1>  -0.6200 
 20 C       -8.3930    -0.8030     0.4050 C.ar  1 <1>  -0.1500 
 21 C       -8.6280    -1.4920    -2.1650 C.ar  1 <1>   0.1600 
 22 C       -9.5160    -0.3680    -0.2590 C.ar  1 <1>  -0.1500 
 23 C       -9.6270    -0.7290    -1.5860 C.ar  1 <1>  -0.1500 
 24 H       -0.9600    -1.6120     2.2040 H     1 <1>   0.1500 
 25 H        2.3360    -2.6870    -1.7760 H     1 <1>   0.4500 
 26 H       -1.3070    -4.9300    -0.4850 H     1 <1>   0.1500 
 27 H       -2.6000    -3.3380     2.6220 H     1 <1>   0.0800 
 28 H       -2.5470    -4.8460     1.7380 H     1 <1>   0.0800 
 29 H        1.0720    -5.9190    -3.0730 H     1 <1>   0.0800 
 30 H       -0.5730    -5.5000    -2.6180 H     1 <1>   0.0800 
 31 H        0.5250    -6.2360    -1.4320 H     1 <1>   0.0800 
 32 H       -3.6050    -3.6980    -0.1220 H     1 <1>   0.4500 
 33 H       -2.9400    -1.4470     0.2630 H     1 <1>   0.0800 
 34 H       -3.9150    -1.4090     1.7050 H     1 <1>   0.0800 
 35 H       -5.1660    -3.5840     2.3880 H     1 <1>   0.0800 
 36 H       -4.9680    -4.9940     1.3840 H     1 <1>   0.0800 
 37 H       -4.9060    -1.6540    -1.1390 H     1 <1>   0.0800 
 38 H       -5.1370    -0.3160    -0.0550 H     1 <1>   0.0800 
 39 H       -7.1450    -3.8300     1.0390 H     1 <1>   0.0800 
 40 H       -6.2130    -3.9480    -0.4230 H     1 <1>   0.0800 
 41 H       -8.2350    -0.5620     1.4390 H     1 <1>   0.1500 
 42 H       -8.7290    -1.7660    -3.2020 H     1 <1>   0.1500 
 43 H      -10.2710     0.2250     0.2290 H     1 <1>   0.1500 
 44 H      -10.4790    -0.4230    -2.1650 H     1 <1>   0.1500 
@<TRIPOS>BOND
  1   1   2  1   
  2   2   3  ar  
  3   2   4  ar  
  4   3   5  1   
  5   3   6  ar  
  6   4   7  ar  
  7   4  24  1   
  8   5  25  1   
  9   6   8  1   
 10   6   9  ar  
 11   7   9  ar  
 12   7  10  1   
 13   8  11  1   
 14   9  26  1   
 15  10  12  1   
 16  10  27  1   
 17  10  28  1   
 18  11  29  1   
 19  11  30  1   
 20  11  31  1   
 21  12  13  1   
 22  12  14  1   
 23  12  32  1   
 24  13  15  1   
 25  13  33  1   
 26  13  34  1   
 27  14  16  1   
 28  14  35  1   
 29  14  36  1   
 30  15  17  1   
 31  15  37  1   
 32  15  38  1   
 33  16  17  1   
 34  16  39  1   
 35  16  40  1   
 36  17  18  1   
 37  18  19  ar  
 38  18  20  ar  
 39  19  21  ar  
 40  20  22  ar  
 41  20  41  1   
 42  21  23  ar  
 43  21  42  1   
 44  22  23  ar  
 45  22  43  1   
 46  23  44  1   
@<TRIPOS>SUBSTRUCTURE
  1 ****  13 GROUP 4 **** **** 0

# MOE 2024.06 (io_trps.svl 2023.06)
