@<TRIPOS>MOLECULE
NONAME
39 42 1 0 0 
SMALL
USER_CHARGES


@<TRIPOS>ATOM
  1 O       -0.5360    -0.0720    -0.2850 O.3   1 <1>  -0.5600 
  2 C       -1.7430    -0.3650     0.3240 C.3   1 <1>   0.5600 
  3 C        0.0410     1.0000     0.3770 C.3   1 <1>   0.2000 
  4 O       -2.1840     0.8230     0.8890 O.3   1 <1>  -0.5600 
  5 C       -1.5380    -1.4050     1.4180 C.3   1 <1>  -0.2400 
  6 C       -2.7330    -0.7990    -0.7420 C.3   1 <1>  -0.2400 
  7 C        0.7180     1.9700    -0.5990 C.3   1 <1>   0.4560 
  8 C       -1.1520     1.7470     0.8860 C.3   1 <1>   0.2000 
  9 O       -0.1430     3.0710    -0.7640 O.3   1 <1>  -0.5600 
 10 N        2.0030     2.4640    -0.0610 N.pl3 1 <1>   0.0480 
 11 C       -1.3940     2.8030    -0.1910 C.3   1 <1>   0.2000 
 12 C        3.0960     1.7100     0.1820 C.ar  1 <1>   0.1050 
 13 C        2.3530     3.7250     0.3230 C.2   1 <1>   0.0360 
 14 C       -2.0210     4.0940     0.3480 C.3   1 <1>   0.1200 
 15 N        3.2850     0.4000    -0.0170 N.ar  1 <1>  -0.5670 
 16 C        4.0440     2.5500     0.7030 C.ar  1 <1>   0.2270 
 17 N        3.5520     3.8270     0.7860 N.2   1 <1>  -0.5650 
 18 O       -1.9530     5.0790    -0.6240 O.3   1 <1>  -0.6800 
 19 C        4.4830    -0.0190     0.3260 C.ar  1 <1>   0.4700 
 20 C        5.2780     1.9620     1.0330 C.ar  1 <1>   0.4100 
 21 N        5.5020     0.6850     0.8400 N.ar  1 <1>  -0.6200 
 22 N        6.3100     2.6740     1.5600 N.pl3 1 <1>  -0.9000 
 23 H        0.6900     0.6320     1.1510 H     1 <1>   0.0800 
 24 H       -0.8540    -1.0470     2.1640 H     1 <1>   0.0800 
 25 H       -1.1500    -2.3100     0.9880 H     1 <1>   0.0800 
 26 H       -2.4790    -1.6280     1.8850 H     1 <1>   0.0800 
 27 H       -3.6910    -0.9880    -0.2950 H     1 <1>   0.0800 
 28 H       -2.3900    -1.7020    -1.2110 H     1 <1>   0.0800 
 29 H       -2.8350    -0.0310    -1.4860 H     1 <1>   0.0800 
 30 H        0.8800     1.5020    -1.5540 H     1 <1>   0.0800 
 31 H       -1.0120     2.1640     1.8680 H     1 <1>   0.0800 
 32 H       -2.0160     2.3890    -0.9670 H     1 <1>   0.0800 
 33 H        1.6640     4.5490     0.2340 H     1 <1>   0.1500 
 34 H       -1.4870     4.4430     1.2140 H     1 <1>   0.0800 
 35 H       -3.0540     3.9420     0.6080 H     1 <1>   0.0800 
 36 H       -1.0950     4.9960    -1.0930 H     1 <1>   0.4000 
 37 H        4.6830    -1.0680     0.1790 H     1 <1>   0.1500 
 38 H        7.2330     2.2430     1.5920 H     1 <1>   0.4000 
 39 H        6.2650     3.6960     1.5590 H     1 <1>   0.4000 
@<TRIPOS>BOND
  1   1   2  1   
  2   1   3  1   
  3   2   4  1   
  4   2   5  1   
  5   2   6  1   
  6   3   7  1   
  7   3   8  1   
  8   3  23  1   
  9   4   8  1   
 10   5  24  1   
 11   5  25  1   
 12   5  26  1   
 13   6  27  1   
 14   6  28  1   
 15   6  29  1   
 16   7   9  1   
 17   7  10  1   
 18   7  30  1   
 19   8  11  1   
 20   8  31  1   
 21   9  11  1   
 22  10  12  1   
 23  10  13  1   
 24  11  14  1   
 25  11  32  1   
 26  12  15  ar  
 27  12  16  ar  
 28  13  17  2   
 29  13  33  1   
 30  14  18  1   
 31  14  34  1   
 32  14  35  1   
 33  15  19  ar  
 34  16  17  1   
 35  16  20  ar  
 36  18  36  1   
 37  19  21  ar  
 38  19  37  1   
 39  20  21  ar  
 40  20  22  1   
 41  22  38  1   
 42  22  39  1   
@<TRIPOS>SUBSTRUCTURE
  1 ****   7 GROUP 4 **** **** 0

# MOE 2024.06 (io_trps.svl 2023.06)
