@<TRIPOS>MOLECULE
NONAME
53 55 1 0 0 
SMALL
USER_CHARGES


@<TRIPOS>ATOM
  1 O        4.1380    -2.7580    -0.8480 O.2   1 <1>  -0.5700 
  2 C        2.9630    -2.8310    -1.1510 C.2   1 <1>   0.6340 
  3 O        2.6390    -2.7880    -2.4480 O.3   1 <1>  -0.4300 
  4 C        1.8830    -2.9640    -0.1960 C.ar  1 <1>   0.0860 
  5 C        3.6120    -2.6250    -3.4600 C.3   1 <1>   0.0400 
  6 C        1.9540    -2.4320     1.1090 C.ar  1 <1>   0.1170 
  7 C        0.7170    -3.6410    -0.5730 C.ar  1 <1>  -0.1500 
  8 N        3.0970    -1.7250     1.5250 N.am  1 <1>  -0.5470 
  9 C        0.8660    -2.6070     1.9650 C.ar  1 <1>  -0.1500 
 10 C       -0.3460    -3.8020     0.2900 C.ar  1 <1>  -0.1500 
 11 C        3.4960    -1.1500     2.7030 C.2   1 <1>   0.5690 
 12 C       -0.2690    -3.2830     1.5680 C.ar  1 <1>  -0.1500 
 13 O        2.8590    -1.1780     3.7270 O.2   1 <1>  -0.5700 
 14 C        4.8440    -0.4240     2.7040 C.3   1 <1>   0.1710 
 15 N        5.7200    -0.7450     1.5420 N.3   1 <1>  -0.8100 
 16 C        6.8070     0.2560     1.4090 C.3   1 <1>   0.1100 
 17 C        6.3120    -2.1050     1.6650 C.3   1 <1>   0.1100 
 18 C        7.7590    -0.0610     0.2390 C.3   1 <1>   0.2090 
 19 C        7.2540    -2.4380     0.4920 C.3   1 <1>   0.2090 
 20 N        8.3410    -1.4250     0.3940 N.pl3 1 <1>  -0.8380 
 21 C        9.3980    -1.7430    -0.4690 C.ar  1 <1>   0.1000 
 22 C        9.3020    -1.7800    -1.8710 C.ar  1 <1>   0.0830 
 23 C       10.6220    -2.0480     0.1090 C.ar  1 <1>  -0.1500 
 24 O        8.1270    -1.4980    -2.4950 O.3   1 <1>  -0.3630 
 25 C       10.4100    -2.0920    -2.6430 C.ar  1 <1>  -0.1500 
 26 C       11.7240    -2.3720    -0.6630 C.ar  1 <1>  -0.1500 
 27 C        7.5180    -2.5670    -3.1800 C.3   1 <1>   0.0400 
 28 C       11.6200    -2.3920    -2.0420 C.ar  1 <1>  -0.1500 
 29 H        3.1140    -2.6030    -4.4120 H     1 <1>   0.0800 
 30 H        4.2980    -3.4530    -3.4180 H     1 <1>   0.0800 
 31 H        4.1340    -1.6980    -3.2930 H     1 <1>   0.0800 
 32 H        0.6430    -4.0520    -1.5650 H     1 <1>   0.1500 
 33 H        3.8520    -1.6580     0.8210 H     1 <1>   0.3700 
 34 H        0.8900    -2.2120     2.9620 H     1 <1>   0.1500 
 35 H       -1.2310    -4.3290    -0.0250 H     1 <1>   0.1500 
 36 H       -1.0930    -3.4030     2.2500 H     1 <1>   0.1500 
 37 H        5.3570    -0.6480     3.6230 H     1 <1>   0.0800 
 38 H        4.6260     0.6290     2.6990 H     1 <1>   0.0800 
 39 H        7.3840     0.2920     2.3170 H     1 <1>   0.0800 
 40 H        6.3760     1.2280     1.2450 H     1 <1>   0.0800 
 41 H        5.5310    -2.8440     1.6910 H     1 <1>   0.0800 
 42 H        6.8730    -2.1800     2.5800 H     1 <1>   0.0800 
 43 H        8.5540     0.6620     0.2110 H     1 <1>   0.0800 
 44 H        7.2120     0.0010    -0.6850 H     1 <1>   0.0800 
 45 H        6.6870    -2.4540    -0.4210 H     1 <1>   0.0800 
 46 H        7.6860    -3.4120     0.6400 H     1 <1>   0.0800 
 47 H       10.6990    -2.0260     1.1800 H     1 <1>   0.1500 
 48 H       10.3300    -2.0960    -3.7140 H     1 <1>   0.1500 
 49 H       12.6610    -2.6040    -0.1880 H     1 <1>   0.1500 
 50 H        6.5540    -2.2370    -3.5200 H     1 <1>   0.0800 
 51 H        7.4070    -3.3950    -2.5020 H     1 <1>   0.0800 
 52 H        8.1300    -2.8450    -4.0190 H     1 <1>   0.0800 
 53 H       12.4770    -2.6370    -2.6450 H     1 <1>   0.1500 
@<TRIPOS>BOND
  1   1   2  2   
  2   2   3  1   
  3   2   4  1   
  4   3   5  1   
  5   4   6  ar  
  6   4   7  ar  
  7   5  29  1   
  8   5  30  1   
  9   5  31  1   
 10   6   8  1   
 11   6   9  ar  
 12   7  10  ar  
 13   7  32  1   
 14   8  11  am  
 15   8  33  1   
 16   9  12  ar  
 17   9  34  1   
 18  10  12  ar  
 19  10  35  1   
 20  11  13  2   
 21  11  14  1   
 22  12  36  1   
 23  14  15  1   
 24  14  37  1   
 25  14  38  1   
 26  15  16  1   
 27  15  17  1   
 28  16  18  1   
 29  16  39  1   
 30  16  40  1   
 31  17  19  1   
 32  17  41  1   
 33  17  42  1   
 34  18  20  1   
 35  18  43  1   
 36  18  44  1   
 37  19  20  1   
 38  19  45  1   
 39  19  46  1   
 40  20  21  1   
 41  21  22  ar  
 42  21  23  ar  
 43  22  24  1   
 44  22  25  ar  
 45  23  26  ar  
 46  23  47  1   
 47  24  27  1   
 48  25  28  ar  
 49  25  48  1   
 50  26  28  ar  
 51  26  49  1   
 52  27  50  1   
 53  27  51  1   
 54  27  52  1   
 55  28  53  1   
@<TRIPOS>SUBSTRUCTURE
  1 ****   1 GROUP 4 **** **** 0

# MOE 2024.06 (io_trps.svl 2023.06)
