@<TRIPOS>MOLECULE
NONAME
49 51 1 0 0 
SMALL
USER_CHARGES


@<TRIPOS>ATOM
  1 F        0.5050    -0.1160     0.5870 F     1 <1>  -0.1900 
  2 C        1.6560    -0.7120     0.4520 C.ar  1 <1>   0.1900 
  3 C        2.3660    -1.0630     1.5840 C.ar  1 <1>  -0.1500 
  4 C        2.1290    -0.9730    -0.8200 C.ar  1 <1>  -0.1500 
  5 C        3.5890    -1.6920     1.4300 C.ar  1 <1>  -0.1500 
  6 C        3.3540    -1.6030    -0.9550 C.ar  1 <1>  -0.1500 
  7 C        4.1110    -1.9670     0.1640 C.ar  1 <1>   0.0860 
  8 C        5.3980    -2.6200     0.0230 C.2   1 <1>   0.5440 
  9 O        5.5600    -3.7110     0.5360 O.2   1 <1>  -0.5700 
 10 N        6.4450    -2.0390    -0.6690 N.am  1 <1>  -0.6600 
 11 C        6.4880    -0.5970    -1.0420 C.3   1 <1>   0.1400 
 12 C        7.7070    -2.7830    -0.9360 C.3   1 <1>   0.1400 
 13 C        7.6420     0.0870    -0.3040 C.3   1 <1>  -0.1600 
 14 C        8.8650    -2.1160    -0.1890 C.3   1 <1>  -0.1600 
 15 C        8.9900    -0.6240    -0.5530 C.3   1 <1>  -0.0190 
 16 C       10.1550     0.0280     0.1940 C.2   1 <1>   0.5690 
 17 O        9.9360     0.6930     1.1770 O.2   1 <1>  -0.5700 
 18 N       11.4110    -0.1980    -0.3000 N.am  1 <1>  -0.5470 
 19 C       12.6750     0.2460     0.1280 C.ar  1 <1>   0.1170 
 20 C       13.8160    -0.5170    -0.1520 C.ar  1 <1>  -0.1430 
 21 C       12.8160     1.4540     0.8000 C.ar  1 <1>  -0.1500 
 22 C       15.0730    -0.0490     0.2300 C.ar  1 <1>  -0.1430 
 23 C       13.6600    -1.8590    -0.8730 C.3   1 <1>  -0.0970 
 24 C       14.0590     1.9090     1.1880 C.ar  1 <1>  -0.1500 
 25 C       15.1820     1.1600     0.9010 C.ar  1 <1>  -0.1500 
 26 C       16.3600    -0.8120    -0.0600 C.3   1 <1>  -0.0970 
 27 H        1.9650    -0.8500     2.5590 H     1 <1>   0.1500 
 28 H        1.5460    -0.6910    -1.6780 H     1 <1>   0.1500 
 29 H        4.1580    -1.9840     2.2970 H     1 <1>   0.1500 
 30 H        3.7380    -1.8240    -1.9360 H     1 <1>   0.1500 
 31 H        5.5690    -0.1010    -0.7850 H     1 <1>   0.0800 
 32 H        6.6290    -0.5140    -2.1060 H     1 <1>   0.0800 
 33 H        7.8970    -2.7780    -1.9950 H     1 <1>   0.0800 
 34 H        7.6210    -3.8100    -0.6230 H     1 <1>   0.0800 
 35 H        7.4220     0.0890     0.7500 H     1 <1>   0.0800 
 36 H        7.7120     1.1120    -0.6220 H     1 <1>   0.0800 
 37 H        9.7770    -2.6330    -0.4240 H     1 <1>   0.0800 
 38 H        8.6960    -2.2180     0.8700 H     1 <1>   0.0800 
 39 H        9.2030    -0.5500    -1.6050 H     1 <1>   0.0800 
 40 H       11.4570    -0.8480    -1.0790 H     1 <1>   0.3700 
 41 H       11.9510     2.0520     1.0220 H     1 <1>   0.1500 
 42 H       12.8380    -2.4140    -0.4570 H     1 <1>   0.0800 
 43 H       14.5290    -2.4800    -0.7750 H     1 <1>   0.0800 
 44 H       13.4810    -1.6910    -1.9200 H     1 <1>   0.0800 
 45 H       14.1510     2.8440     1.7110 H     1 <1>   0.1500 
 46 H       16.1450     1.5290     1.2060 H     1 <1>   0.1500 
 47 H       16.4230    -1.0490    -1.1060 H     1 <1>   0.0800 
 48 H       16.3850    -1.7210     0.5140 H     1 <1>   0.0800 
 49 H       17.2240    -0.2270     0.1990 H     1 <1>   0.0800 
@<TRIPOS>BOND
  1   1   2  1   
  2   2   3  ar  
  3   2   4  ar  
  4   3   5  ar  
  5   3  27  1   
  6   4   6  ar  
  7   4  28  1   
  8   5   7  ar  
  9   5  29  1   
 10   6   7  ar  
 11   6  30  1   
 12   7   8  1   
 13   8   9  2   
 14   8  10  am  
 15  10  11  1   
 16  10  12  1   
 17  11  13  1   
 18  11  31  1   
 19  11  32  1   
 20  12  14  1   
 21  12  33  1   
 22  12  34  1   
 23  13  15  1   
 24  13  35  1   
 25  13  36  1   
 26  14  15  1   
 27  14  37  1   
 28  14  38  1   
 29  15  16  1   
 30  15  39  1   
 31  16  17  2   
 32  16  18  am  
 33  18  19  1   
 34  18  40  1   
 35  19  20  ar  
 36  19  21  ar  
 37  20  22  ar  
 38  20  23  1   
 39  21  24  ar  
 40  21  41  1   
 41  22  25  ar  
 42  22  26  1   
 43  23  42  1   
 44  23  43  1   
 45  23  44  1   
 46  24  25  ar  
 47  24  45  1   
 48  25  46  1   
 49  26  47  1   
 50  26  48  1   
 51  26  49  1   
@<TRIPOS>SUBSTRUCTURE
  1 ****  15 GROUP 4 **** **** 0

# MOE 2024.06 (io_trps.svl 2023.06)
