@<TRIPOS>MOLECULE
NONAME
47 48 1 0 0 
SMALL
USER_CHARGES


@<TRIPOS>ATOM
  1 S       -0.6290    -0.1810     0.6150 S.o2  1 <1>   1.5760 
  2 O       -1.2710    -0.5630     1.8520 O.2   1 <1>  -0.6500 
  3 O        0.2050    -1.1160    -0.1060 O.2   1 <1>  -0.6500 
  4 N       -1.8060     0.4190    -0.4320 N.am  1 <1>  -0.8490 
  5 N        0.2720     1.2280     0.8790 N.am  1 <1>  -0.8490 
  6 C       -2.5570    -0.6800    -1.0600 C.3   1 <1>   0.1960 
  7 C       -2.7380     1.3220     0.2630 C.3   1 <1>   0.1960 
  8 C        1.0120     1.6480    -0.3140 C.3   1 <1>   0.1160 
  9 C        1.1860     1.0730     2.0110 C.3   1 <1>   0.1160 
 10 C       -3.5840    -0.1480    -2.0740 C.3   1 <1>   0.1400 
 11 C       -3.7810     1.9160    -0.7000 C.3   1 <1>   0.1400 
 12 N       -4.5050     0.8350    -1.4310 N.am  1 <1>  -0.6600 
 13 C       -5.7530     0.4440    -1.0200 C.2   1 <1>   0.6900 
 14 O       -5.9870    -0.7440    -0.8750 O.2   1 <1>  -0.5700 
 15 N       -6.7260     1.3790    -0.7600 N.am  1 <1>  -0.6600 
 16 C       -6.9220     2.5250    -1.6900 C.3   1 <1>   0.1400 
 17 C       -7.8350     1.0610     0.1780 C.3   1 <1>   0.1400 
 18 C       -7.6650     3.7210    -1.0750 C.3   1 <1>  -0.1600 
 19 C       -7.6200     1.8150     1.4940 C.3   1 <1>  -0.1600 
 20 C       -7.2230     4.1030     0.3480 C.3   1 <1>  -0.1600 
 21 C       -7.9670     3.3120     1.4350 C.3   1 <1>  -0.1600 
 22 H       -3.0700    -1.2570    -0.3080 H     1 <1>   0.0800 
 23 H       -1.8750    -1.3350    -1.5750 H     1 <1>   0.0800 
 24 H       -2.1890     2.1290     0.7180 H     1 <1>   0.0800 
 25 H       -3.2540     0.7910     1.0470 H     1 <1>   0.0800 
 26 H        0.3320     1.7930    -1.1360 H     1 <1>   0.0800 
 27 H        1.7360     0.9010    -0.5930 H     1 <1>   0.0800 
 28 H        1.5180     2.5780    -0.1250 H     1 <1>   0.0800 
 29 H        0.6280     0.8390     2.9030 H     1 <1>   0.0800 
 30 H        1.7250     1.9890     2.1800 H     1 <1>   0.0800 
 31 H        1.8870     0.2770     1.8220 H     1 <1>   0.0800 
 32 H       -4.1450    -0.9710    -2.4810 H     1 <1>   0.0800 
 33 H       -3.0660     0.3320    -2.8850 H     1 <1>   0.0800 
 34 H       -3.2880     2.5560    -1.4100 H     1 <1>   0.0800 
 35 H       -4.4740     2.5110    -0.1350 H     1 <1>   0.0800 
 36 H       -7.4650     2.1770    -2.5520 H     1 <1>   0.0800 
 37 H       -5.9620     2.8660    -2.0370 H     1 <1>   0.0800 
 38 H       -7.8480     0.0050     0.3870 H     1 <1>   0.0800 
 39 H       -8.7840     1.3140    -0.2610 H     1 <1>   0.0800 
 40 H       -8.7240     3.5350    -1.0940 H     1 <1>   0.0800 
 41 H       -7.4960     4.5640    -1.7210 H     1 <1>   0.0800 
 42 H       -6.6000     1.6840     1.8090 H     1 <1>   0.0800 
 43 H       -8.2440     1.3600     2.2420 H     1 <1>   0.0800 
 44 H       -7.4440     5.1460     0.4970 H     1 <1>   0.0800 
 45 H       -6.1600     3.9830     0.4580 H     1 <1>   0.0800 
 46 H       -7.7340     3.7460     2.3910 H     1 <1>   0.0800 
 47 H       -9.0280     3.4220     1.2880 H     1 <1>   0.0800 
@<TRIPOS>BOND
  1   1   2  2   
  2   1   3  2   
  3   1   4  am  
  4   1   5  am  
  5   4   6  1   
  6   4   7  1   
  7   5   8  1   
  8   5   9  1   
  9   6  10  1   
 10   6  22  1   
 11   6  23  1   
 12   7  11  1   
 13   7  24  1   
 14   7  25  1   
 15   8  26  1   
 16   8  27  1   
 17   8  28  1   
 18   9  29  1   
 19   9  30  1   
 20   9  31  1   
 21  10  12  1   
 22  10  32  1   
 23  10  33  1   
 24  11  12  1   
 25  11  34  1   
 26  11  35  1   
 27  12  13  am  
 28  13  14  2   
 29  13  15  am  
 30  15  16  1   
 31  15  17  1   
 32  16  18  1   
 33  16  36  1   
 34  16  37  1   
 35  17  19  1   
 36  17  38  1   
 37  17  39  1   
 38  18  20  1   
 39  18  40  1   
 40  18  41  1   
 41  19  21  1   
 42  19  42  1   
 43  19  43  1   
 44  20  21  1   
 45  20  44  1   
 46  20  45  1   
 47  21  46  1   
 48  21  47  1   
@<TRIPOS>SUBSTRUCTURE
  1 ****  11 GROUP 4 **** **** 0

# MOE 2024.06 (io_trps.svl 2023.06)
