@<TRIPOS>MOLECULE
Structure1717
34 34 1 0 0 
SMALL
USER_CHARGES


@<TRIPOS>ATOM
  1 S       -0.0080    -0.9630    -0.9580 S.3   1 <1>  -0.0800 
  2 C        1.6900    -0.5930    -1.2000 C.2   1 <1>  -0.1100 
  3 C       -0.0380    -0.0280     0.5240 C.2   1 <1>  -0.1100 
  4 C        2.1700     0.1840    -0.2070 C.2   1 <1>  -0.1810 
  5 C        1.1720     0.5030     0.7750 C.2   1 <1>  -0.1500 
  6 C        3.6000     0.7100    -0.0600 C.3   1 <1>   0.4010 
  7 N        3.6850     2.0660    -0.6080 N.am  1 <1>  -0.7300 
  8 C        4.5910    -0.1710    -0.8050 C.3   1 <1>  -0.2660 
  9 C        3.3950     3.1850     0.0800 C.2   1 <1>   0.7800 
 10 C        5.9680     0.3770    -0.6270 C.2   1 <1>   0.9060 
 11 O        2.7940     3.1790     1.1380 O.2   1 <1>  -0.5700 
 12 O        3.8260     4.3180    -0.4700 O.3   1 <1>  -0.4300 
 13 O        6.3010     1.3250    -1.3440 O.co2 1 <1>  -0.9000 
 14 O        6.6940    -0.1140     0.2370 O.co2 1 <1>  -0.9000 
 15 C        3.7340     5.6180     0.0640 C.3   1 <1>   0.2800 
 16 C        2.2650     6.0320     0.2060 C.3   1 <1>  -0.2400 
 17 C        4.4160     6.5200    -0.9660 C.3   1 <1>  -0.2400 
 18 C        4.4980     5.7000     1.3910 C.3   1 <1>  -0.2400 
 19 H        2.1600    -1.0010    -2.0770 H     1 <1>   0.1500 
 20 H       -0.9690     0.0290     1.0580 H     1 <1>   0.1500 
 21 H        1.4150     1.1210     1.6220 H     1 <1>   0.1500 
 22 H        3.8720     0.7290     0.9830 H     1 <1>   0.0800 
 23 H        4.5200     2.1540    -1.2090 H     1 <1>   0.3700 
 24 H        4.3690    -0.2020    -1.8530 H     1 <1>   0.0800 
 25 H        4.5660    -1.1670    -0.4090 H     1 <1>   0.0800 
 26 H        2.2000     7.0690     0.4790 H     1 <1>   0.0800 
 27 H        1.7470     5.8880    -0.7250 H     1 <1>   0.0800 
 28 H        1.7750     5.4620     0.9730 H     1 <1>   0.0800 
 29 H        3.9080     6.4530    -1.9110 H     1 <1>   0.0800 
 30 H        5.4400     6.2190    -1.0980 H     1 <1>   0.0800 
 31 H        4.3990     7.5430    -0.6400 H     1 <1>   0.0800 
 32 H        4.0050     5.1320     2.1580 H     1 <1>   0.0800 
 33 H        4.5530     6.7200     1.7240 H     1 <1>   0.0800 
 34 H        5.4990     5.3250     1.2660 H     1 <1>   0.0800 
@<TRIPOS>BOND
  1   1   2  1   
  2   1   3  1   
  3   2   4  2   
  4   2  19  1   
  5   3   5  2   
  6   3  20  1   
  7   4   5  1   
  8   4   6  1   
  9   5  21  1   
 10   6   7  1   
 11   6   8  1   
 12   6  22  1   
 13   7   9  am  
 14   7  23  1   
 15   8  10  1   
 16   8  24  1   
 17   8  25  1   
 18   9  11  2   
 19   9  12  1   
 20  10  13  ar  
 21  10  14  ar  
 22  12  15  1   
 23  15  16  1   
 24  15  17  1   
 25  15  18  1   
 26  16  26  1   
 27  16  27  1   
 28  16  28  1   
 29  17  29  1   
 30  17  30  1   
 31  17  31  1   
 32  18  32  1   
 33  18  33  1   
 34  18  34  1   
@<TRIPOS>SUBSTRUCTURE
  1 ****   7 GROUP 4 **** **** 0

# MOE 2024.06 (io_trps.svl 2023.06)
