@<TRIPOS>MOLECULE
NONAME
24 24 1 0 0 
SMALL
USER_CHARGES


@<TRIPOS>ATOM
  1 O        0.5400     0.6300    -2.1790 O.2   1 <1>  -0.5700 
  2 C        1.4530     1.1110    -1.5490 C.2   1 <1>   0.6900 
  3 N        1.4850     2.4360    -1.2650 N.am  1 <1>  -0.4900 
  4 N        2.4810     0.3320    -1.1020 N.am  1 <1>  -0.5390 
  5 C        2.5000     3.0040    -0.5580 C.2   1 <1>   0.6160 
  6 C        3.5560     0.8280    -0.3740 C.2   1 <1>  -0.0290 
  7 O        2.4640     4.1970    -0.3410 O.2   1 <1>  -0.5700 
  8 C        3.5570     2.1600    -0.1070 C.2   1 <1>  -0.1360 
  9 C        4.6370    -0.1820     0.0570 C.3   1 <1>   0.1380 
 10 C        5.2520    -0.8410    -1.1870 C.3   1 <1>  -0.2400 
 11 C        5.7700     0.4850     0.8530 C.3   1 <1>  -0.2400 
 12 C        4.0050    -1.2660     0.9430 C.3   1 <1>  -0.2400 
 13 H        0.7270     3.0230    -1.5910 H     1 <1>   0.3700 
 14 H        2.4080    -0.6570    -1.3420 H     1 <1>   0.3700 
 15 H        4.3290     2.6600     0.4440 H     1 <1>   0.1500 
 16 H        5.6750    -0.0900    -1.8320 H     1 <1>   0.0800 
 17 H        4.5110    -1.3850    -1.7440 H     1 <1>   0.0800 
 18 H        6.0310    -1.5270    -0.9070 H     1 <1>   0.0800 
 19 H        5.3860     0.9410     1.7490 H     1 <1>   0.0800 
 20 H        6.2580     1.2380     0.2600 H     1 <1>   0.0800 
 21 H        6.5090    -0.2430     1.1400 H     1 <1>   0.0800 
 22 H        3.5450    -0.8170     1.8060 H     1 <1>   0.0800 
 23 H        4.7510    -1.9640     1.2790 H     1 <1>   0.0800 
 24 H        3.2520    -1.8150     0.4070 H     1 <1>   0.0800 
@<TRIPOS>BOND
  1   1   2  2   
  2   2   3  am  
  3   2   4  am  
  4   3   5  am  
  5   3  13  1   
  6   4   6  1   
  7   4  14  1   
  8   5   7  2   
  9   5   8  1   
 10   6   8  2   
 11   6   9  1   
 12   8  15  1   
 13   9  10  1   
 14   9  11  1   
 15   9  12  1   
 16  10  16  1   
 17  10  17  1   
 18  10  18  1   
 19  11  19  1   
 20  11  20  1   
 21  11  21  1   
 22  12  22  1   
 23  12  23  1   
 24  12  24  1   
@<TRIPOS>SUBSTRUCTURE
  1 ****   6 GROUP 4 **** **** 0

# MOE 2024.06 (io_trps.svl 2023.06)
