@<TRIPOS>MOLECULE
NONAME
41 41 1 0 0 
SMALL
USER_CHARGES


@<TRIPOS>ATOM
  1 CL       4.7270    -3.3080     2.0750 Cl    1 <1>  -0.1770 
  2 C        3.0650    -3.3520     1.5250 C.ar  1 <1>   0.1770 
  3 C        2.7400    -2.9650     0.2250 C.ar  1 <1>   0.0820 
  4 C        2.0880    -3.7660     2.4100 C.ar  1 <1>  -0.1500 
  5 O        3.6820    -2.5540    -0.6550 O.3   1 <1>  -0.3630 
  6 C        1.4130    -2.9760    -0.1810 C.ar  1 <1>  -0.1500 
  7 C        0.7730    -3.7800     1.9810 C.ar  1 <1>   0.1770 
  8 C        4.5640    -3.5360    -1.1850 C.3   1 <1>   0.2610 
  9 C        0.4250    -3.3880     0.7000 C.ar  1 <1>  -0.1500 
 10 CL      -0.4760    -4.3000     3.0830 Cl    1 <1>  -0.1770 
 11 C        5.9750    -2.9430    -1.3190 C.2   1 <1>   0.5690 
 12 C        3.9940    -3.9980    -2.5310 C.3   1 <1>  -0.2400 
 13 O        6.9420    -3.6660    -1.2440 O.2   1 <1>  -0.5700 
 14 N        6.1350    -1.6020    -1.4900 N.am  1 <1>  -0.7300 
 15 C        7.3430    -0.9190    -2.0080 C.3   1 <1>   0.1400 
 16 C        8.0930    -0.1840    -0.8900 C.3   1 <1>  -0.1600 
 17 C        9.1300    -1.0430    -0.1540 C.3   1 <1>   0.3430 
 18 N        8.5140    -2.1920     0.5560 N.4   1 <1>  -0.9590 
 19 C        7.6580    -1.7810     1.7070 C.3   1 <1>   0.2630 
 20 C        9.5340    -3.1950     0.9730 C.3   1 <1>   0.2630 
 21 H        2.3380    -4.0670     3.4110 H     1 <1>   0.1500 
 22 H        1.1580    -2.6630    -1.1790 H     1 <1>   0.1500 
 23 H        4.6090    -4.3700    -0.5060 H     1 <1>   0.0800 
 24 H       -0.6090    -3.4060     0.4000 H     1 <1>   0.1500 
 25 H        3.9200    -3.1690    -3.2120 H     1 <1>   0.0800 
 26 H        3.0240    -4.4410    -2.3940 H     1 <1>   0.0800 
 27 H        4.6450    -4.7370    -2.9640 H     1 <1>   0.0800 
 28 H        5.2760    -1.0370    -1.4850 H     1 <1>   0.3700 
 29 H        7.0280    -0.2070    -2.7530 H     1 <1>   0.0800 
 30 H        7.9900    -1.6310    -2.4950 H     1 <1>   0.0800 
 31 H        7.4040     0.2760    -0.2060 H     1 <1>   0.0800 
 32 H        8.6410     0.6170    -1.3540 H     1 <1>   0.0800 
 33 H        9.6680    -0.4310     0.5510 H     1 <1>   0.0800 
 34 H        9.8390    -1.4140    -0.8770 H     1 <1>   0.0800 
 35 H        7.8970    -2.6710    -0.1400 H     1 <1>   0.4500 
 36 H        8.2340    -1.2190     2.4230 H     1 <1>   0.0800 
 37 H        7.2530    -2.6520     2.1960 H     1 <1>   0.0800 
 38 H        6.8370    -1.1740     1.3630 H     1 <1>   0.0800 
 39 H       10.2150    -2.7640     1.6890 H     1 <1>   0.0800 
 40 H       10.0940    -3.5340     0.1170 H     1 <1>   0.0800 
 41 H        9.0520    -4.0490     1.4210 H     1 <1>   0.0800 
@<TRIPOS>BOND
  1   1   2  1   
  2   2   3  ar  
  3   2   4  ar  
  4   3   5  1   
  5   3   6  ar  
  6   4   7  ar  
  7   4  21  1   
  8   5   8  1   
  9   6   9  ar  
 10   6  22  1   
 11   7   9  ar  
 12   7  10  1   
 13   8  11  1   
 14   8  12  1   
 15   8  23  1   
 16   9  24  1   
 17  11  13  2   
 18  11  14  am  
 19  12  25  1   
 20  12  26  1   
 21  12  27  1   
 22  14  15  1   
 23  14  28  1   
 24  15  16  1   
 25  15  29  1   
 26  15  30  1   
 27  16  17  1   
 28  16  31  1   
 29  16  32  1   
 30  17  18  1   
 31  17  33  1   
 32  17  34  1   
 33  18  19  1   
 34  18  20  1   
 35  18  35  1   
 36  19  36  1   
 37  19  37  1   
 38  19  38  1   
 39  20  39  1   
 40  20  40  1   
 41  20  41  1   
@<TRIPOS>SUBSTRUCTURE
  1 ****   5 GROUP 4 **** **** 0

# MOE 2024.06 (io_trps.svl 2023.06)
