@<TRIPOS>MOLECULE
NONAME
52 55 1 0 0 
SMALL
USER_CHARGES


@<TRIPOS>ATOM
  1 S       -0.0900    -0.0780     1.8690 S.3   1 <1>  -0.0800 
  2 C       -0.8730     1.2260     0.9840 C.2   1 <1>   0.3250 
  3 C       -1.1920    -1.2240     1.1750 C.2   1 <1>  -0.1100 
  4 N       -1.8520     0.8060     0.2570 N.2   1 <1>  -0.5650 
  5 C       -0.3690     2.5680     1.1680 C.ar  1 <1>   0.0530 
  6 C       -2.0310    -0.5660     0.3610 C.2   1 <1>   0.0460 
  7 C       -0.0830     3.4290     0.0980 C.ar  1 <1>  -0.1440 
  8 C       -0.1560     3.0490     2.4620 C.ar  1 <1>  -0.1500 
  9 C       -3.1750    -1.1680    -0.4440 C.3   1 <1>   0.5240 
 10 C        0.3810     4.7130     0.3370 C.ar  1 <1>  -0.1500 
 11 C       -0.2580     2.9840    -1.3490 C.3   1 <1>  -0.0960 
 12 C        0.3100     4.3280     2.6940 C.ar  1 <1>  -0.1500 
 13 N       -4.3380    -0.2470    -0.3250 N.4   1 <1>  -0.9590 
 14 C        0.5770     5.1650     1.6280 C.ar  1 <1>  -0.1500 
 15 C       -4.9680    -0.3030     1.0380 C.3   1 <1>   0.3430 
 16 C       -5.3410    -0.4010    -1.4300 C.3   1 <1>   0.3430 
 17 C       -6.0990     0.7270     1.1760 C.3   1 <1>   0.1400 
 18 C       -6.5150     0.5910    -1.3040 C.3   1 <1>   0.1400 
 19 N       -7.1010     0.5760     0.0730 N.am  1 <1>  -0.6600 
 20 C       -8.4490     0.4870     0.3570 C.2   1 <1>   0.5690 
 21 O       -8.8000     0.2270     1.4860 O.2   1 <1>  -0.5700 
 22 C       -9.5520     0.6680    -0.7190 C.3   1 <1>   0.2610 
 23 O       -9.2220     1.6130    -1.7130 O.3   1 <1>  -0.5600 
 24 C      -10.9030     1.1310    -0.1750 C.3   1 <1>  -0.1600 
 25 C      -10.3290     2.3630    -2.1160 C.3   1 <1>   0.1200 
 26 C      -11.5340     1.7980    -1.3770 C.3   1 <1>  -0.1600 
 27 H       -1.0810    -2.2560     1.4590 H     1 <1>   0.1500 
 28 H       -0.3630     2.4150     3.3050 H     1 <1>   0.1500 
 29 H       -3.4200    -2.1540    -0.0870 H     1 <1>   0.0800 
 30 H       -2.8660    -1.2330    -1.4740 H     1 <1>   0.0800 
 31 H        0.5980     5.3750    -0.4830 H     1 <1>   0.1500 
 32 H       -1.3040     2.9010    -1.5830 H     1 <1>   0.0800 
 33 H        0.2140     2.0310    -1.5050 H     1 <1>   0.0800 
 34 H        0.1860     3.6900    -2.0270 H     1 <1>   0.0800 
 35 H        0.4640     4.6760     3.7010 H     1 <1>   0.1500 
 36 H       -3.8930     0.6870    -0.3930 H     1 <1>   0.4500 
 37 H        0.9390     6.1640     1.8020 H     1 <1>   0.1500 
 38 H       -4.2240    -0.1070     1.7940 H     1 <1>   0.0800 
 39 H       -5.3760    -1.2840     1.2160 H     1 <1>   0.0800 
 40 H       -5.7430    -1.4000    -1.4130 H     1 <1>   0.0800 
 41 H       -4.8620    -0.2540    -2.3850 H     1 <1>   0.0800 
 42 H       -5.6880     1.7210     1.1450 H     1 <1>   0.0800 
 43 H       -6.5650     0.6040     2.1390 H     1 <1>   0.0800 
 44 H       -7.2540     0.3150    -2.0340 H     1 <1>   0.0800 
 45 H       -6.1830     1.5890    -1.5360 H     1 <1>   0.0800 
 46 H       -9.6880    -0.2720    -1.2220 H     1 <1>   0.0800 
 47 H      -10.7480     1.8500     0.6120 H     1 <1>   0.0800 
 48 H      -11.4860     0.3110     0.2060 H     1 <1>   0.0800 
 49 H      -10.4370     2.2920    -3.1840 H     1 <1>   0.0800 
 50 H      -10.1500     3.3870    -1.8320 H     1 <1>   0.0800 
 51 H      -12.2370     2.5660    -1.1050 H     1 <1>   0.0800 
 52 H      -12.0260     1.0710    -1.9990 H     1 <1>   0.0800 
@<TRIPOS>BOND
  1   1   2  1   
  2   1   3  1   
  3   2   4  2   
  4   2   5  1   
  5   3   6  2   
  6   3  27  1   
  7   4   6  1   
  8   5   7  ar  
  9   5   8  ar  
 10   6   9  1   
 11   7  10  ar  
 12   7  11  1   
 13   8  12  ar  
 14   8  28  1   
 15   9  13  1   
 16   9  29  1   
 17   9  30  1   
 18  10  14  ar  
 19  10  31  1   
 20  11  32  1   
 21  11  33  1   
 22  11  34  1   
 23  12  14  ar  
 24  12  35  1   
 25  13  15  1   
 26  13  16  1   
 27  13  36  1   
 28  14  37  1   
 29  15  17  1   
 30  15  38  1   
 31  15  39  1   
 32  16  18  1   
 33  16  40  1   
 34  16  41  1   
 35  17  19  1   
 36  17  42  1   
 37  17  43  1   
 38  18  19  1   
 39  18  44  1   
 40  18  45  1   
 41  19  20  am  
 42  20  21  2   
 43  20  22  1   
 44  22  23  1   
 45  22  24  1   
 46  22  46  1   
 47  23  25  1   
 48  24  26  1   
 49  24  47  1   
 50  24  48  1   
 51  25  26  1   
 52  25  49  1   
 53  25  50  1   
 54  26  51  1   
 55  26  52  1   
@<TRIPOS>SUBSTRUCTURE
  1 ****  13 GROUP 4 **** **** 0

# MOE 2024.06 (io_trps.svl 2023.06)
