@<TRIPOS>MOLECULE
NONAME
41 42 1 0 0 
SMALL
USER_CHARGES


@<TRIPOS>ATOM
  1 O        0.2220     0.5340     2.9310 O.2   1 <1>  -0.5700 
  2 C       -0.2300     0.6050     1.8140 C.2   1 <1>   0.5690 
  3 N        0.5610     0.6410     0.7120 N.am  1 <1>  -0.7300 
  4 C       -1.7380     0.6760     1.6350 C.3   1 <1>   0.0440 
  5 C        2.0330     0.7570     0.6930 C.3   1 <1>   0.1400 
  6 C       -2.1470     1.1140     0.2240 C.ar  1 <1>  -0.1430 
  7 C        2.4480     2.1430     0.1740 C.3   1 <1>  -0.0800 
  8 C       -2.0600     2.4410    -0.1910 C.ar  1 <1>  -0.1440 
  9 C       -2.5930     0.1480    -0.6660 C.ar  1 <1>  -0.1500 
 10 C        1.9170     2.4200    -1.2490 C.3   1 <1>  -0.1600 
 11 C        3.9810     2.2780     0.2090 C.3   1 <1>  -0.1600 
 12 C       -2.4190     2.7740    -1.4890 C.ar  1 <1>  -0.1500 
 13 C       -1.5730     3.5470     0.7370 C.3   1 <1>  -0.0970 
 14 C       -2.9490     0.4900    -1.9580 C.ar  1 <1>  -0.1500 
 15 C        2.3820     3.7880    -1.7690 C.3   1 <1>  -0.1600 
 16 C        4.4400     3.6480    -0.3080 C.3   1 <1>  -0.1600 
 17 C       -2.8610     1.8050    -2.3700 C.ar  1 <1>  -0.1500 
 18 C        3.9090     3.9120    -1.7220 C.3   1 <1>  -0.1600 
 19 H        0.0950     0.7760    -0.1910 H     1 <1>   0.3700 
 20 H       -2.1390     1.3570     2.3620 H     1 <1>   0.0800 
 21 H       -2.1420    -0.2940     1.8540 H     1 <1>   0.0800 
 22 H        2.4390    -0.0130     0.0610 H     1 <1>   0.0800 
 23 H        2.4170     0.6130     1.6900 H     1 <1>   0.0800 
 24 H        2.0370     2.8800     0.8440 H     1 <1>   0.0800 
 25 H       -2.6640    -0.8820    -0.3620 H     1 <1>   0.1500 
 26 H        0.8420     2.4030    -1.2570 H     1 <1>   0.0800 
 27 H        2.2650     1.6520    -1.9180 H     1 <1>   0.0800 
 28 H        4.4240     1.5070    -0.3970 H     1 <1>   0.0800 
 29 H        4.3320     2.1470     1.2190 H     1 <1>   0.0800 
 30 H       -2.3570     3.7950    -1.8240 H     1 <1>   0.1500 
 31 H       -0.5820     3.3310     1.0920 H     1 <1>   0.0800 
 32 H       -2.2340     3.6400     1.5800 H     1 <1>   0.0800 
 33 H       -1.5450     4.4930     0.2290 H     1 <1>   0.0800 
 34 H       -3.2950    -0.2670    -2.6410 H     1 <1>   0.1500 
 35 H        1.9430     4.5640    -1.1660 H     1 <1>   0.0800 
 36 H        2.0400     3.9230    -2.7800 H     1 <1>   0.0800 
 37 H        5.5160     3.6890    -0.3130 H     1 <1>   0.0800 
 38 H        4.0840     4.4170     0.3560 H     1 <1>   0.0800 
 39 H       -3.1380     2.0760    -3.3740 H     1 <1>   0.1500 
 40 H        4.2010     4.8990    -2.0380 H     1 <1>   0.0800 
 41 H        4.3460     3.2040    -2.4050 H     1 <1>   0.0800 
@<TRIPOS>BOND
  1   1   2  2   
  2   2   3  am  
  3   2   4  1   
  4   3   5  1   
  5   3  19  1   
  6   4   6  1   
  7   4  20  1   
  8   4  21  1   
  9   5   7  1   
 10   5  22  1   
 11   5  23  1   
 12   6   8  ar  
 13   6   9  ar  
 14   7  10  1   
 15   7  11  1   
 16   7  24  1   
 17   8  12  ar  
 18   8  13  1   
 19   9  14  ar  
 20   9  25  1   
 21  10  15  1   
 22  10  26  1   
 23  10  27  1   
 24  11  16  1   
 25  11  28  1   
 26  11  29  1   
 27  12  17  ar  
 28  12  30  1   
 29  13  31  1   
 30  13  32  1   
 31  13  33  1   
 32  14  17  ar  
 33  14  34  1   
 34  15  18  1   
 35  15  35  1   
 36  15  36  1   
 37  16  18  1   
 38  16  37  1   
 39  16  38  1   
 40  17  39  1   
 41  18  40  1   
 42  18  41  1   
@<TRIPOS>SUBSTRUCTURE
  1 ****   3 GROUP 4 **** **** 0

# MOE 2024.06 (io_trps.svl 2023.06)
