@<TRIPOS>MOLECULE
NONAME
38 40 1 0 0 
SMALL
USER_CHARGES


@<TRIPOS>ATOM
  1 CL      -0.3160    -0.2260     0.7800 Cl    1 <1>  -0.1770 
  2 C       -1.8830    -0.7840     0.2580 C.ar  1 <1>   0.1770 
  3 C       -2.6090    -0.0250    -0.6390 C.ar  1 <1>  -0.1500 
  4 C       -2.3770    -1.9770     0.7500 C.ar  1 <1>  -0.1500 
  5 C       -3.8560    -0.4670    -1.0490 C.ar  1 <1>  -0.1500 
  6 C       -3.6240    -2.4170     0.3380 C.ar  1 <1>  -0.1500 
  7 C       -4.3710    -1.6620    -0.5590 C.ar  1 <1>  -0.1430 
  8 C       -5.7430    -2.1370    -1.0010 C.3   1 <1>   0.4870 
  9 N       -6.7090    -1.9040     0.1040 N.4   1 <1>  -0.9590 
 10 C       -8.0420    -2.5620    -0.1780 C.3   1 <1>   0.3430 
 11 C       -6.8680    -0.4230     0.3920 C.3   1 <1>   0.3430 
 12 C       -9.1030    -2.2650     0.9030 C.3   1 <1>   0.2090 
 13 C       -7.9230    -0.1430     1.4800 C.3   1 <1>   0.2090 
 14 N       -9.2120    -0.7930     1.1060 N.pl3 1 <1>  -0.8380 
 15 C      -10.1610    -0.0990     0.3920 C.ar  1 <1>   0.7200 
 16 N      -11.3910    -0.5980     0.4010 N.ar  1 <1>  -0.6200 
 17 N       -9.7430     0.9780    -0.2710 N.ar  1 <1>  -0.6200 
 18 C      -12.2920     0.0780    -0.2720 C.ar  1 <1>   0.1600 
 19 C      -10.6670     1.6330    -0.9360 C.ar  1 <1>   0.1600 
 20 C      -11.9770     1.2200    -0.9660 C.ar  1 <1>  -0.1500 
 21 H       -2.1950     0.8970    -1.0100 H     1 <1>   0.1500 
 22 H       -1.7840    -2.5490     1.4420 H     1 <1>   0.1500 
 23 H       -4.4100     0.1300    -1.7550 H     1 <1>   0.1500 
 24 H       -3.9920    -3.3540     0.7210 H     1 <1>   0.1500 
 25 H       -5.6940    -3.1880    -1.2360 H     1 <1>   0.0800 
 26 H       -6.0520    -1.6040    -1.8860 H     1 <1>   0.0800 
 27 H       -6.3100    -2.3260     0.9500 H     1 <1>   0.4500 
 28 H       -7.9160    -3.6290    -0.2600 H     1 <1>   0.0800 
 29 H       -8.4270    -2.2020    -1.1190 H     1 <1>   0.0800 
 30 H       -7.1780     0.0890    -0.5040 H     1 <1>   0.0800 
 31 H       -5.9240    -0.0050     0.7020 H     1 <1>   0.0800 
 32 H       -8.8320    -2.7350     1.8330 H     1 <1>   0.0800 
 33 H      -10.0490    -2.6800     0.5980 H     1 <1>   0.0800 
 34 H       -8.0580     0.9200     1.5940 H     1 <1>   0.0800 
 35 H       -7.5890    -0.5260     2.4280 H     1 <1>   0.0800 
 36 H      -13.3050    -0.2880    -0.2690 H     1 <1>   0.1500 
 37 H      -10.3750     2.5220    -1.4700 H     1 <1>   0.1500 
 38 H      -12.7240     1.7670    -1.5100 H     1 <1>   0.1500 
@<TRIPOS>BOND
  1   1   2  1   
  2   2   3  ar  
  3   2   4  ar  
  4   3   5  ar  
  5   3  21  1   
  6   4   6  ar  
  7   4  22  1   
  8   5   7  ar  
  9   5  23  1   
 10   6   7  ar  
 11   6  24  1   
 12   7   8  1   
 13   8   9  1   
 14   8  25  1   
 15   8  26  1   
 16   9  10  1   
 17   9  11  1   
 18   9  27  1   
 19  10  12  1   
 20  10  28  1   
 21  10  29  1   
 22  11  13  1   
 23  11  30  1   
 24  11  31  1   
 25  12  14  1   
 26  12  32  1   
 27  12  33  1   
 28  13  14  1   
 29  13  34  1   
 30  13  35  1   
 31  14  15  1   
 32  15  16  ar  
 33  15  17  ar  
 34  16  18  ar  
 35  17  19  ar  
 36  18  20  ar  
 37  18  36  1   
 38  19  20  ar  
 39  19  37  1   
 40  20  38  1   
@<TRIPOS>SUBSTRUCTURE
  1 ****  11 GROUP 4 **** **** 0

# MOE 2024.06 (io_trps.svl 2023.06)
