@<TRIPOS>MOLECULE
NONAME
54 55 1 0 0 
SMALL
USER_CHARGES


@<TRIPOS>ATOM
  1 O       -1.0970     2.1440     1.3450 O.2   1 <1>  -0.5700 
  2 C       -1.4200     1.8520     0.2210 C.2   1 <1>   0.6590 
  3 O       -0.5530     1.8350    -0.7860 O.3   1 <1>  -0.4300 
  4 C       -2.8310     1.4310    -0.1250 C.3   1 <1>   0.1810 
  5 C        0.8340     2.0150    -0.5980 C.3   1 <1>   0.1200 
  6 C       -3.7270     2.5870     0.1270 C.1   1 <1>   0.3570 
  7 C       -3.2210     0.1550     0.6610 C.3   1 <1>   0.0640 
  8 C        1.4490     0.6680    -0.2240 C.3   1 <1>  -0.2400 
  9 N       -4.4510     3.4520     0.2800 N.1   1 <1>  -0.5570 
 10 C       -2.1850    -0.9480     0.4090 C.ar  1 <1>  -0.1440 
 11 C       -4.6600    -0.3950     0.4460 C.3   1 <1>  -0.0800 
 12 C       -1.5410    -1.5280     1.4920 C.ar  1 <1>  -0.1500 
 13 C       -1.8530    -1.3800    -0.8690 C.ar  1 <1>  -0.1500 
 14 C       -5.2070    -0.3150    -0.9960 C.3   1 <1>  -0.1600 
 15 C       -5.6880     0.2230     1.4220 C.3   1 <1>  -0.1600 
 16 C       -0.5870    -2.5130     1.3050 C.ar  1 <1>  -0.1500 
 17 C       -0.9000    -2.3650    -1.0560 C.ar  1 <1>  -0.1500 
 18 C       -6.5990    -0.9880    -1.1220 C.3   1 <1>   0.2800 
 19 C       -7.1110     0.2620     0.8470 C.3   1 <1>   0.1200 
 20 C       -0.2590    -2.9360     0.0290 C.ar  1 <1>  -0.1430 
 21 O       -7.3210    -0.8770     0.0730 O.3   1 <1>  -0.5600 
 22 C       -6.4340    -2.5000    -1.3990 C.3   1 <1>  -0.1600 
 23 C       -7.4270    -0.3120    -2.2220 C.3   1 <1>  -0.2400 
 24 C        0.7870    -4.0170    -0.1770 C.3   1 <1>  -0.0970 
 25 C       -7.7390    -3.3150    -1.4650 C.3   1 <1>  -0.2400 
 26 H       -2.8660     1.2290    -1.1770 H     1 <1>   0.0800 
 27 H        0.9990     2.7530     0.1700 H     1 <1>   0.0800 
 28 H        1.2470     2.3740    -1.5250 H     1 <1>   0.0800 
 29 H       -3.1460     0.4090     1.7060 H     1 <1>   0.0800 
 30 H        1.0410     0.3150     0.7070 H     1 <1>   0.0800 
 31 H        2.5120     0.7730    -0.1090 H     1 <1>   0.0800 
 32 H        1.2570    -0.0580    -0.9940 H     1 <1>   0.0800 
 33 H       -4.6250    -1.4430     0.6980 H     1 <1>   0.0800 
 34 H       -1.7710    -1.2180     2.4970 H     1 <1>   0.1500 
 35 H       -2.3200    -0.9600    -1.7390 H     1 <1>   0.1500 
 36 H       -4.5330    -0.7800    -1.6900 H     1 <1>   0.0800 
 37 H       -5.2950     0.7160    -1.2880 H     1 <1>   0.0800 
 38 H       -5.4260     1.2240     1.7060 H     1 <1>   0.0800 
 39 H       -5.7020    -0.3600     2.3270 H     1 <1>   0.0800 
 40 H       -0.1010    -2.9490     2.1600 H     1 <1>   0.1500 
 41 H       -0.6580    -2.6870    -2.0530 H     1 <1>   0.1500 
 42 H       -7.2600     1.1320     0.2310 H     1 <1>   0.0800 
 43 H       -7.8410     0.2680     1.6370 H     1 <1>   0.0800 
 44 H       -5.9090    -2.6300    -2.3280 H     1 <1>   0.0800 
 45 H       -5.8160    -2.9230    -0.6280 H     1 <1>   0.0800 
 46 H       -7.4900     0.7480    -2.0580 H     1 <1>   0.0800 
 47 H       -8.4240    -0.7100    -2.2410 H     1 <1>   0.0800 
 48 H       -6.9730    -0.4780    -3.1810 H     1 <1>   0.0800 
 49 H        0.3140    -4.9820    -0.1890 H     1 <1>   0.0800 
 50 H        1.5120    -3.9960     0.6170 H     1 <1>   0.0800 
 51 H        1.3020    -3.8700    -1.1090 H     1 <1>   0.0800 
 52 H       -8.3460    -3.0080    -2.2970 H     1 <1>   0.0800 
 53 H       -7.5110    -4.3600    -1.5820 H     1 <1>   0.0800 
 54 H       -8.3050    -3.1920    -0.5580 H     1 <1>   0.0800 
@<TRIPOS>BOND
  1   1   2  2   
  2   2   3  1   
  3   2   4  1   
  4   3   5  1   
  5   4   6  1   
  6   4   7  1   
  7   4  26  1   
  8   5   8  1   
  9   5  27  1   
 10   5  28  1   
 11   6   9  3   
 12   7  10  1   
 13   7  11  1   
 14   7  29  1   
 15   8  30  1   
 16   8  31  1   
 17   8  32  1   
 18  10  12  ar  
 19  10  13  ar  
 20  11  14  1   
 21  11  15  1   
 22  11  33  1   
 23  12  16  ar  
 24  12  34  1   
 25  13  17  ar  
 26  13  35  1   
 27  14  18  1   
 28  14  36  1   
 29  14  37  1   
 30  15  19  1   
 31  15  38  1   
 32  15  39  1   
 33  16  20  ar  
 34  16  40  1   
 35  17  20  ar  
 36  17  41  1   
 37  18  21  1   
 38  18  22  1   
 39  18  23  1   
 40  19  21  1   
 41  19  42  1   
 42  19  43  1   
 43  20  24  1   
 44  22  25  1   
 45  22  44  1   
 46  22  45  1   
 47  23  46  1   
 48  23  47  1   
 49  23  48  1   
 50  24  49  1   
 51  24  50  1   
 52  24  51  1   
 53  25  52  1   
 54  25  53  1   
 55  25  54  1   
@<TRIPOS>SUBSTRUCTURE
  1 ****   7 GROUP 4 **** **** 0

# MOE 2024.06 (io_trps.svl 2023.06)
