@<TRIPOS>MOLECULE
NONAME
45 47 1 0 0 
SMALL
USER_CHARGES


@<TRIPOS>ATOM
  1 O        0.4880     0.9300    -1.8150 O.2   1 <1>  -0.5700 
  2 C        0.2930     1.6710    -0.8820 C.2   1 <1>   0.5690 
  3 N        1.2600     2.0060     0.0150 N.am  1 <1>  -0.7300 
  4 C       -1.1040     2.2660    -0.6980 C.3   1 <1>  -0.0190 
  5 C        2.6660     1.5730     0.0570 C.3   1 <1>   0.3000 
  6 C       -1.0500     3.7890    -0.9720 C.3   1 <1>  -0.1600 
  7 C       -1.6770     1.9010     0.6950 C.3   1 <1>  -0.1600 
  8 C        3.4140     2.0150    -1.2150 C.3   1 <1>  -0.1600 
  9 C        2.7650     0.0440     0.2180 C.3   1 <1>  -0.1600 
 10 C        3.3210     2.2460     1.2780 C.3   1 <1>  -0.1600 
 11 C       -2.4120     4.4940    -0.9630 C.3   1 <1>  -0.2400 
 12 C       -3.1870     1.6240     0.6860 C.3   1 <1>  -0.2400 
 13 C        4.8950     1.5970    -1.1270 C.3   1 <1>  -0.0800 
 14 C        4.2440    -0.3800     0.3110 C.3   1 <1>  -0.0800 
 15 C        4.8030     1.8360     1.3840 C.3   1 <1>  -0.0800 
 16 C        4.9780     0.0660    -0.9700 C.3   1 <1>  -0.1600 
 17 C        5.5390     2.2670     0.1010 C.3   1 <1>  -0.1600 
 18 C        4.8930     0.3040     1.5290 C.3   1 <1>  -0.1600 
 19 H        1.0060     2.6330     0.7740 H     1 <1>   0.3700 
 20 H       -1.7250     1.8120    -1.4510 H     1 <1>   0.0800 
 21 H       -0.6060     3.9340    -1.9430 H     1 <1>   0.0800 
 22 H       -0.4070     4.2670    -0.2540 H     1 <1>   0.0800 
 23 H       -1.4500     2.6770     1.4050 H     1 <1>   0.0800 
 24 H       -1.1960     1.0010     1.0420 H     1 <1>   0.0800 
 25 H        3.3420     3.0820    -1.3300 H     1 <1>   0.0800 
 26 H        2.9720     1.5540    -2.0800 H     1 <1>   0.0800 
 27 H        2.3140    -0.4440    -0.6270 H     1 <1>   0.0800 
 28 H        2.2410    -0.2650     1.1040 H     1 <1>   0.0800 
 29 H        2.8080     1.9510     2.1760 H     1 <1>   0.0800 
 30 H        3.2570     3.3150     1.1840 H     1 <1>   0.0800 
 31 H       -3.1040     3.9880    -1.6120 H     1 <1>   0.0800 
 32 H       -2.2990     5.5060    -1.3110 H     1 <1>   0.0800 
 33 H       -2.8170     4.5290     0.0320 H     1 <1>   0.0800 
 34 H       -3.7490     2.4850     0.3740 H     1 <1>   0.0800 
 35 H       -3.5140     1.3500     1.6730 H     1 <1>   0.0800 
 36 H       -3.4120     0.8100     0.0190 H     1 <1>   0.0800 
 37 H        5.4120     1.9000    -2.0220 H     1 <1>   0.0800 
 38 H        4.3090    -1.4500     0.4140 H     1 <1>   0.0800 
 39 H        5.2540     2.3090     2.2400 H     1 <1>   0.0800 
 40 H        6.0090    -0.2400    -0.9240 H     1 <1>   0.0800 
 41 H        4.5340    -0.4110    -1.8270 H     1 <1>   0.0800 
 42 H        5.4950     3.3370    -0.0030 H     1 <1>   0.0800 
 43 H        6.5760     1.9880     0.1650 H     1 <1>   0.0800 
 44 H        5.9240     0.0060     1.6070 H     1 <1>   0.0800 
 45 H        4.3950    -0.0080     2.4300 H     1 <1>   0.0800 
@<TRIPOS>BOND
  1   1   2  2   
  2   2   3  am  
  3   2   4  1   
  4   3   5  1   
  5   3  19  1   
  6   4   6  1   
  7   4   7  1   
  8   4  20  1   
  9   5   8  1   
 10   5   9  1   
 11   5  10  1   
 12   6  11  1   
 13   6  21  1   
 14   6  22  1   
 15   7  12  1   
 16   7  23  1   
 17   7  24  1   
 18   8  13  1   
 19   8  25  1   
 20   8  26  1   
 21   9  14  1   
 22   9  27  1   
 23   9  28  1   
 24  10  15  1   
 25  10  29  1   
 26  10  30  1   
 27  11  31  1   
 28  11  32  1   
 29  11  33  1   
 30  12  34  1   
 31  12  35  1   
 32  12  36  1   
 33  13  16  1   
 34  13  17  1   
 35  13  37  1   
 36  14  16  1   
 37  14  18  1   
 38  14  38  1   
 39  15  17  1   
 40  15  18  1   
 41  15  39  1   
 42  16  40  1   
 43  16  41  1   
 44  17  42  1   
 45  17  43  1   
 46  18  44  1   
 47  18  45  1   
@<TRIPOS>SUBSTRUCTURE
  1 ****   3 GROUP 4 **** **** 0

# MOE 2024.06 (io_trps.svl 2023.06)
