@<TRIPOS>MOLECULE
NONAME
61 65 1 0 0 
SMALL
USER_CHARGES


@<TRIPOS>ATOM
  1 O       -0.3640    -0.3600     0.4280 O.3   1 <1>  -0.5600 
  2 C       -1.6820     0.1360     0.3090 C.3   1 <1>   0.2000 
  3 C       -0.3360    -1.7400     0.3860 C.3   1 <1>   0.4800 
  4 C       -2.5120    -0.5240    -0.8520 C.3   1 <1>   0.2000 
  5 C       -1.5540     1.6570     0.1620 C.3   1 <1>   0.1200 
  6 O        0.9180    -2.2370     0.5730 O.3   1 <1>  -0.5600 
  7 C       -0.6220    -2.1610    -1.0110 C.3   1 <1>   0.2000 
  8 O       -3.8160    -0.7050    -0.4090 O.3   1 <1>  -0.5600 
  9 C       -2.1070    -1.9410    -1.2600 C.3   1 <1>   0.2000 
 10 O       -2.8050     2.2330    -0.0450 O.3   1 <1>  -0.5600 
 11 C        0.9380    -3.4670    -0.0970 C.3   1 <1>   0.5600 
 12 O       -0.1130    -3.4450    -1.0290 O.3   1 <1>  -0.5600 
 13 C       -4.0880    -2.0560    -0.2100 C.3   1 <1>   0.5600 
 14 O       -2.8980    -2.7310    -0.4470 O.3   1 <1>  -0.5600 
 15 C       -2.7850     3.6170    -0.1470 C.3   1 <1>   0.1200 
 16 C        2.2670    -3.6030    -0.8590 C.3   1 <1>  -0.1600 
 17 C        0.6870    -4.5940     0.9210 C.3   1 <1>  -0.1600 
 18 C       -4.4850    -2.2840     1.2570 C.3   1 <1>  -0.1600 
 19 C       -5.1610    -2.5000    -1.2220 C.3   1 <1>  -0.1600 
 20 C       -4.2190     4.0840    -0.3900 C.3   1 <1>  -0.1600 
 21 C        3.3370    -4.3100    -0.0140 C.3   1 <1>  -0.1600 
 22 C        1.3690    -5.9040     0.5010 C.3   1 <1>  -0.1600 
 23 C       -6.0060    -2.1860     1.4540 C.3   1 <1>  -0.1600 
 24 C       -6.0180    -3.6510    -0.6730 C.3   1 <1>  -0.1600 
 25 C       -4.2980     5.6100    -0.5180 C.3   1 <1>  -0.2400 
 26 C        2.8970    -5.7340     0.3820 C.3   1 <1>  -0.1600 
 27 C       -6.7540    -3.2430     0.6190 C.3   1 <1>  -0.1600 
 28 H       -2.1690    -0.0750     1.2450 H     1 <1>   0.0800 
 29 H       -1.0100    -2.1610     1.1140 H     1 <1>   0.0800 
 30 H       -2.5330     0.1290    -1.7060 H     1 <1>   0.0800 
 31 H       -0.9320     1.8920    -0.6840 H     1 <1>   0.0800 
 32 H       -1.1290     2.0730     1.0590 H     1 <1>   0.0800 
 33 H       -0.0370    -1.5690    -1.6920 H     1 <1>   0.0800 
 34 H       -2.3590    -2.1330    -2.2880 H     1 <1>   0.0800 
 35 H       -2.1500     3.8970    -0.9700 H     1 <1>   0.0800 
 36 H       -2.4030     4.0280     0.7720 H     1 <1>   0.0800 
 37 H        2.6120    -2.6300    -1.1580 H     1 <1>   0.0800 
 38 H        2.1010    -4.1890    -1.7450 H     1 <1>   0.0800 
 39 H       -0.3710    -4.7490     1.0360 H     1 <1>   0.0800 
 40 H        1.0910    -4.2990     1.8730 H     1 <1>   0.0800 
 41 H       -3.9840    -1.5700     1.8840 H     1 <1>   0.0800 
 42 H       -4.1740    -3.2700     1.5530 H     1 <1>   0.0800 
 43 H       -4.7010    -2.7930    -2.1460 H     1 <1>   0.0800 
 44 H       -5.8130    -1.6670    -1.4200 H     1 <1>   0.0800 
 45 H       -4.8360     3.7630     0.4310 H     1 <1>   0.0800 
 46 H       -4.5880     3.6310    -1.2940 H     1 <1>   0.0800 
 47 H        3.5030    -3.7290     0.8780 H     1 <1>   0.0800 
 48 H        4.2680    -4.3540    -0.5530 H     1 <1>   0.0800 
 49 H        0.9690    -6.2050    -0.4530 H     1 <1>   0.0800 
 50 H        1.1440    -6.6840     1.2080 H     1 <1>   0.0800 
 51 H       -6.3240    -1.2020     1.1510 H     1 <1>   0.0800 
 52 H       -6.2530    -2.3020     2.4950 H     1 <1>   0.0800 
 53 H       -5.3720    -4.4870    -0.4650 H     1 <1>   0.0800 
 54 H       -6.7330    -3.9680    -1.4130 H     1 <1>   0.0800 
 55 H       -3.9490     6.0820     0.3840 H     1 <1>   0.0800 
 56 H       -5.3170     5.9100    -0.6880 H     1 <1>   0.0800 
 57 H       -3.6990     5.9500    -1.3440 H     1 <1>   0.0800 
 58 H        3.3590    -5.9840     1.3220 H     1 <1>   0.0800 
 59 H        3.2610    -6.4370    -0.3490 H     1 <1>   0.0800 
 60 H       -7.7260    -2.8530     0.3690 H     1 <1>   0.0800 
 61 H       -6.9080    -4.1260     1.2150 H     1 <1>   0.0800 
@<TRIPOS>BOND
  1   1   2  1   
  2   1   3  1   
  3   2   4  1   
  4   2   5  1   
  5   2  28  1   
  6   3   6  1   
  7   3   7  1   
  8   3  29  1   
  9   4   8  1   
 10   4   9  1   
 11   4  30  1   
 12   5  10  1   
 13   5  31  1   
 14   5  32  1   
 15   6  11  1   
 16   7   9  1   
 17   7  12  1   
 18   7  33  1   
 19   8  13  1   
 20   9  14  1   
 21   9  34  1   
 22  10  15  1   
 23  11  12  1   
 24  11  16  1   
 25  11  17  1   
 26  13  14  1   
 27  13  18  1   
 28  13  19  1   
 29  15  20  1   
 30  15  35  1   
 31  15  36  1   
 32  16  21  1   
 33  16  37  1   
 34  16  38  1   
 35  17  22  1   
 36  17  39  1   
 37  17  40  1   
 38  18  23  1   
 39  18  41  1   
 40  18  42  1   
 41  19  24  1   
 42  19  43  1   
 43  19  44  1   
 44  20  25  1   
 45  20  45  1   
 46  20  46  1   
 47  21  26  1   
 48  21  47  1   
 49  21  48  1   
 50  22  26  1   
 51  22  49  1   
 52  22  50  1   
 53  23  27  1   
 54  23  51  1   
 55  23  52  1   
 56  24  27  1   
 57  24  53  1   
 58  24  54  1   
 59  25  55  1   
 60  25  56  1   
 61  25  57  1   
 62  26  58  1   
 63  26  59  1   
 64  27  60  1   
 65  27  61  1   
@<TRIPOS>SUBSTRUCTURE
  1 ****   9 GROUP 4 **** **** 0

# MOE 2024.06 (io_trps.svl 2023.06)
