@<TRIPOS>MOLECULE
NONAME
46 48 1 0 0 
SMALL
USER_CHARGES


@<TRIPOS>ATOM
  1 O        0.5470     0.2630     0.1460 O.3   1 <1>  -0.3630 
  2 C        1.6500     1.0670     0.1190 C.ar  1 <1>   0.0830 
  3 C       -0.7330     0.7020     0.5420 C.3   1 <1>   0.0400 
  4 C        1.7410     2.4030     0.5490 C.ar  1 <1>   0.0830 
  5 C        2.7730     0.4460    -0.4000 C.ar  1 <1>  -0.1500 
  6 O        0.6510     3.0370     1.0710 O.3   1 <1>  -0.3630 
  7 C        2.9660     3.0590     0.4370 C.ar  1 <1>  -0.1500 
  8 C        3.9860     1.1040    -0.5080 C.ar  1 <1>  -0.1430 
  9 C        0.6790     4.3760     1.5140 C.3   1 <1>   0.0400 
 10 C        4.0810     2.4230    -0.0850 C.ar  1 <1>  -0.1430 
 11 C        5.1700     0.3580    -1.0970 C.3   1 <1>   0.4860 
 12 C        5.3990     3.1820    -0.1670 C.3   1 <1>  -0.0160 
 13 N        6.4380     0.9860    -0.6440 N.4   1 <1>  -0.9590 
 14 C        6.4590     2.4390    -0.9850 C.3   1 <1>   0.3430 
 15 C        7.6360     0.2560    -1.1290 C.3   1 <1>   0.4860 
 16 C        8.8540     0.8240    -0.4270 C.ar  1 <1>  -0.1430 
 17 C        9.1280     0.5510     0.9120 C.ar  1 <1>  -0.1430 
 18 C        9.7080     1.6480    -1.1500 C.ar  1 <1>  -0.1500 
 19 C       10.2400     1.1280     1.5060 C.ar  1 <1>  -0.1500 
 20 C        8.2610    -0.3680     1.7660 C.3   1 <1>  -0.0970 
 21 C       10.8150     2.2140    -0.5470 C.ar  1 <1>  -0.1500 
 22 C       11.0790     1.9560     0.7840 C.ar  1 <1>  -0.1500 
 23 H       -1.4210    -0.1130     0.4150 H     1 <1>   0.0800 
 24 H       -1.0260     1.5290    -0.0800 H     1 <1>   0.0800 
 25 H       -0.6980     0.9920     1.5770 H     1 <1>   0.0800 
 26 H        2.6690    -0.5760    -0.7210 H     1 <1>   0.1500 
 27 H        3.0690     4.0780     0.7590 H     1 <1>   0.1500 
 28 H       -0.3020     4.6290     1.8720 H     1 <1>   0.0800 
 29 H        0.9400     5.0140     0.6880 H     1 <1>   0.0800 
 30 H        1.3920     4.4660     2.3150 H     1 <1>   0.0800 
 31 H        5.1050     0.3880    -2.1730 H     1 <1>   0.0800 
 32 H        5.1330    -0.6710    -0.7810 H     1 <1>   0.0800 
 33 H        5.7750     3.3410     0.8290 H     1 <1>   0.0800 
 34 H        5.2370     4.1500    -0.6080 H     1 <1>   0.0800 
 35 H        6.4540     0.9300     0.3810 H     1 <1>   0.4500 
 36 H        7.4270     2.8640    -0.7720 H     1 <1>   0.0800 
 37 H        6.2550     2.5670    -2.0360 H     1 <1>   0.0800 
 38 H        7.7380     0.3710    -2.1960 H     1 <1>   0.0800 
 39 H        7.5540    -0.7940    -0.9040 H     1 <1>   0.0800 
 40 H        9.5270     1.8600    -2.1900 H     1 <1>   0.1500 
 41 H       10.4690     0.9350     2.5400 H     1 <1>   0.1500 
 42 H        7.3990     0.1610     2.1320 H     1 <1>   0.0800 
 43 H        8.8170    -0.7200     2.6180 H     1 <1>   0.0800 
 44 H        7.9460    -1.2330     1.2130 H     1 <1>   0.0800 
 45 H       11.4760     2.8530    -1.1100 H     1 <1>   0.1500 
 46 H       11.9400     2.3960     1.2570 H     1 <1>   0.1500 
@<TRIPOS>BOND
  1   1   2  1   
  2   1   3  1   
  3   2   4  ar  
  4   2   5  ar  
  5   3  23  1   
  6   3  24  1   
  7   3  25  1   
  8   4   6  1   
  9   4   7  ar  
 10   5   8  ar  
 11   5  26  1   
 12   6   9  1   
 13   7  10  ar  
 14   7  27  1   
 15   8  10  ar  
 16   8  11  1   
 17   9  28  1   
 18   9  29  1   
 19   9  30  1   
 20  10  12  1   
 21  11  13  1   
 22  11  31  1   
 23  11  32  1   
 24  12  14  1   
 25  12  33  1   
 26  12  34  1   
 27  13  14  1   
 28  13  15  1   
 29  13  35  1   
 30  14  36  1   
 31  14  37  1   
 32  15  16  1   
 33  15  38  1   
 34  15  39  1   
 35  16  17  ar  
 36  16  18  ar  
 37  17  19  ar  
 38  17  20  1   
 39  18  21  ar  
 40  18  40  1   
 41  19  22  ar  
 42  19  41  1   
 43  20  42  1   
 44  20  43  1   
 45  20  44  1   
 46  21  22  ar  
 47  21  45  1   
 48  22  46  1   
@<TRIPOS>SUBSTRUCTURE
  1 ****  13 GROUP 4 **** **** 0

# MOE 2024.06 (io_trps.svl 2023.06)
