@<TRIPOS>MOLECULE
NONAME
46 47 1 0 0 
SMALL
USER_CHARGES


@<TRIPOS>ATOM
  1 O       -0.6850    -0.4950    -1.4860 O.2   1 <1>  -0.5700 
  2 C       -0.0030    -1.3210    -0.9020 C.2   1 <1>   0.5440 
  3 N        1.2390    -0.9370    -0.4450 N.am  1 <1>  -0.6600 
  4 C       -0.5250    -2.6560    -0.6850 C.ar  1 <1>   0.0860 
  5 C        1.8940     0.3240    -0.9040 C.3   1 <1>   0.1400 
  6 C        1.9690    -1.5950     0.6800 C.3   1 <1>   0.1400 
  7 C       -1.8000    -2.8520    -0.1290 C.ar  1 <1>   0.1170 
  8 C        0.2340    -3.7790    -1.0240 C.ar  1 <1>  -0.1500 
  9 C        3.3960     0.0930    -1.1420 C.3   1 <1>   0.1200 
 10 C        3.4640    -1.7270     0.3440 C.3   1 <1>   0.1200 
 11 N       -2.5960    -1.7340     0.1580 N.am  1 <1>  -0.5470 
 12 C       -2.2520    -4.1490     0.0990 C.ar  1 <1>  -0.1500 
 13 C       -0.2290    -5.0590    -0.7960 C.ar  1 <1>  -0.1500 
 14 O        3.9990    -0.4850    -0.0170 O.3   1 <1>  -0.5600 
 15 C       -3.6380    -1.5280     1.0170 C.2   1 <1>   0.5690 
 16 C       -1.4760    -5.2440    -0.2260 C.ar  1 <1>  -0.1500 
 17 O       -4.0700    -2.3790     1.7560 O.2   1 <1>  -0.5700 
 18 C       -4.2700    -0.1360     1.0430 C.3   1 <1>  -0.0190 
 19 C       -4.9920     0.1570    -0.2910 C.3   1 <1>  -0.1600 
 20 C       -3.2260     0.9460     1.3870 C.3   1 <1>  -0.2400 
 21 C       -5.8330     1.4430    -0.2640 C.3   1 <1>  -0.1600 
 22 C       -6.6150     1.6120    -1.5690 C.3   1 <1>  -0.2400 
 23 H        1.7630     1.0850    -0.1560 H     1 <1>   0.0800 
 24 H        1.4410     0.6700    -1.8170 H     1 <1>   0.0800 
 25 H        1.5590    -2.5650     0.8960 H     1 <1>   0.0800 
 26 H        1.8640    -0.9920     1.5650 H     1 <1>   0.0800 
 27 H        1.2000    -3.6370    -1.4750 H     1 <1>   0.1500 
 28 H        3.8890     1.0300    -1.3330 H     1 <1>   0.0800 
 29 H        3.5490    -0.5560    -1.9860 H     1 <1>   0.0800 
 30 H        3.6120    -2.4160    -0.4680 H     1 <1>   0.0800 
 31 H        4.0070    -2.0800     1.2030 H     1 <1>   0.0800 
 32 H       -2.3000    -0.8940    -0.3570 H     1 <1>   0.3700 
 33 H       -3.2250    -4.3080     0.5290 H     1 <1>   0.1500 
 34 H        0.3720    -5.9130    -1.0590 H     1 <1>   0.1500 
 35 H       -1.8450    -6.2390    -0.0410 H     1 <1>   0.1500 
 36 H       -5.0080    -0.1450     1.8270 H     1 <1>   0.0800 
 37 H       -5.6430    -0.6730    -0.5090 H     1 <1>   0.0800 
 38 H       -4.2710     0.2200    -1.0890 H     1 <1>   0.0800 
 39 H       -2.5240     1.0760     0.5820 H     1 <1>   0.0800 
 40 H       -2.6840     0.6600     2.2720 H     1 <1>   0.0800 
 41 H       -3.7040     1.8880     1.5830 H     1 <1>   0.0800 
 42 H       -5.1960     2.3010    -0.1310 H     1 <1>   0.0800 
 43 H       -6.5250     1.4070     0.5600 H     1 <1>   0.0800 
 44 H       -5.9410     1.6690    -2.4060 H     1 <1>   0.0800 
 45 H       -7.1960     2.5170    -1.5360 H     1 <1>   0.0800 
 46 H       -7.2830     0.7820    -1.7180 H     1 <1>   0.0800 
@<TRIPOS>BOND
  1   1   2  2   
  2   2   3  am  
  3   2   4  1   
  4   3   5  1   
  5   3   6  1   
  6   4   7  ar  
  7   4   8  ar  
  8   5   9  1   
  9   5  23  1   
 10   5  24  1   
 11   6  10  1   
 12   6  25  1   
 13   6  26  1   
 14   7  11  1   
 15   7  12  ar  
 16   8  13  ar  
 17   8  27  1   
 18   9  14  1   
 19   9  28  1   
 20   9  29  1   
 21  10  14  1   
 22  10  30  1   
 23  10  31  1   
 24  11  15  am  
 25  11  32  1   
 26  12  16  ar  
 27  12  33  1   
 28  13  16  ar  
 29  13  34  1   
 30  15  17  2   
 31  15  18  1   
 32  16  35  1   
 33  18  19  1   
 34  18  20  1   
 35  18  36  1   
 36  19  21  1   
 37  19  37  1   
 38  19  38  1   
 39  20  39  1   
 40  20  40  1   
 41  20  41  1   
 42  21  22  1   
 43  21  42  1   
 44  21  43  1   
 45  22  44  1   
 46  22  45  1   
 47  22  46  1   
@<TRIPOS>SUBSTRUCTURE
  1 ****   2 GROUP 4 **** **** 0

# MOE 2024.06 (io_trps.svl 2023.06)
