@<TRIPOS>MOLECULE
NONAME
51 53 1 0 0 
SMALL
USER_CHARGES


@<TRIPOS>ATOM
  1 S        0.0100     0.3550    -0.7570 S.o2  1 <1>   1.3330 
  2 O       -0.6500     1.1820    -1.7420 O.2   1 <1>  -0.6500 
  3 O        0.2930    -1.0300    -1.0540 O.2   1 <1>  -0.6500 
  4 N        1.4920     1.1160    -0.4150 N.am  1 <1>  -0.8490 
  5 C       -0.8760     0.4310     0.8070 C.3   1 <1>  -0.0550 
  6 C        1.3810     2.5720    -0.4750 C.3   1 <1>   0.1960 
  7 C        2.5400     0.6320    -1.3100 C.3   1 <1>   0.1960 
  8 C       -2.2780    -0.2030     0.7720 C.3   1 <1>  -0.2400 
  9 C        2.6800     3.2030     0.0210 C.3   1 <1>  -0.1600 
 10 C        3.8920     1.1910    -0.8710 C.3   1 <1>  -0.1600 
 11 C        3.8760     2.7230    -0.8120 C.3   1 <1>   0.4230 
 12 N        5.1570     3.2330    -0.2250 N.4   1 <1>  -0.9590 
 13 C        5.1940     4.7470    -0.1170 C.3   1 <1>   0.3430 
 14 C        6.3820     2.7550    -0.9830 C.3   1 <1>   0.3430 
 15 C        6.5090     5.2850     0.4840 C.3   1 <1>   0.2090 
 16 C        7.7090     3.2720    -0.3900 C.3   1 <1>   0.2090 
 17 N        7.6800     4.7530    -0.2630 N.pl3 1 <1>  -0.8380 
 18 C        8.8990     5.3690    -0.0070 C.ar  1 <1>   0.1000 
 19 C        9.5470     5.2230     1.2150 C.ar  1 <1>  -0.1500 
 20 C        9.4920     6.1510    -0.9900 C.ar  1 <1>  -0.1500 
 21 C       10.7600     5.8450     1.4480 C.ar  1 <1>  -0.1500 
 22 C       10.7050     6.7740    -0.7600 C.ar  1 <1>  -0.1500 
 23 C       11.3410     6.6220     0.4600 C.ar  1 <1>  -0.1500 
 24 H       -0.9770     1.4550     1.1080 H     1 <1>   0.0800 
 25 H       -0.2950    -0.0720     1.5560 H     1 <1>   0.0800 
 26 H        0.5670     2.9020     0.1500 H     1 <1>   0.0800 
 27 H        1.1710     2.8880    -1.4850 H     1 <1>   0.0800 
 28 H        2.3150     0.9130    -2.3280 H     1 <1>   0.0800 
 29 H        2.5940    -0.4440    -1.2680 H     1 <1>   0.0800 
 30 H       -2.8930     0.2970     0.0440 H     1 <1>   0.0800 
 31 H       -2.7470    -0.1260     1.7370 H     1 <1>   0.0800 
 32 H       -2.2060    -1.2430     0.5030 H     1 <1>   0.0800 
 33 H        2.8100     2.9400     1.0560 H     1 <1>   0.0800 
 34 H        2.5630     4.2680    -0.0570 H     1 <1>   0.0800 
 35 H        4.6190     0.8420    -1.5800 H     1 <1>   0.0800 
 36 H        4.1240     0.7790     0.0950 H     1 <1>   0.0800 
 37 H        3.7660     3.1020    -1.8170 H     1 <1>   0.0800 
 38 H        5.2260     2.8570     0.7290 H     1 <1>   0.4500 
 39 H        4.3800     5.0950     0.4960 H     1 <1>   0.0800 
 40 H        5.0780     5.1790    -1.0970 H     1 <1>   0.0800 
 41 H        6.3250     3.0900    -2.0060 H     1 <1>   0.0800 
 42 H        6.4180     1.6790    -0.9910 H     1 <1>   0.0800 
 43 H        6.5830     5.0080     1.5220 H     1 <1>   0.0800 
 44 H        6.5150     6.3610     0.4280 H     1 <1>   0.0800 
 45 H        8.5240     2.9900    -1.0350 H     1 <1>   0.0800 
 46 H        7.8810     2.8270     0.5750 H     1 <1>   0.0800 
 47 H        9.1030     4.6230     1.9850 H     1 <1>   0.1500 
 48 H        8.9970     6.2670    -1.9350 H     1 <1>   0.1500 
 49 H       11.2560     5.7270     2.3960 H     1 <1>   0.1500 
 50 H       11.1560     7.3780    -1.5290 H     1 <1>   0.1500 
 51 H       12.2850     7.1060     0.6400 H     1 <1>   0.1500 
@<TRIPOS>BOND
  1   1   2  2   
  2   1   3  2   
  3   1   4  am  
  4   1   5  1   
  5   4   6  1   
  6   4   7  1   
  7   5   8  1   
  8   5  24  1   
  9   5  25  1   
 10   6   9  1   
 11   6  26  1   
 12   6  27  1   
 13   7  10  1   
 14   7  28  1   
 15   7  29  1   
 16   8  30  1   
 17   8  31  1   
 18   8  32  1   
 19   9  11  1   
 20   9  33  1   
 21   9  34  1   
 22  10  11  1   
 23  10  35  1   
 24  10  36  1   
 25  11  12  1   
 26  11  37  1   
 27  12  13  1   
 28  12  14  1   
 29  12  38  1   
 30  13  15  1   
 31  13  39  1   
 32  13  40  1   
 33  14  16  1   
 34  14  41  1   
 35  14  42  1   
 36  15  17  1   
 37  15  43  1   
 38  15  44  1   
 39  16  17  1   
 40  16  45  1   
 41  16  46  1   
 42  17  18  1   
 43  18  19  ar  
 44  18  20  ar  
 45  19  21  ar  
 46  19  47  1   
 47  20  22  ar  
 48  20  48  1   
 49  21  23  ar  
 50  21  49  1   
 51  22  23  ar  
 52  22  50  1   
 53  23  51  1   
@<TRIPOS>SUBSTRUCTURE
  1 ****  12 GROUP 4 **** **** 0

# MOE 2024.06 (io_trps.svl 2023.06)
