@<TRIPOS>MOLECULE
NONAME
39 42 1 0 0 
SMALL
USER_CHARGES


@<TRIPOS>ATOM
  1 S       -0.2210    -0.4150     0.1870 S.3   1 <1>  -0.3710 
  2 C       -1.9850    -0.1620     0.3170 C.2   1 <1>   0.6510 
  3 C        0.5360     1.2020    -0.2280 C.3   1 <1>   0.0700 
  4 N       -2.6460    -1.2170     0.6490 N.2   1 <1>  -0.5760 
  5 N       -2.5140     1.0930     0.0680 N.am  1 <1>  -0.4200 
  6 C       -0.4480     1.9590    -1.1040 C.3   1 <1>  -0.1600 
  7 C       -3.9780    -1.0390     0.7700 C.2   1 <1>   0.1660 
  8 C       -3.8780     1.2630     0.2330 C.2   1 <1>   0.7160 
  9 C       -1.7160     2.2930    -0.3240 C.3   1 <1>   0.1400 
 10 S       -5.0610    -2.3520     1.2080 S.3   1 <1>  -0.0800 
 11 C       -4.6550     0.1250     0.5860 C.2   1 <1>  -0.0860 
 12 O       -4.3860     2.3680     0.0810 O.2   1 <1>  -0.5700 
 13 C       -6.4410    -1.2660     1.1390 C.2   1 <1>  -0.1400 
 14 C       -6.0700    -0.0270     0.7970 C.2   1 <1>  -0.1810 
 15 C       -7.8490    -1.7340     1.4320 C.3   1 <1>   0.3000 
 16 C       -7.1320     1.0500     0.6820 C.3   1 <1>   0.0210 
 17 O       -8.7010    -0.6150     1.5280 O.3   1 <1>  -0.5600 
 18 C       -8.5580     0.4310     0.5920 C.3   1 <1>   0.2800 
 19 C       -9.6060     1.5030     0.9670 C.3   1 <1>  -0.1600 
 20 C       -8.8350    -0.1240    -0.8170 C.3   1 <1>  -0.2400 
 21 C      -11.0710     1.0290     0.9710 C.3   1 <1>  -0.2400 
 22 H        1.4560     0.9960    -0.7450 H     1 <1>   0.0800 
 23 H        0.7370     1.7130     0.6970 H     1 <1>   0.0800 
 24 H       -0.6870     1.3900    -1.9870 H     1 <1>   0.0800 
 25 H        0.0130     2.8770    -1.4210 H     1 <1>   0.0800 
 26 H       -1.4670     2.8470     0.5660 H     1 <1>   0.0800 
 27 H       -2.3170     2.9340    -0.9470 H     1 <1>   0.0800 
 28 H       -7.8870    -2.2540     2.3730 H     1 <1>   0.0800 
 29 H       -8.2100    -2.3800     0.6530 H     1 <1>   0.0800 
 30 H       -6.9530     1.6550    -0.1880 H     1 <1>   0.0800 
 31 H       -7.0600     1.6900     1.5430 H     1 <1>   0.0800 
 32 H       -9.5170     2.3310     0.2860 H     1 <1>   0.0800 
 33 H       -9.3720     1.8760     1.9490 H     1 <1>   0.0800 
 34 H       -8.0280    -0.7470    -1.1550 H     1 <1>   0.0800 
 35 H       -8.9330     0.6850    -1.5170 H     1 <1>   0.0800 
 36 H       -9.7450    -0.6960    -0.8270 H     1 <1>   0.0800 
 37 H      -11.3900     0.7490    -0.0160 H     1 <1>   0.0800 
 38 H      -11.7100     1.8200     1.3210 H     1 <1>   0.0800 
 39 H      -11.1890     0.1840     1.6280 H     1 <1>   0.0800 
@<TRIPOS>BOND
  1   1   2  1   
  2   1   3  1   
  3   2   4  2   
  4   2   5  1   
  5   3   6  1   
  6   3  22  1   
  7   3  23  1   
  8   4   7  1   
  9   5   8  am  
 10   5   9  1   
 11   6   9  1   
 12   6  24  1   
 13   6  25  1   
 14   7  10  1   
 15   7  11  2   
 16   8  11  1   
 17   8  12  2   
 18   9  26  1   
 19   9  27  1   
 20  10  13  1   
 21  11  14  1   
 22  13  14  2   
 23  13  15  1   
 24  14  16  1   
 25  15  17  1   
 26  15  28  1   
 27  15  29  1   
 28  16  18  1   
 29  16  30  1   
 30  16  31  1   
 31  17  18  1   
 32  18  19  1   
 33  18  20  1   
 34  19  21  1   
 35  19  32  1   
 36  19  33  1   
 37  20  34  1   
 38  20  35  1   
 39  20  36  1   
 40  21  37  1   
 41  21  38  1   
 42  21  39  1   
@<TRIPOS>SUBSTRUCTURE
  1 ****  11 GROUP 4 **** **** 0

# MOE 2024.06 (io_trps.svl 2023.06)
