@<TRIPOS>MOLECULE
NONAME
42 44 1 0 0 
SMALL
USER_CHARGES


@<TRIPOS>ATOM
  1 CL       2.2030     2.7120    -2.7930 Cl    1 <1>  -0.1770 
  2 C        1.2030     3.0250    -1.3900 C.ar  1 <1>   0.1770 
  3 C        1.7080     2.8050    -0.1150 C.ar  1 <1>   0.0830 
  4 C       -0.0820     3.4880    -1.5880 C.ar  1 <1>  -0.1500 
  5 O        2.9800     2.3500    -0.0020 O.3   1 <1>  -0.3630 
  6 C        0.8860     3.0630     0.9770 C.ar  1 <1>  -0.1500 
  7 C       -0.9110     3.7470    -0.5030 C.ar  1 <1>  -0.0090 
  8 C        3.6000     2.1410     1.2600 C.3   1 <1>   0.1810 
  9 C       -0.4030     3.5270     0.7740 C.ar  1 <1>  -0.1500 
 10 S       -2.6040     4.3510    -0.7310 S.o2  1 <1>   1.4470 
 11 C        5.0360     1.6660     1.0830 C.2   1 <1>   0.5690 
 12 O       -2.7630     5.5840     0.0060 O.2   1 <1>  -0.6500 
 13 O       -2.9670     4.3000    -2.1310 O.2   1 <1>  -0.6500 
 14 N       -3.5220     3.1770     0.0730 N.am  1 <1>  -0.8490 
 15 O        5.6860     1.4250     2.0730 O.2   1 <1>  -0.5700 
 16 N        5.5320     1.5320    -0.1760 N.am  1 <1>  -0.5790 
 17 C       -3.6620     1.9160    -0.6370 C.3   1 <1>   0.1960 
 18 C       -4.8780     3.6140     0.3510 C.3   1 <1>   0.1960 
 19 C        6.8840     1.0910    -0.5390 C.3   1 <1>   0.0490 
 20 C       -4.8010     1.2080     0.0840 C.3   1 <1>  -0.1600 
 21 C       -5.6320     2.3350     0.6970 C.3   1 <1>  -0.1600 
 22 C        7.5180     1.6990    -1.7450 C.3   1 <1>  -0.2000 
 23 C        7.0450     0.2760    -1.7790 C.3   1 <1>  -0.2000 
 24 H       -0.4370     3.6480    -2.5920 H     1 <1>   0.1500 
 25 H        1.2240     2.9110     1.9860 H     1 <1>   0.1500 
 26 H        3.0430     1.3950     1.7970 H     1 <1>   0.0800 
 27 H        3.5980     3.0690     1.8010 H     1 <1>   0.0800 
 28 H       -1.0370     3.7260     1.6240 H     1 <1>   0.1500 
 29 H        4.9080     1.7560    -0.9570 H     1 <1>   0.3700 
 30 H       -2.7480     1.3450    -0.6050 H     1 <1>   0.0800 
 31 H       -3.9440     2.0900    -1.6630 H     1 <1>   0.0800 
 32 H       -5.3060     4.0650    -0.5310 H     1 <1>   0.0800 
 33 H       -4.8950     4.3260     1.1600 H     1 <1>   0.0800 
 34 H        7.5030     0.8650     0.3150 H     1 <1>   0.1000 
 35 H       -4.3990     0.5790     0.8600 H     1 <1>   0.0800 
 36 H       -5.3730     0.6040    -0.5980 H     1 <1>   0.0800 
 37 H       -6.6300     2.3650     0.2970 H     1 <1>   0.0800 
 38 H       -5.6860     2.2220     1.7660 H     1 <1>   0.0800 
 39 H        8.5780     1.8830    -1.7320 H     1 <1>   0.1000 
 40 H        6.9750     2.4450    -2.2970 H     1 <1>   0.1000 
 41 H        6.1710     0.0290    -2.3550 H     1 <1>   0.1000 
 42 H        7.7840    -0.5050    -1.7890 H     1 <1>   0.1000 
@<TRIPOS>BOND
  1   1   2  1   
  2   2   3  ar  
  3   2   4  ar  
  4   3   5  1   
  5   3   6  ar  
  6   4   7  ar  
  7   4  24  1   
  8   5   8  1   
  9   6   9  ar  
 10   6  25  1   
 11   7   9  ar  
 12   7  10  1   
 13   8  11  1   
 14   8  26  1   
 15   8  27  1   
 16   9  28  1   
 17  10  12  2   
 18  10  13  2   
 19  10  14  am  
 20  11  15  2   
 21  11  16  am  
 22  14  17  1   
 23  14  18  1   
 24  16  19  1   
 25  16  29  1   
 26  17  20  1   
 27  17  30  1   
 28  17  31  1   
 29  18  21  1   
 30  18  32  1   
 31  18  33  1   
 32  19  22  1   
 33  19  23  1   
 34  19  34  1   
 35  20  21  1   
 36  20  35  1   
 37  20  36  1   
 38  21  37  1   
 39  21  38  1   
 40  22  23  1   
 41  22  39  1   
 42  22  40  1   
 43  23  41  1   
 44  23  42  1   
@<TRIPOS>SUBSTRUCTURE
  1 ****   3 GROUP 4 **** **** 0

# MOE 2024.06 (io_trps.svl 2023.06)
