@<TRIPOS>MOLECULE
NONAME
54 55 1 0 0 
SMALL
USER_CHARGES


@<TRIPOS>ATOM
  1 O        8.5150    -6.5360    -0.3810 O.3   1 <1>  -0.5600 
  2 C        7.5700    -5.5110    -0.4880 C.3   1 <1>   0.1200 
  3 C        8.2660    -7.4640     0.6340 C.3   1 <1>   0.1200 
  4 C        6.1730    -6.1000    -0.7610 C.3   1 <1>   0.3430 
  5 C        6.9020    -8.1450     0.4110 C.3   1 <1>   0.3430 
  6 N        5.7940    -7.1360     0.2670 N.4   1 <1>  -0.9590 
  7 C        4.5060    -7.8130    -0.0500 C.3   1 <1>   0.3430 
  8 C        3.3270    -6.8540     0.1430 C.3   1 <1>  -0.1600 
  9 C        1.9990    -7.5890    -0.0910 C.3   1 <1>  -0.1600 
 10 C        0.7930    -6.6680     0.1010 C.3   1 <1>   0.1200 
 11 O       -0.3620    -7.4310    -0.1390 O.3   1 <1>  -0.3630 
 12 C       -1.6080    -6.8930    -0.0480 C.ar  1 <1>   0.0830 
 13 C       -2.6940    -7.7220    -0.3060 C.ar  1 <1>  -0.1430 
 14 C       -1.8370    -5.5630     0.2890 C.ar  1 <1>  -0.1500 
 15 C       -3.9820    -7.2160    -0.2250 C.ar  1 <1>  -0.1500 
 16 C       -2.4780    -9.1820    -0.6770 C.3   1 <1>  -0.0970 
 17 C       -3.1280    -5.0750     0.3650 C.ar  1 <1>  -0.1500 
 18 C       -4.2280    -5.8870     0.1110 C.ar  1 <1>  -0.1430 
 19 C       -5.6500    -5.2910     0.2100 C.3   1 <1>   0.1430 
 20 C       -5.7940    -4.1350    -0.7920 C.3   1 <1>  -0.2400 
 21 C       -5.8890    -4.7650     1.6330 C.3   1 <1>  -0.2400 
 22 C       -6.7600    -6.3100    -0.0990 C.3   1 <1>  -0.2400 
 23 H        7.8700    -4.8750    -1.3030 H     1 <1>   0.0800 
 24 H        7.5810    -4.9330     0.4200 H     1 <1>   0.0800 
 25 H        8.3020    -6.9590     1.5840 H     1 <1>   0.0800 
 26 H        9.0550    -8.1960     0.6070 H     1 <1>   0.0800 
 27 H        6.1810    -6.5470    -1.7420 H     1 <1>   0.0800 
 28 H        5.4500    -5.3010    -0.7680 H     1 <1>   0.0800 
 29 H        6.6960    -8.8060     1.2370 H     1 <1>   0.0800 
 30 H        6.9680    -8.7440    -0.4830 H     1 <1>   0.0800 
 31 H        5.6940    -6.6580     1.1730 H     1 <1>   0.4500 
 32 H        4.3720    -8.6580     0.6060 H     1 <1>   0.0800 
 33 H        4.5190    -8.1780    -1.0650 H     1 <1>   0.0800 
 34 H        3.3930    -6.0370    -0.5530 H     1 <1>   0.0800 
 35 H        3.3370    -6.4650     1.1460 H     1 <1>   0.0800 
 36 H        1.9110    -8.4110     0.6000 H     1 <1>   0.0800 
 37 H        1.9710    -7.9810    -1.0940 H     1 <1>   0.0800 
 38 H        0.8100    -5.8530    -0.6030 H     1 <1>   0.0800 
 39 H        0.7460    -6.2940     1.1090 H     1 <1>   0.0800 
 40 H       -1.0290    -4.8900     0.4960 H     1 <1>   0.1500 
 41 H       -4.7930    -7.8870    -0.4320 H     1 <1>   0.1500 
 42 H       -1.8920    -9.2450    -1.5760 H     1 <1>   0.0800 
 43 H       -3.4130    -9.6860    -0.8420 H     1 <1>   0.0800 
 44 H       -1.9530    -9.6840     0.1150 H     1 <1>   0.0800 
 45 H       -3.2680    -4.0430     0.6280 H     1 <1>   0.1500 
 46 H       -5.5920    -4.4870    -1.7880 H     1 <1>   0.0800 
 47 H       -5.1050    -3.3410    -0.5700 H     1 <1>   0.0800 
 48 H       -6.7890    -3.7300    -0.7660 H     1 <1>   0.0800 
 49 H       -5.2010    -3.9770     1.8770 H     1 <1>   0.0800 
 50 H       -5.7550    -5.5610     2.3440 H     1 <1>   0.0800 
 51 H       -6.8880    -4.3790     1.7340 H     1 <1>   0.0800 
 52 H       -6.7210    -7.1310     0.5950 H     1 <1>   0.0800 
 53 H       -6.6550    -6.6910    -1.0990 H     1 <1>   0.0800 
 54 H       -7.7290    -5.8510    -0.0180 H     1 <1>   0.0800 
@<TRIPOS>BOND
  1   1   2  1   
  2   1   3  1   
  3   2   4  1   
  4   2  23  1   
  5   2  24  1   
  6   3   5  1   
  7   3  25  1   
  8   3  26  1   
  9   4   6  1   
 10   4  27  1   
 11   4  28  1   
 12   5   6  1   
 13   5  29  1   
 14   5  30  1   
 15   6   7  1   
 16   6  31  1   
 17   7   8  1   
 18   7  32  1   
 19   7  33  1   
 20   8   9  1   
 21   8  34  1   
 22   8  35  1   
 23   9  10  1   
 24   9  36  1   
 25   9  37  1   
 26  10  11  1   
 27  10  38  1   
 28  10  39  1   
 29  11  12  1   
 30  12  13  ar  
 31  12  14  ar  
 32  13  15  ar  
 33  13  16  1   
 34  14  17  ar  
 35  14  40  1   
 36  15  18  ar  
 37  15  41  1   
 38  16  42  1   
 39  16  43  1   
 40  16  44  1   
 41  17  18  ar  
 42  17  45  1   
 43  18  19  1   
 44  19  20  1   
 45  19  21  1   
 46  19  22  1   
 47  20  46  1   
 48  20  47  1   
 49  20  48  1   
 50  21  49  1   
 51  21  50  1   
 52  21  51  1   
 53  22  52  1   
 54  22  53  1   
 55  22  54  1   
@<TRIPOS>SUBSTRUCTURE
  1 ****  10 GROUP 4 **** **** 0

# MOE 2024.06 (io_trps.svl 2023.06)
