@<TRIPOS>MOLECULE
NONAME
44 46 1 0 0 
SMALL
USER_CHARGES


@<TRIPOS>ATOM
  1 O        0.9000    -1.8180    -2.4010 O.2   1 <1>  -0.5700 
  2 C        0.9830    -2.6270    -1.5070 C.2   1 <1>   0.5690 
  3 N        1.6090    -2.3630    -0.3140 N.am  1 <1>  -0.4770 
  4 C        0.3630    -4.0060    -1.7050 C.3   1 <1>   0.1810 
  5 C        1.7960    -3.4080     0.6260 C.ar  1 <1>   0.1170 
  6 C        2.2480    -1.0160    -0.0970 C.3   1 <1>   0.2010 
  7 O        1.0740    -5.0220    -1.0080 O.3   1 <1>  -0.3630 
  8 C        1.5390    -4.7300     0.2360 C.ar  1 <1>   0.0830 
  9 C        2.2510    -3.1880     1.9250 C.ar  1 <1>  -0.1500 
 10 C        3.7680    -1.0860     0.0280 C.2   1 <1>   0.5690 
 11 C        1.7570    -5.7850     1.1040 C.ar  1 <1>  -0.1500 
 12 C        2.4620    -4.2450     2.7940 C.ar  1 <1>  -0.1500 
 13 O        4.3210    -0.3140     0.7740 O.2   1 <1>  -0.5700 
 14 N        4.4490    -2.0280    -0.6750 N.am  1 <1>  -0.7300 
 15 C        2.2190    -5.5440     2.3850 C.ar  1 <1>  -0.1500 
 16 C        5.8870    -2.3170    -0.5580 C.3   1 <1>   0.2200 
 17 C        6.5270    -2.4210    -1.9580 C.3   1 <1>  -0.0800 
 18 C        6.0410    -3.6220     0.2310 C.3   1 <1>  -0.1600 
 19 C        8.0020    -2.8460    -1.8440 C.3   1 <1>  -0.1600 
 20 C        6.4290    -1.0980    -2.7370 C.3   1 <1>  -0.2400 
 21 C        7.5130    -4.0420     0.3350 C.3   1 <1>  -0.1600 
 22 C        8.1540    -4.1530    -1.0540 C.3   1 <1>  -0.1600 
 23 H        0.3610    -4.2610    -2.7480 H     1 <1>   0.0800 
 24 H       -0.6460    -3.9990    -1.3380 H     1 <1>   0.0800 
 25 H        1.8460    -0.5790     0.7980 H     1 <1>   0.0800 
 26 H        2.0160    -0.3490    -0.9060 H     1 <1>   0.0800 
 27 H        2.4530    -2.1940     2.2780 H     1 <1>   0.1500 
 28 H        1.5620    -6.7900     0.7750 H     1 <1>   0.1500 
 29 H        2.8190    -4.0550     3.7920 H     1 <1>   0.1500 
 30 H        3.9200    -2.6900    -1.2440 H     1 <1>   0.3700 
 31 H        2.3880    -6.3650     3.0610 H     1 <1>   0.1500 
 32 H        6.3690    -1.5210    -0.0120 H     1 <1>   0.0800 
 33 H        6.0060    -3.1830    -2.5130 H     1 <1>   0.0800 
 34 H        5.4860    -4.4050    -0.2560 H     1 <1>   0.0800 
 35 H        5.6390    -3.4870     1.2200 H     1 <1>   0.0800 
 36 H        8.5620    -2.0690    -1.3510 H     1 <1>   0.0800 
 37 H        8.4180    -2.9780    -2.8280 H     1 <1>   0.0800 
 38 H        6.9110    -0.3050    -2.1930 H     1 <1>   0.0800 
 39 H        5.4000    -0.8260    -2.8920 H     1 <1>   0.0800 
 40 H        6.8980    -1.1930    -3.6990 H     1 <1>   0.0800 
 41 H        7.5830    -4.9880     0.8430 H     1 <1>   0.0800 
 42 H        8.0500    -3.3130     0.9190 H     1 <1>   0.0800 
 43 H        9.1980    -4.3910    -0.9500 H     1 <1>   0.0800 
 44 H        7.6870    -4.9560    -1.5990 H     1 <1>   0.0800 
@<TRIPOS>BOND
  1   1   2  2   
  2   2   3  am  
  3   2   4  1   
  4   3   5  1   
  5   3   6  1   
  6   4   7  1   
  7   4  23  1   
  8   4  24  1   
  9   5   8  ar  
 10   5   9  ar  
 11   6  10  1   
 12   6  25  1   
 13   6  26  1   
 14   7   8  1   
 15   8  11  ar  
 16   9  12  ar  
 17   9  27  1   
 18  10  13  2   
 19  10  14  am  
 20  11  15  ar  
 21  11  28  1   
 22  12  15  ar  
 23  12  29  1   
 24  14  16  1   
 25  14  30  1   
 26  15  31  1   
 27  16  17  1   
 28  16  18  1   
 29  16  32  1   
 30  17  19  1   
 31  17  20  1   
 32  17  33  1   
 33  18  21  1   
 34  18  34  1   
 35  18  35  1   
 36  19  22  1   
 37  19  36  1   
 38  19  37  1   
 39  20  38  1   
 40  20  39  1   
 41  20  40  1   
 42  21  22  1   
 43  21  41  1   
 44  21  42  1   
 45  22  43  1   
 46  22  44  1   
@<TRIPOS>SUBSTRUCTURE
  1 ****  14 GROUP 4 **** **** 0

# MOE 2024.06 (io_trps.svl 2023.06)
