@<TRIPOS>MOLECULE
NONAME
47 49 1 0 0 
SMALL
USER_CHARGES


@<TRIPOS>ATOM
  1 CL      -2.4090     0.9840     2.2010 Cl    1 <1>  -0.1770 
  2 C       -3.5990    -0.0680     1.4810 C.ar  1 <1>   0.1770 
  3 C       -3.7560    -0.0740     0.1080 C.ar  1 <1>  -0.1500 
  4 C       -4.3680    -0.8790     2.2930 C.ar  1 <1>  -0.1500 
  5 C       -4.7040    -0.9080    -0.4610 C.ar  1 <1>  -0.1500 
  6 C       -5.3140    -1.7110     1.7200 C.ar  1 <1>  -0.1500 
  7 C       -5.4880    -1.7260     0.3420 C.ar  1 <1>  -0.1430 
  8 C       -6.5490    -2.6220    -0.2930 C.3   1 <1>   0.0440 
  9 C       -7.8700    -1.9040    -0.5280 C.2   1 <1>   0.5690 
 10 O       -8.7540    -2.5170    -1.0760 O.2   1 <1>  -0.5700 
 11 N       -7.9910    -0.6160    -0.0900 N.am  1 <1>  -0.5470 
 12 C       -8.8270     0.4280    -0.5400 C.ar  1 <1>   0.1170 
 13 C      -10.2390     0.4300    -0.5080 C.ar  1 <1>   0.1000 
 14 C       -8.1670     1.5460    -1.0350 C.ar  1 <1>  -0.1500 
 15 N      -11.0400    -0.6150    -0.0230 N.pl3 1 <1>  -0.8380 
 16 C      -10.9120     1.5500    -0.9830 C.ar  1 <1>  -0.1500 
 17 C       -8.8580     2.6480    -1.5040 C.ar  1 <1>  -0.1500 
 18 C      -11.9220    -1.3430    -0.9850 C.3   1 <1>   0.2090 
 19 C      -10.8570    -1.1700     1.3490 C.3   1 <1>   0.2090 
 20 C      -10.2370     2.6490    -1.4790 C.ar  1 <1>  -0.1500 
 21 C      -11.7720    -2.8750    -0.8870 C.3   1 <1>   0.3430 
 22 C      -10.7420    -2.7090     1.3420 C.3   1 <1>   0.3430 
 23 N      -11.8230    -3.3820     0.5340 N.4   1 <1>  -0.9590 
 24 C      -11.6710    -4.8640     0.5650 C.3   1 <1>   0.2630 
 25 H       -3.1410     0.5640    -0.5020 H     1 <1>   0.1500 
 26 H       -4.2220    -0.8560     3.3590 H     1 <1>   0.1500 
 27 H       -4.8250    -0.9130    -1.5320 H     1 <1>   0.1500 
 28 H       -5.9090    -2.3450     2.3560 H     1 <1>   0.1500 
 29 H       -6.7290    -3.4760     0.3320 H     1 <1>   0.0800 
 30 H       -6.1920    -2.9870    -1.2390 H     1 <1>   0.0800 
 31 H       -7.1400    -0.2730     0.3640 H     1 <1>   0.3700 
 32 H       -7.0930     1.5610    -1.0640 H     1 <1>   0.1500 
 33 H      -11.9860     1.5640    -0.9570 H     1 <1>   0.1500 
 34 H       -8.3240     3.5010    -1.8870 H     1 <1>   0.1500 
 35 H      -11.6830    -1.0370    -1.9890 H     1 <1>   0.0800 
 36 H      -12.9450    -1.0700    -0.7940 H     1 <1>   0.0800 
 37 H      -11.6970    -0.8770     1.9540 H     1 <1>   0.0800 
 38 H       -9.9750    -0.7450     1.7950 H     1 <1>   0.0800 
 39 H      -10.7850     3.5030    -1.8400 H     1 <1>   0.1500 
 40 H      -10.8350    -3.1530    -1.3360 H     1 <1>   0.0800 
 41 H      -12.5540    -3.3350    -1.4680 H     1 <1>   0.0800 
 42 H      -10.7720    -3.0620     2.3590 H     1 <1>   0.0800 
 43 H       -9.7820    -2.9700     0.9340 H     1 <1>   0.0800 
 44 H      -12.7310    -3.1060     0.9310 H     1 <1>   0.4500 
 45 H      -10.7220    -5.1490     0.1390 H     1 <1>   0.0800 
 46 H      -12.4580    -5.3340    -0.0030 H     1 <1>   0.0800 
 47 H      -11.7170    -5.2250     1.5800 H     1 <1>   0.0800 
@<TRIPOS>BOND
  1   1   2  1   
  2   2   3  ar  
  3   2   4  ar  
  4   3   5  ar  
  5   3  25  1   
  6   4   6  ar  
  7   4  26  1   
  8   5   7  ar  
  9   5  27  1   
 10   6   7  ar  
 11   6  28  1   
 12   7   8  1   
 13   8   9  1   
 14   8  29  1   
 15   8  30  1   
 16   9  10  2   
 17   9  11  am  
 18  11  12  1   
 19  11  31  1   
 20  12  13  ar  
 21  12  14  ar  
 22  13  15  1   
 23  13  16  ar  
 24  14  17  ar  
 25  14  32  1   
 26  15  18  1   
 27  15  19  1   
 28  16  20  ar  
 29  16  33  1   
 30  17  20  ar  
 31  17  34  1   
 32  18  21  1   
 33  18  35  1   
 34  18  36  1   
 35  19  22  1   
 36  19  37  1   
 37  19  38  1   
 38  20  39  1   
 39  21  23  1   
 40  21  40  1   
 41  21  41  1   
 42  22  23  1   
 43  22  42  1   
 44  22  43  1   
 45  23  24  1   
 46  23  44  1   
 47  24  45  1   
 48  24  46  1   
 49  24  47  1   
@<TRIPOS>SUBSTRUCTURE
  1 ****  11 GROUP 4 **** **** 0

# MOE 2024.06 (io_trps.svl 2023.06)
