@<TRIPOS>MOLECULE
NONAME
37 40 1 0 0 
SMALL
USER_CHARGES


@<TRIPOS>ATOM
  1 O       -0.0390     1.1040    -1.3320 O.3   1 <1>  -0.1650 
  2 C        1.1260     1.3290    -0.6740 C.ar  1 <1>   0.0830 
  3 C       -1.2090     1.3190    -0.6800 C.ar  1 <1>   0.0830 
  4 C        1.1880     2.2090     0.4000 C.ar  1 <1>  -0.1440 
  5 C        2.2510     0.6190    -1.0660 C.ar  1 <1>  -0.1500 
  6 C       -1.2830     2.2000     0.3950 C.ar  1 <1>  -0.1440 
  7 C       -2.3260     0.6010    -1.0770 C.ar  1 <1>  -0.1500 
  8 C        2.3750     2.3230     1.1140 C.ar  1 <1>  -0.1500 
  9 C       -0.0510     3.0260     0.7520 C.3   1 <1>   0.4770 
 10 C        3.4350     0.7560    -0.3640 C.ar  1 <1>  -0.1500 
 11 C       -2.4740     2.3040     1.1020 C.ar  1 <1>  -0.1500 
 12 C       -3.5140     0.7290    -0.3800 C.ar  1 <1>  -0.1500 
 13 C        3.4940     1.6010     0.7320 C.ar  1 <1>  -0.1500 
 14 N       -0.0550     4.3170     0.0060 N.3   1 <1>  -0.8100 
 15 C       -3.5850     1.5730     0.7150 C.ar  1 <1>  -0.1500 
 16 C       -1.2690     5.1270     0.2540 C.3   1 <1>   0.1100 
 17 C        1.1520     5.1370     0.2590 C.3   1 <1>   0.1100 
 18 C       -1.2240     6.4740    -0.4880 C.3   1 <1>   0.1200 
 19 C        1.1000     6.4830    -0.4830 C.3   1 <1>   0.1200 
 20 O       -0.0650     7.1790    -0.1530 O.3   1 <1>  -0.5600 
 21 H        2.1890    -0.0440    -1.9090 H     1 <1>   0.1500 
 22 H       -2.2540    -0.0610    -1.9200 H     1 <1>   0.1500 
 23 H        2.4350     2.9810     1.9630 H     1 <1>   0.1500 
 24 H       -0.0550     3.2260     1.8090 H     1 <1>   0.0800 
 25 H        4.3060     0.2020    -0.6650 H     1 <1>   0.1500 
 26 H       -2.5430     2.9610     1.9510 H     1 <1>   0.1500 
 27 H       -4.3800     0.1670    -0.6860 H     1 <1>   0.1500 
 28 H        4.4120     1.6980     1.2840 H     1 <1>   0.1500 
 29 H       -4.5060     1.6630     1.2630 H     1 <1>   0.1500 
 30 H       -1.3810     5.3130     1.3080 H     1 <1>   0.0800 
 31 H       -2.1370     4.5970    -0.0950 H     1 <1>   0.0800 
 32 H        2.0260     4.6140    -0.0850 H     1 <1>   0.0800 
 33 H        1.2580     5.3230     1.3140 H     1 <1>   0.0800 
 34 H       -2.0690     7.0800    -0.2140 H     1 <1>   0.0800 
 35 H       -1.2390     6.3170    -1.5530 H     1 <1>   0.0800 
 36 H        1.1210     6.3260    -1.5470 H     1 <1>   0.0800 
 37 H        1.9390     7.0960    -0.2050 H     1 <1>   0.0800 
@<TRIPOS>BOND
  1   1   2  1   
  2   1   3  1   
  3   2   4  ar  
  4   2   5  ar  
  5   3   6  ar  
  6   3   7  ar  
  7   4   8  ar  
  8   4   9  1   
  9   5  10  ar  
 10   5  21  1   
 11   6   9  1   
 12   6  11  ar  
 13   7  12  ar  
 14   7  22  1   
 15   8  13  ar  
 16   8  23  1   
 17   9  14  1   
 18   9  24  1   
 19  10  13  ar  
 20  10  25  1   
 21  11  15  ar  
 22  11  26  1   
 23  12  15  ar  
 24  12  27  1   
 25  13  28  1   
 26  14  16  1   
 27  14  17  1   
 28  15  29  1   
 29  16  18  1   
 30  16  30  1   
 31  16  31  1   
 32  17  19  1   
 33  17  32  1   
 34  17  33  1   
 35  18  20  1   
 36  18  34  1   
 37  18  35  1   
 38  19  20  1   
 39  19  36  1   
 40  19  37  1   
@<TRIPOS>SUBSTRUCTURE
  1 ****   9 GROUP 4 **** **** 0

# MOE 2024.06 (io_trps.svl 2023.06)
