@<TRIPOS>MOLECULE
NONAME
39 39 1 0 0 
SMALL
USER_CHARGES


@<TRIPOS>ATOM
  1 S       -0.6010    -0.1740     0.7890 S.o2  1 <1>   1.3330 
  2 O       -1.7170    -0.9000     1.3410 O.2   1 <1>  -0.6500 
  3 O        0.7560    -0.6320     0.9590 O.2   1 <1>  -0.6500 
  4 N       -0.7240     1.3920     1.4720 N.am  1 <1>  -0.7570 
  5 C       -0.9190     0.1520    -0.9510 C.3   1 <1>  -0.0550 
  6 C       -0.0310     2.5080     1.0150 C.ar  1 <1>   0.1990 
  7 C       -0.9330    -1.1030    -1.8420 C.3   1 <1>  -0.2400 
  8 C       -0.7330     3.6570     0.6440 C.ar  1 <1>   0.0830 
  9 C        1.3520     2.4970     0.9110 C.ar  1 <1>  -0.1500 
 10 O       -2.0960     3.6250     0.7600 O.3   1 <1>  -0.3630 
 11 C       -0.0350     4.7590     0.1710 C.ar  1 <1>  -0.1500 
 12 C        2.0670     3.5900     0.4330 C.ar  1 <1>  -0.1430 
 13 C       -2.8680     4.7890     0.5520 C.3   1 <1>   0.0400 
 14 C        1.3460     4.7220     0.0650 C.ar  1 <1>  -0.1500 
 15 C        3.6060     3.4980     0.3350 C.3   1 <1>   0.1430 
 16 C        4.2540     4.7740    -0.2280 C.3   1 <1>  -0.2400 
 17 C        4.1950     3.2540     1.7330 C.3   1 <1>  -0.2400 
 18 C        3.9930     2.3340    -0.5910 C.3   1 <1>  -0.2400 
 19 H       -1.6910     1.5800     1.7250 H     1 <1>   0.4200 
 20 H       -0.1650     0.8220    -1.3200 H     1 <1>   0.0800 
 21 H       -1.8650     0.6490    -1.0440 H     1 <1>   0.0800 
 22 H        0.0170    -1.6050    -1.7880 H     1 <1>   0.0800 
 23 H       -1.1260    -0.8320    -2.8640 H     1 <1>   0.0800 
 24 H       -1.7000    -1.7820    -1.5110 H     1 <1>   0.0800 
 25 H        1.8710     1.6100     1.2210 H     1 <1>   0.1500 
 26 H       -0.5410     5.6580    -0.1260 H     1 <1>   0.1500 
 27 H       -3.8960     4.5490     0.7570 H     1 <1>   0.0800 
 28 H       -2.7650     5.1000    -0.4730 H     1 <1>   0.0800 
 29 H       -2.5320     5.5570     1.2250 H     1 <1>   0.0800 
 30 H        1.8370     5.6000    -0.3090 H     1 <1>   0.1500 
 31 H        4.0400     5.6170     0.4050 H     1 <1>   0.0800 
 32 H        3.8910     4.9770    -1.2190 H     1 <1>   0.0800 
 33 H        5.3230     4.6630    -0.2820 H     1 <1>   0.0800 
 34 H        3.9000     4.0450     2.3990 H     1 <1>   0.0800 
 35 H        5.2690     3.2220     1.6930 H     1 <1>   0.0800 
 36 H        3.8500     2.3230     2.1420 H     1 <1>   0.0800 
 37 H        3.5560     2.4760    -1.5630 H     1 <1>   0.0800 
 38 H        3.6480     1.3940    -0.2000 H     1 <1>   0.0800 
 39 H        5.0610     2.2750    -0.7000 H     1 <1>   0.0800 
@<TRIPOS>BOND
  1   1   2  2   
  2   1   3  2   
  3   1   4  am  
  4   1   5  1   
  5   4   6  1   
  6   4  19  1   
  7   5   7  1   
  8   5  20  1   
  9   5  21  1   
 10   6   8  ar  
 11   6   9  ar  
 12   7  22  1   
 13   7  23  1   
 14   7  24  1   
 15   8  10  1   
 16   8  11  ar  
 17   9  12  ar  
 18   9  25  1   
 19  10  13  1   
 20  11  14  ar  
 21  11  26  1   
 22  12  14  ar  
 23  12  15  1   
 24  13  27  1   
 25  13  28  1   
 26  13  29  1   
 27  14  30  1   
 28  15  16  1   
 29  15  17  1   
 30  15  18  1   
 31  16  31  1   
 32  16  32  1   
 33  16  33  1   
 34  17  34  1   
 35  17  35  1   
 36  17  36  1   
 37  18  37  1   
 38  18  38  1   
 39  18  39  1   
@<TRIPOS>SUBSTRUCTURE
  1 ****   6 GROUP 4 **** **** 0

# MOE 2024.06 (io_trps.svl 2023.06)
