@<TRIPOS>MOLECULE
NONAME
38 39 1 0 0 
SMALL
USER_CHARGES


@<TRIPOS>ATOM
  1 CL      -0.6190     0.2440    -1.4290 Cl    1 <1>  -0.1770 
  2 C       -0.3340     1.7980    -0.6710 C.ar  1 <1>   0.1770 
  3 C       -1.4160     2.5060    -0.1490 C.ar  1 <1>   0.1170 
  4 C        0.9610     2.2760    -0.6140 C.ar  1 <1>  -0.1500 
  5 N       -2.7070     1.9450    -0.2490 N.am  1 <1>  -0.5470 
  6 C       -1.1440     3.7370     0.4450 C.ar  1 <1>  -0.1500 
  7 C        1.2050     3.5010    -0.0190 C.ar  1 <1>  -0.1500 
  8 C       -3.9380     2.3940     0.1350 C.2   1 <1>   0.5690 
  9 C        0.1500     4.2270     0.5090 C.ar  1 <1>  -0.1500 
 10 O       -4.1370     3.4500     0.6800 O.2   1 <1>  -0.5700 
 11 C       -5.1300     1.5040    -0.1410 C.3   1 <1>  -0.0990 
 12 C       -6.4220     2.2630     0.1740 C.3   1 <1>   0.3430 
 13 N       -7.6420     1.4550    -0.1300 N.4   1 <1>  -0.9590 
 14 C       -8.8410     2.3460    -0.1480 C.3   1 <1>   0.3430 
 15 C       -7.8300     0.3240     0.8290 C.3   1 <1>   0.3430 
 16 C      -10.0690     1.5510    -0.5970 C.3   1 <1>  -0.1600 
 17 C       -9.0350    -0.5190     0.4040 C.3   1 <1>  -0.1600 
 18 C      -10.3100     0.3270     0.2960 C.3   1 <1>  -0.1600 
 19 H        1.7670     1.6970    -1.0300 H     1 <1>   0.1500 
 20 H       -2.6890     1.0290    -0.7020 H     1 <1>   0.3700 
 21 H       -1.9340     4.3290     0.8670 H     1 <1>   0.1500 
 22 H        2.2080     3.8890     0.0340 H     1 <1>   0.1500 
 23 H        0.3360     5.1810     0.9730 H     1 <1>   0.1500 
 24 H       -5.0420     0.6310     0.4780 H     1 <1>   0.0800 
 25 H       -5.1150     1.2200    -1.1770 H     1 <1>   0.0800 
 26 H       -6.4320     3.1680    -0.4140 H     1 <1>   0.0800 
 27 H       -6.4220     2.5550     1.2130 H     1 <1>   0.0800 
 28 H       -7.5550     1.0570    -1.0740 H     1 <1>   0.4500 
 29 H       -8.6810     3.1700    -0.8260 H     1 <1>   0.0800 
 30 H       -9.0130     2.7470     0.8380 H     1 <1>   0.0800 
 31 H       -7.9950     0.7110     1.8220 H     1 <1>   0.0800 
 32 H       -6.9520    -0.3000     0.8510 H     1 <1>   0.0800 
 33 H       -9.9410     1.2410    -1.6200 H     1 <1>   0.0800 
 34 H      -10.9330     2.1910    -0.5620 H     1 <1>   0.0800 
 35 H       -9.1890    -1.3010     1.1280 H     1 <1>   0.0800 
 36 H       -8.8260    -0.9920    -0.5400 H     1 <1>   0.0800 
 37 H      -11.1120    -0.2690    -0.1070 H     1 <1>   0.0800 
 38 H      -10.6080     0.6540     1.2790 H     1 <1>   0.0800 
@<TRIPOS>BOND
  1   1   2  1   
  2   2   3  ar  
  3   2   4  ar  
  4   3   5  1   
  5   3   6  ar  
  6   4   7  ar  
  7   4  19  1   
  8   5   8  am  
  9   5  20  1   
 10   6   9  ar  
 11   6  21  1   
 12   7   9  ar  
 13   7  22  1   
 14   8  10  2   
 15   8  11  1   
 16   9  23  1   
 17  11  12  1   
 18  11  24  1   
 19  11  25  1   
 20  12  13  1   
 21  12  26  1   
 22  12  27  1   
 23  13  14  1   
 24  13  15  1   
 25  13  28  1   
 26  14  16  1   
 27  14  29  1   
 28  14  30  1   
 29  15  17  1   
 30  15  31  1   
 31  15  32  1   
 32  16  18  1   
 33  16  33  1   
 34  16  34  1   
 35  17  18  1   
 36  17  35  1   
 37  17  36  1   
 38  18  37  1   
 39  18  38  1   
@<TRIPOS>SUBSTRUCTURE
  1 ****   8 GROUP 4 **** **** 0

# MOE 2024.06 (io_trps.svl 2023.06)
