@<TRIPOS>MOLECULE
NONAME
49 52 1 0 0 
SMALL
USER_CHARGES


@<TRIPOS>ATOM
  1 S        0.0780     0.2160     0.2700 S.3   1 <1>  -0.2860 
  2 C       -1.6630    -0.0910     0.5610 C.2   1 <1>   0.5340 
  3 C        0.0820     1.3570    -1.1970 C.3   1 <1>   0.1310 
  4 O       -2.5170     0.2880    -0.3180 O.3   1 <1>  -0.2800 
  5 N       -2.1770    -0.6330     1.5910 N.2   1 <1>  -0.3380 
  6 C       -0.7750     2.5820    -0.9170 C.2   1 <1>   0.5690 
  7 C       -3.6670    -0.0150     0.2160 C.2   1 <1>   0.4250 
  8 N       -3.4920    -0.5830     1.3710 N.2   1 <1>  -0.3380 
  9 O       -1.5480     2.9350    -1.7730 O.2   1 <1>  -0.5700 
 10 N       -0.6610     3.2010     0.2920 N.am  1 <1>  -0.7300 
 11 C       -4.8860     0.3430    -0.4780 C.ar  1 <1>   0.0530 
 12 C       -1.5190     4.2680     0.8790 C.3   1 <1>   0.2200 
 13 C       -6.0820    -0.3810    -0.3530 C.ar  1 <1>   0.0830 
 14 C       -4.8970     1.4670    -1.3090 C.ar  1 <1>  -0.1500 
 15 C       -2.9800     3.7010     1.3500 C.3   1 <1>  -0.0800 
 16 C       -1.7830     5.5690    -0.1380 C.3   1 <1>  -0.1600 
 17 O       -6.0720    -1.4960     0.4180 O.3   1 <1>  -0.3630 
 18 C       -7.2320     0.0360    -1.0200 C.ar  1 <1>  -0.1500 
 19 C       -6.0380     1.8750    -1.9700 C.ar  1 <1>  -0.1500 
 20 C       -3.1910     4.8140     0.6350 C.3   1 <1>  -0.1600 
 21 C       -4.5800     4.0400     1.3890 C.3   1 <1>  -0.1600 
 22 C       -3.3880     5.9000    -0.1180 C.3   1 <1>  -0.0800 
 23 C       -7.2350    -2.2210     0.7360 C.3   1 <1>   0.1200 
 24 C       -7.2110     1.1600    -1.8230 C.ar  1 <1>  -0.1500 
 25 C       -4.8470     5.3470     0.3770 C.3   1 <1>  -0.1600 
 26 C       -6.8390    -3.3390     1.6960 C.3   1 <1>  -0.2400 
 27 H       -0.3110     0.8060    -2.0320 H     1 <1>   0.0800 
 28 H        1.0990     1.6400    -1.3860 H     1 <1>   0.0800 
 29 H       -0.0400     2.7680     0.9780 H     1 <1>   0.3700 
 30 H       -1.0060     4.6380     1.7550 H     1 <1>   0.0800 
 31 H       -3.9950     2.0420    -1.4400 H     1 <1>   0.1500 
 32 H       -2.9970     2.7230     0.8920 H     1 <1>   0.0800 
 33 H       -1.4650     5.3550    -1.1450 H     1 <1>   0.0800 
 34 H       -1.2170     6.4200     0.2040 H     1 <1>   0.0800 
 35 H       -8.1550    -0.5040    -0.9320 H     1 <1>   0.1500 
 36 H       -6.0120     2.7490    -2.5990 H     1 <1>   0.1500 
 37 H       -3.2980     4.1470    -0.3320 H     1 <1>   0.0800 
 38 H       -3.0740     5.4880     1.5900 H     1 <1>   0.0800 
 39 H       -4.8840     4.2800     2.3970 H     1 <1>   0.0800 
 40 H       -5.1640     3.1900     1.0710 H     1 <1>   0.0800 
 41 H       -3.3890     6.8920     0.3140 H     1 <1>   0.0800 
 42 H       -7.6450    -2.6270    -0.1730 H     1 <1>   0.0800 
 43 H       -7.9380    -1.5520     1.2020 H     1 <1>   0.0800 
 44 H       -8.1020     1.4780    -2.3360 H     1 <1>   0.1500 
 45 H       -5.4030     6.1160     0.8910 H     1 <1>   0.0800 
 46 H       -5.4330     5.0390    -0.4770 H     1 <1>   0.0800 
 47 H       -6.1250    -3.9920     1.2260 H     1 <1>   0.0800 
 48 H       -7.7050    -3.9130     1.9680 H     1 <1>   0.0800 
 49 H       -6.4070    -2.9210     2.5880 H     1 <1>   0.0800 
@<TRIPOS>BOND
  1   1   2  1   
  2   1   3  1   
  3   2   4  1   
  4   2   5  2   
  5   3   6  1   
  6   3  27  1   
  7   3  28  1   
  8   4   7  1   
  9   5   8  1   
 10   6   9  2   
 11   6  10  am  
 12   7   8  2   
 13   7  11  1   
 14  10  12  1   
 15  10  29  1   
 16  11  13  ar  
 17  11  14  ar  
 18  12  15  1   
 19  12  16  1   
 20  12  30  1   
 21  13  17  1   
 22  13  18  ar  
 23  14  19  ar  
 24  14  31  1   
 25  15  20  1   
 26  15  21  1   
 27  15  32  1   
 28  16  22  1   
 29  16  33  1   
 30  16  34  1   
 31  17  23  1   
 32  18  24  ar  
 33  18  35  1   
 34  19  24  ar  
 35  19  36  1   
 36  20  22  1   
 37  20  37  1   
 38  20  38  1   
 39  21  25  1   
 40  21  39  1   
 41  21  40  1   
 42  22  25  1   
 43  22  41  1   
 44  23  26  1   
 45  23  42  1   
 46  23  43  1   
 47  24  44  1   
 48  25  45  1   
 49  25  46  1   
 50  26  47  1   
 51  26  48  1   
 52  26  49  1   
@<TRIPOS>SUBSTRUCTURE
  1 ****   7 GROUP 4 **** **** 0

# MOE 2024.06 (io_trps.svl 2023.06)
