@<TRIPOS>MOLECULE
NONAME
52 55 1 0 0 
SMALL
USER_CHARGES


@<TRIPOS>ATOM
  1 O       -1.2800    -0.0480    -2.1730 O.2   1 <1>  -0.5700 
  2 C       -1.1140    -0.9700    -1.4020 C.2   1 <1>   0.6340 
  3 O        0.0590    -1.0720    -0.7670 O.3   1 <1>  -0.4300 
  4 C       -2.1290    -1.9720    -1.1270 C.ar  1 <1>   0.0860 
  5 C        1.1020    -0.1390    -0.9720 C.3   1 <1>   0.0400 
  6 C       -1.9050    -3.0380    -0.2520 C.ar  1 <1>  -0.1500 
  7 C       -3.3850    -1.9100    -1.7340 C.ar  1 <1>  -0.1500 
  8 C       -2.8780    -3.9870     0.0040 C.ar  1 <1>  -0.1500 
  9 C       -4.3620    -2.8540    -1.4810 C.ar  1 <1>  -0.1500 
 10 C       -4.1180    -3.9010    -0.6080 C.ar  1 <1>  -0.1440 
 11 C       -5.1980    -4.9380    -0.3320 C.3   1 <1>   0.2530 
 12 N       -6.3660    -4.3130     0.3200 N.3   1 <1>  -0.8100 
 13 C       -7.4900    -5.2700     0.4590 C.3   1 <1>   0.1100 
 14 C       -6.0240    -3.7110     1.6350 C.3   1 <1>   0.1100 
 15 C       -8.7280    -4.6340     1.1400 C.3   1 <1>   0.3430 
 16 C       -7.2440    -3.0360     2.3090 C.3   1 <1>   0.3430 
 17 N       -8.4770    -3.1920     1.4730 N.4   1 <1>  -0.9590 
 18 C       -9.6640    -2.4680     1.9930 C.3   1 <1>   0.4860 
 19 C      -10.7840    -2.5740     0.9750 C.ar  1 <1>  -0.1430 
 20 C      -10.6870    -1.8930    -0.2360 C.ar  1 <1>  -0.1500 
 21 C      -11.9060    -3.3600     1.2480 C.ar  1 <1>  -0.1500 
 22 C      -11.7160    -2.0340    -1.1450 C.ar  1 <1>   0.0830 
 23 C      -12.9310    -3.4850     0.3180 C.ar  1 <1>  -0.1500 
 24 O      -11.8270    -1.4840    -2.3570 O.3   1 <1>  -0.3630 
 25 C      -12.8060    -2.8080    -0.8770 C.ar  1 <1>   0.0830 
 26 C      -13.0750    -1.9230    -2.8930 C.3   1 <1>   0.4000 
 27 O      -13.6530    -2.7810    -1.9100 O.3   1 <1>  -0.3620 
 28 H        1.9390    -0.4230    -0.3600 H     1 <1>   0.0800 
 29 H        0.7520     0.8400    -0.6940 H     1 <1>   0.0800 
 30 H        1.3800    -0.1530    -2.0120 H     1 <1>   0.0800 
 31 H       -0.9490    -3.1280     0.2360 H     1 <1>   0.1500 
 32 H       -3.5940    -1.1040    -2.4180 H     1 <1>   0.1500 
 33 H       -2.6610    -4.7940     0.6830 H     1 <1>   0.1500 
 34 H       -5.3200    -2.7750    -1.9670 H     1 <1>   0.1500 
 35 H       -4.8070    -5.7270     0.2870 H     1 <1>   0.0800 
 36 H       -5.5010    -5.3710    -1.2710 H     1 <1>   0.0800 
 37 H       -7.1750    -6.1270     1.0310 H     1 <1>   0.0800 
 38 H       -7.7790    -5.6230    -0.5170 H     1 <1>   0.0800 
 39 H       -5.2580    -2.9650     1.5050 H     1 <1>   0.0800 
 40 H       -5.6280    -4.4670     2.2920 H     1 <1>   0.0800 
 41 H       -8.9650    -5.1850     2.0340 H     1 <1>   0.0800 
 42 H       -9.5690    -4.7170     0.4710 H     1 <1>   0.0800 
 43 H       -7.0250    -1.9900     2.4490 H     1 <1>   0.0800 
 44 H       -7.3970    -3.4740     3.2810 H     1 <1>   0.0800 
 45 H       -8.2170    -2.7870     0.5600 H     1 <1>   0.4500 
 46 H       -9.4260    -1.4290     2.1530 H     1 <1>   0.0800 
 47 H       -9.9790    -2.8960     2.9310 H     1 <1>   0.0800 
 48 H       -9.8510    -1.2660    -0.4890 H     1 <1>   0.1500 
 49 H      -11.9990    -3.8830     2.1850 H     1 <1>   0.1500 
 50 H      -13.8040    -4.0840     0.5080 H     1 <1>   0.1500 
 51 H      -12.9070    -2.4740    -3.8010 H     1 <1>   0.0800 
 52 H      -13.7170    -1.0750    -3.0540 H     1 <1>   0.0800 
@<TRIPOS>BOND
  1   1   2  2   
  2   2   3  1   
  3   2   4  1   
  4   3   5  1   
  5   4   6  ar  
  6   4   7  ar  
  7   5  28  1   
  8   5  29  1   
  9   5  30  1   
 10   6   8  ar  
 11   6  31  1   
 12   7   9  ar  
 13   7  32  1   
 14   8  10  ar  
 15   8  33  1   
 16   9  10  ar  
 17   9  34  1   
 18  10  11  1   
 19  11  12  1   
 20  11  35  1   
 21  11  36  1   
 22  12  13  1   
 23  12  14  1   
 24  13  15  1   
 25  13  37  1   
 26  13  38  1   
 27  14  16  1   
 28  14  39  1   
 29  14  40  1   
 30  15  17  1   
 31  15  41  1   
 32  15  42  1   
 33  16  17  1   
 34  16  43  1   
 35  16  44  1   
 36  17  18  1   
 37  17  45  1   
 38  18  19  1   
 39  18  46  1   
 40  18  47  1   
 41  19  20  ar  
 42  19  21  ar  
 43  20  22  ar  
 44  20  48  1   
 45  21  23  ar  
 46  21  49  1   
 47  22  24  1   
 48  22  25  ar  
 49  23  25  ar  
 50  23  50  1   
 51  24  26  1   
 52  25  27  1   
 53  26  27  1   
 54  26  51  1   
 55  26  52  1   
@<TRIPOS>SUBSTRUCTURE
  1 ****  12 GROUP 4 **** **** 0

# MOE 2024.06 (io_trps.svl 2023.06)
