@<TRIPOS>MOLECULE
NONAME
43 44 1 0 0 
SMALL
USER_CHARGES


@<TRIPOS>ATOM
  1 O       -0.5030    -0.3830     0.6320 O.2   1 <1>  -0.5700 
  2 C       -1.0250    -1.4240     0.2770 C.2   1 <1>   0.5440 
  3 N       -0.2150    -2.5070     0.0140 N.am  1 <1>  -0.6600 
  4 C       -2.4680    -1.4940     0.1610 C.ar  1 <1>   0.0860 
  5 C       -0.7090    -3.9170    -0.0510 C.3   1 <1>   0.1400 
  6 C        1.2730    -2.3660     0.0120 C.3   1 <1>   0.1400 
  7 C       -3.2920    -1.0150     1.1800 C.ar  1 <1>  -0.1500 
  8 C       -3.0970    -2.0290    -0.9640 C.ar  1 <1>  -0.1500 
  9 C        0.3570    -4.9040     0.4690 C.3   1 <1>   0.2000 
 10 C        1.9480    -3.5410    -0.7280 C.3   1 <1>   0.2000 
 11 C       -4.6680    -1.0910     1.0930 C.ar  1 <1>  -0.1500 
 12 C       -4.4730    -2.1080    -1.0530 C.ar  1 <1>  -0.1500 
 13 O        1.5650    -4.7990    -0.2350 O.3   1 <1>  -0.5600 
 14 C       -0.0990    -6.3560     0.3500 C.3   1 <1>  -0.2400 
 15 C        3.4700    -3.4770    -0.6370 C.3   1 <1>  -0.2400 
 16 C       -5.2860    -1.6470    -0.0210 C.ar  1 <1>   0.1170 
 17 N       -6.6820    -1.7020    -0.0660 N.am  1 <1>  -0.5470 
 18 C       -7.5240    -2.5120    -0.7780 C.2   1 <1>   0.5690 
 19 O       -7.1490    -3.3920    -1.5120 O.2   1 <1>  -0.5700 
 20 C       -9.0170    -2.2850    -0.6170 C.3   1 <1>  -0.0990 
 21 C       -9.5310    -2.6540     0.7840 C.3   1 <1>  -0.2400 
 22 H       -0.9520    -4.1650    -1.0690 H     1 <1>   0.0800 
 23 H       -1.5990    -4.0180     0.5440 H     1 <1>   0.0800 
 24 H        1.6260    -2.3250     1.0270 H     1 <1>   0.0800 
 25 H        1.5410    -1.4410    -0.4690 H     1 <1>   0.0800 
 26 H       -2.8300    -0.5780     2.0500 H     1 <1>   0.1500 
 27 H       -2.4930    -2.3820    -1.7810 H     1 <1>   0.1500 
 28 H        0.5660    -4.6820     1.5020 H     1 <1>   0.0800 
 29 H        1.6550    -3.5050    -1.7630 H     1 <1>   0.0800 
 30 H       -5.2680    -0.7160     1.9020 H     1 <1>   0.1500 
 31 H       -4.9180    -2.5260    -1.9380 H     1 <1>   0.1500 
 32 H       -0.2800    -6.6070    -0.6800 H     1 <1>   0.0800 
 33 H       -1.0040    -6.5080     0.9090 H     1 <1>   0.0800 
 34 H        0.6590    -7.0080     0.7450 H     1 <1>   0.0800 
 35 H        3.7850    -3.5420     0.3900 H     1 <1>   0.0800 
 36 H        3.8270    -2.5510    -1.0500 H     1 <1>   0.0800 
 37 H        3.9030    -4.2890    -1.1930 H     1 <1>   0.0800 
 38 H       -7.1560    -1.0670     0.5730 H     1 <1>   0.3700 
 39 H       -9.5310    -2.8830    -1.3480 H     1 <1>   0.0800 
 40 H       -9.2360    -1.2550    -0.8290 H     1 <1>   0.0800 
 41 H       -9.3180    -3.6880     0.9930 H     1 <1>   0.0800 
 42 H      -10.5960    -2.5080     0.8350 H     1 <1>   0.0800 
 43 H       -9.0650    -2.0460     1.5390 H     1 <1>   0.0800 
@<TRIPOS>BOND
  1   1   2  2   
  2   2   3  am  
  3   2   4  1   
  4   3   5  1   
  5   3   6  1   
  6   4   7  ar  
  7   4   8  ar  
  8   5   9  1   
  9   5  22  1   
 10   5  23  1   
 11   6  10  1   
 12   6  24  1   
 13   6  25  1   
 14   7  11  ar  
 15   7  26  1   
 16   8  12  ar  
 17   8  27  1   
 18   9  13  1   
 19   9  14  1   
 20   9  28  1   
 21  10  13  1   
 22  10  15  1   
 23  10  29  1   
 24  11  16  ar  
 25  11  30  1   
 26  12  16  ar  
 27  12  31  1   
 28  14  32  1   
 29  14  33  1   
 30  14  34  1   
 31  15  35  1   
 32  15  36  1   
 33  15  37  1   
 34  16  17  1   
 35  17  18  am  
 36  17  38  1   
 37  18  19  2   
 38  18  20  1   
 39  20  21  1   
 40  20  39  1   
 41  20  40  1   
 42  21  41  1   
 43  21  42  1   
 44  21  43  1   
@<TRIPOS>SUBSTRUCTURE
  1 ****   8 GROUP 4 **** **** 0

# MOE 2024.06 (io_trps.svl 2023.06)
