@<TRIPOS>MOLECULE
NONAME
36 36 1 0 0 
SMALL
USER_CHARGES


@<TRIPOS>ATOM
  1 N       -9.1500     0.2320     0.2430 N.4   1 <1>  -0.9590 
  2 C       -8.3470     1.4260    -0.2040 C.3   1 <1>   0.5030 
  3 C       -8.4420    -1.0730     0.4600 C.3   1 <1>   0.5030 
  4 C      -10.4750     0.0470    -0.4690 C.3   1 <1>   0.2630 
  5 C       -7.0210     1.0230    -0.8770 C.3   1 <1>  -0.1600 
  6 C       -8.0930     2.2730     1.0480 C.3   1 <1>  -0.2400 
  7 C       -9.1130     2.3280    -1.1880 C.3   1 <1>  -0.2400 
  8 C       -6.9840    -0.8350     0.8820 C.3   1 <1>  -0.1600 
  9 C       -9.1560    -1.7890     1.6100 C.3   1 <1>  -0.2400 
 10 C       -8.4940    -1.9720    -0.7890 C.3   1 <1>  -0.2400 
 11 C       -6.1940    -0.0560    -0.1680 C.3   1 <1>   0.4230 
 12 N       -4.9810     0.5260     0.4520 N.4   1 <1>  -0.8530 
 13 H       -9.4390     0.5000     1.1920 H     1 <1>   0.4500 
 14 H      -10.3150    -0.1570    -1.5150 H     1 <1>   0.0800 
 15 H      -11.0830     0.9320    -0.3800 H     1 <1>   0.0800 
 16 H      -11.0270    -0.7760    -0.0430 H     1 <1>   0.0800 
 17 H       -6.4250     1.9000    -1.0590 H     1 <1>   0.0800 
 18 H       -7.2660     0.6380    -1.8520 H     1 <1>   0.0800 
 19 H       -7.5550     1.7520     1.8150 H     1 <1>   0.0800 
 20 H       -9.0250     2.6160     1.4650 H     1 <1>   0.0800 
 21 H       -7.5250     3.1510     0.7920 H     1 <1>   0.0800 
 22 H       -9.3390     1.8180    -2.1080 H     1 <1>   0.0800 
 23 H       -8.5130     3.1840    -1.4470 H     1 <1>   0.0800 
 24 H      -10.0220     2.7100    -0.7560 H     1 <1>   0.0800 
 25 H       -6.5060    -1.7890     1.0260 H     1 <1>   0.0800 
 26 H       -6.9690    -0.3370     1.8340 H     1 <1>   0.0800 
 27 H       -9.1560    -1.1930     2.5060 H     1 <1>   0.0800 
 28 H       -8.6560    -2.7150     1.8360 H     1 <1>   0.0800 
 29 H      -10.1720    -2.0370     1.3590 H     1 <1>   0.0800 
 30 H       -8.1550    -1.4690    -1.6740 H     1 <1>   0.0800 
 31 H       -9.4880    -2.3430    -0.9680 H     1 <1>   0.0800 
 32 H       -7.8740    -2.8400    -0.6440 H     1 <1>   0.0800 
 33 H       -5.8770    -0.7570    -0.9270 H     1 <1>   0.0800 
 34 H       -5.1940     1.2240     1.1730 H     1 <1>   0.4500 
 35 H       -4.3860     0.9810    -0.2540 H     1 <1>   0.4500 
 36 H       -4.4020    -0.2030     0.8890 H     1 <1>   0.4500 
@<TRIPOS>BOND
  1   1   2  1   
  2   1   3  1   
  3   1   4  1   
  4   1  13  1   
  5   2   5  1   
  6   2   6  1   
  7   2   7  1   
  8   3   8  1   
  9   3   9  1   
 10   3  10  1   
 11   4  14  1   
 12   4  15  1   
 13   4  16  1   
 14   5  11  1   
 15   5  17  1   
 16   5  18  1   
 17   6  19  1   
 18   6  20  1   
 19   6  21  1   
 20   7  22  1   
 21   7  23  1   
 22   7  24  1   
 23   8  11  1   
 24   8  25  1   
 25   8  26  1   
 26   9  27  1   
 27   9  28  1   
 28   9  29  1   
 29  10  30  1   
 30  10  31  1   
 31  10  32  1   
 32  11  12  1   
 33  11  33  1   
 34  12  34  1   
 35  12  35  1   
 36  12  36  1   
@<TRIPOS>SUBSTRUCTURE
  1 ****   1 GROUP 4 **** **** 0

# MOE 2024.06 (io_trps.svl 2023.06)
