@<TRIPOS>MOLECULE
NONAME
43 44 1 0 0 
SMALL
USER_CHARGES


@<TRIPOS>ATOM
  1 CL       0.2420     2.2090     2.2960 Cl    1 <1>  -0.1770 
  2 C       -1.3280     2.3470     1.5470 C.ar  1 <1>   0.1770 
  3 C       -2.4290     2.6410     2.3270 C.ar  1 <1>  -0.1500 
  4 C       -1.4450     2.1600     0.1820 C.ar  1 <1>  -0.1500 
  5 C       -3.6720     2.7490     1.7270 C.ar  1 <1>  -0.1500 
  6 C       -2.6920     2.2700    -0.4120 C.ar  1 <1>  -0.1500 
  7 C       -3.8110     2.5650     0.3570 C.ar  1 <1>  -0.1430 
  8 C       -5.1840     2.6870    -0.2950 C.3   1 <1>   0.3390 
  9 N       -6.1780     1.8150     0.3410 N.am  1 <1>  -0.8490 
 10 S       -7.6920     2.0380    -0.3800 S.o2  1 <1>   1.3330 
 11 C       -5.7340     0.3890     0.3400 C.3   1 <1>   0.2570 
 12 O       -7.7950     1.0800    -1.4570 O.2   1 <1>  -0.6500 
 13 O       -7.8200     3.4420    -0.6920 O.2   1 <1>  -0.6500 
 14 C       -8.8860     1.6800     0.8940 C.3   1 <1>  -0.1350 
 15 C       -6.6430    -0.5980     1.1010 C.2   1 <1>   0.5690 
 16 O       -6.7970    -0.3940     2.2860 O.2   1 <1>  -0.5700 
 17 N       -7.2730    -1.6570     0.4840 N.am  1 <1>  -0.6600 
 18 C       -8.2360    -2.5000     1.2630 C.3   1 <1>   0.1400 
 19 C       -7.0840    -2.0250    -0.9570 C.3   1 <1>   0.1400 
 20 C       -9.3860    -2.9660     0.3640 C.3   1 <1>  -0.1600 
 21 C       -7.4390    -3.4950    -1.2050 C.3   1 <1>  -0.1600 
 22 C       -8.8930    -3.8140    -0.8200 C.3   1 <1>  -0.1600 
 23 H       -2.3140     2.7800     3.3870 H     1 <1>   0.1500 
 24 H       -0.5720     1.9340    -0.4020 H     1 <1>   0.1500 
 25 H       -4.5390     2.9720     2.3280 H     1 <1>   0.1500 
 26 H       -2.7820     2.1270    -1.4760 H     1 <1>   0.1500 
 27 H       -5.1210     2.4570    -1.3460 H     1 <1>   0.0800 
 28 H       -5.4920     3.7150    -0.2020 H     1 <1>   0.0800 
 29 H       -4.7770     0.3150     0.8210 H     1 <1>   0.0800 
 30 H       -5.5990     0.0700    -0.6750 H     1 <1>   0.0800 
 31 H       -8.9110     0.6340     1.1210 H     1 <1>   0.0800 
 32 H       -9.8640     1.9730     0.5670 H     1 <1>   0.0800 
 33 H       -8.6450     2.2230     1.7870 H     1 <1>   0.0800 
 34 H       -8.6400    -1.9390     2.0890 H     1 <1>   0.0800 
 35 H       -7.7130    -3.3510     1.6630 H     1 <1>   0.0800 
 36 H       -6.0610    -1.8700    -1.2490 H     1 <1>   0.0800 
 37 H       -7.7150    -1.4030    -1.5670 H     1 <1>   0.0800 
 38 H       -9.8980    -2.0940    -0.0040 H     1 <1>   0.0800 
 39 H      -10.0910    -3.5340     0.9450 H     1 <1>   0.0800 
 40 H       -6.7680    -4.1080    -0.6270 H     1 <1>   0.0800 
 41 H       -7.2810    -3.7350    -2.2420 H     1 <1>   0.0800 
 42 H       -9.5380    -3.6360    -1.6630 H     1 <1>   0.0800 
 43 H       -8.9620    -4.8600    -0.5730 H     1 <1>   0.0800 
@<TRIPOS>BOND
  1   1   2  1   
  2   2   3  ar  
  3   2   4  ar  
  4   3   5  ar  
  5   3  23  1   
  6   4   6  ar  
  7   4  24  1   
  8   5   7  ar  
  9   5  25  1   
 10   6   7  ar  
 11   6  26  1   
 12   7   8  1   
 13   8   9  1   
 14   8  27  1   
 15   8  28  1   
 16   9  10  am  
 17   9  11  1   
 18  10  12  2   
 19  10  13  2   
 20  10  14  1   
 21  11  15  1   
 22  11  29  1   
 23  11  30  1   
 24  14  31  1   
 25  14  32  1   
 26  14  33  1   
 27  15  16  2   
 28  15  17  am  
 29  17  18  1   
 30  17  19  1   
 31  18  20  1   
 32  18  34  1   
 33  18  35  1   
 34  19  21  1   
 35  19  36  1   
 36  19  37  1   
 37  20  22  1   
 38  20  38  1   
 39  20  39  1   
 40  21  22  1   
 41  21  40  1   
 42  21  41  1   
 43  22  42  1   
 44  22  43  1   
@<TRIPOS>SUBSTRUCTURE
  1 ****  11 GROUP 4 **** **** 0

# MOE 2024.06 (io_trps.svl 2023.06)
