@<TRIPOS>MOLECULE
NONAME
26 27 1 0 0 
SMALL
USER_CHARGES


@<TRIPOS>ATOM
  1 BR      -1.5710    -0.9490     2.3510 Br    1 <1>  -0.1110 
  2 C       -0.6650    -2.0980     1.1020 C.ar  1 <1>   0.1110 
  3 C        0.5330    -2.6730     1.4780 C.ar  1 <1>  -0.1500 
  4 C       -1.2400    -2.3150    -0.1360 C.ar  1 <1>  -0.1500 
  5 C        1.2110    -3.5050     0.5870 C.ar  1 <1>   0.0860 
  6 C       -0.5820    -3.1460    -1.0260 C.ar  1 <1>  -0.1500 
  7 C        0.6210    -3.7280    -0.6600 C.ar  1 <1>   0.1770 
  8 C        2.4690    -4.1050     0.9630 C.2   1 <1>   0.5440 
  9 CL       1.3960    -4.7750    -1.8240 Cl    1 <1>  -0.1770 
 10 O        2.4840    -4.9720     1.8150 O.2   1 <1>  -0.5700 
 11 N        3.6570    -3.6880     0.4140 N.am  1 <1>  -0.6600 
 12 C        3.8290    -2.5620    -0.5280 C.3   1 <1>   0.1400 
 13 C        4.9560    -4.2990     0.7630 C.3   1 <1>   0.1400 
 14 C        5.3290    -2.2920    -0.5300 C.3   1 <1>  -0.1600 
 15 C        5.9620    -3.6340    -0.1710 C.3   1 <1>  -0.1600 
 16 H        0.9440    -2.4860     2.4540 H     1 <1>   0.1500 
 17 H       -2.1760    -1.8480    -0.3920 H     1 <1>   0.1500 
 18 H       -0.9970    -3.3460    -1.9990 H     1 <1>   0.1500 
 19 H        3.2720    -1.6970    -0.2100 H     1 <1>   0.0800 
 20 H        3.5060    -2.8680    -1.5090 H     1 <1>   0.0800 
 21 H        4.9250    -5.3660     0.6260 H     1 <1>   0.0800 
 22 H        5.1830    -4.0740     1.7920 H     1 <1>   0.0800 
 23 H        5.5550    -1.5670     0.2320 H     1 <1>   0.0800 
 24 H        5.6680    -1.9200    -1.4810 H     1 <1>   0.0800 
 25 H        6.0650    -4.2390    -1.0560 H     1 <1>   0.0800 
 26 H        6.9260    -3.5250     0.2930 H     1 <1>   0.0800 
@<TRIPOS>BOND
  1   1   2  1   
  2   2   3  ar  
  3   2   4  ar  
  4   3   5  ar  
  5   3  16  1   
  6   4   6  ar  
  7   4  17  1   
  8   5   7  ar  
  9   5   8  1   
 10   6   7  ar  
 11   6  18  1   
 12   7   9  1   
 13   8  10  2   
 14   8  11  am  
 15  11  12  1   
 16  11  13  1   
 17  12  14  1   
 18  12  19  1   
 19  12  20  1   
 20  13  15  1   
 21  13  21  1   
 22  13  22  1   
 23  14  15  1   
 24  14  23  1   
 25  14  24  1   
 26  15  25  1   
 27  15  26  1   
@<TRIPOS>SUBSTRUCTURE
  1 ****   5 GROUP 4 **** **** 0

# MOE 2024.06 (io_trps.svl 2023.06)
