@<TRIPOS>MOLECULE
NONAME
46 48 1 0 0 
SMALL
USER_CHARGES


@<TRIPOS>ATOM
  1 CL      -0.3150    -0.3340    -0.1860 Cl    1 <1>  -0.1770 
  2 C        1.2630    -1.0780    -0.2290 C.ar  1 <1>   0.1770 
  3 C        1.4160    -2.3070    -0.8440 C.ar  1 <1>  -0.1500 
  4 C        2.3350    -0.4230     0.3540 C.ar  1 <1>  -0.1500 
  5 C        2.6700    -2.8950    -0.8770 C.ar  1 <1>  -0.1500 
  6 C        3.5900    -1.0100     0.3230 C.ar  1 <1>  -0.1500 
  7 C        3.7460    -2.2440    -0.2950 C.ar  1 <1>   0.1020 
  8 S        5.3390    -3.0800    -0.3840 S.3   1 <1>  -0.3320 
  9 C        6.5640    -1.9880     0.4650 C.3   1 <1>   0.2140 
 10 C        7.9300    -2.6520     0.3950 C.ar  1 <1>  -0.1430 
 11 C        8.5950    -2.7580    -0.8150 C.ar  1 <1>  -0.1500 
 12 C        8.5250    -3.1650     1.5370 C.ar  1 <1>  -0.1500 
 13 C        9.8390    -3.3590    -0.8790 C.ar  1 <1>  -0.1500 
 14 C        9.7700    -3.7630     1.4660 C.ar  1 <1>  -0.1500 
 15 C       10.4640    -3.8680     0.2610 C.ar  1 <1>   0.0860 
 16 C       11.7810    -4.4810     0.2040 C.2   1 <1>   0.5440 
 17 O       12.1450    -5.2730     1.0540 O.2   1 <1>  -0.5700 
 18 N       12.7000    -4.1450    -0.7650 N.am  1 <1>  -0.6600 
 19 C       13.1540    -2.7300    -0.8670 C.3   1 <1>   0.1400 
 20 C       13.7600    -5.1330    -1.1210 C.3   1 <1>   0.1400 
 21 C       14.4040    -2.5150     0.0150 C.3   1 <1>   0.3430 
 22 C       14.9880    -4.9280    -0.2150 C.3   1 <1>   0.3430 
 23 N       15.5030    -3.5080    -0.2790 N.4   1 <1>  -0.9590 
 24 C       16.6470    -3.3270     0.6630 C.3   1 <1>   0.2630 
 25 H        0.5660    -2.7930    -1.2890 H     1 <1>   0.1500 
 26 H        2.1820     0.5320     0.8250 H     1 <1>   0.1500 
 27 H        2.8160    -3.8500    -1.3490 H     1 <1>   0.1500 
 28 H        4.4160    -0.4980     0.7760 H     1 <1>   0.1500 
 29 H        6.2320    -1.8640     1.4800 H     1 <1>   0.0800 
 30 H        6.5650    -1.0440    -0.0490 H     1 <1>   0.0800 
 31 H        8.1370    -2.3800    -1.7130 H     1 <1>   0.1500 
 32 H        8.0200    -3.1060     2.4860 H     1 <1>   0.1500 
 33 H       10.3280    -3.4430    -1.8330 H     1 <1>   0.1500 
 34 H       10.2140    -4.1630     2.3620 H     1 <1>   0.1500 
 35 H       12.3720    -2.0660    -0.5400 H     1 <1>   0.0800 
 36 H       13.3770    -2.4960    -1.8930 H     1 <1>   0.0800 
 37 H       14.0310    -5.0210    -2.1560 H     1 <1>   0.0800 
 38 H       13.3810    -6.1340    -0.9870 H     1 <1>   0.0800 
 39 H       14.1040    -2.6110     1.0460 H     1 <1>   0.0800 
 40 H       14.7690    -1.5110    -0.1290 H     1 <1>   0.0800 
 41 H       15.7630    -5.6160    -0.5080 H     1 <1>   0.0800 
 42 H       14.6970    -5.1650     0.7960 H     1 <1>   0.0800 
 43 H       15.8310    -3.3410    -1.2400 H     1 <1>   0.4500 
 44 H       16.3270    -3.5050     1.6780 H     1 <1>   0.0800 
 45 H       17.0340    -2.3230     0.5950 H     1 <1>   0.0800 
 46 H       17.4410    -4.0170     0.4270 H     1 <1>   0.0800 
@<TRIPOS>BOND
  1   1   2  1   
  2   2   3  ar  
  3   2   4  ar  
  4   3   5  ar  
  5   3  25  1   
  6   4   6  ar  
  7   4  26  1   
  8   5   7  ar  
  9   5  27  1   
 10   6   7  ar  
 11   6  28  1   
 12   7   8  1   
 13   8   9  1   
 14   9  10  1   
 15   9  29  1   
 16   9  30  1   
 17  10  11  ar  
 18  10  12  ar  
 19  11  13  ar  
 20  11  31  1   
 21  12  14  ar  
 22  12  32  1   
 23  13  15  ar  
 24  13  33  1   
 25  14  15  ar  
 26  14  34  1   
 27  15  16  1   
 28  16  17  2   
 29  16  18  am  
 30  18  19  1   
 31  18  20  1   
 32  19  21  1   
 33  19  35  1   
 34  19  36  1   
 35  20  22  1   
 36  20  37  1   
 37  20  38  1   
 38  21  23  1   
 39  21  39  1   
 40  21  40  1   
 41  22  23  1   
 42  22  41  1   
 43  22  42  1   
 44  23  24  1   
 45  23  43  1   
 46  24  44  1   
 47  24  45  1   
 48  24  46  1   
@<TRIPOS>SUBSTRUCTURE
  1 ****  11 GROUP 4 **** **** 0

# MOE 2024.06 (io_trps.svl 2023.06)
