@<TRIPOS>MOLECULE
NONAME
31 31 1 0 0 
SMALL
USER_CHARGES


@<TRIPOS>ATOM
  1 O        0.4600     0.2100     0.3430 O.2   1 <1>  -0.5700 
  2 C        1.3100    -0.5500    -0.0710 C.2   1 <1>   0.4950 
  3 C        0.9930    -1.8660    -0.5160 C.2   1 <1>  -0.1360 
  4 C        2.7630     0.0090    -0.0910 C.3   1 <1>   0.0610 
  5 C       -0.1980    -2.5350    -0.5430 C.2   1 <1>   0.0720 
  6 C        2.8250     1.2410    -1.0150 C.3   1 <1>  -0.2400 
  7 C        3.1640     0.4510     1.3300 C.3   1 <1>  -0.2400 
  8 C        3.8420    -0.9830    -0.5780 C.3   1 <1>  -0.2400 
  9 N       -0.2350    -3.8220    -1.0200 N.pl3 1 <1>  -0.9000 
 10 C       -1.4710    -2.0140    -0.1020 C.ar  1 <1>   0.0280 
 11 C       -2.0860    -0.9160    -0.6820 C.ar  1 <1>  -0.1500 
 12 C       -2.1860    -2.6030     0.9300 C.ar  1 <1>  -0.1500 
 13 C       -3.3190    -0.4860    -0.2320 C.ar  1 <1>   0.1600 
 14 C       -3.4170    -2.0990     1.3050 C.ar  1 <1>   0.1600 
 15 N       -4.0080    -1.0560     0.7450 N.ar  1 <1>  -0.6200 
 16 H        1.8230    -2.4250    -0.8870 H     1 <1>   0.1500 
 17 H        3.8140     1.6650    -1.0280 H     1 <1>   0.0800 
 18 H        2.1390     1.9980    -0.6760 H     1 <1>   0.0800 
 19 H        2.5540     0.9700    -2.0200 H     1 <1>   0.0800 
 20 H        3.1290    -0.3850     2.0060 H     1 <1>   0.0800 
 21 H        2.4840     1.2030     1.6950 H     1 <1>   0.0800 
 22 H        4.1570     0.8630     1.3430 H     1 <1>   0.0800 
 23 H        4.8160    -0.5260    -0.5440 H     1 <1>   0.0800 
 24 H        3.6560    -1.2820    -1.5940 H     1 <1>   0.0800 
 25 H        3.8660    -1.8570     0.0490 H     1 <1>   0.0800 
 26 H        0.5760    -4.3150    -1.4040 H     1 <1>   0.4000 
 27 H       -1.1250    -4.3230    -1.1220 H     1 <1>   0.4000 
 28 H       -1.5920    -0.3940    -1.4800 H     1 <1>   0.1500 
 29 H       -1.7740    -3.4540     1.4370 H     1 <1>   0.1500 
 30 H       -3.7650     0.3750    -0.7000 H     1 <1>   0.1500 
 31 H       -3.9460    -2.5780     2.1110 H     1 <1>   0.1500 
@<TRIPOS>BOND
  1   1   2  2   
  2   2   3  1   
  3   2   4  1   
  4   3   5  2   
  5   3  16  1   
  6   4   6  1   
  7   4   7  1   
  8   4   8  1   
  9   5   9  1   
 10   5  10  1   
 11   6  17  1   
 12   6  18  1   
 13   6  19  1   
 14   7  20  1   
 15   7  21  1   
 16   7  22  1   
 17   8  23  1   
 18   8  24  1   
 19   8  25  1   
 20   9  26  1   
 21   9  27  1   
 22  10  11  ar  
 23  10  12  ar  
 24  11  13  ar  
 25  11  28  1   
 26  12  14  ar  
 27  12  29  1   
 28  13  15  ar  
 29  13  30  1   
 30  14  15  ar  
 31  14  31  1   
@<TRIPOS>SUBSTRUCTURE
  1 ****   3 GROUP 4 **** **** 0

# MOE 2024.06 (io_trps.svl 2023.06)
