@<TRIPOS>MOLECULE
NONAME
47 48 1 0 0 
SMALL
USER_CHARGES


@<TRIPOS>ATOM
  1 O       -0.8880    -0.2220    -0.8260 O.3   1 <1>  -0.3630 
  2 C       -1.9300     0.5300    -0.3930 C.ar  1 <1>   0.0830 
  3 C       -0.5550    -1.4430    -0.2040 C.3   1 <1>   0.0400 
  4 C       -2.1530     1.7270    -1.0530 C.ar  1 <1>  -0.1500 
  5 C       -2.7650     0.1670     0.6590 C.ar  1 <1>  -0.1500 
  6 C       -3.1950     2.5550    -0.6750 C.ar  1 <1>  -0.1500 
  7 C       -3.8080     0.9970     1.0350 C.ar  1 <1>  -0.1500 
  8 C       -4.0310     2.1930     0.3700 C.ar  1 <1>  -0.1430 
  9 C       -5.1810     3.0980     0.7750 C.3   1 <1>  -0.0170 
 10 C       -6.4020     2.7940    -0.1070 C.3   1 <1>  -0.1600 
 11 C       -7.6630     3.5610     0.3070 C.3   1 <1>   0.4230 
 12 N       -8.7770     3.0550    -0.5160 N.4   1 <1>  -0.9060 
 13 C       -7.5310     5.0670     0.0790 C.3   1 <1>  -0.2400 
 14 C      -10.1240     3.4090     0.0160 C.3   1 <1>   0.3430 
 15 C      -11.2260     2.8250    -0.8650 C.3   1 <1>  -0.0170 
 16 C      -12.5660     3.2180    -0.2750 C.ar  1 <1>  -0.1430 
 17 C      -13.1770     4.4030    -0.6570 C.ar  1 <1>  -0.1500 
 18 C      -13.1840     2.4030     0.6610 C.ar  1 <1>  -0.1500 
 19 C      -14.3900     4.7720    -0.1030 C.ar  1 <1>  -0.1500 
 20 C      -14.3970     2.7720     1.2140 C.ar  1 <1>  -0.1500 
 21 C      -15.0000     3.9580     0.8340 C.ar  1 <1>  -0.1500 
 22 H        0.3030    -1.8510    -0.7070 H     1 <1>   0.0800 
 23 H       -1.3870    -2.1190    -0.2940 H     1 <1>   0.0800 
 24 H       -0.3180    -1.2550     0.8280 H     1 <1>   0.0800 
 25 H       -1.5020     2.0030    -1.8630 H     1 <1>   0.1500 
 26 H       -2.6180    -0.7520     1.1940 H     1 <1>   0.1500 
 27 H       -3.3440     3.4800    -1.2030 H     1 <1>   0.1500 
 28 H       -4.4410     0.7010     1.8530 H     1 <1>   0.1500 
 29 H       -4.8690     4.1220     0.6640 H     1 <1>   0.0800 
 30 H       -5.4150     2.9340     1.8130 H     1 <1>   0.0800 
 31 H       -6.5930     1.7370    -0.0340 H     1 <1>   0.0800 
 32 H       -6.1500     3.0190    -1.1290 H     1 <1>   0.0800 
 33 H       -7.8650     3.3660     1.3500 H     1 <1>   0.0800 
 34 H       -8.6950     2.0340    -0.5780 H     1 <1>   0.4500 
 35 H       -8.6660     3.4200    -1.4690 H     1 <1>   0.4500 
 36 H       -7.2900     5.2860    -0.9460 H     1 <1>   0.0800 
 37 H       -6.7460     5.4650     0.6960 H     1 <1>   0.0800 
 38 H       -8.4320     5.5860     0.3530 H     1 <1>   0.0800 
 39 H      -10.2400     4.4810     0.0530 H     1 <1>   0.0800 
 40 H      -10.2380     3.0280     1.0180 H     1 <1>   0.0800 
 41 H      -11.1540     1.7530    -0.9000 H     1 <1>   0.0800 
 42 H      -11.1520     3.2110    -1.8670 H     1 <1>   0.0800 
 43 H      -12.7250     5.0510    -1.3880 H     1 <1>   0.1500 
 44 H      -12.7370     1.4730     0.9680 H     1 <1>   0.1500 
 45 H      -14.8640     5.6920    -0.4010 H     1 <1>   0.1500 
 46 H      -14.8770     2.1380     1.9400 H     1 <1>   0.1500 
 47 H      -15.9450     4.2450     1.2650 H     1 <1>   0.1500 
@<TRIPOS>BOND
  1   1   2  1   
  2   1   3  1   
  3   2   4  ar  
  4   2   5  ar  
  5   3  22  1   
  6   3  23  1   
  7   3  24  1   
  8   4   6  ar  
  9   4  25  1   
 10   5   7  ar  
 11   5  26  1   
 12   6   8  ar  
 13   6  27  1   
 14   7   8  ar  
 15   7  28  1   
 16   8   9  1   
 17   9  10  1   
 18   9  29  1   
 19   9  30  1   
 20  10  11  1   
 21  10  31  1   
 22  10  32  1   
 23  11  12  1   
 24  11  13  1   
 25  11  33  1   
 26  12  14  1   
 27  12  34  1   
 28  12  35  1   
 29  13  36  1   
 30  13  37  1   
 31  13  38  1   
 32  14  15  1   
 33  14  39  1   
 34  14  40  1   
 35  15  16  1   
 36  15  41  1   
 37  15  42  1   
 38  16  17  ar  
 39  16  18  ar  
 40  17  19  ar  
 41  17  43  1   
 42  18  20  ar  
 43  18  44  1   
 44  19  21  ar  
 45  19  45  1   
 46  20  21  ar  
 47  20  46  1   
 48  21  47  1   
@<TRIPOS>SUBSTRUCTURE
  1 ****  11 GROUP 4 **** **** 0

# MOE 2024.06 (io_trps.svl 2023.06)
