@<TRIPOS>MOLECULE
NONAME
40 41 1 0 0 
SMALL
USER_CHARGES


@<TRIPOS>ATOM
  1 O       -1.2150    -0.4330     0.7280 O.3   1 <1>  -0.3630 
  2 C       -1.9490     0.4280    -0.0320 C.ar  1 <1>   0.0830 
  3 C       -0.1590    -1.1080     0.0740 C.3   1 <1>   0.0400 
  4 C       -3.2960     0.1660    -0.3430 C.ar  1 <1>   0.0830 
  5 C       -1.3530     1.6000    -0.5120 C.ar  1 <1>   0.0820 
  6 O       -4.0350    -0.9040     0.0970 O.3   1 <1>  -0.3630 
  7 C       -3.9900     1.0550    -1.1640 C.ar  1 <1>  -0.1430 
  8 O       -0.0790     1.9550    -0.2110 O.3   1 <1>  -0.3630 
  9 C       -2.0560     2.4600    -1.3340 C.ar  1 <1>  -0.1500 
 10 C       -3.5150    -1.9490     0.8940 C.3   1 <1>   0.0400 
 11 C       -3.3700     2.1900    -1.6620 C.ar  1 <1>  -0.1500 
 12 C       -5.4410     0.7890    -1.5220 C.3   1 <1>   0.4860 
 13 C        0.1750     2.3320     1.1250 C.3   1 <1>   0.0400 
 14 N       -6.2440     0.8330    -0.2760 N.4   1 <1>  -0.9590 
 15 C       -7.6540     0.4240    -0.4280 C.3   1 <1>   0.3430 
 16 C       -6.2390     2.1430     0.4100 C.3   1 <1>   0.3430 
 17 C       -8.3320     0.9570     0.8280 C.3   1 <1>  -0.1600 
 18 C       -7.4190     2.0640     1.3680 C.3   1 <1>  -0.1600 
 19 H        0.2260    -1.8570     0.7410 H     1 <1>   0.0800 
 20 H        0.6180    -0.4080    -0.1720 H     1 <1>   0.0800 
 21 H       -0.5390    -1.5700    -0.8200 H     1 <1>   0.0800 
 22 H       -1.5660     3.3410    -1.7110 H     1 <1>   0.1500 
 23 H       -3.1540    -1.5400     1.8210 H     1 <1>   0.0800 
 24 H       -2.7230    -2.4390     0.3570 H     1 <1>   0.0800 
 25 H       -4.3050    -2.6520     1.0910 H     1 <1>   0.0800 
 26 H       -3.8940     2.8750    -2.3080 H     1 <1>   0.1500 
 27 H       -5.5160    -0.1870    -1.9740 H     1 <1>   0.0800 
 28 H       -5.7950     1.5260    -2.2240 H     1 <1>   0.0800 
 29 H        1.1970     2.6580     1.1930 H     1 <1>   0.0800 
 30 H        0.0170     1.4880     1.7710 H     1 <1>   0.0800 
 31 H       -0.4870     3.1370     1.3910 H     1 <1>   0.0800 
 32 H       -5.7690     0.1620     0.3510 H     1 <1>   0.4500 
 33 H       -7.7530    -0.6470    -0.5130 H     1 <1>   0.0800 
 34 H       -8.0830     0.8970    -1.2970 H     1 <1>   0.0800 
 35 H       -6.4030     2.9330    -0.3050 H     1 <1>   0.0800 
 36 H       -5.3080     2.3160     0.9280 H     1 <1>   0.0800 
 37 H       -8.4280     0.1650     1.5520 H     1 <1>   0.0800 
 38 H       -9.3150     1.3270     0.5950 H     1 <1>   0.0800 
 39 H       -7.9260     3.0130     1.4180 H     1 <1>   0.0800 
 40 H       -7.0680     1.8130     2.3540 H     1 <1>   0.0800 
@<TRIPOS>BOND
  1   1   2  1   
  2   1   3  1   
  3   2   4  ar  
  4   2   5  ar  
  5   3  19  1   
  6   3  20  1   
  7   3  21  1   
  8   4   6  1   
  9   4   7  ar  
 10   5   8  1   
 11   5   9  ar  
 12   6  10  1   
 13   7  11  ar  
 14   7  12  1   
 15   8  13  1   
 16   9  11  ar  
 17   9  22  1   
 18  10  23  1   
 19  10  24  1   
 20  10  25  1   
 21  11  26  1   
 22  12  14  1   
 23  12  27  1   
 24  12  28  1   
 25  13  29  1   
 26  13  30  1   
 27  13  31  1   
 28  14  15  1   
 29  14  16  1   
 30  14  32  1   
 31  15  17  1   
 32  15  33  1   
 33  15  34  1   
 34  16  18  1   
 35  16  35  1   
 36  16  36  1   
 37  17  18  1   
 38  17  37  1   
 39  17  38  1   
 40  18  39  1   
 41  18  40  1   
@<TRIPOS>SUBSTRUCTURE
  1 ****   4 GROUP 4 **** **** 0

# MOE 2024.06 (io_trps.svl 2023.06)
