@<TRIPOS>MOLECULE
NONAME
48 50 1 0 0 
SMALL
USER_CHARGES


@<TRIPOS>ATOM
  1 O        0.4850     1.2560     0.1720 O.2   1 <1>  -0.5700 
  2 C        1.6970     1.3220     0.0480 C.2   1 <1>   0.6900 
  3 N        2.3460     2.5240     0.3080 N.am  1 <1>  -0.4200 
  4 N        2.4160     0.2110    -0.3520 N.am  1 <1>  -0.4230 
  5 C        3.7140     2.6400     0.1350 C.2   1 <1>   0.7150 
  6 C        1.5420     3.7040     0.7430 C.3   1 <1>   0.0600 
  7 C        3.7930     0.3210    -0.5120 C.2   1 <1>   0.2900 
  8 C        1.7750    -1.1000    -0.6380 C.3   1 <1>   0.0600 
  9 O        4.2850     3.7010     0.3280 O.2   1 <1>  -0.5700 
 10 C        4.4280     1.4880    -0.2780 C.2   1 <1>  -0.2370 
 11 N        4.6330    -0.6450    -0.9010 N.2   1 <1>  -0.5650 
 12 N        5.7420     1.2530    -0.5260 N.pl3 1 <1>   0.0480 
 13 C        5.7860    -0.0470    -0.9000 C.2   1 <1>   0.0360 
 14 C        6.8350     2.2520    -0.4140 C.3   1 <1>   0.0960 
 15 C        8.2310     1.6140    -0.3420 C.3   1 <1>  -0.1600 
 16 C        9.2940     2.6940    -0.1190 C.3   1 <1>   0.1100 
 17 N       10.6500     2.1260    -0.1980 N.3   1 <1>  -0.8100 
 18 C       11.6550     3.2020    -0.3900 C.3   1 <1>   0.1100 
 19 C       10.9990     1.3090     0.9950 C.3   1 <1>   0.1100 
 20 C       13.0990     2.6570    -0.5210 C.3   1 <1>   0.3430 
 21 C       12.4670     0.8090     0.9790 C.3   1 <1>   0.3430 
 22 N       13.1480     1.1730    -0.3060 N.4   1 <1>  -0.9590 
 23 C       14.5190     0.6000    -0.4370 C.3   1 <1>   0.2630 
 24 H        0.7810     3.3950     1.4390 H     1 <1>   0.0800 
 25 H        1.0690     4.1500    -0.1150 H     1 <1>   0.0800 
 26 H        2.1630     4.4390     1.2250 H     1 <1>   0.0800 
 27 H        0.7220    -1.0730    -0.4220 H     1 <1>   0.0800 
 28 H        2.2360    -1.8620    -0.0340 H     1 <1>   0.0800 
 29 H        1.9140    -1.3450    -1.6760 H     1 <1>   0.0800 
 30 H        6.7030    -0.5370    -1.1740 H     1 <1>   0.1500 
 31 H        6.6660     2.8310     0.4770 H     1 <1>   0.0800 
 32 H        6.7730     2.9150    -1.2590 H     1 <1>   0.0800 
 33 H        8.4410     1.1070    -1.2670 H     1 <1>   0.0800 
 34 H        8.2470     0.9120     0.4710 H     1 <1>   0.0800 
 35 H        9.1460     3.1790     0.8330 H     1 <1>   0.0800 
 36 H        9.1810     3.4390    -0.8910 H     1 <1>   0.0800 
 37 H       11.6140     3.8900     0.4380 H     1 <1>   0.0800 
 38 H       11.4190     3.7590    -1.2810 H     1 <1>   0.0800 
 39 H       10.3550     0.4480     1.0410 H     1 <1>   0.0800 
 40 H       10.8350     1.8800     1.8940 H     1 <1>   0.0800 
 41 H       13.7310     3.1560     0.1940 H     1 <1>   0.0800 
 42 H       13.4710     2.8930    -1.5050 H     1 <1>   0.0800 
 43 H       12.4720    -0.2600     1.1110 H     1 <1>   0.0800 
 44 H       12.9960     1.2440     1.8100 H     1 <1>   0.0800 
 45 H       12.5190     0.7970    -1.0350 H     1 <1>   0.4500 
 46 H       15.1670     0.9990     0.3260 H     1 <1>   0.0800 
 47 H       14.9330     0.8420    -1.4030 H     1 <1>   0.0800 
 48 H       14.4870    -0.4730    -0.3380 H     1 <1>   0.0800 
@<TRIPOS>BOND
  1   1   2  2   
  2   2   3  am  
  3   2   4  am  
  4   3   5  am  
  5   3   6  1   
  6   4   7  1   
  7   4   8  1   
  8   5   9  2   
  9   5  10  1   
 10   6  24  1   
 11   6  25  1   
 12   6  26  1   
 13   7  10  2   
 14   7  11  1   
 15   8  27  1   
 16   8  28  1   
 17   8  29  1   
 18  10  12  1   
 19  11  13  2   
 20  12  13  1   
 21  12  14  1   
 22  13  30  1   
 23  14  15  1   
 24  14  31  1   
 25  14  32  1   
 26  15  16  1   
 27  15  33  1   
 28  15  34  1   
 29  16  17  1   
 30  16  35  1   
 31  16  36  1   
 32  17  18  1   
 33  17  19  1   
 34  18  20  1   
 35  18  37  1   
 36  18  38  1   
 37  19  21  1   
 38  19  39  1   
 39  19  40  1   
 40  20  22  1   
 41  20  41  1   
 42  20  42  1   
 43  21  22  1   
 44  21  43  1   
 45  21  44  1   
 46  22  23  1   
 47  22  45  1   
 48  23  46  1   
 49  23  47  1   
 50  23  48  1   
@<TRIPOS>SUBSTRUCTURE
  1 ****  14 GROUP 4 **** **** 0

# MOE 2024.06 (io_trps.svl 2023.06)
