@<TRIPOS>MOLECULE
NONAME
40 42 1 0 0 
SMALL
USER_CHARGES


@<TRIPOS>ATOM
  1 BR      -0.2680    -0.1780    -1.3080 Br    1 <1>  -0.1110 
  2 C       -1.9290    -0.7590    -0.5340 C.ar  1 <1>   0.1110 
  3 C       -2.4440    -1.9860    -0.9040 C.ar  1 <1>  -0.1500 
  4 C       -2.5660     0.0640     0.3740 C.ar  1 <1>  -0.1500 
  5 C       -3.6420    -2.4000    -0.3460 C.ar  1 <1>  -0.1500 
  6 C       -3.7630    -0.3570     0.9260 C.ar  1 <1>  -0.1500 
  7 C       -4.3080    -1.5850     0.5650 C.ar  1 <1>  -0.1430 
  8 C       -5.6300    -2.0320     1.1610 C.3   1 <1>   0.4870 
  9 N       -6.6910    -1.8930     0.1290 N.4   1 <1>  -0.9590 
 10 C       -6.8720    -0.4520    -0.2860 C.3   1 <1>   0.3430 
 11 C       -7.9970    -2.4820     0.5980 C.3   1 <1>   0.3430 
 12 C       -7.9780    -0.2660    -1.3470 C.3   1 <1>   0.2090 
 13 C       -9.1290    -2.3410    -0.4440 C.3   1 <1>   0.2090 
 14 N       -9.2530    -0.9450    -0.9610 N.pl3 1 <1>  -0.8380 
 15 C      -10.2700    -0.1450    -0.4180 C.ar  1 <1>   0.1000 
 16 C      -10.2500     0.4050     0.8700 C.ar  1 <1>   0.1900 
 17 C      -11.3840     0.1310    -1.2000 C.ar  1 <1>  -0.1500 
 18 F       -9.2220     0.1770     1.6540 F     1 <1>  -0.1900 
 19 C      -11.2730     1.1880     1.3670 C.ar  1 <1>  -0.1500 
 20 C      -12.4210     0.9140    -0.7190 C.ar  1 <1>  -0.1500 
 21 C      -12.3700     1.4440     0.5610 C.ar  1 <1>  -0.1500 
 22 H       -1.9120    -2.6010    -1.6090 H     1 <1>   0.1500 
 23 H       -2.1270     1.0100     0.6410 H     1 <1>   0.1500 
 24 H       -4.0370    -3.3610    -0.6280 H     1 <1>   0.1500 
 25 H       -4.2570     0.2820     1.6400 H     1 <1>   0.1500 
 26 H       -5.8680    -1.4290     2.0230 H     1 <1>   0.0800 
 27 H       -5.5490    -3.0600     1.4760 H     1 <1>   0.0800 
 28 H       -6.3800    -2.4050    -0.7050 H     1 <1>   0.4500 
 29 H       -5.9480    -0.0650    -0.6810 H     1 <1>   0.0800 
 30 H       -7.1310     0.1410     0.5750 H     1 <1>   0.0800 
 31 H       -8.3120    -1.9840     1.5000 H     1 <1>   0.0800 
 32 H       -7.8680    -3.5260     0.8300 H     1 <1>   0.0800 
 33 H       -7.6440    -0.6600    -2.2910 H     1 <1>   0.0800 
 34 H       -8.1620     0.7870    -1.4850 H     1 <1>   0.0800 
 35 H      -10.0620    -2.6390     0.0050 H     1 <1>   0.0800 
 36 H       -8.9450    -3.0050    -1.2710 H     1 <1>   0.0800 
 37 H      -11.4330    -0.2750    -2.1950 H     1 <1>   0.1500 
 38 H      -11.2160     1.5900     2.3630 H     1 <1>   0.1500 
 39 H      -13.2740     1.1140    -1.3450 H     1 <1>   0.1500 
 40 H      -13.1810     2.0520     0.9270 H     1 <1>   0.1500 
@<TRIPOS>BOND
  1   1   2  1   
  2   2   3  ar  
  3   2   4  ar  
  4   3   5  ar  
  5   3  22  1   
  6   4   6  ar  
  7   4  23  1   
  8   5   7  ar  
  9   5  24  1   
 10   6   7  ar  
 11   6  25  1   
 12   7   8  1   
 13   8   9  1   
 14   8  26  1   
 15   8  27  1   
 16   9  10  1   
 17   9  11  1   
 18   9  28  1   
 19  10  12  1   
 20  10  29  1   
 21  10  30  1   
 22  11  13  1   
 23  11  31  1   
 24  11  32  1   
 25  12  14  1   
 26  12  33  1   
 27  12  34  1   
 28  13  14  1   
 29  13  35  1   
 30  13  36  1   
 31  14  15  1   
 32  15  16  ar  
 33  15  17  ar  
 34  16  18  1   
 35  16  19  ar  
 36  17  20  ar  
 37  17  37  1   
 38  19  21  ar  
 39  19  38  1   
 40  20  21  ar  
 41  20  39  1   
 42  21  40  1   
@<TRIPOS>SUBSTRUCTURE
  1 ****  10 GROUP 4 **** **** 0

# MOE 2024.06 (io_trps.svl 2023.06)
