@<TRIPOS>MOLECULE
NONAME
42 44 1 0 0 
SMALL
USER_CHARGES


@<TRIPOS>ATOM
  1 CL       3.5680    -4.8400     2.1900 Cl    1 <1>  -0.1770 
  2 C        3.5590    -3.2500     1.4590 C.ar  1 <1>   0.1770 
  3 C        2.4100    -2.4780     1.4470 C.ar  1 <1>   0.1900 
  4 C        4.7200    -2.7650     0.8880 C.ar  1 <1>  -0.1500 
  5 F        1.3070    -2.9340     1.9880 F     1 <1>  -0.1900 
  6 C        2.3960    -1.2230     0.8700 C.ar  1 <1>  -0.1500 
  7 C        4.7370    -1.5020     0.3010 C.ar  1 <1>   0.1170 
  8 C        3.5640    -0.7440     0.2980 C.ar  1 <1>  -0.1500 
  9 N        5.9360    -1.0520    -0.2680 N.am  1 <1>  -0.5470 
 10 C        6.3670     0.1730    -0.6940 C.2   1 <1>   0.5690 
 11 O        5.7110     1.1850    -0.6400 O.2   1 <1>  -0.5700 
 12 C        7.7840     0.2270    -1.2670 C.3   1 <1>   0.1710 
 13 N        8.6520    -0.9000    -0.8120 N.3   1 <1>  -0.8100 
 14 C        9.8340    -1.0460    -1.6940 C.3   1 <1>   0.1100 
 15 C        9.1110    -0.6850     0.5870 C.3   1 <1>   0.1100 
 16 C       10.7620    -2.1920    -1.2430 C.3   1 <1>   0.2090 
 17 C       10.0240    -1.8230     1.0830 C.3   1 <1>   0.2090 
 18 N       11.1910    -2.0100     0.1710 N.pl3 1 <1>  -0.8380 
 19 C       12.2200    -2.8220     0.6030 C.ar  1 <1>   0.4100 
 20 N       11.9010    -3.8660     1.3610 N.ar  1 <1>  -0.6200 
 21 C       13.5270    -2.5270     0.2230 C.ar  1 <1>  -0.1500 
 22 C       12.9100    -4.6300     1.7440 C.ar  1 <1>   0.1600 
 23 C       14.5660    -3.3310     0.6270 C.ar  1 <1>  -0.1500 
 24 C       14.2360    -4.4160     1.4130 C.ar  1 <1>  -0.1500 
 25 H        5.6060    -3.3710     0.9030 H     1 <1>   0.1500 
 26 H        1.4940    -0.6370     0.8680 H     1 <1>   0.1500 
 27 H        3.5550     0.2310    -0.1560 H     1 <1>   0.1500 
 28 H        6.6960    -1.7390    -0.3440 H     1 <1>   0.3700 
 29 H        8.2330     1.1700    -1.0060 H     1 <1>   0.0800 
 30 H        7.6890     0.1930    -2.3380 H     1 <1>   0.0800 
 31 H       10.4000    -0.1300    -1.7020 H     1 <1>   0.0800 
 32 H        9.5070    -1.2470    -2.6990 H     1 <1>   0.0800 
 33 H        8.2620    -0.6170     1.2440 H     1 <1>   0.0800 
 34 H        9.6580     0.2400     0.6550 H     1 <1>   0.0800 
 35 H       11.6270    -2.2230    -1.8810 H     1 <1>   0.0800 
 36 H       10.2430    -3.1300    -1.3370 H     1 <1>   0.0800 
 37 H        9.4600    -2.7380     1.1360 H     1 <1>   0.0800 
 38 H       10.3810    -1.5940     2.0720 H     1 <1>   0.0800 
 39 H       13.7020    -1.6600    -0.3840 H     1 <1>   0.1500 
 40 H       12.6640    -5.4790     2.3590 H     1 <1>   0.1500 
 41 H       15.5850    -3.1250     0.3480 H     1 <1>   0.1500 
 42 H       14.9980    -5.0870     1.7660 H     1 <1>   0.1500 
@<TRIPOS>BOND
  1   1   2  1   
  2   2   3  ar  
  3   2   4  ar  
  4   3   5  1   
  5   3   6  ar  
  6   4   7  ar  
  7   4  25  1   
  8   6   8  ar  
  9   6  26  1   
 10   7   8  ar  
 11   7   9  1   
 12   8  27  1   
 13   9  10  am  
 14   9  28  1   
 15  10  11  2   
 16  10  12  1   
 17  12  13  1   
 18  12  29  1   
 19  12  30  1   
 20  13  14  1   
 21  13  15  1   
 22  14  16  1   
 23  14  31  1   
 24  14  32  1   
 25  15  17  1   
 26  15  33  1   
 27  15  34  1   
 28  16  18  1   
 29  16  35  1   
 30  16  36  1   
 31  17  18  1   
 32  17  37  1   
 33  17  38  1   
 34  18  19  1   
 35  19  20  ar  
 36  19  21  ar  
 37  20  22  ar  
 38  21  23  ar  
 39  21  39  1   
 40  22  24  ar  
 41  22  40  1   
 42  23  24  ar  
 43  23  41  1   
 44  24  42  1   
@<TRIPOS>SUBSTRUCTURE
  1 ****  15 GROUP 4 **** **** 0

# MOE 2024.06 (io_trps.svl 2023.06)
