@<TRIPOS>MOLECULE
NONAME
39 39 1 0 0 
SMALL
USER_CHARGES


@<TRIPOS>ATOM
  1 CL      -0.6020     1.0990    -0.7430 Cl    1 <1>  -0.1770 
  2 C        1.0490     0.6670    -0.3520 C.ar  1 <1>   0.1770 
  3 C        1.9810     1.6600    -0.0750 C.ar  1 <1>   0.0820 
  4 C        1.3950    -0.6700    -0.3320 C.ar  1 <1>  -0.1500 
  5 O        1.5660     2.9550    -0.1180 O.3   1 <1>  -0.3630 
  6 C        3.2880     1.2830     0.2320 C.ar  1 <1>  -0.1500 
  7 C        2.6960    -1.0310    -0.0270 C.ar  1 <1>  -0.1500 
  8 C        2.4530     4.0270     0.0730 C.3   1 <1>   0.1200 
  9 C        3.6430    -0.0580     0.2560 C.ar  1 <1>  -0.1440 
 10 C        1.6390     5.3130    -0.1020 C.3   1 <1>   0.3430 
 11 C        5.0670    -0.4680     0.5880 C.3   1 <1>  -0.0960 
 12 N        2.4510     6.5750     0.0240 N.4   1 <1>  -0.9590 
 13 C        1.5690     7.7640     0.0470 C.3   1 <1>   0.4810 
 14 C        3.4870     6.7070    -1.0230 C.3   1 <1>   0.4810 
 15 C        0.7620     7.7140     1.3250 C.2   1 <1>  -0.2880 
 16 C        4.8140     6.2240    -0.4650 C.2   1 <1>  -0.2880 
 17 C       -0.5590     7.5170     1.3990 C.2   1 <1>  -0.3000 
 18 C        5.1430     5.8570     0.7830 C.2   1 <1>  -0.3000 
 19 H        0.6530    -1.4170    -0.5520 H     1 <1>   0.1500 
 20 H        4.0410     2.0140     0.4540 H     1 <1>   0.1500 
 21 H        2.9680    -2.0730    -0.0120 H     1 <1>   0.1500 
 22 H        3.2300     3.9460    -0.6660 H     1 <1>   0.0800 
 23 H        2.8540     3.9550     1.0690 H     1 <1>   0.0800 
 24 H        0.8630     5.3130     0.6460 H     1 <1>   0.0800 
 25 H        1.1650     5.2870    -1.0700 H     1 <1>   0.0800 
 26 H        5.5340     0.2600     1.2270 H     1 <1>   0.0800 
 27 H        5.6420    -0.5560    -0.3170 H     1 <1>   0.0800 
 28 H        5.0760    -1.4150     1.0960 H     1 <1>   0.0800 
 29 H        2.9530     6.5610     0.9170 H     1 <1>   0.4500 
 30 H        0.9100     7.7560    -0.8070 H     1 <1>   0.0800 
 31 H        2.1520     8.6710     0.0260 H     1 <1>   0.0800 
 32 H        3.5930     7.7390    -1.3210 H     1 <1>   0.0800 
 33 H        3.2150     6.1300    -1.8930 H     1 <1>   0.0800 
 34 H        1.3650     7.8650     2.2050 H     1 <1>   0.1500 
 35 H        5.5590     6.2070    -1.2450 H     1 <1>   0.1500 
 36 H       -1.1080     7.4920     2.3280 H     1 <1>   0.1500 
 37 H       -1.2150     7.3680     0.5570 H     1 <1>   0.1500 
 38 H        6.1390     5.5350     1.0480 H     1 <1>   0.1500 
 39 H        4.5050     5.8360     1.6490 H     1 <1>   0.1500 
@<TRIPOS>BOND
  1   1   2  1   
  2   2   3  ar  
  3   2   4  ar  
  4   3   5  1   
  5   3   6  ar  
  6   4   7  ar  
  7   4  19  1   
  8   5   8  1   
  9   6   9  ar  
 10   6  20  1   
 11   7   9  ar  
 12   7  21  1   
 13   8  10  1   
 14   8  22  1   
 15   8  23  1   
 16   9  11  1   
 17  10  12  1   
 18  10  24  1   
 19  10  25  1   
 20  11  26  1   
 21  11  27  1   
 22  11  28  1   
 23  12  13  1   
 24  12  14  1   
 25  12  29  1   
 26  13  15  1   
 27  13  30  1   
 28  13  31  1   
 29  14  16  1   
 30  14  32  1   
 31  14  33  1   
 32  15  17  2   
 33  15  34  1   
 34  16  18  2   
 35  16  35  1   
 36  17  36  1   
 37  17  37  1   
 38  18  38  1   
 39  18  39  1   
@<TRIPOS>SUBSTRUCTURE
  1 ****   8 GROUP 4 **** **** 0

# MOE 2024.06 (io_trps.svl 2023.06)
