@<TRIPOS>MOLECULE
NONAME
42 44 1 0 0 
SMALL
USER_CHARGES


@<TRIPOS>ATOM
  1 O       -2.9610     3.2990    -0.6440 O.3   1 <1>  -0.1650 
  2 C       -3.0620     1.9850    -0.3210 C.ar  1 <1>   0.0830 
  3 C       -1.9370     4.0670    -0.1950 C.ar  1 <1>   0.0830 
  4 C       -3.6430     1.1300    -1.2440 C.ar  1 <1>  -0.1500 
  5 C       -2.6260     1.4840     0.9000 C.ar  1 <1>  -0.1500 
  6 C       -0.6240     3.6120    -0.2090 C.ar  1 <1>  -0.1500 
  7 C       -2.2230     5.3410     0.2690 C.ar  1 <1>  -0.1500 
  8 C       -3.7740    -0.2180    -0.9590 C.ar  1 <1>  -0.1500 
  9 C       -2.7560     0.1360     1.1810 C.ar  1 <1>  -0.1500 
 10 C        0.3940     4.4260     0.2560 C.ar  1 <1>  -0.1500 
 11 C       -1.2040     6.1530     0.7340 C.ar  1 <1>  -0.1500 
 12 C       -3.3220    -0.7240     0.2510 C.ar  1 <1>  -0.1430 
 13 C        0.1040     5.6950     0.7290 C.ar  1 <1>  -0.1500 
 14 C       -3.4400    -2.2090     0.5590 C.3   1 <1>  -0.0170 
 15 C       -2.0620    -2.8910     0.4800 C.3   1 <1>  -0.0800 
 16 C       -1.3610    -2.5500    -0.8450 C.3   1 <1>   0.3430 
 17 C       -2.1940    -4.4130     0.6630 C.3   1 <1>  -0.1600 
 18 N       -0.0470    -3.2490    -0.9330 N.4   1 <1>  -0.9060 
 19 C       -0.8340    -5.1050     0.4870 C.3   1 <1>  -0.1600 
 20 C       -0.1700    -4.7290    -0.8400 C.3   1 <1>   0.3430 
 21 H       -3.9950     1.5290    -2.1790 H     1 <1>   0.1500 
 22 H       -2.1980     2.1460     1.6320 H     1 <1>   0.1500 
 23 H       -0.4000     2.6310    -0.5870 H     1 <1>   0.1500 
 24 H       -3.2400     5.6890     0.2680 H     1 <1>   0.1500 
 25 H       -4.2360    -0.8610    -1.6880 H     1 <1>   0.1500 
 26 H       -2.4200    -0.2340     2.1350 H     1 <1>   0.1500 
 27 H        1.4120     4.0760     0.2490 H     1 <1>   0.1500 
 28 H       -1.4260     7.1410     1.0990 H     1 <1>   0.1500 
 29 H        0.8960     6.3270     1.0920 H     1 <1>   0.1500 
 30 H       -4.1230    -2.6680    -0.1350 H     1 <1>   0.0800 
 31 H       -3.8530    -2.3340     1.5450 H     1 <1>   0.0800 
 32 H       -1.4620    -2.4980     1.2830 H     1 <1>   0.0800 
 33 H       -1.2160    -1.4820    -0.9090 H     1 <1>   0.0800 
 34 H       -1.9900    -2.8510    -1.6670 H     1 <1>   0.0800 
 35 H       -2.8890    -4.8100    -0.0600 H     1 <1>   0.0800 
 36 H       -2.5840    -4.6320     1.6440 H     1 <1>   0.0800 
 37 H        0.5490    -2.9160    -0.1650 H     1 <1>   0.4500 
 38 H        0.4220    -2.9900    -1.8100 H     1 <1>   0.4500 
 39 H       -0.9730    -6.1720     0.5180 H     1 <1>   0.0800 
 40 H       -0.1810    -4.8450     1.3020 H     1 <1>   0.0800 
 41 H        0.8050    -5.1880    -0.9010 H     1 <1>   0.0800 
 42 H       -0.7690    -5.0970    -1.6580 H     1 <1>   0.0800 
@<TRIPOS>BOND
  1   1   2  1   
  2   1   3  1   
  3   2   4  ar  
  4   2   5  ar  
  5   3   6  ar  
  6   3   7  ar  
  7   4   8  ar  
  8   4  21  1   
  9   5   9  ar  
 10   5  22  1   
 11   6  10  ar  
 12   6  23  1   
 13   7  11  ar  
 14   7  24  1   
 15   8  12  ar  
 16   8  25  1   
 17   9  12  ar  
 18   9  26  1   
 19  10  13  ar  
 20  10  27  1   
 21  11  13  ar  
 22  11  28  1   
 23  12  14  1   
 24  13  29  1   
 25  14  15  1   
 26  14  30  1   
 27  14  31  1   
 28  15  16  1   
 29  15  17  1   
 30  15  32  1   
 31  16  18  1   
 32  16  33  1   
 33  16  34  1   
 34  17  19  1   
 35  17  35  1   
 36  17  36  1   
 37  18  20  1   
 38  18  37  1   
 39  18  38  1   
 40  19  20  1   
 41  19  39  1   
 42  19  40  1   
 43  20  41  1   
 44  20  42  1   
@<TRIPOS>SUBSTRUCTURE
  1 ****   5 GROUP 4 **** **** 0

# MOE 2024.06 (io_trps.svl 2023.06)
