@<TRIPOS>MOLECULE
NONAME
37 37 1 0 0 
SMALL
USER_CHARGES


@<TRIPOS>ATOM
  1 I       -0.6110     0.5190     0.3290 I     1 <1>  -0.0810 
  2 C        1.4020     1.1970     0.1770 C.ar  1 <1>   0.0810 
  3 C        1.6340     2.5140    -0.1740 C.ar  1 <1>  -0.1500 
  4 C        2.4250     0.3020     0.4340 C.ar  1 <1>  -0.1500 
  5 C        2.9450     2.9450    -0.2700 C.ar  1 <1>  -0.1500 
  6 C        3.7330     0.7460     0.3340 C.ar  1 <1>  -0.1500 
  7 C        3.9960     2.0710    -0.0190 C.ar  1 <1>   0.0830 
  8 O        5.2480     2.5840    -0.1380 O.3   1 <1>  -0.3630 
  9 C        6.3880     1.7970     0.0900 C.3   1 <1>   0.1200 
 10 C        7.6040     2.6950    -0.1350 C.3   1 <1>  -0.1600 
 11 C        8.9010     1.9270     0.0900 C.3   1 <1>   0.3430 
 12 N       10.0450     2.8430    -0.1450 N.4   1 <1>  -0.9060 
 13 C       11.3660     2.2300     0.0760 C.3   1 <1>   0.4230 
 14 C       12.3920     3.3660     0.1880 C.3   1 <1>  -0.1600 
 15 C       11.6690     1.2860    -1.0890 C.3   1 <1>  -0.2400 
 16 C       13.7920     2.8830     0.5980 C.3   1 <1>  -0.2400 
 17 H        0.8150     3.1850    -0.3670 H     1 <1>   0.1500 
 18 H        2.2040    -0.7150     0.7040 H     1 <1>   0.1500 
 19 H        3.1610     3.9630    -0.5410 H     1 <1>   0.1500 
 20 H        4.5230     0.0480     0.5340 H     1 <1>   0.1500 
 21 H        6.3730     0.9740    -0.6060 H     1 <1>   0.0800 
 22 H        6.3490     1.4340     1.1030 H     1 <1>   0.0800 
 23 H        7.5460     3.5210     0.5520 H     1 <1>   0.0800 
 24 H        7.5700     3.0640    -1.1450 H     1 <1>   0.0800 
 25 H        8.9480     1.0910    -0.5890 H     1 <1>   0.0800 
 26 H        8.9310     1.5510     1.1010 H     1 <1>   0.0800 
 27 H        9.9560     3.6550     0.4760 H     1 <1>   0.4500 
 28 H       10.0110     3.2040    -1.1050 H     1 <1>   0.4500 
 29 H       11.3590     1.6750     1.0020 H     1 <1>   0.0800 
 30 H       12.0640     4.0660     0.9380 H     1 <1>   0.0800 
 31 H       12.4700     3.8900    -0.7500 H     1 <1>   0.0800 
 32 H       11.7170     1.8210    -2.0210 H     1 <1>   0.0800 
 33 H       10.9370     0.5030    -1.1620 H     1 <1>   0.0800 
 34 H       12.6200     0.8080    -0.9340 H     1 <1>   0.0800 
 35 H       13.7530     2.3220     1.5160 H     1 <1>   0.0800 
 36 H       14.4390     3.7310     0.7520 H     1 <1>   0.0800 
 37 H       14.2370     2.2700    -0.1660 H     1 <1>   0.0800 
@<TRIPOS>BOND
  1   1   2  1   
  2   2   3  ar  
  3   2   4  ar  
  4   3   5  ar  
  5   3  17  1   
  6   4   6  ar  
  7   4  18  1   
  8   5   7  ar  
  9   5  19  1   
 10   6   7  ar  
 11   6  20  1   
 12   7   8  1   
 13   8   9  1   
 14   9  10  1   
 15   9  21  1   
 16   9  22  1   
 17  10  11  1   
 18  10  23  1   
 19  10  24  1   
 20  11  12  1   
 21  11  25  1   
 22  11  26  1   
 23  12  13  1   
 24  12  27  1   
 25  12  28  1   
 26  13  14  1   
 27  13  15  1   
 28  13  29  1   
 29  14  16  1   
 30  14  30  1   
 31  14  31  1   
 32  15  32  1   
 33  15  33  1   
 34  15  34  1   
 35  16  35  1   
 36  16  36  1   
 37  16  37  1   
@<TRIPOS>SUBSTRUCTURE
  1 ****   9 GROUP 4 **** **** 0

# MOE 2024.06 (io_trps.svl 2023.06)
