@<TRIPOS>MOLECULE
NONAME
29 29 1 0 0 
SMALL
USER_CHARGES


@<TRIPOS>ATOM
  1 CL      -1.6860    -1.3730    -1.9170 Cl    1 <1>  -0.1770 
  2 C       -2.3980     0.0730    -1.2390 C.ar  1 <1>   0.1770 
  3 C       -2.0250     1.3300    -1.6860 C.ar  1 <1>   0.1900 
  4 C       -3.3460    -0.0480    -0.2410 C.ar  1 <1>  -0.1500 
  5 F       -1.1260     1.4490    -2.6310 F     1 <1>  -0.1900 
  6 C       -2.5840     2.4780    -1.1550 C.ar  1 <1>  -0.1500 
  7 C       -3.9240     1.0920     0.3060 C.ar  1 <1>   0.1990 
  8 C       -3.5360     2.3480    -0.1560 C.ar  1 <1>  -0.1500 
  9 N       -4.8700     0.9630     1.3080 N.am  1 <1>  -0.7570 
 10 S       -6.5290     1.3470     1.1110 S.o2  1 <1>   1.3330 
 11 O       -6.5860     2.5270     0.2850 O.2   1 <1>  -0.6500 
 12 O       -7.0350     1.3610     2.4600 O.2   1 <1>  -0.6500 
 13 C       -7.1610    -0.0850     0.2350 C.3   1 <1>  -0.0550 
 14 C       -8.6700    -0.0160    -0.0490 C.3   1 <1>  -0.1600 
 15 C       -9.1520    -1.2620    -0.8030 C.3   1 <1>  -0.1600 
 16 C      -10.6550    -1.1850    -1.0810 C.3   1 <1>  -0.2400 
 17 H       -3.6330    -1.0210     0.1110 H     1 <1>   0.1500 
 18 H       -2.2830     3.4450    -1.5180 H     1 <1>   0.1500 
 19 H       -3.9900     3.2290     0.2660 H     1 <1>   0.1500 
 20 H       -4.5940     1.2900     2.2310 H     1 <1>   0.4200 
 21 H       -6.9570    -0.9640     0.8140 H     1 <1>   0.0800 
 22 H       -6.6390    -0.1780    -0.6980 H     1 <1>   0.0800 
 23 H       -8.8810     0.8640    -0.6340 H     1 <1>   0.0800 
 24 H       -9.2020     0.0700     0.8840 H     1 <1>   0.0800 
 25 H       -8.9470    -2.1440    -0.2190 H     1 <1>   0.0800 
 26 H       -8.6250    -1.3490    -1.7380 H     1 <1>   0.0800 
 27 H      -11.2070    -1.1210    -0.1600 H     1 <1>   0.0800 
 28 H      -10.9770    -2.0650    -1.6100 H     1 <1>   0.0800 
 29 H      -10.8840    -0.3230    -1.6830 H     1 <1>   0.0800 
@<TRIPOS>BOND
  1   1   2  1   
  2   2   3  ar  
  3   2   4  ar  
  4   3   5  1   
  5   3   6  ar  
  6   4   7  ar  
  7   4  17  1   
  8   6   8  ar  
  9   6  18  1   
 10   7   8  ar  
 11   7   9  1   
 12   8  19  1   
 13   9  10  am  
 14   9  20  1   
 15  10  11  2   
 16  10  12  2   
 17  10  13  1   
 18  13  14  1   
 19  13  21  1   
 20  13  22  1   
 21  14  15  1   
 22  14  23  1   
 23  14  24  1   
 24  15  16  1   
 25  15  25  1   
 26  15  26  1   
 27  16  27  1   
 28  16  28  1   
 29  16  29  1   
@<TRIPOS>SUBSTRUCTURE
  1 ****   7 GROUP 4 **** **** 0

# MOE 2024.06 (io_trps.svl 2023.06)
