@<TRIPOS>MOLECULE
NONAME
49 51 1 0 0 
SMALL
USER_CHARGES


@<TRIPOS>ATOM
  1 O       -0.2760    -3.5060    -0.1590 O.2   1 <1>  -0.5700 
  2 C       -0.5170    -2.3810     0.1950 C.2   1 <1>   0.6590 
  3 O       -0.0970    -1.3200    -0.4790 O.3   1 <1>  -0.4300 
  4 C       -1.3190    -2.0990     1.4500 C.3   1 <1>   0.0390 
  5 C        0.6200    -1.4470    -1.6840 C.3   1 <1>   0.1200 
  6 C       -2.6500    -1.4090     1.1220 C.2   1 <1>  -0.1240 
  7 C        0.8960    -0.0450    -2.2160 C.3   1 <1>  -0.2400 
  8 C       -2.7610     0.0210     1.2310 C.2   1 <1>   0.3750 
  9 C       -3.7380    -2.1310     0.7130 C.2   1 <1>  -0.1690 
 10 N       -3.8490     0.6660     0.9730 N.2   1 <1>  -0.5760 
 11 C       -1.5860     0.8780     1.6690 C.3   1 <1>  -0.1790 
 12 N       -4.9080    -1.4310     0.4440 N.pl3 1 <1>   0.6010 
 13 C       -3.8070    -3.6470     0.5010 C.3   1 <1>  -0.1020 
 14 C       -4.9370    -0.0690     0.5740 C.2   1 <1>  -0.0260 
 15 N       -6.1050    -1.9160     0.0450 N.2   1 <1>  -0.7070 
 16 C       -6.2020     0.3300     0.2390 C.2   1 <1>  -0.0540 
 17 C       -6.8550    -0.8590    -0.0920 C.2   1 <1>   0.1080 
 18 C       -6.7270     1.6730     0.2280 C.ar  1 <1>   0.0540 
 19 C       -8.2980    -0.9520    -0.5720 C.3   1 <1>   0.3010 
 20 C       -6.1100     2.6700    -0.5220 C.ar  1 <1>  -0.1500 
 21 C       -7.8570     2.0210     0.9660 C.ar  1 <1>  -0.1500 
 22 O       -8.4700    -0.2030    -1.7400 O.3   1 <1>  -0.5600 
 23 C       -6.6070     3.9600    -0.5500 C.ar  1 <1>  -0.1500 
 24 C       -8.3600     3.3090     0.9440 C.ar  1 <1>  -0.1500 
 25 C       -9.7760    -0.1700    -2.2110 C.3   1 <1>   0.0400 
 26 C       -7.7360     4.2820     0.1830 C.ar  1 <1>  -0.1500 
 27 H       -0.7150    -1.5190     2.1170 H     1 <1>   0.0800 
 28 H       -1.5030    -3.0280     1.9550 H     1 <1>   0.0800 
 29 H        0.0230    -2.0130    -2.3790 H     1 <1>   0.0800 
 30 H        1.5380    -1.9750    -1.4820 H     1 <1>   0.0800 
 31 H       -0.0310     0.4710    -2.3960 H     1 <1>   0.0800 
 32 H        1.4380    -0.1090    -3.1420 H     1 <1>   0.0800 
 33 H        1.4870     0.5110    -1.5110 H     1 <1>   0.0800 
 34 H       -1.3230     0.6540     2.6860 H     1 <1>   0.0800 
 35 H       -1.8490     1.9200     1.6160 H     1 <1>   0.0800 
 36 H       -0.7410     0.7190     1.0270 H     1 <1>   0.0800 
 37 H       -4.5040    -4.0790     1.1980 H     1 <1>   0.0800 
 38 H       -2.8600    -4.1380     0.6170 H     1 <1>   0.0800 
 39 H       -4.1580    -3.8550    -0.4940 H     1 <1>   0.0800 
 40 H       -8.9610    -0.5730     0.1850 H     1 <1>   0.0800 
 41 H       -8.5420    -1.9770    -0.7870 H     1 <1>   0.0800 
 42 H       -5.2300     2.4170    -1.0860 H     1 <1>   0.1500 
 43 H       -8.3380     1.2730     1.5680 H     1 <1>   0.1500 
 44 H       -6.1130     4.7110    -1.1400 H     1 <1>   0.1500 
 45 H       -9.2340     3.5570     1.5190 H     1 <1>   0.1500 
 46 H       -9.7890     0.4190    -3.1110 H     1 <1>   0.0800 
 47 H      -10.4090     0.2870    -1.4710 H     1 <1>   0.0800 
 48 H      -10.1020    -1.1730    -2.4280 H     1 <1>   0.0800 
 49 H       -8.1240     5.2850     0.1620 H     1 <1>   0.1500 
@<TRIPOS>BOND
  1   1   2  2   
  2   2   3  1   
  3   2   4  1   
  4   3   5  1   
  5   4   6  1   
  6   4  27  1   
  7   4  28  1   
  8   5   7  1   
  9   5  29  1   
 10   5  30  1   
 11   6   8  1   
 12   6   9  2   
 13   7  31  1   
 14   7  32  1   
 15   7  33  1   
 16   8  10  2   
 17   8  11  1   
 18   9  12  1   
 19   9  13  1   
 20  10  14  1   
 21  11  34  1   
 22  11  35  1   
 23  11  36  1   
 24  12  14  1   
 25  12  15  1   
 26  13  37  1   
 27  13  38  1   
 28  13  39  1   
 29  14  16  2   
 30  15  17  2   
 31  16  17  1   
 32  16  18  1   
 33  17  19  1   
 34  18  20  ar  
 35  18  21  ar  
 36  19  22  1   
 37  19  40  1   
 38  19  41  1   
 39  20  23  ar  
 40  20  42  1   
 41  21  24  ar  
 42  21  43  1   
 43  22  25  1   
 44  23  26  ar  
 45  23  44  1   
 46  24  26  ar  
 47  24  45  1   
 48  25  46  1   
 49  25  47  1   
 50  25  48  1   
 51  26  49  1   
@<TRIPOS>SUBSTRUCTURE
  1 ****  14 GROUP 4 **** **** 0

# MOE 2024.06 (io_trps.svl 2023.06)
