@<TRIPOS>MOLECULE
NONAME
38 40 1 0 0 
SMALL
USER_CHARGES


@<TRIPOS>ATOM
  1 O       -0.9320    -0.7550    -1.3410 O.3   1 <1>  -0.6800 
  2 C       -1.6590    -0.8740    -0.1610 C.3   1 <1>   0.2000 
  3 C       -1.8140    -2.3580     0.2360 C.3   1 <1>   0.0000 
  4 C       -3.0370    -0.2560    -0.3870 C.3   1 <1>  -0.0800 
  5 C       -0.4220    -3.0530     0.4330 C.3   1 <1>  -0.0800 
  6 C       -2.5650    -3.0830    -0.9070 C.3   1 <1>   0.3430 
  7 C       -2.6430    -2.4000     1.5410 C.3   1 <1>   0.1100 
  8 C       -3.7240    -0.9510    -1.5630 C.3   1 <1>   0.3430 
  9 C       -3.8540    -0.3300     0.9100 C.3   1 <1>   0.1100 
 10 C       -0.5230    -4.5410     0.8220 C.3   1 <1>  -0.2400 
 11 C        0.4970    -2.3580     1.4570 C.3   1 <1>  -0.2400 
 12 N       -3.8370    -2.4380    -1.3990 N.4   1 <1>  -0.9590 
 13 N       -3.9330    -1.7020     1.4250 N.3   1 <1>  -0.8100 
 14 C       -5.0510    -2.8300    -0.6050 C.3   1 <1>   0.3430 
 15 C       -5.0420    -2.5200     0.9090 C.3   1 <1>   0.1100 
 16 H        0.0290    -0.8180    -1.1580 H     1 <1>   0.4000 
 17 H       -1.1480    -0.3150     0.6050 H     1 <1>   0.0800 
 18 H       -2.9110     0.7830    -0.6340 H     1 <1>   0.0800 
 19 H        0.0960    -3.0230    -0.5120 H     1 <1>   0.0800 
 20 H       -2.7780    -4.0930    -0.5990 H     1 <1>   0.0800 
 21 H       -1.8820    -3.1390    -1.7380 H     1 <1>   0.0800 
 22 H       -2.0890    -1.9200     2.3290 H     1 <1>   0.0800 
 23 H       -2.8160    -3.4150     1.8520 H     1 <1>   0.0800 
 24 H       -4.7000    -0.5220    -1.7150 H     1 <1>   0.0800 
 25 H       -3.1360    -0.7470    -2.4450 H     1 <1>   0.0800 
 26 H       -4.8440     0.0680     0.7610 H     1 <1>   0.0800 
 27 H       -3.3750     0.2810     1.6570 H     1 <1>   0.0800 
 28 H       -0.9660    -4.6660     1.7940 H     1 <1>   0.0800 
 29 H        0.4630    -4.9740     0.8600 H     1 <1>   0.0800 
 30 H       -1.0870    -5.1100     0.1060 H     1 <1>   0.0800 
 31 H        0.0730    -2.3760     2.4460 H     1 <1>   0.0800 
 32 H        0.7020    -1.3390     1.1860 H     1 <1>   0.0800 
 33 H        1.4450    -2.8680     1.5020 H     1 <1>   0.0800 
 34 H       -3.9880    -2.8070    -2.3460 H     1 <1>   0.4500 
 35 H       -5.2150    -3.8890    -0.7170 H     1 <1>   0.0800 
 36 H       -5.9120    -2.3430    -1.0300 H     1 <1>   0.0800 
 37 H       -5.9680    -2.0280     1.1530 H     1 <1>   0.0800 
 38 H       -5.0570    -3.4540     1.4450 H     1 <1>   0.0800 
@<TRIPOS>BOND
  1   1   2  1   
  2   1  16  1   
  3   2   3  1   
  4   2   4  1   
  5   2  17  1   
  6   3   5  1   
  7   3   6  1   
  8   3   7  1   
  9   4   8  1   
 10   4   9  1   
 11   4  18  1   
 12   5  10  1   
 13   5  11  1   
 14   5  19  1   
 15   6  12  1   
 16   6  20  1   
 17   6  21  1   
 18   7  13  1   
 19   7  22  1   
 20   7  23  1   
 21   8  12  1   
 22   8  24  1   
 23   8  25  1   
 24   9  13  1   
 25   9  26  1   
 26   9  27  1   
 27  10  28  1   
 28  10  29  1   
 29  10  30  1   
 30  11  31  1   
 31  11  32  1   
 32  11  33  1   
 33  12  14  1   
 34  12  34  1   
 35  13  15  1   
 36  14  15  1   
 37  14  35  1   
 38  14  36  1   
 39  15  37  1   
 40  15  38  1   
@<TRIPOS>SUBSTRUCTURE
  1 ****   3 GROUP 4 **** **** 0

# MOE 2024.06 (io_trps.svl 2023.06)
