@<TRIPOS>MOLECULE
NONAME
44 46 1 0 0 
SMALL
USER_CHARGES


@<TRIPOS>ATOM
  1 O       -1.5430     1.3290     1.9350 O.3   1 <1>  -0.5320 
  2 C       -2.2050     1.2680     0.7720 C.ar  1 <1>   0.0830 
  3 C       -3.4790     0.7330     0.7630 C.ar  1 <1>  -0.1500 
  4 C       -1.6250     1.7340    -0.3950 C.ar  1 <1>  -0.1500 
  5 C       -4.1970     0.6710    -0.4220 C.ar  1 <1>  -0.1430 
  6 C       -2.3340     1.6620    -1.5810 C.ar  1 <1>  -0.1500 
  7 C       -3.6150     1.1340    -1.5960 C.ar  1 <1>  -0.1500 
  8 C       -5.6070     0.1180    -0.4250 C.3   1 <1>   0.4860 
  9 N       -6.4780     1.0640     0.3220 N.4   1 <1>  -0.9590 
 10 C       -7.8680     0.5200     0.5280 C.3   1 <1>   0.3430 
 11 C       -6.5170     2.4260    -0.3300 C.3   1 <1>   0.3430 
 12 C       -8.7670     1.4820     1.3330 C.3   1 <1>   0.2090 
 13 C       -7.3890     3.4330     0.4500 C.3   1 <1>   0.2090 
 14 N       -8.7300     2.8660     0.7780 N.pl3 1 <1>  -0.8380 
 15 C       -9.8200     3.2860     0.0170 C.ar  1 <1>   0.1000 
 16 C      -10.7850     4.1340     0.5600 C.ar  1 <1>  -0.1430 
 17 C       -9.9610     2.8600    -1.3000 C.ar  1 <1>  -0.1500 
 18 C      -11.8620     4.5360    -0.2130 C.ar  1 <1>  -0.1500 
 19 C      -10.6690     4.6270     1.9960 C.3   1 <1>  -0.0970 
 20 C      -11.0370     3.2640    -2.0660 C.ar  1 <1>  -0.1500 
 21 C      -11.9910     4.1040    -1.5210 C.ar  1 <1>  -0.1500 
 22 H       -0.6370     1.6790     1.8490 H     1 <1>   0.4500 
 23 H       -3.8800     0.3700     1.6930 H     1 <1>   0.1500 
 24 H       -0.6310     2.1460    -0.3880 H     1 <1>   0.1500 
 25 H       -1.8850     2.0180    -2.4940 H     1 <1>   0.1500 
 26 H       -4.1450     1.0880    -2.5330 H     1 <1>   0.1500 
 27 H       -5.6100    -0.8490     0.0510 H     1 <1>   0.0800 
 28 H       -5.9580     0.0040    -1.4380 H     1 <1>   0.0800 
 29 H       -6.0450     1.2000     1.2440 H     1 <1>   0.4500 
 30 H       -7.8220    -0.4260     1.0430 H     1 <1>   0.0800 
 31 H       -8.3340     0.3520    -0.4280 H     1 <1>   0.0800 
 32 H       -6.9170     2.3390    -1.3260 H     1 <1>   0.0800 
 33 H       -5.5190     2.8250    -0.4110 H     1 <1>   0.0800 
 34 H       -8.4480     1.5080     2.3600 H     1 <1>   0.0800 
 35 H       -9.7810     1.1190     1.3180 H     1 <1>   0.0800 
 36 H       -7.5130     4.3270    -0.1380 H     1 <1>   0.0800 
 37 H       -6.8930     3.7120     1.3630 H     1 <1>   0.0800 
 38 H       -9.2280     2.2090    -1.7320 H     1 <1>   0.1500 
 39 H      -12.6120     5.1890     0.1990 H     1 <1>   0.1500 
 40 H      -10.6970     3.7920     2.6710 H     1 <1>   0.0800 
 41 H      -11.4740     5.2960     2.2440 H     1 <1>   0.0800 
 42 H       -9.7390     5.1480     2.1270 H     1 <1>   0.0800 
 43 H      -11.1390     2.9300    -3.0840 H     1 <1>   0.1500 
 44 H      -12.8320     4.4230    -2.1120 H     1 <1>   0.1500 
@<TRIPOS>BOND
  1   1   2  1   
  2   1  22  1   
  3   2   3  ar  
  4   2   4  ar  
  5   3   5  ar  
  6   3  23  1   
  7   4   6  ar  
  8   4  24  1   
  9   5   7  ar  
 10   5   8  1   
 11   6   7  ar  
 12   6  25  1   
 13   7  26  1   
 14   8   9  1   
 15   8  27  1   
 16   8  28  1   
 17   9  10  1   
 18   9  11  1   
 19   9  29  1   
 20  10  12  1   
 21  10  30  1   
 22  10  31  1   
 23  11  13  1   
 24  11  32  1   
 25  11  33  1   
 26  12  14  1   
 27  12  34  1   
 28  12  35  1   
 29  13  14  1   
 30  13  36  1   
 31  13  37  1   
 32  14  15  1   
 33  15  16  ar  
 34  15  17  ar  
 35  16  18  ar  
 36  16  19  1   
 37  17  20  ar  
 38  17  38  1   
 39  18  21  ar  
 40  18  39  1   
 41  19  40  1   
 42  19  41  1   
 43  19  42  1   
 44  20  21  ar  
 45  20  43  1   
 46  21  44  1   
@<TRIPOS>SUBSTRUCTURE
  1 ****  11 GROUP 4 **** **** 0

# MOE 2024.06 (io_trps.svl 2023.06)
