@<TRIPOS>MOLECULE
NONAME
38 40 1 0 0 
SMALL
USER_CHARGES


@<TRIPOS>ATOM
  1 S        0.4080    -0.3080     1.3450 S.o2  1 <1>   1.5000 
  2 O        0.9590    -0.9290     2.5310 O.2   1 <1>  -0.6500 
  3 O       -0.2490     0.9750     1.4670 O.2   1 <1>  -0.6500 
  4 N        1.7040    -0.1090     0.2700 N.am  1 <1>  -0.8490 
  5 C       -0.6910    -1.4780     0.5070 C.2   1 <1>  -0.0220 
  6 C        2.4970     1.0890     0.6020 C.3   1 <1>   0.1960 
  7 C        2.5670    -1.3030     0.2090 C.3   1 <1>   0.1960 
  8 S       -0.9030    -1.3250    -1.2370 S.3   1 <1>  -0.0800 
  9 C       -1.4500    -2.4990     0.9580 C.2   1 <1>  -0.1500 
 10 C        3.6380     1.3240    -0.4030 C.3   1 <1>   0.1400 
 11 C        3.7010    -1.1360    -0.8170 C.3   1 <1>   0.1400 
 12 C       -2.0180    -2.6770    -1.2860 C.2   1 <1>  -0.1100 
 13 C       -2.1980    -3.1820    -0.0530 C.2   1 <1>  -0.1500 
 14 N        4.4870     0.1030    -0.5390 N.am  1 <1>  -0.6600 
 15 C        5.8640     0.1640    -0.5430 C.2   1 <1>   0.7160 
 16 O        6.4050     1.2490    -0.6350 O.2   1 <1>  -0.5700 
 17 C        6.6680    -1.0300    -0.4500 C.2   1 <1>  -0.0860 
 18 C        6.6990    -1.9970     0.5090 C.2   1 <1>  -0.0400 
 19 C        7.6350    -1.4430    -1.3890 C.2   1 <1>  -0.1500 
 20 O        7.5620    -2.9350     0.2050 O.3   1 <1>  -0.2800 
 21 C        5.9370    -2.1230     1.8120 C.3   1 <1>  -0.0600 
 22 C        8.1350    -2.6080    -0.9330 C.2   1 <1>  -0.0100 
 23 H        2.9100     0.9930     1.5930 H     1 <1>   0.0800 
 24 H        1.8590     1.9580     0.5940 H     1 <1>   0.0800 
 25 H        1.9780    -2.1600    -0.0680 H     1 <1>   0.0800 
 26 H        2.9990    -1.4970     1.1770 H     1 <1>   0.0800 
 27 H       -1.5160    -2.8060     1.9890 H     1 <1>   0.1500 
 28 H        4.2300     2.1600    -0.0710 H     1 <1>   0.0800 
 29 H        3.2210     1.5740    -1.3620 H     1 <1>   0.0800 
 30 H        3.2710    -1.0630    -1.8010 H     1 <1>   0.0800 
 31 H        4.3300    -2.0070    -0.7990 H     1 <1>   0.0800 
 32 H       -2.4260    -2.9520    -2.2430 H     1 <1>   0.1500 
 33 H       -2.8350    -4.0140     0.1950 H     1 <1>   0.1500 
 34 H        7.8930    -0.8990    -2.2810 H     1 <1>   0.1500 
 35 H        5.3180    -1.2600     1.9740 H     1 <1>   0.0800 
 36 H        6.6340    -2.2040     2.6270 H     1 <1>   0.0800 
 37 H        5.3230    -3.0040     1.7930 H     1 <1>   0.0800 
 38 H        8.8890    -3.2580    -1.3420 H     1 <1>   0.1500 
@<TRIPOS>BOND
  1   1   2  2   
  2   1   3  2   
  3   1   4  am  
  4   1   5  1   
  5   4   6  1   
  6   4   7  1   
  7   5   8  1   
  8   5   9  2   
  9   6  10  1   
 10   6  23  1   
 11   6  24  1   
 12   7  11  1   
 13   7  25  1   
 14   7  26  1   
 15   8  12  1   
 16   9  13  1   
 17   9  27  1   
 18  10  14  1   
 19  10  28  1   
 20  10  29  1   
 21  11  14  1   
 22  11  30  1   
 23  11  31  1   
 24  12  13  2   
 25  12  32  1   
 26  13  33  1   
 27  14  15  am  
 28  15  16  2   
 29  15  17  1   
 30  17  18  2   
 31  17  19  1   
 32  18  20  1   
 33  18  21  1   
 34  19  22  2   
 35  19  34  1   
 36  20  22  1   
 37  21  35  1   
 38  21  36  1   
 39  21  37  1   
 40  22  38  1   
@<TRIPOS>SUBSTRUCTURE
  1 ****   7 GROUP 4 **** **** 0

# MOE 2024.06 (io_trps.svl 2023.06)
