@<TRIPOS>MOLECULE
NONAME
38 40 1 0 0 
SMALL
USER_CHARGES


@<TRIPOS>ATOM
  1 O       -1.6470     6.1570    -0.7920 O.2   1 <1>  -0.5760 
  2 C       -2.4390     5.3430    -0.3640 C.2   1 <1>   0.7890 
  3 O       -3.6820     5.7450    -0.0820 O.3   1 <1>  -0.4370 
  4 C       -2.0950     3.9530    -0.1350 C.2   1 <1>   0.2690 
  5 C       -4.0990     7.0870    -0.2630 C.3   1 <1>   0.0290 
  6 N       -2.9890     2.8860     0.1120 N.pl3 1 <1>  -0.6420 
  7 C       -0.8490     3.3890    -0.1080 C.2   1 <1>   0.1730 
  8 C       -2.2630     1.7890     0.2710 C.cat 1 <1>   1.0680 
  9 C       -4.3220     2.4810     0.2250 C.ar  1 <1>   0.3790 
 10 N       -0.9710     2.0480     0.1450 N.pl3 1 <1>  -0.7050 
 11 C        0.5420     3.9740    -0.2940 C.3   1 <1>  -0.0820 
 12 N       -2.9900     0.6920     0.5050 N.pl3 1 <1>  -0.5810 
 13 C       -4.3120     1.1120     0.4730 C.ar  1 <1>   0.3030 
 14 C       -5.5290     3.1640     0.1270 C.ar  1 <1>  -0.1600 
 15 C       -2.5150    -0.6930     0.7140 C.3   1 <1>   0.1580 
 16 C       -5.4990     0.4050     0.6320 C.ar  1 <1>  -0.1600 
 17 C       -6.7090     2.4620     0.2870 C.ar  1 <1>  -0.1600 
 18 C       -2.4740    -1.4270    -0.6260 C.3   1 <1>  -0.1700 
 19 C       -6.6940     1.0900     0.5380 C.ar  1 <1>  -0.1600 
 20 C       -1.9640    -2.8610    -0.4520 C.3   1 <1>  -0.2490 
 21 H       -3.4900     7.7310     0.3480 H     1 <1>   0.0700 
 22 H       -5.1300     7.1680     0.0330 H     1 <1>   0.0700 
 23 H       -3.9920     7.3520    -1.3020 H     1 <1>   0.0700 
 24 H       -0.2310     1.3480     0.2140 H     1 <1>   0.4430 
 25 H        0.5190     5.0410    -0.4070 H     1 <1>   0.0700 
 26 H        1.0040     3.5540    -1.1700 H     1 <1>   0.0700 
 27 H        1.1550     3.7460     0.5600 H     1 <1>   0.0700 
 28 H       -5.5570     4.2180    -0.0710 H     1 <1>   0.1400 
 29 H       -3.1760    -1.2030     1.3940 H     1 <1>   0.0700 
 30 H       -1.5320    -0.6770     1.1540 H     1 <1>   0.0700 
 31 H       -5.4840    -0.6540     0.8220 H     1 <1>   0.1400 
 32 H       -7.6560     2.9730     0.2160 H     1 <1>   0.1400 
 33 H       -1.8240    -0.9110    -1.3110 H     1 <1>   0.0700 
 34 H       -3.4630    -1.4620    -1.0520 H     1 <1>   0.0700 
 35 H       -7.6300     0.5670     0.6580 H     1 <1>   0.1400 
 36 H       -0.9660    -2.8660    -0.0490 H     1 <1>   0.0700 
 37 H       -1.9470    -3.3630    -1.4040 H     1 <1>   0.0700 
 38 H       -2.6080    -3.4150     0.2090 H     1 <1>   0.0700 
@<TRIPOS>BOND
  1   1   2  2   
  2   2   3  1   
  3   2   4  1   
  4   3   5  1   
  5   4   6  1   
  6   4   7  2   
  7   5  21  1   
  8   5  22  1   
  9   5  23  1   
 10   6   8  ar  
 11   6   9  1   
 12   7  10  1   
 13   7  11  1   
 14   8  10  ar  
 15   8  12  ar  
 16   9  13  ar  
 17   9  14  ar  
 18  10  24  1   
 19  11  25  1   
 20  11  26  1   
 21  11  27  1   
 22  12  13  1   
 23  12  15  1   
 24  13  16  ar  
 25  14  17  ar  
 26  14  28  1   
 27  15  18  1   
 28  15  29  1   
 29  15  30  1   
 30  16  19  ar  
 31  16  31  1   
 32  17  19  ar  
 33  17  32  1   
 34  18  20  1   
 35  18  33  1   
 36  18  34  1   
 37  19  35  1   
 38  20  36  1   
 39  20  37  1   
 40  20  38  1   
@<TRIPOS>SUBSTRUCTURE
  1 ****   6 GROUP 4 **** **** 0

# MOE 2024.06 (io_trps.svl 2023.06)
