@<TRIPOS>MOLECULE
NONAME
55 57 1 0 0 
SMALL
USER_CHARGES


@<TRIPOS>ATOM
  1 F        1.6840    -1.5420    -0.9050 F     1 <1>  -0.1900 
  2 C        1.2780    -2.7130    -0.4940 C.ar  1 <1>   0.1900 
  3 C        1.1460    -2.9380     0.8600 C.ar  1 <1>  -0.1500 
  4 C        0.9940    -3.6870    -1.4300 C.ar  1 <1>  -0.1500 
  5 C        0.7180    -4.1840     1.2850 C.ar  1 <1>  -0.1500 
  6 C        0.5670    -4.9280    -0.9890 C.ar  1 <1>  -0.1500 
  7 C        0.4280    -5.1940     0.3720 C.ar  1 <1>  -0.1430 
  8 C       -0.0450    -6.5610     0.9050 C.3   1 <1>   0.0640 
  9 C        1.1040    -7.6230     0.8220 C.3   1 <1>   0.0420 
 10 C       -1.4190    -6.9290     0.2680 C.3   1 <1>   0.0420 
 11 C        2.3280    -7.1880     1.6330 C.2   1 <1>   0.4480 
 12 C        1.4560    -8.0760    -0.5960 C.2   1 <1>   0.4480 
 13 C       -2.5380    -5.9630     0.6240 C.2   1 <1>   0.4480 
 14 C       -1.9850    -8.3010     0.5920 C.2   1 <1>   0.4480 
 15 O        2.2300    -6.4890     2.5960 O.2   1 <1>  -0.5700 
 16 C        3.6970    -7.7450     1.2820 C.3   1 <1>  -0.0990 
 17 O        0.6490    -8.0930    -1.4770 O.2   1 <1>  -0.5700 
 18 C        2.8470    -8.6120    -0.8840 C.3   1 <1>  -0.0990 
 19 O       -2.4540    -5.1130     1.4580 O.2   1 <1>  -0.5700 
 20 C       -3.8370    -6.1920    -0.1300 C.3   1 <1>  -0.0990 
 21 O       -1.5150    -9.0500     1.3940 O.2   1 <1>  -0.5700 
 22 C       -3.2550    -8.6570    -0.1620 C.3   1 <1>  -0.0990 
 23 C        3.9670    -7.7960    -0.2260 C.3   1 <1>   0.0000 
 24 C       -4.3740    -7.6230     0.0960 C.3   1 <1>   0.0000 
 25 C        4.0350    -6.3760    -0.8140 C.3   1 <1>  -0.2400 
 26 C        5.3150    -8.4880    -0.4800 C.3   1 <1>  -0.2400 
 27 C       -5.5470    -7.8880    -0.8590 C.3   1 <1>  -0.2400 
 28 C       -4.8850    -7.7630     1.5420 C.3   1 <1>  -0.2400 
 29 H        1.3710    -2.1590     1.5650 H     1 <1>   0.1500 
 30 H        1.1060    -3.4750    -2.4770 H     1 <1>   0.1500 
 31 H        0.6110    -4.3640     2.3420 H     1 <1>   0.1500 
 32 H        0.3480    -5.6740    -1.7310 H     1 <1>   0.1500 
 33 H       -0.2500    -6.4460     1.9560 H     1 <1>   0.0800 
 34 H        0.7800    -8.5090     1.3260 H     1 <1>   0.0800 
 35 H       -1.3230    -6.8820    -0.7970 H     1 <1>   0.0800 
 36 H        3.7650    -8.7330     1.7000 H     1 <1>   0.0800 
 37 H        4.4460    -7.1410     1.7640 H     1 <1>   0.0800 
 38 H        2.9940    -8.6350    -1.9490 H     1 <1>   0.0800 
 39 H        2.8840    -9.6290    -0.5350 H     1 <1>   0.0800 
 40 H       -3.6550    -6.0240    -1.1760 H     1 <1>   0.0800 
 41 H       -4.5640    -5.4670     0.1930 H     1 <1>   0.0800 
 42 H       -3.5800    -9.6380     0.1360 H     1 <1>   0.0800 
 43 H       -3.0220    -8.6980    -1.2110 H     1 <1>   0.0800 
 44 H        3.1320    -5.8230    -0.6350 H     1 <1>   0.0800 
 45 H        4.1980    -6.4130    -1.8770 H     1 <1>   0.0800 
 46 H        4.8470    -5.8240    -0.3720 H     1 <1>   0.0800 
 47 H        5.3160    -9.4890    -0.0840 H     1 <1>   0.0800 
 48 H        6.1150    -7.9420    -0.0110 H     1 <1>   0.0800 
 49 H        5.5200    -8.5430    -1.5350 H     1 <1>   0.0800 
 50 H       -5.2350    -7.8010    -1.8850 H     1 <1>   0.0800 
 51 H       -6.3410    -7.1810    -0.6880 H     1 <1>   0.0800 
 52 H       -5.9410    -8.8780    -0.7100 H     1 <1>   0.0800 
 53 H       -4.1020    -7.5850     2.2580 H     1 <1>   0.0800 
 54 H       -5.2720    -8.7520     1.7130 H     1 <1>   0.0800 
 55 H       -5.6750    -7.0580     1.7340 H     1 <1>   0.0800 
@<TRIPOS>BOND
  1   1   2  1   
  2   2   3  ar  
  3   2   4  ar  
  4   3   5  ar  
  5   3  29  1   
  6   4   6  ar  
  7   4  30  1   
  8   5   7  ar  
  9   5  31  1   
 10   6   7  ar  
 11   6  32  1   
 12   7   8  1   
 13   8   9  1   
 14   8  10  1   
 15   8  33  1   
 16   9  11  1   
 17   9  12  1   
 18   9  34  1   
 19  10  13  1   
 20  10  14  1   
 21  10  35  1   
 22  11  15  2   
 23  11  16  1   
 24  12  17  2   
 25  12  18  1   
 26  13  19  2   
 27  13  20  1   
 28  14  21  2   
 29  14  22  1   
 30  16  23  1   
 31  16  36  1   
 32  16  37  1   
 33  18  23  1   
 34  18  38  1   
 35  18  39  1   
 36  20  24  1   
 37  20  40  1   
 38  20  41  1   
 39  22  24  1   
 40  22  42  1   
 41  22  43  1   
 42  23  25  1   
 43  23  26  1   
 44  24  27  1   
 45  24  28  1   
 46  25  44  1   
 47  25  45  1   
 48  25  46  1   
 49  26  47  1   
 50  26  48  1   
 51  26  49  1   
 52  27  50  1   
 53  27  51  1   
 54  27  52  1   
 55  28  53  1   
 56  28  54  1   
 57  28  55  1   
@<TRIPOS>SUBSTRUCTURE
  1 ****   8 GROUP 4 **** **** 0

# MOE 2024.06 (io_trps.svl 2023.06)
