@<TRIPOS>MOLECULE
NONAME
41 42 1 0 0 
SMALL
USER_CHARGES


@<TRIPOS>ATOM
  1 S        0.0310     0.6930     0.5170 S.o2  1 <1>   1.4470 
  2 O       -0.9410     1.7090     0.8590 O.2   1 <1>  -0.6500 
  3 O       -0.1570    -0.6570     1.0000 O.2   1 <1>  -0.6500 
  4 N        0.0880     0.6190    -1.1810 N.am  1 <1>  -0.8490 
  5 C        1.6980     1.2510     0.9750 C.ar  1 <1>  -0.0090 
  6 C       -1.0060    -0.1820    -1.7330 C.3   1 <1>   0.1160 
  7 C        0.1160     1.9410    -1.8150 C.3   1 <1>   0.1160 
  8 C        2.8250     0.7410     0.3440 C.ar  1 <1>  -0.1500 
  9 C        1.8880     2.1910     1.9800 C.ar  1 <1>  -0.1500 
 10 C        4.1200     1.1370     0.6740 C.ar  1 <1>   0.0860 
 11 C        3.1580     2.6110     2.3320 C.ar  1 <1>  -0.1500 
 12 C        5.2680     0.5750    -0.0150 C.2   1 <1>   0.5440 
 13 C        4.2600     2.0900     1.6830 C.ar  1 <1>  -0.1500 
 14 O        5.1940     0.2640    -1.1860 O.2   1 <1>  -0.5700 
 15 N        6.4510     0.3820     0.6420 N.am  1 <1>  -0.7300 
 16 C        7.6720    -0.2300     0.0400 C.3   1 <1>   0.1400 
 17 C        8.3110     0.6740    -1.0260 C.3   1 <1>   0.2000 
 18 O        9.5680     0.1780    -1.3550 O.3   1 <1>  -0.5600 
 19 C        8.5900     2.1050    -0.5830 C.3   1 <1>  -0.1600 
 20 C       10.3180     1.1730    -1.9710 C.3   1 <1>   0.1200 
 21 C        9.7930     2.5000    -1.4250 C.3   1 <1>  -0.1600 
 22 H       -0.9600    -1.1860    -1.3440 H     1 <1>   0.0800 
 23 H       -0.9260    -0.2340    -2.8050 H     1 <1>   0.0800 
 24 H       -1.9580     0.2490    -1.4680 H     1 <1>   0.0800 
 25 H        0.9490     2.5130    -1.4430 H     1 <1>   0.0800 
 26 H       -0.7950     2.4790    -1.6090 H     1 <1>   0.0800 
 27 H        0.2290     1.8360    -2.8810 H     1 <1>   0.0800 
 28 H        2.6970     0.0070    -0.4360 H     1 <1>   0.1500 
 29 H        1.0300     2.6000     2.4900 H     1 <1>   0.1500 
 30 H        3.2840     3.3450     3.1100 H     1 <1>   0.1500 
 31 H        5.2420     2.4340     1.9560 H     1 <1>   0.1500 
 32 H        6.4880     0.5270     1.6510 H     1 <1>   0.3700 
 33 H        7.4060    -1.1680    -0.4160 H     1 <1>   0.0800 
 34 H        8.3900    -0.4150     0.8190 H     1 <1>   0.0800 
 35 H        7.7150     0.6650    -1.9240 H     1 <1>   0.0800 
 36 H        8.8470     2.1190     0.4620 H     1 <1>   0.0800 
 37 H        7.7380     2.7390    -0.7510 H     1 <1>   0.0800 
 38 H       10.1620     1.1000    -3.0340 H     1 <1>   0.0800 
 39 H       11.3570     1.0160    -1.7370 H     1 <1>   0.0800 
 40 H       10.5420     2.9970    -0.8330 H     1 <1>   0.0800 
 41 H        9.5060     3.1400    -2.2400 H     1 <1>   0.0800 
@<TRIPOS>BOND
  1   1   2  2   
  2   1   3  2   
  3   1   4  am  
  4   1   5  1   
  5   4   6  1   
  6   4   7  1   
  7   5   8  ar  
  8   5   9  ar  
  9   6  22  1   
 10   6  23  1   
 11   6  24  1   
 12   7  25  1   
 13   7  26  1   
 14   7  27  1   
 15   8  10  ar  
 16   8  28  1   
 17   9  11  ar  
 18   9  29  1   
 19  10  12  1   
 20  10  13  ar  
 21  11  13  ar  
 22  11  30  1   
 23  12  14  2   
 24  12  15  am  
 25  13  31  1   
 26  15  16  1   
 27  15  32  1   
 28  16  17  1   
 29  16  33  1   
 30  16  34  1   
 31  17  18  1   
 32  17  19  1   
 33  17  35  1   
 34  18  20  1   
 35  19  21  1   
 36  19  36  1   
 37  19  37  1   
 38  20  21  1   
 39  20  38  1   
 40  20  39  1   
 41  21  40  1   
 42  21  41  1   
@<TRIPOS>SUBSTRUCTURE
  1 ****  10 GROUP 4 **** **** 0

# MOE 2024.06 (io_trps.svl 2023.06)
