@<TRIPOS>MOLECULE
NONAME
52 53 1 0 0 
SMALL
USER_CHARGES


@<TRIPOS>ATOM
  1 O        2.3660    -5.7380    -0.5510 O.3   1 <1>  -0.3630 
  2 C        1.0190    -5.8500    -0.4320 C.ar  1 <1>   0.0830 
  3 C        3.0990    -4.8430     0.2520 C.3   1 <1>   0.1200 
  4 C        0.2530    -5.1040     0.4590 C.ar  1 <1>  -0.1500 
  5 C        0.3930    -6.7670    -1.2580 C.ar  1 <1>  -0.1500 
  6 C        4.5740    -4.9730    -0.1250 C.3   1 <1>  -0.1600 
  7 C       -1.1180    -5.2850     0.5140 C.ar  1 <1>  -0.1500 
  8 C       -0.9780    -6.9450    -1.2000 C.ar  1 <1>  -0.1500 
  9 C        5.4420    -4.0590     0.7440 C.3   1 <1>   0.1100 
 10 C       -1.7480    -6.2050    -0.3130 C.ar  1 <1>  -0.1430 
 11 N        6.8300    -4.0410     0.2550 N.3   1 <1>  -0.8100 
 12 C       -3.2630    -6.3900    -0.2350 C.3   1 <1>   0.0630 
 13 C        7.5810    -2.8910     0.8140 C.3   1 <1>   0.1100 
 14 C        7.5560    -5.3100     0.5280 C.3   1 <1>   0.1100 
 15 C       -3.6000    -7.8170     0.2360 C.3   1 <1>  -0.1600 
 16 C       -3.9090    -6.0460    -1.5840 C.3   1 <1>  -0.2400 
 17 C        9.0260    -2.8040     0.2610 C.3   1 <1>   0.3430 
 18 C        9.0370    -5.2600     0.0770 C.3   1 <1>   0.3430 
 19 C       -5.0910    -8.0300     0.5330 C.3   1 <1>  -0.2400 
 20 N        9.3380    -3.9720    -0.6290 N.4   1 <1>  -0.9590 
 21 C       10.7020    -3.9200    -1.2270 C.3   1 <1>   0.2630 
 22 H        2.9400    -5.1090     1.2830 H     1 <1>   0.0800 
 23 H        2.7390    -3.8470     0.0610 H     1 <1>   0.0800 
 24 H        0.7000    -4.3830     1.1140 H     1 <1>   0.1500 
 25 H        0.9850    -7.3420    -1.9460 H     1 <1>   0.1500 
 26 H        4.6910    -4.6960    -1.1580 H     1 <1>   0.0800 
 27 H        4.8650    -5.9980     0.0080 H     1 <1>   0.0800 
 28 H       -1.6950    -4.7010     1.2090 H     1 <1>   0.1500 
 29 H       -1.4420    -7.6640    -1.8510 H     1 <1>   0.1500 
 30 H        5.4090    -4.3770     1.7740 H     1 <1>   0.0800 
 31 H        5.0380    -3.0610     0.6890 H     1 <1>   0.0800 
 32 H       -3.6510    -5.7010     0.4970 H     1 <1>   0.0800 
 33 H        7.6170    -2.9660     1.8880 H     1 <1>   0.0800 
 34 H        7.0670    -1.9750     0.5720 H     1 <1>   0.0800 
 35 H        7.0760    -6.1190     0.0050 H     1 <1>   0.0800 
 36 H        7.5160    -5.5390     1.5800 H     1 <1>   0.0800 
 37 H       -3.0420    -8.0170     1.1350 H     1 <1>   0.0800 
 38 H       -3.2820    -8.5300    -0.5040 H     1 <1>   0.0800 
 39 H       -3.6420    -6.7700    -2.3320 H     1 <1>   0.0800 
 40 H       -3.5720    -5.0780    -1.9110 H     1 <1>   0.0800 
 41 H       -4.9790    -6.0160    -1.4970 H     1 <1>   0.0800 
 42 H        9.7180    -2.7700     1.0850 H     1 <1>   0.0800 
 43 H        9.1300    -1.8870    -0.2940 H     1 <1>   0.0800 
 44 H        9.2310    -6.0940    -0.5780 H     1 <1>   0.0800 
 45 H        9.6740    -5.3640     0.9390 H     1 <1>   0.0800 
 46 H       -5.4400    -7.3100     1.2520 H     1 <1>   0.0800 
 47 H       -5.2440    -9.0160     0.9370 H     1 <1>   0.0800 
 48 H       -5.6780    -7.9410    -0.3640 H     1 <1>   0.0800 
 49 H        8.6090    -3.9210    -1.3610 H     1 <1>   0.4500 
 50 H       11.4520    -3.9740    -0.4550 H     1 <1>   0.0800 
 51 H       10.8350    -3.0000    -1.7740 H     1 <1>   0.0800 
 52 H       10.8440    -4.7450    -1.9060 H     1 <1>   0.0800 
@<TRIPOS>BOND
  1   1   2  1   
  2   1   3  1   
  3   2   4  ar  
  4   2   5  ar  
  5   3   6  1   
  6   3  22  1   
  7   3  23  1   
  8   4   7  ar  
  9   4  24  1   
 10   5   8  ar  
 11   5  25  1   
 12   6   9  1   
 13   6  26  1   
 14   6  27  1   
 15   7  10  ar  
 16   7  28  1   
 17   8  10  ar  
 18   8  29  1   
 19   9  11  1   
 20   9  30  1   
 21   9  31  1   
 22  10  12  1   
 23  11  13  1   
 24  11  14  1   
 25  12  15  1   
 26  12  16  1   
 27  12  32  1   
 28  13  17  1   
 29  13  33  1   
 30  13  34  1   
 31  14  18  1   
 32  14  35  1   
 33  14  36  1   
 34  15  19  1   
 35  15  37  1   
 36  15  38  1   
 37  16  39  1   
 38  16  40  1   
 39  16  41  1   
 40  17  20  1   
 41  17  42  1   
 42  17  43  1   
 43  18  20  1   
 44  18  44  1   
 45  18  45  1   
 46  19  46  1   
 47  19  47  1   
 48  19  48  1   
 49  20  21  1   
 50  20  49  1   
 51  21  50  1   
 52  21  51  1   
 53  21  52  1   
@<TRIPOS>SUBSTRUCTURE
  1 ****   1 GROUP 4 **** **** 0

# MOE 2024.06 (io_trps.svl 2023.06)
