@<TRIPOS>MOLECULE
NONAME
48 49 1 0 0 
SMALL
USER_CHARGES


@<TRIPOS>ATOM
  1 S       -0.3430    -0.2320     0.3050 S.3   1 <1>  -0.3320 
  2 C        0.4780     1.3710     0.5180 C.ar  1 <1>   0.1020 
  3 C        0.9650    -1.5380     0.2430 C.3   1 <1>  -0.0100 
  4 C       -0.2740     2.5220     0.8080 C.ar  1 <1>   0.0860 
  5 C        1.8600     1.4260     0.3950 C.ar  1 <1>  -0.1500 
  6 C       -1.7230     2.5650     0.9340 C.2   1 <1>   0.5440 
  7 C        0.4400     3.7090     0.9890 C.ar  1 <1>  -0.1500 
  8 C        2.5290     2.6220     0.5720 C.ar  1 <1>  -0.1500 
  9 O       -2.2550     3.3180     1.7280 O.2   1 <1>  -0.5700 
 10 N       -2.5420     1.8080     0.1460 N.am  1 <1>  -0.7300 
 11 C        1.8150     3.7660     0.8730 C.ar  1 <1>  -0.1500 
 12 C       -3.9870     1.6830     0.3500 C.3   1 <1>   0.2200 
 13 C       -4.4430     0.3020    -0.1020 C.3   1 <1>  -0.1600 
 14 C       -4.6930     2.7550    -0.4720 C.3   1 <1>  -0.1600 
 15 C       -5.9620     0.1310     0.0320 C.3   1 <1>   0.5030 
 16 C       -6.2170     2.6620    -0.3450 C.3   1 <1>   0.5030 
 17 N       -6.6850     1.2790    -0.5450 N.4   1 <1>  -0.9060 
 18 C       -6.3920    -0.0830     1.4860 C.3   1 <1>  -0.2400 
 19 C       -6.4100    -1.0840    -0.7780 C.3   1 <1>  -0.2400 
 20 C       -6.8710     3.4800    -1.4570 C.3   1 <1>  -0.2400 
 21 C       -6.7180     3.2000     0.9980 C.3   1 <1>  -0.2400 
 22 H        0.4710    -2.4930     0.2290 H     1 <1>   0.0800 
 23 H        1.5760    -1.4400     1.1230 H     1 <1>   0.0800 
 24 H        1.5390    -1.3960    -0.6550 H     1 <1>   0.0800 
 25 H        2.4380     0.5550     0.1610 H     1 <1>   0.1500 
 26 H       -0.1020     4.6100     1.2260 H     1 <1>   0.1500 
 27 H        3.6010     2.6650     0.4770 H     1 <1>   0.1500 
 28 H       -2.0870     1.0660    -0.3950 H     1 <1>   0.3700 
 29 H        2.3310     4.7000     1.0170 H     1 <1>   0.1500 
 30 H       -4.1970     1.8190     1.3990 H     1 <1>   0.0800 
 31 H       -3.9450    -0.4480     0.4900 H     1 <1>   0.0800 
 32 H       -4.1510     0.1540    -1.1270 H     1 <1>   0.0800 
 33 H       -4.4040     2.6530    -1.5030 H     1 <1>   0.0800 
 34 H       -4.3670     3.7250    -0.1390 H     1 <1>   0.0800 
 35 H       -7.6570     1.2280    -0.2370 H     1 <1>   0.4500 
 36 H       -6.6950     1.1290    -1.5550 H     1 <1>   0.4500 
 37 H       -5.9930     0.6600     2.1460 H     1 <1>   0.0800 
 38 H       -6.0180    -1.0300     1.8360 H     1 <1>   0.0800 
 39 H       -7.4630    -0.1030     1.5780 H     1 <1>   0.0800 
 40 H       -6.1570    -0.9780    -1.8180 H     1 <1>   0.0800 
 41 H       -7.4700    -1.2440    -0.6870 H     1 <1>   0.0800 
 42 H       -5.9160    -1.9690    -0.4150 H     1 <1>   0.0800 
 43 H       -6.5740     3.1300    -2.4290 H     1 <1>   0.0800 
 44 H       -6.5670     4.5100    -1.3780 H     1 <1>   0.0800 
 45 H       -7.9440     3.4520    -1.3830 H     1 <1>   0.0800 
 46 H       -6.1950     2.7760     1.8320 H     1 <1>   0.0800 
 47 H       -7.7740     3.0370     1.1180 H     1 <1>   0.0800 
 48 H       -6.5440     4.2610     1.0470 H     1 <1>   0.0800 
@<TRIPOS>BOND
  1   1   2  1   
  2   1   3  1   
  3   2   4  ar  
  4   2   5  ar  
  5   3  22  1   
  6   3  23  1   
  7   3  24  1   
  8   4   6  1   
  9   4   7  ar  
 10   5   8  ar  
 11   5  25  1   
 12   6   9  2   
 13   6  10  am  
 14   7  11  ar  
 15   7  26  1   
 16   8  11  ar  
 17   8  27  1   
 18  10  12  1   
 19  10  28  1   
 20  11  29  1   
 21  12  13  1   
 22  12  14  1   
 23  12  30  1   
 24  13  15  1   
 25  13  31  1   
 26  13  32  1   
 27  14  16  1   
 28  14  33  1   
 29  14  34  1   
 30  15  17  1   
 31  15  18  1   
 32  15  19  1   
 33  16  17  1   
 34  16  20  1   
 35  16  21  1   
 36  17  35  1   
 37  17  36  1   
 38  18  37  1   
 39  18  38  1   
 40  18  39  1   
 41  19  40  1   
 42  19  41  1   
 43  19  42  1   
 44  20  43  1   
 45  20  44  1   
 46  20  45  1   
 47  21  46  1   
 48  21  47  1   
 49  21  48  1   
@<TRIPOS>SUBSTRUCTURE
  1 ****  10 GROUP 4 **** **** 0

# MOE 2024.06 (io_trps.svl 2023.06)
