@<TRIPOS>MOLECULE
NONAME
33 34 1 0 0 
SMALL
USER_CHARGES


@<TRIPOS>ATOM
  1 O       -0.6740     0.0890     1.5100 O.2   1 <1>  -0.5700 
  2 C       -1.5960     0.7720     1.0990 C.2   1 <1>   0.6160 
  3 N       -2.8110     0.1780     1.0160 N.am  1 <1>  -0.5470 
  4 C       -1.4770     2.1480     0.6950 C.2   1 <1>  -0.1240 
  5 C       -3.9500     0.8300     0.5730 C.ar  1 <1>   0.1170 
  6 C       -2.5670     2.8270     0.2240 C.2   1 <1>  -0.1670 
  7 C       -0.0780     2.7600     0.8300 C.3   1 <1>  -0.0220 
  8 C       -3.8590     2.1750     0.1720 C.ar  1 <1>   0.0280 
  9 C       -5.1670     0.1560     0.5330 C.ar  1 <1>  -0.1500 
 10 C       -2.5020     4.2720    -0.2790 C.3   1 <1>  -0.1020 
 11 C        0.7340     2.5520    -0.4550 C.3   1 <1>  -0.1600 
 12 C       -5.0450     2.7950    -0.2490 C.ar  1 <1>  -0.1500 
 13 C       -6.3090     0.7950     0.1070 C.ar  1 <1>  -0.1500 
 14 C        2.1260     3.1830    -0.3500 C.3   1 <1>  -0.2400 
 15 C       -6.2510     2.1250    -0.2850 C.ar  1 <1>  -0.1430 
 16 C       -7.5210     2.8170    -0.7480 C.3   1 <1>  -0.0970 
 17 H       -2.8370    -0.7940     1.3110 H     1 <1>   0.3700 
 18 H        0.4420     2.3070     1.6560 H     1 <1>   0.0800 
 19 H       -0.1410     3.8060     1.0640 H     1 <1>   0.0800 
 20 H       -5.2120    -0.8720     0.8400 H     1 <1>   0.1500 
 21 H       -3.0620     4.9130     0.3780 H     1 <1>   0.0800 
 22 H       -2.9210     4.3320    -1.2670 H     1 <1>   0.0800 
 23 H       -1.5030     4.6530    -0.3480 H     1 <1>   0.0800 
 24 H        0.2070     2.9840    -1.2880 H     1 <1>   0.0800 
 25 H        0.8360     1.4950    -0.6390 H     1 <1>   0.0800 
 26 H       -5.0280     3.8240    -0.5520 H     1 <1>   0.1500 
 27 H       -7.2450     0.2660     0.0800 H     1 <1>   0.1500 
 28 H        2.0490     4.2430    -0.1850 H     1 <1>   0.0800 
 29 H        2.6740     3.0160    -1.2600 H     1 <1>   0.0800 
 30 H        2.6760     2.7430     0.4640 H     1 <1>   0.0800 
 31 H       -7.3280     3.8400    -1.0190 H     1 <1>   0.0800 
 32 H       -8.2520     2.8050     0.0400 H     1 <1>   0.0800 
 33 H       -7.9250     2.3070    -1.6040 H     1 <1>   0.0800 
@<TRIPOS>BOND
  1   1   2  2   
  2   2   3  am  
  3   2   4  1   
  4   3   5  1   
  5   3  17  1   
  6   4   6  2   
  7   4   7  1   
  8   5   8  ar  
  9   5   9  ar  
 10   6   8  1   
 11   6  10  1   
 12   7  11  1   
 13   7  18  1   
 14   7  19  1   
 15   8  12  ar  
 16   9  13  ar  
 17   9  20  1   
 18  10  21  1   
 19  10  22  1   
 20  10  23  1   
 21  11  14  1   
 22  11  24  1   
 23  11  25  1   
 24  12  15  ar  
 25  12  26  1   
 26  13  15  ar  
 27  13  27  1   
 28  14  28  1   
 29  14  29  1   
 30  14  30  1   
 31  15  16  1   
 32  16  31  1   
 33  16  32  1   
 34  16  33  1   
@<TRIPOS>SUBSTRUCTURE
  1 ****   8 GROUP 4 **** **** 0

# MOE 2024.06 (io_trps.svl 2023.06)
