@<TRIPOS>MOLECULE
NONAME
41 44 1 0 0 
SMALL
USER_CHARGES


@<TRIPOS>ATOM
  1 CL       1.6000     1.8480     3.7780 Cl    1 <1>  -0.1770 
  2 C        0.7710     2.9130     2.6730 C.ar  1 <1>   0.1770 
  3 C        1.4460     3.4120     1.5770 C.ar  1 <1>  -0.1500 
  4 C       -0.5480     3.2410     2.9040 C.ar  1 <1>  -0.1500 
  5 C        0.7900     4.2610     0.7010 C.ar  1 <1>  -0.1500 
  6 C       -1.1990     4.0900     2.0250 C.ar  1 <1>  -0.1500 
  7 C       -0.5410     4.6250     0.9180 C.ar  1 <1>  -0.1430 
  8 C       -1.3010     5.5600    -0.0410 C.3   1 <1>   0.8370 
  9 N       -0.4000     6.5120    -0.7310 N.4   1 <1>  -0.9590 
 10 N       -2.3280     6.3670     0.6310 N.3   1 <1>  -0.8100 
 11 C        0.2380     7.4570     0.2450 C.3   1 <1>   0.3430 
 12 C       -1.1580     7.2660    -1.7780 C.3   1 <1>   0.3430 
 13 C       -1.7840     7.3050     1.6370 C.3   1 <1>   0.1100 
 14 C       -3.1630     7.0980    -0.3410 C.3   1 <1>   0.1100 
 15 C       -0.8440     8.3020     0.9400 C.3   1 <1>   0.0000 
 16 C       -2.2790     8.0910    -1.1190 C.3   1 <1>   0.0000 
 17 C       -1.6450     9.0870    -0.1220 C.3   1 <1>  -0.1600 
 18 C       -0.2170     9.2650     1.9600 C.3   1 <1>  -0.2400 
 19 C       -3.1020     8.8420    -2.1760 C.3   1 <1>  -0.2400 
 20 H        2.4720     3.1300     1.4180 H     1 <1>   0.1500 
 21 H       -1.0570     2.8340     3.7610 H     1 <1>   0.1500 
 22 H        1.3470     4.6150    -0.1470 H     1 <1>   0.1500 
 23 H       -2.2330     4.3290     2.2170 H     1 <1>   0.1500 
 24 H       -1.7910     4.9390    -0.7740 H     1 <1>   0.0800 
 25 H        0.3220     5.9430    -1.1730 H     1 <1>   0.4500 
 26 H        0.9250     8.1090    -0.2680 H     1 <1>   0.0800 
 27 H        0.7870     6.9040     0.9890 H     1 <1>   0.0800 
 28 H       -0.4940     7.9270    -2.3100 H     1 <1>   0.0800 
 29 H       -1.5910     6.5790    -2.4870 H     1 <1>   0.0800 
 30 H       -2.5940     7.8310     2.1150 H     1 <1>   0.0800 
 31 H       -1.2550     6.7650     2.4040 H     1 <1>   0.0800 
 32 H       -3.9450     7.6260     0.1810 H     1 <1>   0.0800 
 33 H       -3.6340     6.4000    -1.0130 H     1 <1>   0.0800 
 34 H       -1.0010     9.7760    -0.6410 H     1 <1>   0.0800 
 35 H       -2.4200     9.6620     0.3590 H     1 <1>   0.0800 
 36 H        0.3380     8.7240     2.7070 H     1 <1>   0.0800 
 37 H       -0.9820     9.8340     2.4590 H     1 <1>   0.0800 
 38 H        0.4510     9.9560     1.4740 H     1 <1>   0.0800 
 39 H       -3.5500     8.1570    -2.8740 H     1 <1>   0.0800 
 40 H       -2.4830     9.5310    -2.7240 H     1 <1>   0.0800 
 41 H       -3.8920     9.4040    -1.7060 H     1 <1>   0.0800 
@<TRIPOS>BOND
  1   1   2  1   
  2   2   3  ar  
  3   2   4  ar  
  4   3   5  ar  
  5   3  20  1   
  6   4   6  ar  
  7   4  21  1   
  8   5   7  ar  
  9   5  22  1   
 10   6   7  ar  
 11   6  23  1   
 12   7   8  1   
 13   8   9  1   
 14   8  10  1   
 15   8  24  1   
 16   9  11  1   
 17   9  12  1   
 18   9  25  1   
 19  10  13  1   
 20  10  14  1   
 21  11  15  1   
 22  11  26  1   
 23  11  27  1   
 24  12  16  1   
 25  12  28  1   
 26  12  29  1   
 27  13  15  1   
 28  13  30  1   
 29  13  31  1   
 30  14  16  1   
 31  14  32  1   
 32  14  33  1   
 33  15  17  1   
 34  15  18  1   
 35  16  17  1   
 36  16  19  1   
 37  17  34  1   
 38  17  35  1   
 39  18  36  1   
 40  18  37  1   
 41  18  38  1   
 42  19  39  1   
 43  19  40  1   
 44  19  41  1   
@<TRIPOS>SUBSTRUCTURE
  1 ****   8 GROUP 4 **** **** 0

# MOE 2024.06 (io_trps.svl 2023.06)
