@<TRIPOS>MOLECULE
NONAME
37 38 1 0 0 
SMALL
USER_CHARGES


@<TRIPOS>ATOM
  1 S        0.1350     0.0240    -1.0310 S.o2  1 <1>   1.3330 
  2 O       -0.3630     1.3710    -0.9040 O.2   1 <1>  -0.6500 
  3 O        1.1070    -0.3260    -2.0350 O.2   1 <1>  -0.6500 
  4 N       -1.1970    -0.9980    -1.3890 N.am  1 <1>  -0.7570 
  5 C        0.6800    -0.6030     0.5630 C.3   1 <1>  -0.0550 
  6 C       -2.4910    -0.9860    -0.8970 C.ar  1 <1>   0.1990 
  7 C        1.9170     0.1120     1.1370 C.3   1 <1>  -0.2400 
  8 C       -3.4100    -1.8980    -1.4040 C.ar  1 <1>  -0.1500 
  9 C       -2.9260    -0.1090     0.0930 C.ar  1 <1>  -0.1500 
 10 C       -4.7130    -1.9290    -0.9460 C.ar  1 <1>  -0.1500 
 11 C       -4.2290    -0.1430     0.5510 C.ar  1 <1>  -0.1500 
 12 C       -5.1610    -1.0460     0.0360 C.ar  1 <1>   0.0860 
 13 C       -6.5340    -1.0790     0.4970 C.2   1 <1>   0.5440 
 14 O       -7.0460    -2.1460     0.7840 O.2   1 <1>  -0.5700 
 15 N       -7.2900     0.0670     0.6080 N.am  1 <1>  -0.6600 
 16 C       -8.6910     0.0380     1.0830 C.3   1 <1>   0.1400 
 17 C       -6.9890     1.3490    -0.0680 C.3   1 <1>   0.1400 
 18 C       -9.2140     1.4530     0.8570 C.3   1 <1>  -0.1600 
 19 C       -8.3480     2.0070    -0.2710 C.3   1 <1>  -0.1600 
 20 H       -0.9880    -1.5500    -2.2160 H     1 <1>   0.4200 
 21 H        0.9040    -1.6470     0.4670 H     1 <1>   0.0800 
 22 H       -0.1240    -0.5090     1.2680 H     1 <1>   0.0800 
 23 H        2.7500     0.0090     0.4630 H     1 <1>   0.0800 
 24 H        2.1860    -0.3130     2.0880 H     1 <1>   0.0800 
 25 H        1.7110     1.1600     1.2710 H     1 <1>   0.0800 
 26 H       -3.1010    -2.5930    -2.1640 H     1 <1>   0.1500 
 27 H       -2.2520     0.6130     0.5130 H     1 <1>   0.1500 
 28 H       -5.4090    -2.6470    -1.3460 H     1 <1>   0.1500 
 29 H       -4.5390     0.5370     1.3240 H     1 <1>   0.1500 
 30 H       -8.7340    -0.2450     2.1210 H     1 <1>   0.0800 
 31 H       -9.2470    -0.6710     0.4940 H     1 <1>   0.0800 
 32 H       -6.4840     1.1900    -1.0060 H     1 <1>   0.0800 
 33 H       -6.3770     1.9540     0.5790 H     1 <1>   0.0800 
 34 H       -9.0610     2.0280     1.7540 H     1 <1>   0.0800 
 35 H      -10.2610     1.4560     0.6120 H     1 <1>   0.0800 
 36 H       -8.7460     1.6990    -1.2220 H     1 <1>   0.0800 
 37 H       -8.2810     3.0810    -0.2490 H     1 <1>   0.0800 
@<TRIPOS>BOND
  1   1   2  2   
  2   1   3  2   
  3   1   4  am  
  4   1   5  1   
  5   4   6  1   
  6   4  20  1   
  7   5   7  1   
  8   5  21  1   
  9   5  22  1   
 10   6   8  ar  
 11   6   9  ar  
 12   7  23  1   
 13   7  24  1   
 14   7  25  1   
 15   8  10  ar  
 16   8  26  1   
 17   9  11  ar  
 18   9  27  1   
 19  10  12  ar  
 20  10  28  1   
 21  11  12  ar  
 22  11  29  1   
 23  12  13  1   
 24  13  14  2   
 25  13  15  am  
 26  15  16  1   
 27  15  17  1   
 28  16  18  1   
 29  16  30  1   
 30  16  31  1   
 31  17  19  1   
 32  17  32  1   
 33  17  33  1   
 34  18  19  1   
 35  18  34  1   
 36  18  35  1   
 37  19  36  1   
 38  19  37  1   
@<TRIPOS>SUBSTRUCTURE
  1 ****  11 GROUP 4 **** **** 0

# MOE 2024.06 (io_trps.svl 2023.06)
