@<TRIPOS>MOLECULE
NONAME
51 54 1 0 0 
SMALL
USER_CHARGES


@<TRIPOS>ATOM
  1 O       -0.9520     1.6740    -2.0020 O.2   1 <1>  -0.5700 
  2 C       -0.6030     2.6820    -1.4300 C.2   1 <1>   0.6900 
  3 N        0.4800     3.3500    -1.9060 N.am  1 <1>  -0.5470 
  4 N       -1.3310     3.1020    -0.3710 N.am  1 <1>  -0.7300 
  5 C        1.3620     4.2410    -1.2850 C.ar  1 <1>   0.1170 
  6 C       -1.5830     4.5140     0.0090 C.3   1 <1>   0.1400 
  7 C        1.9600     5.2460    -2.0350 C.ar  1 <1>  -0.1500 
  8 C        1.6730     4.1430     0.0670 C.ar  1 <1>  -0.1500 
  9 C       -3.0890     4.8530     0.0160 C.3   1 <1>   0.0000 
 10 C        2.8390     6.1390    -1.4480 C.ar  1 <1>  -0.1500 
 11 C        2.5500     5.0350     0.6580 C.ar  1 <1>  -0.1500 
 12 C       -3.2610     6.3390     0.4070 C.3   1 <1>  -0.1600 
 13 C       -3.8580     3.9880     1.0430 C.3   1 <1>  -0.1600 
 14 C       -3.7150     4.6420    -1.3830 C.3   1 <1>  -0.1600 
 15 C        3.1340     6.0350    -0.0990 C.ar  1 <1>  -0.1500 
 16 C       -4.7500     6.7420     0.4280 C.3   1 <1>   0.0000 
 17 C       -5.3550     4.3620     1.0690 C.3   1 <1>   0.0000 
 18 C       -5.2060     5.0230    -1.3700 C.3   1 <1>  -0.0800 
 19 C       -5.4900     5.8510     1.4460 C.3   1 <1>  -0.1600 
 20 C       -5.3490     6.5030    -0.9730 C.3   1 <1>  -0.1600 
 21 C       -4.8920     8.2190     0.8170 C.3   1 <1>  -0.2400 
 22 C       -5.9440     4.1490    -0.3400 C.3   1 <1>  -0.1600 
 23 C       -6.0980     3.4900     2.0880 C.3   1 <1>  -0.2400 
 24 H        0.7700     2.9840    -2.8090 H     1 <1>   0.3700 
 25 H       -2.0940     2.4690    -0.1360 H     1 <1>   0.3700 
 26 H       -1.0800     5.1700    -0.6810 H     1 <1>   0.0800 
 27 H       -1.1690     4.6860     0.9880 H     1 <1>   0.0800 
 28 H        1.7320     5.3320    -3.0820 H     1 <1>   0.1500 
 29 H        1.2270     3.3620     0.6570 H     1 <1>   0.1500 
 30 H        3.2940     6.9150    -2.0390 H     1 <1>   0.1500 
 31 H        2.7800     4.9490     1.7060 H     1 <1>   0.1500 
 32 H       -2.7340     6.9600    -0.2960 H     1 <1>   0.0800 
 33 H       -2.8310     6.5100     1.3780 H     1 <1>   0.0800 
 34 H       -3.4340     4.1270     2.0220 H     1 <1>   0.0800 
 35 H       -3.7640     2.9460     0.7940 H     1 <1>   0.0800 
 36 H       -3.6190     3.6130    -1.6850 H     1 <1>   0.0800 
 37 H       -3.1960     5.2410    -2.1100 H     1 <1>   0.0800 
 38 H        3.8180     6.7290     0.3590 H     1 <1>   0.1500 
 39 H       -5.6280     4.8670    -2.3480 H     1 <1>   0.0800 
 40 H       -5.0860     6.0130     2.4290 H     1 <1>   0.0800 
 41 H       -6.5310     6.1230     1.4720 H     1 <1>   0.0800 
 42 H       -4.8460     7.1190    -1.6980 H     1 <1>   0.0800 
 43 H       -6.3890     6.7770    -0.9780 H     1 <1>   0.0800 
 44 H       -4.4760     8.3920     1.7930 H     1 <1>   0.0800 
 45 H       -5.9280     8.5040     0.8330 H     1 <1>   0.0800 
 46 H       -4.3770     8.8450     0.1100 H     1 <1>   0.0800 
 47 H       -6.9910     4.4010    -0.3410 H     1 <1>   0.0800 
 48 H       -5.8590     3.1140    -0.6220 H     1 <1>   0.0800 
 49 H       -7.1430     3.7460     2.1100 H     1 <1>   0.0800 
 50 H       -6.0090     2.4500     1.8310 H     1 <1>   0.0800 
 51 H       -5.6920     3.6330     3.0740 H     1 <1>   0.0800 
@<TRIPOS>BOND
  1   1   2  2   
  2   2   3  am  
  3   2   4  am  
  4   3   5  1   
  5   3  24  1   
  6   4   6  1   
  7   4  25  1   
  8   5   7  ar  
  9   5   8  ar  
 10   6   9  1   
 11   6  26  1   
 12   6  27  1   
 13   7  10  ar  
 14   7  28  1   
 15   8  11  ar  
 16   8  29  1   
 17   9  12  1   
 18   9  13  1   
 19   9  14  1   
 20  10  15  ar  
 21  10  30  1   
 22  11  15  ar  
 23  11  31  1   
 24  12  16  1   
 25  12  32  1   
 26  12  33  1   
 27  13  17  1   
 28  13  34  1   
 29  13  35  1   
 30  14  18  1   
 31  14  36  1   
 32  14  37  1   
 33  15  38  1   
 34  16  19  1   
 35  16  20  1   
 36  16  21  1   
 37  17  19  1   
 38  17  22  1   
 39  17  23  1   
 40  18  20  1   
 41  18  22  1   
 42  18  39  1   
 43  19  40  1   
 44  19  41  1   
 45  20  42  1   
 46  20  43  1   
 47  21  44  1   
 48  21  45  1   
 49  21  46  1   
 50  22  47  1   
 51  22  48  1   
 52  23  49  1   
 53  23  50  1   
 54  23  51  1   
@<TRIPOS>SUBSTRUCTURE
  1 ****   6 GROUP 4 **** **** 0

# MOE 2024.06 (io_trps.svl 2023.06)
