@<TRIPOS>MOLECULE
NONAME
40 40 1 0 0 
SMALL
USER_CHARGES


@<TRIPOS>ATOM
  1 O        1.5030     0.7310    -0.1030 O.3   1 <1>  -0.5600 
  2 C        1.2510    -0.4110     0.6670 C.3   1 <1>   0.4800 
  3 C        0.4370     1.5710    -0.4480 C.3   1 <1>   0.1200 
  4 C        2.5850    -1.0610     0.8300 C.1   1 <1>  -0.2000 
  5 C        0.3160    -1.3670    -0.0770 C.3   1 <1>  -0.2400 
  6 C        0.7100    -0.0220     2.0440 C.3   1 <1>  -0.2400 
  7 C        0.9940     2.7240    -1.2770 C.3   1 <1>   0.0400 
  8 C        3.6730    -1.5320     0.9270 C.1   1 <1>  -0.2000 
  9 C       -0.1050     3.6440    -1.6690 C.1   1 <1>   0.3570 
 10 C        5.0740    -2.0200     0.9740 C.3   1 <1>   0.5430 
 11 N       -0.9590     4.3350    -1.9590 N.1   1 <1>  -0.5570 
 12 N        5.8240    -1.2780    -0.0680 N.4   1 <1>  -0.9590 
 13 C        7.1380    -1.9130    -0.3640 C.3   1 <1>   0.3430 
 14 C        5.9550     0.1710     0.2750 C.3   1 <1>   0.3430 
 15 C        7.7970    -1.2000    -1.5470 C.3   1 <1>  -0.1600 
 16 C        6.5950     0.9190    -0.8960 C.3   1 <1>  -0.1600 
 17 C        7.9440     0.3060    -1.2950 C.3   1 <1>  -0.1600 
 18 H       -0.0240     1.9530     0.4470 H     1 <1>   0.0800 
 19 H       -0.2830     1.0190    -1.0270 H     1 <1>   0.0800 
 20 H       -0.6830    -0.9760    -0.1280 H     1 <1>   0.0800 
 21 H        0.2690    -2.3060     0.4440 H     1 <1>   0.0800 
 22 H        0.6840    -1.5500    -1.0710 H     1 <1>   0.0800 
 23 H       -0.2920     0.3600     1.9760 H     1 <1>   0.0800 
 24 H        1.3480     0.7130     2.5000 H     1 <1>   0.0800 
 25 H        0.6830    -0.8880     2.6800 H     1 <1>   0.0800 
 26 H        1.4600     2.3440    -2.1670 H     1 <1>   0.0800 
 27 H        1.7150     3.2740    -0.7010 H     1 <1>   0.0800 
 28 H        5.0890    -3.0780     0.7670 H     1 <1>   0.0800 
 29 H        5.5010    -1.8470     1.9480 H     1 <1>   0.0800 
 30 H        5.2420    -1.3240    -0.9130 H     1 <1>   0.4500 
 31 H        7.0020    -2.9550    -0.6060 H     1 <1>   0.0800 
 32 H        7.7810    -1.8430     0.4990 H     1 <1>   0.0800 
 33 H        6.5680     0.2860     1.1540 H     1 <1>   0.0800 
 34 H        4.9840     0.5960     0.4790 H     1 <1>   0.0800 
 35 H        7.2140    -1.3690    -2.4360 H     1 <1>   0.0800 
 36 H        8.7700    -1.6280    -1.7170 H     1 <1>   0.0800 
 37 H        6.7400     1.9490    -0.6180 H     1 <1>   0.0800 
 38 H        5.9220     0.9060    -1.7360 H     1 <1>   0.0800 
 39 H        8.3180     0.7910    -2.1820 H     1 <1>   0.0800 
 40 H        8.6600     0.4710    -0.5070 H     1 <1>   0.0800 
@<TRIPOS>BOND
  1   1   2  1   
  2   1   3  1   
  3   2   4  1   
  4   2   5  1   
  5   2   6  1   
  6   3   7  1   
  7   3  18  1   
  8   3  19  1   
  9   4   8  3   
 10   5  20  1   
 11   5  21  1   
 12   5  22  1   
 13   6  23  1   
 14   6  24  1   
 15   6  25  1   
 16   7   9  1   
 17   7  26  1   
 18   7  27  1   
 19   8  10  1   
 20   9  11  3   
 21  10  12  1   
 22  10  28  1   
 23  10  29  1   
 24  12  13  1   
 25  12  14  1   
 26  12  30  1   
 27  13  15  1   
 28  13  31  1   
 29  13  32  1   
 30  14  16  1   
 31  14  33  1   
 32  14  34  1   
 33  15  17  1   
 34  15  35  1   
 35  15  36  1   
 36  16  17  1   
 37  16  37  1   
 38  16  38  1   
 39  17  39  1   
 40  17  40  1   
@<TRIPOS>SUBSTRUCTURE
  1 ****   4 GROUP 4 **** **** 0

# MOE 2024.06 (io_trps.svl 2023.06)
