@<TRIPOS>MOLECULE
NONAME
43 45 1 0 0 
SMALL
USER_CHARGES


@<TRIPOS>ATOM
  1 S        2.4250    -1.7070    -0.5920 S.3   1 <1>  -0.0800 
  2 C        2.2940    -0.0280    -0.1860 C.2   1 <1>   0.4420 
  3 C        0.7960    -1.8920    -0.0410 C.2   1 <1>   0.1980 
  4 N        1.1410     0.2670     0.2940 N.2   1 <1>  -0.3380 
  5 N        3.4080     0.7460    -0.4190 N.am  1 <1>  -0.4940 
  6 N        0.2900    -0.8030     0.3730 N.2   1 <1>  -0.3380 
  7 C        0.1620    -3.2690    -0.1090 C.3   1 <1>   0.0200 
  8 C        3.6310     2.0760    -0.2000 C.2   1 <1>   0.5690 
  9 C        0.7490    -4.2220     0.9400 C.3   1 <1>  -0.2400 
 10 O        2.7730     2.8170     0.2170 O.2   1 <1>  -0.5700 
 11 C        5.0330     2.6410    -0.5400 C.3   1 <1>   0.2810 
 12 N        6.1950     1.8690     0.0280 N.am  1 <1>  -0.6600 
 13 C        5.2690     4.0780    -0.0490 C.3   1 <1>  -0.1600 
 14 C        6.5570     0.6440    -0.4570 C.2   1 <1>   0.6900 
 15 C        7.1460     2.7860     0.7020 C.3   1 <1>   0.1400 
 16 C        6.7680     4.1730     0.2030 C.3   1 <1>  -0.1600 
 17 O        5.9300     0.1510    -1.3770 O.2   1 <1>  -0.5700 
 18 N        7.5810    -0.0250     0.1440 N.am  1 <1>  -0.5470 
 19 C        8.2150    -1.2300    -0.1890 C.ar  1 <1>   0.1170 
 20 C        8.8230    -1.9700     0.8190 C.ar  1 <1>  -0.1500 
 21 C        8.2800    -1.7090    -1.4940 C.ar  1 <1>  -0.1500 
 22 C        9.4730    -3.1580     0.5350 C.ar  1 <1>  -0.1500 
 23 C        8.9280    -2.8960    -1.7820 C.ar  1 <1>  -0.1500 
 24 C        9.5260    -3.6230    -0.7680 C.ar  1 <1>  -0.1500 
 25 H        4.2130     0.2450    -0.8130 H     1 <1>   0.3700 
 26 H        0.3060    -3.6740    -1.0950 H     1 <1>   0.0800 
 27 H       -0.8960    -3.1670     0.0570 H     1 <1>   0.0800 
 28 H        1.8010    -4.3680     0.7710 H     1 <1>   0.0800 
 29 H        0.2560    -5.1760     0.8890 H     1 <1>   0.0800 
 30 H        0.6100    -3.8140     1.9260 H     1 <1>   0.0800 
 31 H        5.1300     2.6360    -1.6120 H     1 <1>   0.0800 
 32 H        4.7460     4.2360     0.8800 H     1 <1>   0.0800 
 33 H        4.9210     4.8020    -0.7640 H     1 <1>   0.0800 
 34 H        8.1690     2.5540     0.4550 H     1 <1>   0.0800 
 35 H        7.0010     2.7220     1.7680 H     1 <1>   0.0800 
 36 H        7.0160     4.9380     0.9170 H     1 <1>   0.0800 
 37 H        7.2860     4.3710    -0.7200 H     1 <1>   0.0800 
 38 H        7.8340     0.3670     1.0440 H     1 <1>   0.3700 
 39 H        8.7860    -1.6210     1.8340 H     1 <1>   0.1500 
 40 H        7.8250    -1.1520    -2.2920 H     1 <1>   0.1500 
 41 H        9.9390    -3.7230     1.3240 H     1 <1>   0.1500 
 42 H        8.9680    -3.2540    -2.7960 H     1 <1>   0.1500 
 43 H       10.0300    -4.5480    -0.9920 H     1 <1>   0.1500 
@<TRIPOS>BOND
  1   1   2  1   
  2   1   3  1   
  3   2   4  2   
  4   2   5  1   
  5   3   6  2   
  6   3   7  1   
  7   4   6  1   
  8   5   8  am  
  9   5  25  1   
 10   7   9  1   
 11   7  26  1   
 12   7  27  1   
 13   8  10  2   
 14   8  11  1   
 15   9  28  1   
 16   9  29  1   
 17   9  30  1   
 18  11  12  1   
 19  11  13  1   
 20  11  31  1   
 21  12  14  am  
 22  12  15  1   
 23  13  16  1   
 24  13  32  1   
 25  13  33  1   
 26  14  17  2   
 27  14  18  am  
 28  15  16  1   
 29  15  34  1   
 30  15  35  1   
 31  16  36  1   
 32  16  37  1   
 33  18  19  1   
 34  18  38  1   
 35  19  20  ar  
 36  19  21  ar  
 37  20  22  ar  
 38  20  39  1   
 39  21  23  ar  
 40  21  40  1   
 41  22  24  ar  
 42  22  41  1   
 43  23  24  ar  
 44  23  42  1   
 45  24  43  1   
@<TRIPOS>SUBSTRUCTURE
  1 ****  17 GROUP 4 **** **** 0

# MOE 2024.06 (io_trps.svl 2023.06)
