@<TRIPOS>MOLECULE
NONAME
25 25 1 0 0 
SMALL
USER_CHARGES


@<TRIPOS>ATOM
  1 CL      -1.3670    -0.6010     1.6330 Cl    1 <1>  -0.1770 
  2 C       -0.7240    -1.9530     0.7240 C.ar  1 <1>   0.1770 
  3 C        0.4790    -2.5340     1.0940 C.ar  1 <1>   0.1770 
  4 C       -1.4450    -2.4400    -0.3570 C.ar  1 <1>  -0.1440 
  5 CL       1.3790    -1.9220     2.4600 Cl    1 <1>  -0.1770 
  6 C        0.9800    -3.6110     0.3880 C.ar  1 <1>  -0.1500 
  7 C       -0.9370    -3.5240    -1.0640 C.ar  1 <1>  -0.1500 
  8 C       -2.7530    -1.7920    -0.7610 C.3   1 <1>   0.4870 
  9 C        0.2660    -4.1050    -0.6920 C.ar  1 <1>  -0.1500 
 10 N       -3.7720    -2.1390     0.2560 N.4   1 <1>  -0.9060 
 11 C       -5.1110    -1.5630    -0.0600 C.3   1 <1>   0.3430 
 12 C       -6.1460    -1.8960     1.0220 C.3   1 <1>   0.1200 
 13 O       -7.3510    -1.3530     0.6190 O.3   1 <1>  -0.6800 
 14 H        1.9160    -4.0560     0.6810 H     1 <1>   0.1500 
 15 H       -1.4630    -3.9290    -1.9140 H     1 <1>   0.1500 
 16 H       -3.0550    -2.1500    -1.7320 H     1 <1>   0.0800 
 17 H       -2.6270    -0.7210    -0.8140 H     1 <1>   0.0800 
 18 H        0.6550    -4.9450    -1.2470 H     1 <1>   0.1500 
 19 H       -3.4360    -1.7790     1.1610 H     1 <1>   0.4500 
 20 H       -3.8210    -3.1620     0.3360 H     1 <1>   0.4500 
 21 H       -5.4640    -1.9530    -1.0010 H     1 <1>   0.0800 
 22 H       -5.0370    -0.4900    -0.1410 H     1 <1>   0.0800 
 23 H       -5.8810    -1.4530     1.9680 H     1 <1>   0.0800 
 24 H       -6.2790    -2.9590     1.1250 H     1 <1>   0.0800 
 25 H       -8.0670    -1.5200     1.2720 H     1 <1>   0.4000 
@<TRIPOS>BOND
  1   1   2  1   
  2   2   3  ar  
  3   2   4  ar  
  4   3   5  1   
  5   3   6  ar  
  6   4   7  ar  
  7   4   8  1   
  8   6   9  ar  
  9   6  14  1   
 10   7   9  ar  
 11   7  15  1   
 12   8  10  1   
 13   8  16  1   
 14   8  17  1   
 15   9  18  1   
 16  10  11  1   
 17  10  19  1   
 18  10  20  1   
 19  11  12  1   
 20  11  21  1   
 21  11  22  1   
 22  12  13  1   
 23  12  23  1   
 24  12  24  1   
 25  13  25  1   
@<TRIPOS>SUBSTRUCTURE
  1 ****   4 GROUP 4 **** **** 0

# MOE 2024.06 (io_trps.svl 2023.06)
