@<TRIPOS>MOLECULE
NONAME
45 46 1 0 0 
SMALL
USER_CHARGES


@<TRIPOS>ATOM
  1 S        0.0150     0.0160    -2.3690 S.o2  1 <1>   1.3180 
  2 O        0.1890     1.2470    -3.1130 O.2   1 <1>  -0.6500 
  3 O       -0.1760    -1.2290    -3.0840 O.2   1 <1>  -0.6500 
  4 C       -1.3540     0.2310    -1.2030 C.ar  1 <1>  -0.0090 
  5 C        1.4080    -0.1750    -1.2290 C.ar  1 <1>  -0.0090 
  6 C       -2.0290    -0.8660    -0.6780 C.ar  1 <1>  -0.1500 
  7 C       -1.7450     1.4960    -0.7770 C.ar  1 <1>  -0.1500 
  8 C        2.0930     0.9330    -0.7400 C.ar  1 <1>  -0.1500 
  9 C        1.8080    -1.4310    -0.7860 C.ar  1 <1>  -0.1500 
 10 C       -3.0540    -0.7130     0.2400 C.ar  1 <1>  -0.1500 
 11 C       -2.7680     1.6590     0.1390 C.ar  1 <1>  -0.1500 
 12 C        3.1380     0.7980     0.1580 C.ar  1 <1>  -0.1500 
 13 C        2.8510    -1.5750     0.1110 C.ar  1 <1>  -0.1500 
 14 C       -3.4310     0.5590     0.6560 C.ar  1 <1>   0.0830 
 15 C        3.5250    -0.4650     0.5910 C.ar  1 <1>   0.0830 
 16 O       -4.4200     0.8110     1.5490 O.3   1 <1>  -0.3620 
 17 O        4.5330    -0.6990     1.4680 O.3   1 <1>  -0.3620 
 18 C       -5.2410    -0.1990     2.0990 C.3   1 <1>   0.1200 
 19 C        5.3640     0.3220     1.9800 C.3   1 <1>   0.1200 
 20 C       -6.3260    -0.5870     1.0880 C.3   1 <1>  -0.1600 
 21 C        6.4280     0.6900     0.9390 C.3   1 <1>  -0.1600 
 22 C       -7.2520    -1.6680     1.6550 C.3   1 <1>  -0.2400 
 23 C        7.3650     1.7830     1.4640 C.3   1 <1>  -0.2400 
 24 H       -1.7500    -1.8580    -0.9930 H     1 <1>   0.1500 
 25 H       -1.2460     2.3670    -1.1680 H     1 <1>   0.1500 
 26 H        1.8080     1.9180    -1.0700 H     1 <1>   0.1500 
 27 H        1.3020    -2.3100    -1.1480 H     1 <1>   0.1500 
 28 H       -3.5440    -1.5910     0.6150 H     1 <1>   0.1500 
 29 H       -3.0620     2.6420     0.4600 H     1 <1>   0.1500 
 30 H        3.6360     1.6840     0.5040 H     1 <1>   0.1500 
 31 H        3.1530    -2.5520     0.4450 H     1 <1>   0.1500 
 32 H       -5.6960     0.2130     2.9820 H     1 <1>   0.0800 
 33 H       -4.6310    -1.0350     2.3910 H     1 <1>   0.0800 
 34 H        5.8390    -0.0720     2.8610 H     1 <1>   0.0800 
 35 H        4.7610     1.1640     2.2680 H     1 <1>   0.0800 
 36 H       -5.8740    -0.9520     0.1830 H     1 <1>   0.0800 
 37 H       -6.9090     0.2860     0.8480 H     1 <1>   0.0800 
 38 H        5.9570     1.0360     0.0360 H     1 <1>   0.0800 
 39 H        7.0060    -0.1880     0.7040 H     1 <1>   0.0800 
 40 H       -6.6950    -2.5590     1.8890 H     1 <1>   0.0800 
 41 H       -8.0090    -1.9190     0.9330 H     1 <1>   0.0800 
 42 H       -7.7380    -1.3170     2.5490 H     1 <1>   0.0800 
 43 H        6.8120     2.6770     1.6920 H     1 <1>   0.0800 
 44 H        8.1060     2.0190     0.7210 H     1 <1>   0.0800 
 45 H        7.8700     1.4500     2.3540 H     1 <1>   0.0800 
@<TRIPOS>BOND
  1   1   2  2   
  2   1   3  2   
  3   1   4  1   
  4   1   5  1   
  5   4   6  ar  
  6   4   7  ar  
  7   5   8  ar  
  8   5   9  ar  
  9   6  10  ar  
 10   6  24  1   
 11   7  11  ar  
 12   7  25  1   
 13   8  12  ar  
 14   8  26  1   
 15   9  13  ar  
 16   9  27  1   
 17  10  14  ar  
 18  10  28  1   
 19  11  14  ar  
 20  11  29  1   
 21  12  15  ar  
 22  12  30  1   
 23  13  15  ar  
 24  13  31  1   
 25  14  16  1   
 26  15  17  1   
 27  16  18  1   
 28  17  19  1   
 29  18  20  1   
 30  18  32  1   
 31  18  33  1   
 32  19  21  1   
 33  19  34  1   
 34  19  35  1   
 35  20  22  1   
 36  20  36  1   
 37  20  37  1   
 38  21  23  1   
 39  21  38  1   
 40  21  39  1   
 41  22  40  1   
 42  22  41  1   
 43  22  42  1   
 44  23  43  1   
 45  23  44  1   
 46  23  45  1   
@<TRIPOS>SUBSTRUCTURE
  1 ****   4 GROUP 4 **** **** 0

# MOE 2024.06 (io_trps.svl 2023.06)
