@<TRIPOS>MOLECULE
NONAME
30 30 1 0 0 
SMALL
USER_CHARGES


@<TRIPOS>ATOM
  1 S       -7.5720     1.2120    -0.3250 S.o2  1 <1>   1.0900 
  2 O       -7.0790     0.1530     0.5200 O.2   1 <1>  -0.6500 
  3 O       -8.4860     1.0060    -1.4190 O.2   1 <1>  -0.6500 
  4 C       -6.1390     2.0550    -0.9190 C.3   1 <1>  -0.0550 
  5 C       -8.1040     2.5610     0.7190 C.3   1 <1>  -0.0550 
  6 C       -5.6770     2.8240     0.3090 C.3   1 <1>   0.4230 
  7 C       -6.9120     3.5200     0.9060 C.3   1 <1>  -0.1600 
  8 N       -4.5570     3.7880     0.0520 N.4   1 <1>  -0.9590 
  9 C       -4.8060     4.7480    -1.0650 C.3   1 <1>   0.3430 
 10 C       -3.2540     3.0830    -0.1420 C.3   1 <1>   0.3430 
 11 C       -3.9690     6.0030    -0.8500 C.3   1 <1>  -0.2400 
 12 C       -2.7670     2.5140     1.1860 C.3   1 <1>  -0.2400 
 13 H       -6.4190     2.7190    -1.7140 H     1 <1>   0.0800 
 14 H       -5.4010     1.3540    -1.2580 H     1 <1>   0.0800 
 15 H       -8.4380     2.1790     1.6670 H     1 <1>   0.0800 
 16 H       -8.9250     3.0840     0.2620 H     1 <1>   0.0800 
 17 H       -5.3520     2.0930     1.0350 H     1 <1>   0.0800 
 18 H       -6.7630     3.7270     1.9510 H     1 <1>   0.0800 
 19 H       -7.1330     4.4390     0.3930 H     1 <1>   0.0800 
 20 H       -4.4490     4.3550     0.9050 H     1 <1>   0.4500 
 21 H       -5.8460     5.0320    -1.0900 H     1 <1>   0.0800 
 22 H       -4.5600     4.2940    -2.0130 H     1 <1>   0.0800 
 23 H       -2.5120     3.7760    -0.5070 H     1 <1>   0.0800 
 24 H       -3.3550     2.2930    -0.8700 H     1 <1>   0.0800 
 25 H       -4.2100     6.4700     0.0890 H     1 <1>   0.0800 
 26 H       -4.1880     6.7090    -1.6330 H     1 <1>   0.0800 
 27 H       -2.9160     5.7930    -0.8900 H     1 <1>   0.0800 
 28 H       -2.6890     3.2860     1.9310 H     1 <1>   0.0800 
 29 H       -1.7860     2.0940     1.0460 H     1 <1>   0.0800 
 30 H       -3.4030     1.7250     1.5430 H     1 <1>   0.0800 
@<TRIPOS>BOND
  1   1   2  2   
  2   1   3  2   
  3   1   4  1   
  4   1   5  1   
  5   4   6  1   
  6   4  13  1   
  7   4  14  1   
  8   5   7  1   
  9   5  15  1   
 10   5  16  1   
 11   6   7  1   
 12   6   8  1   
 13   6  17  1   
 14   7  18  1   
 15   7  19  1   
 16   8   9  1   
 17   8  10  1   
 18   8  20  1   
 19   9  11  1   
 20   9  21  1   
 21   9  22  1   
 22  10  12  1   
 23  10  23  1   
 24  10  24  1   
 25  11  25  1   
 26  11  26  1   
 27  11  27  1   
 28  12  28  1   
 29  12  29  1   
 30  12  30  1   
@<TRIPOS>SUBSTRUCTURE
  1 ****   6 GROUP 4 **** **** 0

# MOE 2024.06 (io_trps.svl 2023.06)
