@<TRIPOS>MOLECULE
NONAME
35 35 1 0 0 
SMALL
USER_CHARGES


@<TRIPOS>ATOM
  1 BR       0.3760     0.6370    -1.9230 Br    1 <1>  -0.1110 
  2 C        1.8140     1.3730    -0.8670 C.ar  1 <1>   0.1110 
  3 C        1.7830     2.7080    -0.4920 C.ar  1 <1>   0.0820 
  4 C        2.8430     0.5210    -0.5120 C.ar  1 <1>  -0.1500 
  5 O        0.7280     3.4770    -0.8560 O.3   1 <1>  -0.3630 
  6 C        2.8560     3.2060     0.2580 C.ar  1 <1>   0.0820 
  7 C        3.8930     1.0150     0.2490 C.ar  1 <1>  -0.1440 
  8 C       -0.3140     3.5640     0.0880 C.3   1 <1>   0.1200 
  9 O        2.9900     4.4940     0.6700 O.3   1 <1>  -0.3630 
 10 C        3.8840     2.3510     0.6310 C.ar  1 <1>  -0.1500 
 11 C        5.0450     0.1210     0.6500 C.3   1 <1>   0.4860 
 12 C       -1.3990     4.4680    -0.4880 C.3   1 <1>  -0.2400 
 13 C        2.5880     5.5550    -0.1700 C.3   1 <1>   0.1200 
 14 N        6.1070     0.3210    -0.3590 N.4   1 <1>  -0.9060 
 15 C        3.3630     6.8020     0.2430 C.3   1 <1>  -0.2400 
 16 C        7.3400    -0.4760    -0.0950 C.3   1 <1>   0.2630 
 17 H        2.8000    -0.5070    -0.8320 H     1 <1>   0.1500 
 18 H        0.0840     3.9720     1.0010 H     1 <1>   0.0800 
 19 H       -0.6970     2.5740     0.2680 H     1 <1>   0.0800 
 20 H        4.6780     2.7660     1.2290 H     1 <1>   0.1500 
 21 H        4.7260    -0.9100     0.6670 H     1 <1>   0.0800 
 22 H        5.3970     0.3940     1.6320 H     1 <1>   0.0800 
 23 H       -1.0050     5.4500    -0.6750 H     1 <1>   0.0800 
 24 H       -2.2110     4.5510     0.2110 H     1 <1>   0.0800 
 25 H       -1.7770     4.0510    -1.4050 H     1 <1>   0.0800 
 26 H        1.5310     5.7100    -0.0440 H     1 <1>   0.0800 
 27 H        2.8010     5.2910    -1.1920 H     1 <1>   0.0800 
 28 H        6.3210     1.3270    -0.3910 H     1 <1>   0.4500 
 29 H        5.7130     0.0950    -1.2820 H     1 <1>   0.4500 
 30 H        3.1480     7.0490     1.2670 H     1 <1>   0.0800 
 31 H        3.0720     7.6300    -0.3780 H     1 <1>   0.0800 
 32 H        4.4190     6.6390     0.1250 H     1 <1>   0.0800 
 33 H        7.7640    -0.2100     0.8600 H     1 <1>   0.0800 
 34 H        8.0770    -0.2870    -0.8600 H     1 <1>   0.0800 
 35 H        7.1140    -1.5310    -0.0920 H     1 <1>   0.0800 
@<TRIPOS>BOND
  1   1   2  1   
  2   2   3  ar  
  3   2   4  ar  
  4   3   5  1   
  5   3   6  ar  
  6   4   7  ar  
  7   4  17  1   
  8   5   8  1   
  9   6   9  1   
 10   6  10  ar  
 11   7  10  ar  
 12   7  11  1   
 13   8  12  1   
 14   8  18  1   
 15   8  19  1   
 16   9  13  1   
 17  10  20  1   
 18  11  14  1   
 19  11  21  1   
 20  11  22  1   
 21  12  23  1   
 22  12  24  1   
 23  12  25  1   
 24  13  15  1   
 25  13  26  1   
 26  13  27  1   
 27  14  16  1   
 28  14  28  1   
 29  14  29  1   
 30  15  30  1   
 31  15  31  1   
 32  15  32  1   
 33  16  33  1   
 34  16  34  1   
 35  16  35  1   
@<TRIPOS>SUBSTRUCTURE
  1 ****   6 GROUP 4 **** **** 0

# MOE 2024.06 (io_trps.svl 2023.06)
