@<TRIPOS>MOLECULE
NONAME
33 34 1 0 0 
SMALL
USER_CHARGES


@<TRIPOS>ATOM
  1 S        0.1260    -0.5870     1.5100 S.o2  1 <1>   1.4470 
  2 O        0.7630    -1.5160     2.4180 O.2   1 <1>  -0.6500 
  3 O        0.2970     0.8350     1.7110 O.2   1 <1>  -0.6500 
  4 N        0.6980    -0.9310    -0.0460 N.am  1 <1>  -0.8490 
  5 C       -1.6490    -0.9500     1.3860 C.ar  1 <1>  -0.0090 
  6 C        2.0400    -0.4280    -0.2780 C.3   1 <1>   0.1960 
  7 C        0.7510    -2.3450    -0.3790 C.3   1 <1>   0.1960 
  8 C       -2.3830    -0.5500     0.2750 C.ar  1 <1>  -0.1500 
  9 C       -2.3210    -1.6190     2.4000 C.ar  1 <1>  -0.1500 
 10 C        2.5120    -1.1570    -1.5320 C.3   1 <1>  -0.1600 
 11 C        1.6250    -2.4000    -1.6240 C.3   1 <1>  -0.1600 
 12 C       -3.7450    -0.8000     0.1500 C.ar  1 <1>  -0.0090 
 13 C       -3.6740    -1.8830     2.3040 C.ar  1 <1>  -0.1500 
 14 S       -4.6620    -0.2330    -1.3050 S.o2  1 <1>   1.2040 
 15 C       -4.3770    -1.4740     1.1850 C.ar  1 <1>  -0.1500 
 16 O       -5.9680    -0.8540    -1.3240 O.2   1 <1>  -0.6500 
 17 O       -3.8060    -0.3140    -2.4660 O.2   1 <1>  -0.6500 
 18 C       -4.9040     1.4950    -0.9440 C.3   1 <1>  -0.1350 
 19 H        2.6760    -0.6820     0.5550 H     1 <1>   0.0800 
 20 H        2.0330     0.6420    -0.4100 H     1 <1>   0.0800 
 21 H       -0.2340    -2.7410    -0.5620 H     1 <1>   0.0800 
 22 H        1.2230    -2.9010     0.4150 H     1 <1>   0.0800 
 23 H       -1.8710    -0.0310    -0.5200 H     1 <1>   0.1500 
 24 H       -1.7770    -1.9380     3.2750 H     1 <1>   0.1500 
 25 H        3.5540    -1.4090    -1.4520 H     1 <1>   0.0800 
 26 H        2.3670    -0.5290    -2.3940 H     1 <1>   0.0800 
 27 H        1.0030    -2.3470    -2.5010 H     1 <1>   0.0800 
 28 H        2.1990    -3.3090    -1.6530 H     1 <1>   0.0800 
 29 H       -4.1800    -2.4060     3.0980 H     1 <1>   0.1500 
 30 H       -5.4320    -1.6870     1.1160 H     1 <1>   0.1500 
 31 H       -5.4630     1.6140    -0.0370 H     1 <1>   0.0800 
 32 H       -5.4460     1.9620    -1.7430 H     1 <1>   0.0800 
 33 H       -3.9590     1.9920    -0.8380 H     1 <1>   0.0800 
@<TRIPOS>BOND
  1   1   2  2   
  2   1   3  2   
  3   1   4  am  
  4   1   5  1   
  5   4   6  1   
  6   4   7  1   
  7   5   8  ar  
  8   5   9  ar  
  9   6  10  1   
 10   6  19  1   
 11   6  20  1   
 12   7  11  1   
 13   7  21  1   
 14   7  22  1   
 15   8  12  ar  
 16   8  23  1   
 17   9  13  ar  
 18   9  24  1   
 19  10  11  1   
 20  10  25  1   
 21  10  26  1   
 22  11  27  1   
 23  11  28  1   
 24  12  14  1   
 25  12  15  ar  
 26  13  15  ar  
 27  13  29  1   
 28  14  16  2   
 29  14  17  2   
 30  14  18  1   
 31  15  30  1   
 32  18  31  1   
 33  18  32  1   
 34  18  33  1   
@<TRIPOS>SUBSTRUCTURE
  1 ****   8 GROUP 4 **** **** 0

# MOE 2024.06 (io_trps.svl 2023.06)
