@<TRIPOS>MOLECULE
NONAME
45 45 1 0 0 
SMALL
USER_CHARGES


@<TRIPOS>ATOM
  1 N        0.2320    -0.1020     0.1000 N.4   1 <1>  -0.9590 
  2 C        1.5600     0.6060     0.2490 C.3   1 <1>   0.3430 
  3 C       -0.8540     0.7280     0.7040 C.3   1 <1>   0.3430 
  4 C        0.2070    -1.4780     0.6870 C.3   1 <1>   0.3430 
  5 C        2.7460    -0.0420    -0.5260 C.3   1 <1>   0.3430 
  6 C       -2.1930     0.3310     0.0940 C.3   1 <1>  -0.2400 
  7 C        0.3790    -2.4970    -0.4310 C.3   1 <1>  -0.2400 
  8 N        4.0480     0.7210    -0.4800 N.4   1 <1>  -0.9590 
  9 C        4.7000     0.7630     0.8680 C.3   1 <1>   0.4860 
 10 C        3.9910     2.0860    -1.1100 C.3   1 <1>   0.2630 
 11 C        6.1360     1.2000     0.6780 C.ar  1 <1>  -0.1440 
 12 C        7.0710     0.3170     0.1550 C.ar  1 <1>  -0.1500 
 13 C        6.5250     2.4880     1.0170 C.ar  1 <1>  -0.1500 
 14 C        8.3800     0.7200    -0.0470 C.ar  1 <1>  -0.1440 
 15 C        7.8330     2.8900     0.8190 C.ar  1 <1>  -0.1500 
 16 C        8.7560     2.0090     0.2860 C.ar  1 <1>  -0.1500 
 17 C        9.4100    -0.2410    -0.6170 C.3   1 <1>  -0.0970 
 18 H       -0.0220    -0.1920    -0.8960 H     1 <1>   0.4500 
 19 H        1.8120     0.6520     1.2960 H     1 <1>   0.0800 
 20 H        1.4450     1.6170    -0.1070 H     1 <1>   0.0800 
 21 H       -0.6810     1.7730     0.4950 H     1 <1>   0.0800 
 22 H       -0.8800     0.5990     1.7750 H     1 <1>   0.0800 
 23 H       -0.7410    -1.6590     1.1700 H     1 <1>   0.0800 
 24 H        0.9800    -1.5930     1.4300 H     1 <1>   0.0800 
 25 H        2.4530    -0.1480    -1.5580 H     1 <1>   0.0800 
 26 H        2.9130    -1.0310    -0.1310 H     1 <1>   0.0800 
 27 H       -2.1900     0.4720    -0.9730 H     1 <1>   0.0800 
 28 H       -2.9650     0.9590     0.5030 H     1 <1>   0.0800 
 29 H       -2.4520    -0.6870     0.3230 H     1 <1>   0.0800 
 30 H       -0.4170    -2.4110    -1.1500 H     1 <1>   0.0800 
 31 H        0.3260    -3.4870    -0.0110 H     1 <1>   0.0800 
 32 H        1.3260    -2.4060    -0.9270 H     1 <1>   0.0800 
 33 H        4.7370     0.2010    -1.0510 H     1 <1>   0.4500 
 34 H        4.6930    -0.2140     1.3230 H     1 <1>   0.0800 
 35 H        4.1910     1.4540     1.5200 H     1 <1>   0.0800 
 36 H        3.3770     2.7540    -0.5290 H     1 <1>   0.0800 
 37 H        3.5910     2.0250    -2.1100 H     1 <1>   0.0800 
 38 H        4.9830     2.5080    -1.1740 H     1 <1>   0.0800 
 39 H        6.8000    -0.6940    -0.0960 H     1 <1>   0.1500 
 40 H        5.8300     3.1930     1.4400 H     1 <1>   0.1500 
 41 H        8.1400     3.8890     1.0810 H     1 <1>   0.1500 
 42 H        9.7730     2.3320     0.1380 H     1 <1>   0.1500 
 43 H        8.9370    -1.0330    -1.1680 H     1 <1>   0.0800 
 44 H        9.9870    -0.6720     0.1820 H     1 <1>   0.0800 
 45 H       10.0780     0.2790    -1.2800 H     1 <1>   0.0800 
@<TRIPOS>BOND
  1   1   2  1   
  2   1   3  1   
  3   1   4  1   
  4   1  18  1   
  5   2   5  1   
  6   2  19  1   
  7   2  20  1   
  8   3   6  1   
  9   3  21  1   
 10   3  22  1   
 11   4   7  1   
 12   4  23  1   
 13   4  24  1   
 14   5   8  1   
 15   5  25  1   
 16   5  26  1   
 17   6  27  1   
 18   6  28  1   
 19   6  29  1   
 20   7  30  1   
 21   7  31  1   
 22   7  32  1   
 23   8   9  1   
 24   8  10  1   
 25   8  33  1   
 26   9  11  1   
 27   9  34  1   
 28   9  35  1   
 29  10  36  1   
 30  10  37  1   
 31  10  38  1   
 32  11  12  ar  
 33  11  13  ar  
 34  12  14  ar  
 35  12  39  1   
 36  13  15  ar  
 37  13  40  1   
 38  14  16  ar  
 39  14  17  1   
 40  15  16  ar  
 41  15  41  1   
 42  16  42  1   
 43  17  43  1   
 44  17  44  1   
 45  17  45  1   
@<TRIPOS>SUBSTRUCTURE
  1 ****   8 GROUP 4 **** **** 0

# MOE 2024.06 (io_trps.svl 2023.06)
