@<TRIPOS>MOLECULE
NONAME
34 35 1 0 0 
SMALL
USER_CHARGES


@<TRIPOS>ATOM
  1 O        0.1230     0.9580     1.0690 O.2   1 <1>  -0.5700 
  2 C        0.0040     2.1490     0.8710 C.2   1 <1>   0.5440 
  3 N        1.1600     2.8670     0.8730 N.am  1 <1>  -0.7300 
  4 C       -1.3040     2.7440     0.6760 C.ar  1 <1>   0.0860 
  5 C        1.7650     3.5900    -0.2590 C.3   1 <1>   0.3000 
  6 C       -2.2890     2.0720    -0.0560 C.ar  1 <1>  -0.1500 
  7 C       -1.6220     4.0000     1.2180 C.ar  1 <1>  -0.1500 
  8 C        2.6560     4.7170     0.3050 C.3   1 <1>  -0.1600 
  9 C        2.6400     2.5800    -1.0010 C.3   1 <1>  -0.2400 
 10 C        0.7180     4.1460    -1.2330 C.3   1 <1>  -0.2400 
 11 C       -3.5180     2.6700    -0.2340 C.ar  1 <1>   0.0830 
 12 C       -2.8640     4.5900     1.0330 C.ar  1 <1>  -0.1500 
 13 C        1.9390     5.7550     1.1880 C.3   1 <1>  -0.2400 
 14 O       -4.5790     2.2040    -0.9020 O.3   1 <1>  -0.3630 
 15 C       -3.8010     3.8970     0.2940 C.ar  1 <1>   0.0830 
 16 C       -5.6010     3.1930    -0.7890 C.3   1 <1>   0.4000 
 17 O       -5.0460     4.2560    -0.0180 O.3   1 <1>  -0.3630 
 18 H        1.8900     2.3670     1.3790 H     1 <1>   0.3700 
 19 H       -2.0910     1.1020    -0.4740 H     1 <1>   0.1500 
 20 H       -0.8740     4.5170     1.7930 H     1 <1>   0.1500 
 21 H        3.1180     5.2350    -0.5180 H     1 <1>   0.0800 
 22 H        3.4510     4.2760     0.8800 H     1 <1>   0.0800 
 23 H        2.0390     1.7700    -1.3770 H     1 <1>   0.0800 
 24 H        3.3950     2.1760    -0.3510 H     1 <1>   0.0800 
 25 H        3.1290     3.0510    -1.8340 H     1 <1>   0.0800 
 26 H        0.1450     3.3510    -1.6740 H     1 <1>   0.0800 
 27 H        1.2070     4.6760    -2.0290 H     1 <1>   0.0800 
 28 H        0.0530     4.8310    -0.7450 H     1 <1>   0.0800 
 29 H       -3.1040     5.5530     1.4460 H     1 <1>   0.1500 
 30 H        1.1780     6.2750     0.6370 H     1 <1>   0.0800 
 31 H        2.6490     6.4810     1.5430 H     1 <1>   0.0800 
 32 H        1.4900     5.2810     2.0430 H     1 <1>   0.0800 
 33 H       -6.4500     2.7780    -0.2750 H     1 <1>   0.0800 
 34 H       -5.8630     3.5540    -1.7670 H     1 <1>   0.0800 
@<TRIPOS>BOND
  1   1   2  2   
  2   2   3  am  
  3   2   4  1   
  4   3   5  1   
  5   3  18  1   
  6   4   6  ar  
  7   4   7  ar  
  8   5   8  1   
  9   5   9  1   
 10   5  10  1   
 11   6  11  ar  
 12   6  19  1   
 13   7  12  ar  
 14   7  20  1   
 15   8  13  1   
 16   8  21  1   
 17   8  22  1   
 18   9  23  1   
 19   9  24  1   
 20   9  25  1   
 21  10  26  1   
 22  10  27  1   
 23  10  28  1   
 24  11  14  1   
 25  11  15  ar  
 26  12  15  ar  
 27  12  29  1   
 28  13  30  1   
 29  13  31  1   
 30  13  32  1   
 31  14  16  1   
 32  15  17  1   
 33  16  17  1   
 34  16  33  1   
 35  16  34  1   
@<TRIPOS>SUBSTRUCTURE
  1 ****   4 GROUP 4 **** **** 0

# MOE 2024.06 (io_trps.svl 2023.06)
