@<TRIPOS>MOLECULE
NONAME
44 46 1 0 0 
SMALL
USER_CHARGES


@<TRIPOS>ATOM
  1 O        1.0560    -1.6240    -0.7410 O.2   1 <1>  -0.5700 
  2 C        0.7590    -2.6410    -0.1400 C.2   1 <1>   0.7060 
  3 O       -0.5290    -2.9920    -0.1780 O.3   1 <1>  -0.2320 
  4 C        1.6850    -3.4720     0.5910 C.2   1 <1>   0.0290 
  5 C       -1.0370    -4.0890     0.4310 C.ar  1 <1>   0.0830 
  6 C        3.0890    -3.1220     0.6530 C.2   1 <1>   0.6160 
  7 C        1.1970    -4.5830     1.2140 C.2   1 <1>  -0.1780 
  8 C       -2.4000    -4.3700     0.3330 C.ar  1 <1>   0.0830 
  9 C       -0.1820    -4.9250     1.1520 C.ar  1 <1>   0.0280 
 10 O        3.8550    -3.8350     1.2750 O.2   1 <1>  -0.5700 
 11 N        3.6080    -2.0190     0.0420 N.am  1 <1>  -0.7300 
 12 O       -3.1710    -3.5080    -0.3860 O.3   1 <1>  -0.3620 
 13 C       -2.9090    -5.4990     0.9630 C.ar  1 <1>  -0.1500 
 14 C       -0.7180    -6.0520     1.7750 C.ar  1 <1>  -0.1500 
 15 C        5.0110    -1.5810     0.0450 C.3   1 <1>   0.2200 
 16 C       -4.5550    -3.7060    -0.5440 C.3   1 <1>   0.1200 
 17 C       -2.0650    -6.3350     1.6810 C.ar  1 <1>  -0.1500 
 18 C        5.0920    -0.1940     0.6890 C.3   1 <1>  -0.1600 
 19 C        5.5210    -1.5550    -1.3990 C.3   1 <1>  -0.1600 
 20 C       -5.0970    -2.5650    -1.3980 C.3   1 <1>  -0.2400 
 21 C        6.5190     0.3690     0.6190 C.3   1 <1>  -0.1600 
 22 C        6.9500    -0.9950    -1.4730 C.3   1 <1>  -0.1600 
 23 C        7.0350     0.3940    -0.8260 C.3   1 <1>  -0.1600 
 24 H        1.8430    -5.2390     1.7740 H     1 <1>   0.1500 
 25 H        2.9610    -1.4160    -0.4840 H     1 <1>   0.3700 
 26 H       -3.9510    -5.7500     0.9110 H     1 <1>   0.1500 
 27 H       -0.0710    -6.7050     2.3340 H     1 <1>   0.1500 
 28 H        5.6110    -2.2710     0.6180 H     1 <1>   0.0800 
 29 H       -5.0140    -3.7030     0.4300 H     1 <1>   0.0800 
 30 H       -4.7120    -4.6530    -1.0310 H     1 <1>   0.0800 
 31 H       -2.4680    -7.2080     2.1660 H     1 <1>   0.1500 
 32 H        4.7860    -0.2620     1.7180 H     1 <1>   0.0800 
 33 H        4.4250     0.4790     0.1780 H     1 <1>   0.0800 
 34 H        4.8730    -0.9410    -1.9980 H     1 <1>   0.0800 
 35 H        5.5100    -2.5540    -1.7970 H     1 <1>   0.0800 
 36 H       -4.9190    -1.6230    -0.9120 H     1 <1>   0.0800 
 37 H       -6.1560    -2.6850    -1.5390 H     1 <1>   0.0800 
 38 H       -4.6190    -2.5660    -2.3620 H     1 <1>   0.0800 
 39 H        7.1720    -0.2410     1.2200 H     1 <1>   0.0800 
 40 H        6.5340     1.3660     1.0250 H     1 <1>   0.0800 
 41 H        7.2600    -0.9340    -2.5020 H     1 <1>   0.0800 
 42 H        7.6220    -1.6660    -0.9650 H     1 <1>   0.0800 
 43 H        8.0560     0.7350    -0.8380 H     1 <1>   0.0800 
 44 H        6.4500     1.0910    -1.4010 H     1 <1>   0.0800 
@<TRIPOS>BOND
  1   1   2  2   
  2   2   3  1   
  3   2   4  1   
  4   3   5  1   
  5   4   6  1   
  6   4   7  2   
  7   5   8  ar  
  8   5   9  ar  
  9   6  10  2   
 10   6  11  am  
 11   7   9  1   
 12   7  24  1   
 13   8  12  1   
 14   8  13  ar  
 15   9  14  ar  
 16  11  15  1   
 17  11  25  1   
 18  12  16  1   
 19  13  17  ar  
 20  13  26  1   
 21  14  17  ar  
 22  14  27  1   
 23  15  18  1   
 24  15  19  1   
 25  15  28  1   
 26  16  20  1   
 27  16  29  1   
 28  16  30  1   
 29  17  31  1   
 30  18  21  1   
 31  18  32  1   
 32  18  33  1   
 33  19  22  1   
 34  19  34  1   
 35  19  35  1   
 36  20  36  1   
 37  20  37  1   
 38  20  38  1   
 39  21  23  1   
 40  21  39  1   
 41  21  40  1   
 42  22  23  1   
 43  22  41  1   
 44  22  42  1   
 45  23  43  1   
 46  23  44  1   
@<TRIPOS>SUBSTRUCTURE
  1 ****   2 GROUP 4 **** **** 0

# MOE 2024.06 (io_trps.svl 2023.06)
