@<TRIPOS>MOLECULE
NONAME
32 33 1 0 0 
SMALL
USER_CHARGES


@<TRIPOS>ATOM
  1 CL      -1.7970     0.8760     1.6940 Cl    1 <1>  -0.1770 
  2 C       -0.8840     2.1350     0.8970 C.ar  1 <1>   0.1770 
  3 C       -1.2710     2.5760    -0.3600 C.ar  1 <1>  -0.1430 
  4 C        0.2070     2.6770     1.5500 C.ar  1 <1>  -0.1500 
  5 C       -0.5350     3.5840    -0.9680 C.ar  1 <1>  -0.1500 
  6 C       -2.4720     1.9660    -1.0540 C.3   1 <1>   0.4870 
  7 C        0.9310     3.6830     0.9360 C.ar  1 <1>  -0.1500 
  8 C        0.5600     4.1340    -0.3200 C.ar  1 <1>  -0.1500 
  9 N       -3.7110     2.3300    -0.3140 N.4   1 <1>  -0.9590 
 10 C       -4.8990     1.5860    -0.8540 C.3   1 <1>   0.3430 
 11 C       -3.9360     3.8060    -0.2820 C.3   1 <1>   0.3430 
 12 C       -6.1880     1.9020    -0.0710 C.3   1 <1>   0.2000 
 13 C       -5.1690     4.1230     0.5690 C.3   1 <1>  -0.1600 
 14 O       -7.2470     1.3550    -0.7630 O.3   1 <1>  -0.6800 
 15 C       -6.4290     3.4100     0.0500 C.3   1 <1>  -0.1600 
 16 H        0.4870     2.3170     2.5250 H     1 <1>   0.1500 
 17 H       -0.7950     3.9510    -1.9470 H     1 <1>   0.1500 
 18 H       -2.3580     0.8940    -1.0740 H     1 <1>   0.0800 
 19 H       -2.5290     2.3200    -2.0710 H     1 <1>   0.0800 
 20 H        1.7860     4.1140     1.4330 H     1 <1>   0.1500 
 21 H        1.1310     4.9160    -0.7940 H     1 <1>   0.1500 
 22 H       -3.5560     2.0210     0.6570 H     1 <1>   0.4500 
 23 H       -4.7200     0.5240    -0.8100 H     1 <1>   0.0800 
 24 H       -5.0570     1.8640    -1.8830 H     1 <1>   0.0800 
 25 H       -4.0870     4.1760    -1.2830 H     1 <1>   0.0800 
 26 H       -3.0750     4.3040     0.1370 H     1 <1>   0.0800 
 27 H       -6.1510     1.4380     0.9010 H     1 <1>   0.0800 
 28 H       -5.3360     5.1870     0.5560 H     1 <1>   0.0800 
 29 H       -4.9800     3.8430     1.5920 H     1 <1>   0.0800 
 30 H       -8.0940     1.5100    -0.2960 H     1 <1>   0.4000 
 31 H       -7.2490     3.5970     0.7220 H     1 <1>   0.0800 
 32 H       -6.6820     3.8120    -0.9180 H     1 <1>   0.0800 
@<TRIPOS>BOND
  1   1   2  1   
  2   2   3  ar  
  3   2   4  ar  
  4   3   5  ar  
  5   3   6  1   
  6   4   7  ar  
  7   4  16  1   
  8   5   8  ar  
  9   5  17  1   
 10   6   9  1   
 11   6  18  1   
 12   6  19  1   
 13   7   8  ar  
 14   7  20  1   
 15   8  21  1   
 16   9  10  1   
 17   9  11  1   
 18   9  22  1   
 19  10  12  1   
 20  10  23  1   
 21  10  24  1   
 22  11  13  1   
 23  11  25  1   
 24  11  26  1   
 25  12  14  1   
 26  12  15  1   
 27  12  27  1   
 28  13  15  1   
 29  13  28  1   
 30  13  29  1   
 31  14  30  1   
 32  15  31  1   
 33  15  32  1   
@<TRIPOS>SUBSTRUCTURE
  1 ****   9 GROUP 4 **** **** 0

# MOE 2024.06 (io_trps.svl 2023.06)
