@<TRIPOS>MOLECULE
NONAME
42 43 1 0 0 
SMALL
USER_CHARGES


@<TRIPOS>ATOM
  1 O        0.3690     0.4870     1.0590 O.2   1 <1>  -0.5700 
  2 C        0.6620     1.2450     0.1650 C.2   1 <1>   0.5690 
  3 N       -0.2400     2.0660    -0.4610 N.am  1 <1>  -0.5470 
  4 C        2.1390     1.2570    -0.2690 C.3   1 <1>   0.4040 
  5 C       -1.6300     2.1700    -0.2750 C.ar  1 <1>   0.1170 
  6 N        2.8810    -0.0040     0.1150 N.4   1 <1>  -0.9590 
  7 C       -2.2560     3.3760    -0.5640 C.ar  1 <1>  -0.1500 
  8 C       -2.4180     1.1110     0.1640 C.ar  1 <1>  -0.1500 
  9 C        4.3620     0.1600     0.0810 C.3   1 <1>   0.3430 
 10 C        2.4090    -1.1850    -0.6680 C.3   1 <1>   0.3430 
 11 C       -3.6240     3.5200    -0.4190 C.ar  1 <1>  -0.1500 
 12 C       -3.7850     1.2560     0.3100 C.ar  1 <1>  -0.1500 
 13 C        5.0310    -1.0950     0.6450 C.3   1 <1>  -0.1600 
 14 C        3.0510    -2.4570    -0.1150 C.3   1 <1>  -0.1600 
 15 C       -4.4110     2.4620     0.0170 C.ar  1 <1>   0.1170 
 16 C        4.5830    -2.3630    -0.0940 C.3   1 <1>  -0.1600 
 17 N       -5.7960     2.6550     0.1590 N.am  1 <1>  -0.5470 
 18 C       -6.8220     1.7570     0.1080 C.2   1 <1>   0.5690 
 19 O       -6.6850     0.5810    -0.1120 O.2   1 <1>  -0.5700 
 20 C       -8.2150     2.2890     0.3300 C.3   1 <1>  -0.1790 
 21 H        0.1180     2.7450    -1.1330 H     1 <1>   0.3700 
 22 H        2.6070     2.1010     0.2080 H     1 <1>   0.0800 
 23 H        2.1920     1.3990    -1.3340 H     1 <1>   0.0800 
 24 H        2.5940    -0.1980     1.0900 H     1 <1>   0.4500 
 25 H       -1.6770     4.2150    -0.9040 H     1 <1>   0.1500 
 26 H       -1.9750     0.1600     0.3950 H     1 <1>   0.1500 
 27 H        4.6560     1.0150     0.6690 H     1 <1>   0.0800 
 28 H        4.6900     0.3140    -0.9340 H     1 <1>   0.0800 
 29 H        2.6770    -1.0690    -1.7060 H     1 <1>   0.0800 
 30 H        1.3350    -1.2710    -0.5980 H     1 <1>   0.0800 
 31 H       -4.0850     4.4630    -0.6500 H     1 <1>   0.1500 
 32 H       -4.3660     0.4210     0.6570 H     1 <1>   0.1500 
 33 H        4.8000    -1.1820     1.6930 H     1 <1>   0.0800 
 34 H        6.0990    -0.9930     0.5610 H     1 <1>   0.0800 
 35 H        2.7540    -3.2940    -0.7240 H     1 <1>   0.0800 
 36 H        2.6800    -2.6380     0.8790 H     1 <1>   0.0800 
 37 H        4.9950    -3.2330     0.3890 H     1 <1>   0.0800 
 38 H        4.9560    -2.3420    -1.1040 H     1 <1>   0.0800 
 39 H       -6.0790     3.6240     0.2860 H     1 <1>   0.3700 
 40 H       -8.2740     2.7730     1.2870 H     1 <1>   0.0800 
 41 H       -8.9190     1.4760     0.3090 H     1 <1>   0.0800 
 42 H       -8.4680     2.9850    -0.4470 H     1 <1>   0.0800 
@<TRIPOS>BOND
  1   1   2  2   
  2   2   3  am  
  3   2   4  1   
  4   3   5  1   
  5   3  21  1   
  6   4   6  1   
  7   4  22  1   
  8   4  23  1   
  9   5   7  ar  
 10   5   8  ar  
 11   6   9  1   
 12   6  10  1   
 13   6  24  1   
 14   7  11  ar  
 15   7  25  1   
 16   8  12  ar  
 17   8  26  1   
 18   9  13  1   
 19   9  27  1   
 20   9  28  1   
 21  10  14  1   
 22  10  29  1   
 23  10  30  1   
 24  11  15  ar  
 25  11  31  1   
 26  12  15  ar  
 27  12  32  1   
 28  13  16  1   
 29  13  33  1   
 30  13  34  1   
 31  14  16  1   
 32  14  35  1   
 33  14  36  1   
 34  15  17  1   
 35  16  37  1   
 36  16  38  1   
 37  17  18  am  
 38  17  39  1   
 39  18  19  2   
 40  18  20  1   
 41  20  40  1   
 42  20  41  1   
 43  20  42  1   
@<TRIPOS>SUBSTRUCTURE
  1 ****   5 GROUP 4 **** **** 0

# MOE 2024.06 (io_trps.svl 2023.06)
