@<TRIPOS>MOLECULE
NONAME
41 42 1 0 0 
SMALL
USER_CHARGES


@<TRIPOS>ATOM
  1 S       -5.3540    -5.4860     1.3280 S.3   1 <1>  -0.3310 
  2 C       -3.6920    -5.4940     0.6370 C.ar  1 <1>   0.1020 
  3 C       -6.3500    -4.2940     0.3280 C.3   1 <1>  -0.0100 
  4 C       -2.7820    -6.3630     1.2080 C.ar  1 <1>  -0.1500 
  5 C       -3.3250    -4.6760    -0.4180 C.ar  1 <1>  -0.1500 
  6 C       -1.4860    -6.4140     0.7260 C.ar  1 <1>  -0.1500 
  7 C       -2.0270    -4.7280    -0.8990 C.ar  1 <1>  -0.1500 
  8 C       -1.1020    -5.5920    -0.3260 C.ar  1 <1>  -0.1430 
  9 C        0.3200    -5.6290    -0.8330 C.3   1 <1>   0.4860 
 10 N        1.0710    -4.6530    -0.0170 N.4   1 <1>  -0.9060 
 11 C        2.5100    -4.5570    -0.3910 C.3   1 <1>   0.3430 
 12 C        3.2390    -3.5090     0.4610 C.3   1 <1>   0.1100 
 13 N        4.6060    -3.3310    -0.0370 N.3   1 <1>  -0.8100 
 14 C        5.1650    -2.0280     0.3940 C.3   1 <1>   0.1100 
 15 C        5.5240    -4.4140     0.3950 C.3   1 <1>   0.1100 
 16 C        6.6170    -1.8490    -0.0840 C.3   1 <1>   0.1200 
 17 C        6.9630    -4.1570    -0.0880 C.3   1 <1>   0.1200 
 18 O        7.4070    -2.9120     0.3610 O.3   1 <1>  -0.5600 
 19 H       -7.3510    -4.3010     0.7210 H     1 <1>   0.0800 
 20 H       -6.3400    -4.6270    -0.6940 H     1 <1>   0.0800 
 21 H       -5.9070    -3.3200     0.4320 H     1 <1>   0.0800 
 22 H       -3.0950    -6.9930     2.0230 H     1 <1>   0.1500 
 23 H       -4.0300    -4.0040    -0.8680 H     1 <1>   0.1500 
 24 H       -0.7950    -7.1040     1.1820 H     1 <1>   0.1500 
 25 H       -1.7580    -4.0890    -1.7240 H     1 <1>   0.1500 
 26 H        0.3490    -5.3560    -1.8760 H     1 <1>   0.0800 
 27 H        0.7300    -6.6190    -0.7170 H     1 <1>   0.0800 
 28 H        0.9590    -4.9170     0.9690 H     1 <1>   0.4500 
 29 H        0.6070    -3.7430    -0.1210 H     1 <1>   0.4500 
 30 H        2.5990    -4.2700    -1.4260 H     1 <1>   0.0800 
 31 H        2.9890    -5.5120    -0.2580 H     1 <1>   0.0800 
 32 H        3.2620    -3.8000     1.4980 H     1 <1>   0.0800 
 33 H        2.7150    -2.5730     0.3730 H     1 <1>   0.0800 
 34 H        5.1460    -1.9530     1.4690 H     1 <1>   0.0800 
 35 H        4.5700    -1.2270    -0.0090 H     1 <1>   0.0800 
 36 H        5.1950    -5.3580    -0.0010 H     1 <1>   0.0800 
 37 H        5.5360    -4.4840     1.4700 H     1 <1>   0.0800 
 38 H        7.0340    -0.9420     0.3150 H     1 <1>   0.0800 
 39 H        6.6630    -1.8090    -1.1590 H     1 <1>   0.0800 
 40 H        7.0150    -4.1760    -1.1630 H     1 <1>   0.0800 
 41 H        7.6310    -4.9030     0.3050 H     1 <1>   0.0800 
@<TRIPOS>BOND
  1   1   2  1   
  2   1   3  1   
  3   2   4  ar  
  4   2   5  ar  
  5   3  19  1   
  6   3  20  1   
  7   3  21  1   
  8   4   6  ar  
  9   4  22  1   
 10   5   7  ar  
 11   5  23  1   
 12   6   8  ar  
 13   6  24  1   
 14   7   8  ar  
 15   7  25  1   
 16   8   9  1   
 17   9  10  1   
 18   9  26  1   
 19   9  27  1   
 20  10  11  1   
 21  10  28  1   
 22  10  29  1   
 23  11  12  1   
 24  11  30  1   
 25  11  31  1   
 26  12  13  1   
 27  12  32  1   
 28  12  33  1   
 29  13  14  1   
 30  13  15  1   
 31  14  16  1   
 32  14  34  1   
 33  14  35  1   
 34  15  17  1   
 35  15  36  1   
 36  15  37  1   
 37  16  18  1   
 38  16  38  1   
 39  16  39  1   
 40  17  18  1   
 41  17  40  1   
 42  17  41  1   
@<TRIPOS>SUBSTRUCTURE
  1 ****  10 GROUP 4 **** **** 0

# MOE 2024.06 (io_trps.svl 2023.06)
