@<TRIPOS>MOLECULE
NONAME
47 49 1 0 0 
SMALL
USER_CHARGES


@<TRIPOS>ATOM
  1 CL       2.0820     0.2010     1.6440 Cl    1 <1>  -0.1770 
  2 C        2.2430    -1.2330     0.6610 C.ar  1 <1>   0.1770 
  3 C        3.4770    -1.8370     0.5440 C.ar  1 <1>  -0.1500 
  4 C        1.1300    -1.7370     0.0180 C.ar  1 <1>  -0.1500 
  5 C        3.6190    -2.9800    -0.2340 C.ar  1 <1>   0.1000 
  6 C        1.2630    -2.8750    -0.7600 C.ar  1 <1>  -0.1500 
  7 N        4.8620    -3.5980    -0.3560 N.pl3 1 <1>  -0.8380 
  8 C        2.4960    -3.4960    -0.8890 C.ar  1 <1>  -0.1430 
  9 C        5.9150    -2.9290    -1.1800 C.3   1 <1>   0.2090 
 10 C        5.3940    -4.3650     0.8120 C.3   1 <1>   0.2090 
 11 C        2.6190    -4.7460    -1.7500 C.3   1 <1>  -0.0970 
 12 C        6.9710    -2.2100    -0.3190 C.3   1 <1>   0.1960 
 13 C        6.4750    -3.5880     1.5900 C.3   1 <1>   0.1960 
 14 N        7.5480    -3.0890     0.7150 N.am  1 <1>  -0.8490 
 15 S        8.7280    -2.2930     1.6170 S.o2  1 <1>   1.5760 
 16 O        8.2060    -0.9950     1.9800 O.2   1 <1>  -0.6500 
 17 O        9.2220    -3.1970     2.6320 O.2   1 <1>  -0.6500 
 18 N        9.9260    -2.1030     0.4440 N.am  1 <1>  -0.8490 
 19 C       10.5330    -3.3880     0.0860 C.3   1 <1>   0.1960 
 20 C       10.9410    -1.1500     0.8930 C.3   1 <1>   0.1960 
 21 C       11.5170    -3.2020    -1.0730 C.3   1 <1>  -0.1600 
 22 C       11.9480    -0.8800    -0.2310 C.3   1 <1>  -0.1600 
 23 C       12.6020    -2.1770    -0.7230 C.3   1 <1>  -0.1600 
 24 H        4.3220    -1.4220     1.0550 H     1 <1>   0.1500 
 25 H        0.1790    -1.2470     0.1250 H     1 <1>   0.1500 
 26 H        0.3990    -3.2720    -1.2640 H     1 <1>   0.1500 
 27 H        5.4520    -2.2190    -1.8430 H     1 <1>   0.0800 
 28 H        6.4050    -3.6720    -1.7840 H     1 <1>   0.0800 
 29 H        5.8160    -5.2870     0.4550 H     1 <1>   0.0800 
 30 H        4.5840    -4.6110     1.4770 H     1 <1>   0.0800 
 31 H        3.3270    -4.5720    -2.5400 H     1 <1>   0.0800 
 32 H        1.6750    -5.0170    -2.1850 H     1 <1>   0.0800 
 33 H        2.9700    -5.5650    -1.1490 H     1 <1>   0.0800 
 34 H        6.5150    -1.3490     0.1390 H     1 <1>   0.0800 
 35 H        7.7540    -1.8560    -0.9670 H     1 <1>   0.0800 
 36 H        6.8950    -4.2450     2.3320 H     1 <1>   0.0800 
 37 H        6.0120    -2.7650     2.1070 H     1 <1>   0.0800 
 38 H        9.7660    -4.0830    -0.2140 H     1 <1>   0.0800 
 39 H       11.0470    -3.8040     0.9380 H     1 <1>   0.0800 
 40 H       11.4500    -1.5370     1.7610 H     1 <1>   0.0800 
 41 H       10.4700    -0.2190     1.1660 H     1 <1>   0.0800 
 42 H       10.9710    -2.8740    -1.9400 H     1 <1>   0.0800 
 43 H       11.9740    -4.1470    -1.3090 H     1 <1>   0.0800 
 44 H       12.7060    -0.2040     0.1240 H     1 <1>   0.0800 
 45 H       11.4350    -0.4000    -1.0450 H     1 <1>   0.0800 
 46 H       13.2140    -1.9780    -1.5850 H     1 <1>   0.0800 
 47 H       13.2330    -2.5760     0.0530 H     1 <1>   0.0800 
@<TRIPOS>BOND
  1   1   2  1   
  2   2   3  ar  
  3   2   4  ar  
  4   3   5  ar  
  5   3  24  1   
  6   4   6  ar  
  7   4  25  1   
  8   5   7  1   
  9   5   8  ar  
 10   6   8  ar  
 11   6  26  1   
 12   7   9  1   
 13   7  10  1   
 14   8  11  1   
 15   9  12  1   
 16   9  27  1   
 17   9  28  1   
 18  10  13  1   
 19  10  29  1   
 20  10  30  1   
 21  11  31  1   
 22  11  32  1   
 23  11  33  1   
 24  12  14  1   
 25  12  34  1   
 26  12  35  1   
 27  13  14  1   
 28  13  36  1   
 29  13  37  1   
 30  14  15  am  
 31  15  16  2   
 32  15  17  2   
 33  15  18  am  
 34  18  19  1   
 35  18  20  1   
 36  19  21  1   
 37  19  38  1   
 38  19  39  1   
 39  20  22  1   
 40  20  40  1   
 41  20  41  1   
 42  21  23  1   
 43  21  42  1   
 44  21  43  1   
 45  22  23  1   
 46  22  44  1   
 47  22  45  1   
 48  23  46  1   
 49  23  47  1   
@<TRIPOS>SUBSTRUCTURE
  1 ****  12 GROUP 4 **** **** 0

# MOE 2024.06 (io_trps.svl 2023.06)
