@<TRIPOS>MOLECULE
NONAME
44 46 1 0 0 
SMALL
USER_CHARGES


@<TRIPOS>ATOM
  1 BR       6.9250    -0.9170     5.2640 Br    1 <1>  -0.1110 
  2 C        6.4390    -0.9120     3.4010 C.ar  1 <1>   0.1110 
  3 C        6.2450     0.3000     2.7670 C.ar  1 <1>  -0.1500 
  4 C        6.2950    -2.1210     2.7470 C.ar  1 <1>  -0.1500 
  5 C        5.9030     0.2950     1.4260 C.ar  1 <1>  -0.1500 
  6 C        5.9520    -2.1160     1.4050 C.ar  1 <1>  -0.1500 
  7 C        5.7680    -0.9040     0.7370 C.ar  1 <1>   0.0830 
  8 O        5.4760    -0.8030    -0.5850 O.3   1 <1>  -0.3630 
  9 C        5.5240    -1.9160    -1.4700 C.3   1 <1>   0.2610 
 10 C        6.9020    -2.6130    -1.5220 C.2   1 <1>   0.5690 
 11 C        5.0570    -1.4280    -2.8460 C.3   1 <1>  -0.2400 
 12 O        6.8800    -3.8220    -1.4520 O.2   1 <1>  -0.5700 
 13 N        8.1030    -1.9440    -1.6350 N.am  1 <1>  -0.6600 
 14 C        8.2930    -0.4580    -1.6770 C.3   1 <1>   0.1400 
 15 C        9.4070    -2.6620    -1.4690 C.3   1 <1>   0.1400 
 16 C        9.0380     0.0340    -0.4230 C.3   1 <1>   0.2090 
 17 C       10.1500    -2.1630    -0.2170 C.3   1 <1>   0.2090 
 18 N       10.3380    -0.6810    -0.2450 N.pl3 1 <1>  -0.8380 
 19 C       11.1420    -0.1880     0.7580 C.ar  1 <1>   0.4100 
 20 N       10.6320    -0.1670     1.9840 N.ar  1 <1>  -0.6200 
 21 C       12.4250     0.2520     0.4520 C.ar  1 <1>  -0.1500 
 22 C       11.4270     0.3060     2.9280 C.ar  1 <1>   0.1600 
 23 C       13.2420     0.7420     1.4450 C.ar  1 <1>  -0.1500 
 24 C       12.7150     0.7660     2.7210 C.ar  1 <1>  -0.1500 
 25 H        6.3620     1.2200     3.3100 H     1 <1>   0.1500 
 26 H        6.4500    -3.0440     3.2760 H     1 <1>   0.1500 
 27 H        5.7460     1.2210     0.9050 H     1 <1>   0.1500 
 28 H        5.8380    -3.0600     0.9050 H     1 <1>   0.1500 
 29 H        4.8050    -2.6290    -1.1080 H     1 <1>   0.0800 
 30 H        5.7410    -0.7020    -3.2450 H     1 <1>   0.0800 
 31 H        4.0760    -0.9960    -2.7710 H     1 <1>   0.0800 
 32 H        5.0130    -2.2610    -3.5250 H     1 <1>   0.0800 
 33 H        7.3570     0.0590    -1.7590 H     1 <1>   0.0800 
 34 H        8.8770    -0.2060    -2.5440 H     1 <1>   0.0800 
 35 H       10.0200    -2.4860    -2.3350 H     1 <1>   0.0800 
 36 H        9.2530    -3.7230    -1.3850 H     1 <1>   0.0800 
 37 H        8.4240    -0.1270     0.4450 H     1 <1>   0.0800 
 38 H        9.2240     1.0900    -0.5060 H     1 <1>   0.0800 
 39 H       11.1110    -2.6420    -0.1560 H     1 <1>   0.0800 
 40 H        9.5870    -2.4340     0.6600 H     1 <1>   0.0800 
 41 H       12.7560     0.1980    -0.5670 H     1 <1>   0.1500 
 42 H       11.0260     0.3290     3.9270 H     1 <1>   0.1500 
 43 H       14.2390     1.0900     1.2380 H     1 <1>   0.1500 
 44 H       13.2980     1.1360     3.5450 H     1 <1>   0.1500 
@<TRIPOS>BOND
  1   1   2  1   
  2   2   3  ar  
  3   2   4  ar  
  4   3   5  ar  
  5   3  25  1   
  6   4   6  ar  
  7   4  26  1   
  8   5   7  ar  
  9   5  27  1   
 10   6   7  ar  
 11   6  28  1   
 12   7   8  1   
 13   8   9  1   
 14   9  10  1   
 15   9  11  1   
 16   9  29  1   
 17  10  12  2   
 18  10  13  am  
 19  11  30  1   
 20  11  31  1   
 21  11  32  1   
 22  13  14  1   
 23  13  15  1   
 24  14  16  1   
 25  14  33  1   
 26  14  34  1   
 27  15  17  1   
 28  15  35  1   
 29  15  36  1   
 30  16  18  1   
 31  16  37  1   
 32  16  38  1   
 33  17  18  1   
 34  17  39  1   
 35  17  40  1   
 36  18  19  1   
 37  19  20  ar  
 38  19  21  ar  
 39  20  22  ar  
 40  21  23  ar  
 41  21  41  1   
 42  22  24  ar  
 43  22  42  1   
 44  23  24  ar  
 45  23  43  1   
 46  24  44  1   
@<TRIPOS>SUBSTRUCTURE
  1 ****  16 GROUP 4 **** **** 0

# MOE 2024.06 (io_trps.svl 2023.06)
