@<TRIPOS>MOLECULE
Structure607
24 24 1 0 0 
SMALL
USER_CHARGES


@<TRIPOS>ATOM
  1 CL      -0.2490     0.4680    -2.0930 Cl    1 <1>  -0.1770 
  2 C       -1.5200     0.9350    -1.0010 C.ar  1 <1>   0.4870 
  3 N       -1.1530     1.4810     0.1370 N.ar  1 <1>  -0.6200 
  4 C       -2.8170     0.7200    -1.3640 C.ar  1 <1>  -0.1500 
  5 C       -2.1680     1.8090     0.9120 C.ar  1 <1>   0.4700 
  6 C       -3.7890     1.1060    -0.4690 C.ar  1 <1>   0.4100 
  7 N       -3.4570     1.6570     0.6820 N.ar  1 <1>  -0.6200 
  8 N       -5.1130     0.9140    -0.7820 N.pl3 1 <1>  -0.8690 
  9 C       -6.3270     1.2300    -0.0210 C.3   1 <1>   0.3690 
 10 C       -6.3480     0.4440     1.2890 C.3   1 <1>  -0.2400 
 11 C       -7.4940     0.7800    -0.8960 C.3   1 <1>  -0.2400 
 12 C       -6.4250     2.7370     0.2140 C.3   1 <1>  -0.2400 
 13 H       -3.0670     0.2720    -2.3030 H     1 <1>   0.1500 
 14 H       -1.9110     2.2600     1.8570 H     1 <1>   0.1500 
 15 H       -5.3250     0.4850    -1.6810 H     1 <1>   0.4000 
 16 H       -5.5680     0.7790     1.9470 H     1 <1>   0.0800 
 17 H       -6.2160    -0.6050     1.0980 H     1 <1>   0.0800 
 18 H       -7.2860     0.5870     1.7920 H     1 <1>   0.0800 
 19 H       -7.4380    -0.2770    -1.0860 H     1 <1>   0.0800 
 20 H       -7.4920     1.3110    -1.8310 H     1 <1>   0.0800 
 21 H       -8.4260     0.9810    -0.4000 H     1 <1>   0.0800 
 22 H       -5.6460     3.0710     0.8720 H     1 <1>   0.0800 
 23 H       -7.3670     2.9800     0.6700 H     1 <1>   0.0800 
 24 H       -6.3470     3.2660    -0.7180 H     1 <1>   0.0800 
@<TRIPOS>BOND
  1   1   2  1   
  2   2   3  ar  
  3   2   4  ar  
  4   3   5  ar  
  5   4   6  ar  
  6   4  13  1   
  7   5   7  ar  
  8   5  14  1   
  9   6   7  ar  
 10   6   8  1   
 11   8   9  1   
 12   8  15  1   
 13   9  10  1   
 14   9  11  1   
 15   9  12  1   
 16  10  16  1   
 17  10  17  1   
 18  10  18  1   
 19  11  19  1   
 20  11  20  1   
 21  11  21  1   
 22  12  22  1   
 23  12  23  1   
 24  12  24  1   
@<TRIPOS>SUBSTRUCTURE
  1 ****   6 GROUP 4 **** **** 0

# MOE 2024.06 (io_trps.svl 2023.06)
