@<TRIPOS>MOLECULE
NONAME
47 49 1 0 0 
SMALL
USER_CHARGES


@<TRIPOS>ATOM
  1 S        1.2140    -0.8410    -2.1910 S.3   1 <1>  -0.4600 
  2 C        2.8070     0.0200    -2.1210 C.3   1 <1>   0.0700 
  3 C        1.5320    -2.3410    -1.2270 C.3   1 <1>   0.0700 
  4 C        3.2390     0.1530    -0.6550 C.3   1 <1>   0.3430 
  5 C        2.1050    -1.9430     0.1400 C.3   1 <1>   0.3430 
  6 N        3.3980    -1.1820     0.0280 N.4   1 <1>  -0.9590 
  7 C        4.0330    -1.0220     1.3660 C.3   1 <1>   0.4860 
  8 C        5.4390    -0.4900     1.1700 C.ar  1 <1>  -0.1430 
  9 C        6.4270    -1.3080     0.6370 C.ar  1 <1>  -0.1500 
 10 C        5.7500     0.8180     1.5150 C.ar  1 <1>  -0.1500 
 11 C        7.7090    -0.8270     0.4330 C.ar  1 <1>   0.0820 
 12 C        7.0260     1.3100     1.3020 C.ar  1 <1>  -0.1500 
 13 O        8.6160    -1.6950    -0.0780 O.3   1 <1>  -0.3630 
 14 C        8.0040     0.5050     0.7450 C.ar  1 <1>   0.0820 
 15 C        9.8190    -1.9140     0.6420 C.3   1 <1>   0.2640 
 16 O        9.2210     1.0570     0.5290 O.3   1 <1>  -0.3630 
 17 C       11.0040    -1.8020    -0.3070 C.ar  1 <1>  -0.1430 
 18 C        9.5850     1.2690    -0.8190 C.3   1 <1>   0.0400 
 19 C       11.0700    -2.5870    -1.4490 C.ar  1 <1>  -0.1500 
 20 C       12.0330    -0.9130    -0.0360 C.ar  1 <1>  -0.1500 
 21 C       12.1490    -2.4840    -2.3090 C.ar  1 <1>  -0.1500 
 22 C       13.1140    -0.8090    -0.8950 C.ar  1 <1>  -0.1500 
 23 C       13.1730    -1.5950    -2.0320 C.ar  1 <1>  -0.1500 
 24 H        2.6610     0.9860    -2.5720 H     1 <1>   0.0800 
 25 H        3.5160    -0.5440    -2.7010 H     1 <1>   0.0800 
 26 H        2.2130    -2.9570    -1.7870 H     1 <1>   0.0800 
 27 H        0.5900    -2.8500    -1.1210 H     1 <1>   0.0800 
 28 H        2.5080     0.7460    -0.1310 H     1 <1>   0.0800 
 29 H        4.1760     0.6860    -0.6310 H     1 <1>   0.0800 
 30 H        2.2630    -2.8410     0.7160 H     1 <1>   0.0800 
 31 H        1.3740    -1.3430     0.6580 H     1 <1>   0.0800 
 32 H        4.0580    -1.7310    -0.5380 H     1 <1>   0.4500 
 33 H        4.0840    -1.9730     1.8710 H     1 <1>   0.0800 
 34 H        3.4600    -0.3410     1.9750 H     1 <1>   0.0800 
 35 H        6.2300    -2.3340     0.3780 H     1 <1>   0.1500 
 36 H        5.0120     1.4710     1.9500 H     1 <1>   0.1500 
 37 H        7.2750     2.3250     1.5640 H     1 <1>   0.1500 
 38 H        9.9000    -1.2040     1.4460 H     1 <1>   0.0800 
 39 H        9.7740    -2.9030     1.0600 H     1 <1>   0.0800 
 40 H        8.8940     1.9630    -1.2610 H     1 <1>   0.0800 
 41 H       10.5800     1.6750    -0.8390 H     1 <1>   0.0800 
 42 H        9.5660     0.3340    -1.3500 H     1 <1>   0.0800 
 43 H       10.2760    -3.2780    -1.6720 H     1 <1>   0.1500 
 44 H       11.9960    -0.2940     0.8440 H     1 <1>   0.1500 
 45 H       12.1930    -3.0960    -3.1930 H     1 <1>   0.1500 
 46 H       13.9080    -0.1160    -0.6780 H     1 <1>   0.1500 
 47 H       14.0120    -1.5150    -2.7000 H     1 <1>   0.1500 
@<TRIPOS>BOND
  1   1   2  1   
  2   1   3  1   
  3   2   4  1   
  4   2  24  1   
  5   2  25  1   
  6   3   5  1   
  7   3  26  1   
  8   3  27  1   
  9   4   6  1   
 10   4  28  1   
 11   4  29  1   
 12   5   6  1   
 13   5  30  1   
 14   5  31  1   
 15   6   7  1   
 16   6  32  1   
 17   7   8  1   
 18   7  33  1   
 19   7  34  1   
 20   8   9  ar  
 21   8  10  ar  
 22   9  11  ar  
 23   9  35  1   
 24  10  12  ar  
 25  10  36  1   
 26  11  13  1   
 27  11  14  ar  
 28  12  14  ar  
 29  12  37  1   
 30  13  15  1   
 31  14  16  1   
 32  15  17  1   
 33  15  38  1   
 34  15  39  1   
 35  16  18  1   
 36  17  19  ar  
 37  17  20  ar  
 38  18  40  1   
 39  18  41  1   
 40  18  42  1   
 41  19  21  ar  
 42  19  43  1   
 43  20  22  ar  
 44  20  44  1   
 45  21  23  ar  
 46  21  45  1   
 47  22  23  ar  
 48  22  46  1   
 49  23  47  1   
@<TRIPOS>SUBSTRUCTURE
  1 ****  11 GROUP 4 **** **** 0

# MOE 2024.06 (io_trps.svl 2023.06)
