@<TRIPOS>MOLECULE
NONAME
51 53 1 0 0 
SMALL
USER_CHARGES


@<TRIPOS>ATOM
  1 O        2.7290    -2.2480     0.1770 O.3   1 <1>  -0.3630 
  2 C        1.9780    -3.3450    -0.0880 C.ar  1 <1>   0.0830 
  3 C        4.1190    -2.3390     0.4080 C.3   1 <1>   0.1200 
  4 C        0.6190    -3.1840    -0.1460 C.ar  1 <1>  -0.1500 
  5 C        2.5320    -4.6230    -0.3000 C.ar  1 <1>  -0.1500 
  6 C        4.6450    -0.9410     0.7550 C.3   1 <1>   0.2000 
  7 C       -0.2450    -4.2630    -0.4100 C.ar  1 <1>   0.0000 
  8 C        1.7140    -5.6870    -0.5580 C.ar  1 <1>  -0.1500 
  9 O        4.2360    -0.0420    -0.2320 O.3   1 <1>  -0.6800 
 10 C        6.1840    -0.8950     0.8640 C.3   1 <1>   0.3430 
 11 C        0.3130    -5.5430    -0.6190 C.ar  1 <1>   0.0000 
 12 C       -1.6460    -4.1180    -0.4720 C.ar  1 <1>  -0.1500 
 13 N        6.6800     0.5010     0.6480 N.4   1 <1>  -0.9590 
 14 C       -0.5510    -6.6240    -0.8820 C.ar  1 <1>  -0.1500 
 15 C       -2.4610    -5.1860    -0.7290 C.ar  1 <1>  -0.1500 
 16 C        8.0130     0.5330    -0.0160 C.3   1 <1>   0.4230 
 17 C        6.5480     1.3480     1.8760 C.3   1 <1>   0.2630 
 18 C       -1.9070    -6.4540    -0.9360 C.ar  1 <1>  -0.1500 
 19 C        9.1420     0.0900     0.9290 C.3   1 <1>  -0.1600 
 20 C        8.2890     1.9290    -0.5890 C.3   1 <1>  -0.1600 
 21 C       10.4950     0.1140     0.2020 C.3   1 <1>  -0.1600 
 22 C        9.6390     1.9580    -1.3210 C.3   1 <1>  -0.1600 
 23 C       10.7780     1.4970    -0.4010 C.3   1 <1>  -0.1600 
 24 H        4.5880    -2.7120    -0.4870 H     1 <1>   0.0800 
 25 H        4.2830    -3.0230     1.2230 H     1 <1>   0.0800 
 26 H        0.1900    -2.2120     0.0130 H     1 <1>   0.1500 
 27 H        3.5920    -4.7780    -0.2660 H     1 <1>   0.1500 
 28 H        4.2070    -0.6270     1.6870 H     1 <1>   0.0800 
 29 H        2.1290    -6.6650    -0.7220 H     1 <1>   0.1500 
 30 H        3.2970    -0.2400    -0.4620 H     1 <1>   0.4000 
 31 H        6.5890    -1.5360     0.0990 H     1 <1>   0.0800 
 32 H        6.5080    -1.2740     1.8190 H     1 <1>   0.0800 
 33 H       -2.0670    -3.1420    -0.3120 H     1 <1>   0.1500 
 34 H        5.9930     0.8670    -0.0420 H     1 <1>   0.4500 
 35 H       -0.1210    -7.5970    -1.0410 H     1 <1>   0.1500 
 36 H       -3.5300    -5.0680    -0.7750 H     1 <1>   0.1500 
 37 H        7.9950    -0.1530    -0.8480 H     1 <1>   0.0800 
 38 H        7.1920     0.9800     2.6580 H     1 <1>   0.0800 
 39 H        5.5300     1.3340     2.2300 H     1 <1>   0.0800 
 40 H        6.8160     2.3680     1.6590 H     1 <1>   0.0800 
 41 H       -2.5620    -7.2840    -1.1370 H     1 <1>   0.1500 
 42 H        8.9630    -0.9080     1.2850 H     1 <1>   0.0800 
 43 H        9.2060     0.7530     1.7730 H     1 <1>   0.0800 
 44 H        8.3180     2.6610     0.1970 H     1 <1>   0.0800 
 45 H        7.5120     2.1980    -1.2840 H     1 <1>   0.0800 
 46 H       10.5000    -0.6230    -0.5840 H     1 <1>   0.0800 
 47 H       11.2830    -0.1420     0.8920 H     1 <1>   0.0800 
 48 H        9.8420     2.9570    -1.6680 H     1 <1>   0.0800 
 49 H        9.5980     1.3160    -2.1860 H     1 <1>   0.0800 
 50 H       11.6990     1.4630    -0.9610 H     1 <1>   0.0800 
 51 H       10.9100     2.2140     0.3920 H     1 <1>   0.0800 
@<TRIPOS>BOND
  1   1   2  1   
  2   1   3  1   
  3   2   4  ar  
  4   2   5  ar  
  5   3   6  1   
  6   3  24  1   
  7   3  25  1   
  8   4   7  ar  
  9   4  26  1   
 10   5   8  ar  
 11   5  27  1   
 12   6   9  1   
 13   6  10  1   
 14   6  28  1   
 15   7  11  ar  
 16   7  12  ar  
 17   8  11  ar  
 18   8  29  1   
 19   9  30  1   
 20  10  13  1   
 21  10  31  1   
 22  10  32  1   
 23  11  14  ar  
 24  12  15  ar  
 25  12  33  1   
 26  13  16  1   
 27  13  17  1   
 28  13  34  1   
 29  14  18  ar  
 30  14  35  1   
 31  15  18  ar  
 32  15  36  1   
 33  16  19  1   
 34  16  20  1   
 35  16  37  1   
 36  17  38  1   
 37  17  39  1   
 38  17  40  1   
 39  18  41  1   
 40  19  21  1   
 41  19  42  1   
 42  19  43  1   
 43  20  22  1   
 44  20  44  1   
 45  20  45  1   
 46  21  23  1   
 47  21  46  1   
 48  21  47  1   
 49  22  23  1   
 50  22  48  1   
 51  22  49  1   
 52  23  50  1   
 53  23  51  1   
@<TRIPOS>SUBSTRUCTURE
  1 ****   3 GROUP 4 **** **** 0

# MOE 2024.06 (io_trps.svl 2023.06)
