@<TRIPOS>MOLECULE
NONAME
37 38 1 0 0 
SMALL
USER_CHARGES


@<TRIPOS>ATOM
  1 O        1.1670    -3.0880     1.8290 O.co2 1 <1>  -0.9000 
  2 C        0.8780    -2.2250     0.9840 C.2   1 <1>   0.9060 
  3 O        0.1520    -1.2610     1.2760 O.co2 1 <1>  -0.9000 
  4 C        1.4480    -2.2980    -0.4650 C.3   1 <1>   0.1830 
  5 N        0.9030    -3.3850    -1.3750 N.pl3 1 <1>  -0.8690 
  6 C        2.9880    -2.3200    -0.5140 C.3   1 <1>  -0.1600 
  7 C        0.5820    -4.6060    -0.8480 C.ar  1 <1>   0.4100 
  8 C        3.6700    -1.1040     0.1470 C.3   1 <1>  -0.0800 
  9 N       -0.7130    -4.8540    -0.8640 N.ar  1 <1>  -0.6200 
 10 C        1.4890    -5.5520    -0.3410 C.ar  1 <1>   0.2270 
 11 C        3.2970     0.2200    -0.5320 C.3   1 <1>  -0.2400 
 12 C        5.1910    -1.2880     0.1130 C.3   1 <1>  -0.2400 
 13 C       -1.1110    -5.9850    -0.2820 C.ar  1 <1>   0.4770 
 14 N        2.8550    -5.7020    -0.2720 N.2   1 <1>  -0.5650 
 15 C        0.9170    -6.6600     0.2020 C.ar  1 <1>   0.3970 
 16 N       -0.3790    -6.9340     0.2580 N.ar  1 <1>  -0.5670 
 17 C       -2.6060    -6.1890    -0.2550 C.3   1 <1>  -0.0970 
 18 C        2.9940    -6.8210     0.3250 C.2   1 <1>   0.2980 
 19 O        1.8730    -7.4500     0.6290 O.3   1 <1>  -0.2800 
 20 C        4.3010    -7.4730     0.7010 C.3   1 <1>  -0.0600 
 21 H        1.1360    -1.3760    -0.9150 H     1 <1>   0.0800 
 22 H        0.0770    -3.0130    -1.8440 H     1 <1>   0.4000 
 23 H        3.3020    -2.3970    -1.5390 H     1 <1>   0.0800 
 24 H        3.3170    -3.1980     0.0060 H     1 <1>   0.0800 
 25 H        3.3630    -1.0580     1.1800 H     1 <1>   0.0800 
 26 H        3.4950     0.1750    -1.5880 H     1 <1>   0.0800 
 27 H        3.8630     1.0290    -0.1060 H     1 <1>   0.0800 
 28 H        2.2540     0.4390    -0.3800 H     1 <1>   0.0800 
 29 H        5.5430    -1.3380    -0.9020 H     1 <1>   0.0800 
 30 H        5.4620    -2.1990     0.6170 H     1 <1>   0.0800 
 31 H        5.6780    -0.4690     0.6110 H     1 <1>   0.0800 
 32 H       -3.0590    -5.3820     0.2900 H     1 <1>   0.0800 
 33 H       -2.8550    -7.1190     0.2220 H     1 <1>   0.0800 
 34 H       -2.9850    -6.1940    -1.2590 H     1 <1>   0.0800 
 35 H        5.1190    -6.8490     0.3920 H     1 <1>   0.0800 
 36 H        4.3800    -8.4290     0.2180 H     1 <1>   0.0800 
 37 H        4.3410    -7.6040     1.7660 H     1 <1>   0.0800 
@<TRIPOS>BOND
  1   1   2  ar  
  2   2   3  ar  
  3   2   4  1   
  4   4   5  1   
  5   4   6  1   
  6   4  21  1   
  7   5   7  1   
  8   5  22  1   
  9   6   8  1   
 10   6  23  1   
 11   6  24  1   
 12   7   9  ar  
 13   7  10  ar  
 14   8  11  1   
 15   8  12  1   
 16   8  25  1   
 17   9  13  ar  
 18  10  14  1   
 19  10  15  ar  
 20  11  26  1   
 21  11  27  1   
 22  11  28  1   
 23  12  29  1   
 24  12  30  1   
 25  12  31  1   
 26  13  16  ar  
 27  13  17  1   
 28  14  18  2   
 29  15  16  ar  
 30  15  19  1   
 31  17  32  1   
 32  17  33  1   
 33  17  34  1   
 34  18  19  1   
 35  18  20  1   
 36  20  35  1   
 37  20  36  1   
 38  20  37  1   
@<TRIPOS>SUBSTRUCTURE
  1 ****   7 GROUP 4 **** **** 0

# MOE 2024.06 (io_trps.svl 2023.06)
