@<TRIPOS>MOLECULE
NONAME
47 49 1 0 0 
SMALL
USER_CHARGES


@<TRIPOS>ATOM
  1 O       -2.4480     3.7800     1.2000 O.2   1 <1>  -0.5700 
  2 C       -1.7960     2.9440     0.6160 C.2   1 <1>   0.6900 
  3 N       -2.3100     1.9970    -0.2210 N.am  1 <1>  -0.4200 
  4 N       -0.4550     2.8500     0.7040 N.am  1 <1>  -0.7300 
  5 C       -1.2900     1.2670    -0.7570 C.2   1 <1>   0.5690 
  6 C       -3.7460     1.8460    -0.5480 C.3   1 <1>   0.1400 
  7 C        0.0430     1.7990    -0.1920 C.3   1 <1>   0.3610 
  8 O       -1.4080     0.3560    -1.5430 O.2   1 <1>  -0.5700 
  9 C       -4.5190     1.3320     0.6650 C.3   1 <1>   0.1200 
 10 C        0.9350     2.4410    -1.2570 C.3   1 <1>  -0.2400 
 11 C        0.8040     0.7650     0.6400 C.3   1 <1>  -0.2400 
 12 O       -5.8580     1.1150     0.2770 O.3   1 <1>  -0.3620 
 13 C       -6.7970     0.6770     1.1570 C.ar  1 <1>   0.0820 
 14 C       -8.0950     0.4760     0.6860 C.ar  1 <1>  -0.1440 
 15 C       -6.5050     0.4280     2.4970 C.ar  1 <1>  -0.1500 
 16 C       -9.0740     0.0320     1.5620 C.ar  1 <1>  -0.1500 
 17 C       -8.4800     0.7260    -0.7720 C.3   1 <1>   0.1270 
 18 C       -7.4920    -0.0170     3.3570 C.ar  1 <1>  -0.1500 
 19 C       -8.7780    -0.2140     2.8900 C.ar  1 <1>  -0.1500 
 20 C       -9.6150     1.7360    -0.8910 C.ar  1 <1>  -0.1440 
 21 C       -9.4680     3.0060    -0.3530 C.ar  1 <1>  -0.1500 
 22 C      -10.7990     1.4050    -1.5340 C.ar  1 <1>  -0.1500 
 23 C      -10.4890     3.9350    -0.4570 C.ar  1 <1>  -0.1500 
 24 C      -11.8210     2.3330    -1.6380 C.ar  1 <1>  -0.1500 
 25 C      -11.6670     3.5980    -1.1000 C.ar  1 <1>  -0.1500 
 26 H        0.1290     3.5790     1.1110 H     1 <1>   0.3700 
 27 H       -3.8540     1.1520    -1.3640 H     1 <1>   0.0800 
 28 H       -4.1390     2.8030    -0.8460 H     1 <1>   0.0800 
 29 H       -4.5100     2.0640     1.4540 H     1 <1>   0.0800 
 30 H       -4.1120     0.3950     1.0020 H     1 <1>   0.0800 
 31 H        0.3900     3.1950    -1.7980 H     1 <1>   0.0800 
 32 H        1.2550     1.6910    -1.9590 H     1 <1>   0.0800 
 33 H        1.8060     2.8830    -0.8090 H     1 <1>   0.0800 
 34 H        0.1670     0.3610     1.4070 H     1 <1>   0.0800 
 35 H        1.6720     1.2060     1.0940 H     1 <1>   0.0800 
 36 H        1.1220    -0.0450     0.0070 H     1 <1>   0.0800 
 37 H       -5.5190     0.5730     2.8930 H     1 <1>   0.1500 
 38 H      -10.0800    -0.1190     1.2090 H     1 <1>   0.1500 
 39 H       -8.7750    -0.2110    -1.2090 H     1 <1>   0.0800 
 40 H       -7.6480     1.0900    -1.3450 H     1 <1>   0.0800 
 41 H       -7.2610    -0.2070     4.3910 H     1 <1>   0.1500 
 42 H       -9.5490    -0.5570     3.5580 H     1 <1>   0.1500 
 43 H       -8.5540     3.2710     0.1520 H     1 <1>   0.1500 
 44 H      -10.9320     0.4250    -1.9570 H     1 <1>   0.1500 
 45 H      -10.3650     4.9160    -0.0350 H     1 <1>   0.1500 
 46 H      -12.7370     2.0700    -2.1380 H     1 <1>   0.1500 
 47 H      -12.4610     4.3200    -1.1810 H     1 <1>   0.1500 
@<TRIPOS>BOND
  1   1   2  2   
  2   2   3  am  
  3   2   4  am  
  4   3   5  am  
  5   3   6  1   
  6   4   7  1   
  7   4  26  1   
  8   5   7  1   
  9   5   8  2   
 10   6   9  1   
 11   6  27  1   
 12   6  28  1   
 13   7  10  1   
 14   7  11  1   
 15   9  12  1   
 16   9  29  1   
 17   9  30  1   
 18  10  31  1   
 19  10  32  1   
 20  10  33  1   
 21  11  34  1   
 22  11  35  1   
 23  11  36  1   
 24  12  13  1   
 25  13  14  ar  
 26  13  15  ar  
 27  14  16  ar  
 28  14  17  1   
 29  15  18  ar  
 30  15  37  1   
 31  16  19  ar  
 32  16  38  1   
 33  17  20  1   
 34  17  39  1   
 35  17  40  1   
 36  18  19  ar  
 37  18  41  1   
 38  19  42  1   
 39  20  21  ar  
 40  20  22  ar  
 41  21  23  ar  
 42  21  43  1   
 43  22  24  ar  
 44  22  44  1   
 45  23  25  ar  
 46  23  45  1   
 47  24  25  ar  
 48  24  46  1   
 49  25  47  1   
@<TRIPOS>SUBSTRUCTURE
  1 ****  12 GROUP 4 **** **** 0

# MOE 2024.06 (io_trps.svl 2023.06)
