@<TRIPOS>MOLECULE
NONAME
41 42 1 0 0 
SMALL
USER_CHARGES


@<TRIPOS>ATOM
  1 O       -4.9840    -0.7400     0.8130 O.co2 1 <1>  -0.9000 
  2 C       -4.7790     0.3610     1.3340 C.2   1 <1>   0.9060 
  3 O       -5.6320     0.8200     2.0990 O.co2 1 <1>  -0.9000 
  4 C       -3.6030     1.2240     0.9160 C.3   1 <1>  -0.1860 
  5 C       -4.0720     2.3940     0.0080 C.3   1 <1>  -0.0190 
  6 C       -2.4870     0.3890     0.2550 C.3   1 <1>  -0.0220 
  7 C       -4.8850     1.8980    -1.2070 C.2   1 <1>   0.5690 
  8 C       -2.8900     3.3120    -0.3870 C.3   1 <1>  -0.0220 
  9 C       -1.4020     1.2780    -0.3240 C.2   1 <1>  -0.2880 
 10 O       -4.2880     1.6260    -2.2240 O.2   1 <1>  -0.5700 
 11 N       -6.2580     1.7480    -1.1700 N.am  1 <1>  -0.6600 
 12 C       -1.5790     2.5710    -0.6020 C.2   1 <1>  -0.2880 
 13 C       -7.1870     2.1420    -0.0560 C.3   1 <1>   0.1400 
 14 C       -6.9160     0.8090    -2.1260 C.3   1 <1>   0.1400 
 15 C       -8.0540     0.9690     0.4670 C.3   1 <1>   0.3430 
 16 C       -7.2580    -0.5240    -1.4260 C.3   1 <1>   0.3430 
 17 N       -7.5640    -0.3800     0.0390 N.4   1 <1>  -0.9590 
 18 C       -8.2980    -1.4890     0.6790 C.3   1 <1>   0.3430 
 19 C       -7.6070    -2.8240     0.4190 C.3   1 <1>  -0.2400 
 20 H       -3.2000     1.6480     1.8170 H     1 <1>   0.0800 
 21 H       -4.7100     3.0190     0.5970 H     1 <1>   0.0800 
 22 H       -2.8900    -0.2150    -0.5400 H     1 <1>   0.0800 
 23 H       -2.0650    -0.2720     0.9910 H     1 <1>   0.0800 
 24 H       -2.7320     4.0300     0.3980 H     1 <1>   0.0800 
 25 H       -3.1430     3.8580    -1.2800 H     1 <1>   0.0800 
 26 H       -0.4770     0.7580    -0.5020 H     1 <1>   0.1500 
 27 H       -0.8010     3.1930    -1.0100 H     1 <1>   0.1500 
 28 H       -7.8400     2.9190    -0.4110 H     1 <1>   0.0800 
 29 H       -6.6570     2.5550     0.7780 H     1 <1>   0.0800 
 30 H       -6.2850     0.6100    -2.9750 H     1 <1>   0.0800 
 31 H       -7.8160     1.2630    -2.4980 H     1 <1>   0.0800 
 32 H       -9.0650     1.1060     0.1270 H     1 <1>   0.0800 
 33 H       -8.0560     1.0160     1.5440 H     1 <1>   0.0800 
 34 H       -6.4090    -1.1810    -1.5260 H     1 <1>   0.0800 
 35 H       -8.0890    -0.9820    -1.9340 H     1 <1>   0.0800 
 36 H       -6.6030    -0.4270     0.4820 H     1 <1>   0.4500 
 37 H       -9.3100    -1.5220     0.3110 H     1 <1>   0.0800 
 38 H       -8.3250    -1.3180     1.7430 H     1 <1>   0.0800 
 39 H       -7.6390    -3.0900    -0.6210 H     1 <1>   0.0800 
 40 H       -8.1060    -3.5950     0.9770 H     1 <1>   0.0800 
 41 H       -6.5840    -2.7830     0.7510 H     1 <1>   0.0800 
@<TRIPOS>BOND
  1   1   2  ar  
  2   2   3  ar  
  3   2   4  1   
  4   4   5  1   
  5   4   6  1   
  6   4  20  1   
  7   5   7  1   
  8   5   8  1   
  9   5  21  1   
 10   6   9  1   
 11   6  22  1   
 12   6  23  1   
 13   7  10  2   
 14   7  11  am  
 15   8  12  1   
 16   8  24  1   
 17   8  25  1   
 18   9  12  2   
 19   9  26  1   
 20  11  13  1   
 21  11  14  1   
 22  12  27  1   
 23  13  15  1   
 24  13  28  1   
 25  13  29  1   
 26  14  16  1   
 27  14  30  1   
 28  14  31  1   
 29  15  17  1   
 30  15  32  1   
 31  15  33  1   
 32  16  17  1   
 33  16  34  1   
 34  16  35  1   
 35  17  18  1   
 36  17  36  1   
 37  18  19  1   
 38  18  37  1   
 39  18  38  1   
 40  19  39  1   
 41  19  40  1   
 42  19  41  1   
@<TRIPOS>SUBSTRUCTURE
  1 ****   7 GROUP 4 **** **** 0

# MOE 2024.06 (io_trps.svl 2023.06)
