@<TRIPOS>MOLECULE
NONAME
45 46 1 0 0 
SMALL
USER_CHARGES


@<TRIPOS>ATOM
  1 O       -0.0940    -0.7180    -1.5350 O.2   1 <1>  -0.5700 
  2 C        0.0140    -1.4360    -0.5620 C.2   1 <1>   0.7800 
  3 O       -1.0370    -2.1190    -0.1140 O.3   1 <1>  -0.4300 
  4 N        1.2070    -1.5990     0.0940 N.am  1 <1>  -0.6600 
  5 C       -2.2990    -1.9920    -0.7320 C.3   1 <1>   0.1200 
  6 C        1.4110    -2.5940     1.1860 C.3   1 <1>   0.1400 
  7 C        2.4410    -0.8900    -0.3530 C.3   1 <1>   0.1400 
  8 C       -3.2810    -2.8940     0.0070 C.3   1 <1>  -0.2400 
  9 C        2.5220    -3.5910     0.8010 C.3   1 <1>   0.3430 
 10 C        3.5360    -1.9050    -0.7280 C.3   1 <1>   0.3430 
 11 N        3.7940    -2.9000     0.3790 N.4   1 <1>  -0.9590 
 12 C        4.8350    -3.9020     0.0030 C.3   1 <1>   0.3430 
 13 C        6.2300    -3.2690    -0.1380 C.3   1 <1>  -0.0800 
 14 C        7.2480    -4.3710    -0.4850 C.3   1 <1>  -0.1600 
 15 C        6.6710    -2.5160     1.1360 C.3   1 <1>  -0.1600 
 16 C        8.6650    -3.8040    -0.6320 C.3   1 <1>  -0.1600 
 17 C        8.0920    -1.9540     0.9930 C.3   1 <1>  -0.1600 
 18 C        9.0950    -3.0560     0.6350 C.3   1 <1>  -0.1600 
 19 H       -2.2070    -2.2840    -1.7650 H     1 <1>   0.0800 
 20 H       -2.6040    -0.9600    -0.6750 H     1 <1>   0.0800 
 21 H        0.5040    -3.1400     1.3830 H     1 <1>   0.0800 
 22 H        1.6800    -2.0770     2.0910 H     1 <1>   0.0800 
 23 H        2.7890    -0.2490     0.4380 H     1 <1>   0.0800 
 24 H        2.2340    -0.2660    -1.2060 H     1 <1>   0.0800 
 25 H       -2.9620    -3.9190    -0.0500 H     1 <1>   0.0800 
 26 H       -4.2540    -2.8140    -0.4440 H     1 <1>   0.0800 
 27 H       -3.3580    -2.5950     1.0370 H     1 <1>   0.0800 
 28 H        2.1580    -4.2030    -0.0090 H     1 <1>   0.0800 
 29 H        2.7170    -4.2390     1.6400 H     1 <1>   0.0800 
 30 H        4.4410    -1.3680    -0.9600 H     1 <1>   0.0800 
 31 H        3.2240    -2.4250    -1.6190 H     1 <1>   0.0800 
 32 H        4.1500    -2.3780     1.1900 H     1 <1>   0.4500 
 33 H        4.5640    -4.3810    -0.9240 H     1 <1>   0.0800 
 34 H        4.8880    -4.6640     0.7650 H     1 <1>   0.0800 
 35 H        6.2200    -2.5780    -0.9640 H     1 <1>   0.0800 
 36 H        6.9710    -4.8530    -1.4070 H     1 <1>   0.0800 
 37 H        7.2560    -5.1200     0.2890 H     1 <1>   0.0800 
 38 H        6.6500    -3.1850     1.9800 H     1 <1>   0.0800 
 39 H        6.0110    -1.6930     1.3450 H     1 <1>   0.0800 
 40 H        8.7030    -3.1320    -1.4730 H     1 <1>   0.0800 
 41 H        9.3570    -4.6060    -0.8250 H     1 <1>   0.0800 
 42 H        8.3930    -1.4860     1.9150 H     1 <1>   0.0800 
 43 H        8.1080    -1.1990     0.2240 H     1 <1>   0.0800 
 44 H       10.0690    -2.6220     0.4840 H     1 <1>   0.0800 
 45 H        9.1710    -3.7520     1.4540 H     1 <1>   0.0800 
@<TRIPOS>BOND
  1   1   2  2   
  2   2   3  1   
  3   2   4  am  
  4   3   5  1   
  5   4   6  1   
  6   4   7  1   
  7   5   8  1   
  8   5  19  1   
  9   5  20  1   
 10   6   9  1   
 11   6  21  1   
 12   6  22  1   
 13   7  10  1   
 14   7  23  1   
 15   7  24  1   
 16   8  25  1   
 17   8  26  1   
 18   8  27  1   
 19   9  11  1   
 20   9  28  1   
 21   9  29  1   
 22  10  11  1   
 23  10  30  1   
 24  10  31  1   
 25  11  12  1   
 26  11  32  1   
 27  12  13  1   
 28  12  33  1   
 29  12  34  1   
 30  13  14  1   
 31  13  15  1   
 32  13  35  1   
 33  14  16  1   
 34  14  36  1   
 35  14  37  1   
 36  15  17  1   
 37  15  38  1   
 38  15  39  1   
 39  16  18  1   
 40  16  40  1   
 41  16  41  1   
 42  17  18  1   
 43  17  42  1   
 44  17  43  1   
 45  18  44  1   
 46  18  45  1   
@<TRIPOS>SUBSTRUCTURE
  1 ****  11 GROUP 4 **** **** 0

# MOE 2024.06 (io_trps.svl 2023.06)
