@<TRIPOS>MOLECULE
NONAME
32 32 1 0 0 
SMALL
USER_CHARGES


@<TRIPOS>ATOM
  1 O        0.6190     1.1390    -0.7740 O.2   1 <1>  -0.5700 
  2 C        0.3390     1.9770     0.0600 C.2   1 <1>   0.5440 
  3 N        1.2810     2.2990     0.9980 N.am  1 <1>  -0.7300 
  4 C       -0.9670     2.6150     0.0710 C.ar  1 <1>   0.0860 
  5 C        2.6130     1.6500     1.1280 C.3   1 <1>   0.1400 
  6 C       -1.1520     3.9120     0.5560 C.ar  1 <1>  -0.1500 
  7 C       -2.0920     1.9450    -0.4070 C.ar  1 <1>  -0.1500 
  8 C        3.5510     2.1100     0.0120 C.3   1 <1>   0.1200 
  9 C       -2.4010     4.5070     0.5800 C.ar  1 <1>  -0.1430 
 10 C       -3.3480     2.5260    -0.3930 C.ar  1 <1>  -0.1430 
 11 O        4.8410     1.6710     0.3080 O.3   1 <1>  -0.5600 
 12 C       -3.4970     3.8080     0.1050 C.ar  1 <1>  -0.1500 
 13 C       -2.5820     5.9170     1.1130 C.3   1 <1>  -0.0970 
 14 C       -4.5580     1.7730    -0.9170 C.3   1 <1>  -0.0970 
 15 C        5.7690     1.9520    -0.6890 C.3   1 <1>   0.0400 
 16 H        1.0120     2.9090     1.7710 H     1 <1>   0.3700 
 17 H        2.4940     0.5810     1.0720 H     1 <1>   0.0800 
 18 H        3.0380     1.9060     2.0820 H     1 <1>   0.0800 
 19 H       -0.3010     4.4630     0.9110 H     1 <1>   0.1500 
 20 H       -1.9660     0.9480    -0.7940 H     1 <1>   0.1500 
 21 H        3.5650     3.1840    -0.0480 H     1 <1>   0.0800 
 22 H        3.2420     1.6850    -0.9270 H     1 <1>   0.0800 
 23 H       -4.4710     4.2650     0.1190 H     1 <1>   0.1500 
 24 H       -1.7080     6.2420     1.6480 H     1 <1>   0.0800 
 25 H       -3.4240     5.9540     1.7810 H     1 <1>   0.0800 
 26 H       -2.7580     6.5940     0.2960 H     1 <1>   0.0800 
 27 H       -4.2590     0.8790    -1.4340 H     1 <1>   0.0800 
 28 H       -5.1090     2.3930    -1.6010 H     1 <1>   0.0800 
 29 H       -5.1990     1.5000    -0.0990 H     1 <1>   0.0800 
 30 H        6.7270     1.5820    -0.3680 H     1 <1>   0.0800 
 31 H        5.8210     3.0170    -0.8370 H     1 <1>   0.0800 
 32 H        5.4750     1.4560    -1.5980 H     1 <1>   0.0800 
@<TRIPOS>BOND
  1   1   2  2   
  2   2   3  am  
  3   2   4  1   
  4   3   5  1   
  5   3  16  1   
  6   4   6  ar  
  7   4   7  ar  
  8   5   8  1   
  9   5  17  1   
 10   5  18  1   
 11   6   9  ar  
 12   6  19  1   
 13   7  10  ar  
 14   7  20  1   
 15   8  11  1   
 16   8  21  1   
 17   8  22  1   
 18   9  12  ar  
 19   9  13  1   
 20  10  12  ar  
 21  10  14  1   
 22  11  15  1   
 23  12  23  1   
 24  13  24  1   
 25  13  25  1   
 26  13  26  1   
 27  14  27  1   
 28  14  28  1   
 29  14  29  1   
 30  15  30  1   
 31  15  31  1   
 32  15  32  1   
@<TRIPOS>SUBSTRUCTURE
  1 ****   2 GROUP 4 **** **** 0

# MOE 2024.06 (io_trps.svl 2023.06)
