@<TRIPOS>MOLECULE
NONAME
27 27 1 0 0 
SMALL
USER_CHARGES


@<TRIPOS>ATOM
  1 O        0.0080    -0.3860     0.6710 O.3   1 <1>  -0.3620 
  2 C       -0.0540    -1.6620     0.2640 C.ar  1 <1>   0.7020 
  3 C       -1.1330     0.4460     0.7320 C.3   1 <1>   0.0400 
  4 N       -1.2110    -2.1490    -0.1030 N.ar  1 <1>  -0.6200 
  5 N        1.0900    -2.3010     0.2770 N.ar  1 <1>  -0.6200 
  6 C       -1.1410    -3.3930    -0.4690 C.ar  1 <1>   0.7200 
  7 C        1.0240    -3.5490    -0.1230 C.ar  1 <1>   0.4770 
  8 N       -0.0750    -4.1440    -0.5110 N.ar  1 <1>  -0.6200 
  9 N       -2.2800    -3.9650    -0.8580 N.pl3 1 <1>  -0.9000 
 10 C        2.3540    -4.3580    -0.1280 C.3   1 <1>   0.1440 
 11 C        2.1740    -5.8130    -0.6150 C.3   1 <1>  -0.2400 
 12 C        2.9440    -4.4150     1.2940 C.3   1 <1>  -0.2400 
 13 C        3.3800    -3.6830    -1.0590 C.3   1 <1>  -0.2400 
 14 H       -0.8280     1.4120     1.0910 H     1 <1>   0.0800 
 15 H       -1.8470     0.0090     1.4080 H     1 <1>   0.0800 
 16 H       -1.5530     0.5340    -0.2550 H     1 <1>   0.0800 
 17 H       -2.2320    -4.8690    -1.3200 H     1 <1>   0.4000 
 18 H       -3.0900    -3.3760    -1.0300 H     1 <1>   0.4000 
 19 H        3.1110    -6.3400    -0.6040 H     1 <1>   0.0800 
 20 H        1.7880    -5.8270    -1.6180 H     1 <1>   0.0800 
 21 H        1.4830    -6.3370     0.0220 H     1 <1>   0.0800 
 22 H        2.2420    -4.8760     1.9660 H     1 <1>   0.0800 
 23 H        3.1530    -3.4240     1.6560 H     1 <1>   0.0800 
 24 H        3.8580    -4.9810     1.3090 H     1 <1>   0.0800 
 25 H        2.9880    -3.6230    -2.0580 H     1 <1>   0.0800 
 26 H        4.3010    -4.2370    -1.0810 H     1 <1>   0.0800 
 27 H        3.5940    -2.6840    -0.7220 H     1 <1>   0.0800 
@<TRIPOS>BOND
  1   1   2  1   
  2   1   3  1   
  3   2   4  ar  
  4   2   5  ar  
  5   3  14  1   
  6   3  15  1   
  7   3  16  1   
  8   4   6  ar  
  9   5   7  ar  
 10   6   8  ar  
 11   6   9  1   
 12   7   8  ar  
 13   7  10  1   
 14   9  17  1   
 15   9  18  1   
 16  10  11  1   
 17  10  12  1   
 18  10  13  1   
 19  11  19  1   
 20  11  20  1   
 21  11  21  1   
 22  12  22  1   
 23  12  23  1   
 24  12  24  1   
 25  13  25  1   
 26  13  26  1   
 27  13  27  1   
@<TRIPOS>SUBSTRUCTURE
  1 ****   7 GROUP 4 **** **** 0

# MOE 2024.06 (io_trps.svl 2023.06)
