@<TRIPOS>MOLECULE
NONAME
34 35 1 0 0 
SMALL
USER_CHARGES


@<TRIPOS>ATOM
  1 S       -2.4530     2.4920     0.9580 S.3   1 <1>  -0.0800 
  2 C       -3.9770     1.8570     0.3600 C.2   1 <1>  -0.1400 
  3 C       -1.5710     1.1220     0.3130 C.2   1 <1>  -0.1100 
  4 C       -3.7770     0.6840    -0.2780 C.2   1 <1>  -0.1500 
  5 C       -5.1850     2.7150     0.6610 C.3   1 <1>   0.5230 
  6 C       -2.4080     0.2690    -0.3030 C.2   1 <1>  -0.1500 
  7 N       -6.3820     2.0680     0.0820 N.4   1 <1>  -0.9060 
  8 C       -7.6280     2.8510     0.3190 C.3   1 <1>   0.3430 
  9 C       -8.8570     2.1440    -0.2690 C.3   1 <1>   0.1100 
 10 N      -10.0720     2.8730     0.1060 N.3   1 <1>  -0.8100 
 11 C      -11.2680     2.0010     0.0140 C.3   1 <1>   0.1100 
 12 C      -10.2970     4.0850    -0.7220 C.3   1 <1>   0.1100 
 13 C      -12.5560     2.7690     0.3620 C.3   1 <1>   0.1200 
 14 C      -11.6160     4.7860    -0.3450 C.3   1 <1>   0.1200 
 15 O      -12.6840     3.8940    -0.4580 O.3   1 <1>  -0.5600 
 16 H       -0.5050     1.0990     0.4650 H     1 <1>   0.1500 
 17 H       -4.5180     0.0600    -0.7480 H     1 <1>   0.1500 
 18 H       -5.0440     3.6940     0.2320 H     1 <1>   0.0800 
 19 H       -5.2940     2.8190     1.7290 H     1 <1>   0.0800 
 20 H       -2.1130    -0.6510    -0.7810 H     1 <1>   0.1500 
 21 H       -6.4600     1.1340     0.5000 H     1 <1>   0.4500 
 22 H       -6.2130     1.9420    -0.9230 H     1 <1>   0.4500 
 23 H       -7.5400     3.8270    -0.1280 H     1 <1>   0.0800 
 24 H       -7.7850     2.9730     1.3780 H     1 <1>   0.0800 
 25 H       -8.9100     1.1510     0.1430 H     1 <1>   0.0800 
 26 H       -8.7890     2.0740    -1.3420 H     1 <1>   0.0800 
 27 H      -11.1670     1.1750     0.6960 H     1 <1>   0.0800 
 28 H      -11.3640     1.6050    -0.9830 H     1 <1>   0.0800 
 29 H      -10.3420     3.8190    -1.7650 H     1 <1>   0.0800 
 30 H       -9.4900     4.7820    -0.5840 H     1 <1>   0.0800 
 31 H      -12.5440     3.0890     1.3890 H     1 <1>   0.0800 
 32 H      -13.4180     2.1470     0.2010 H     1 <1>   0.0800 
 33 H      -11.8060     5.6100    -1.0090 H     1 <1>   0.0800 
 34 H      -11.5780     5.1550     0.6660 H     1 <1>   0.0800 
@<TRIPOS>BOND
  1   1   2  1   
  2   1   3  1   
  3   2   4  2   
  4   2   5  1   
  5   3   6  2   
  6   3  16  1   
  7   4   6  1   
  8   4  17  1   
  9   5   7  1   
 10   5  18  1   
 11   5  19  1   
 12   6  20  1   
 13   7   8  1   
 14   7  21  1   
 15   7  22  1   
 16   8   9  1   
 17   8  23  1   
 18   8  24  1   
 19   9  10  1   
 20   9  25  1   
 21   9  26  1   
 22  10  11  1   
 23  10  12  1   
 24  11  13  1   
 25  11  27  1   
 26  11  28  1   
 27  12  14  1   
 28  12  29  1   
 29  12  30  1   
 30  13  15  1   
 31  13  31  1   
 32  13  32  1   
 33  14  15  1   
 34  14  33  1   
 35  14  34  1   
@<TRIPOS>SUBSTRUCTURE
  1 ****   8 GROUP 4 **** **** 0

# MOE 2024.06 (io_trps.svl 2023.06)
