@<TRIPOS>MOLECULE
NONAME
43 44 1 0 0 
SMALL
USER_CHARGES


@<TRIPOS>ATOM
  1 F       -3.0730     4.2180    -2.4670 F     1 <1>  -0.1900 
  2 C       -3.9830     3.7780    -1.6410 C.ar  1 <1>   0.1900 
  3 C       -4.0600     4.3290    -0.3770 C.ar  1 <1>  -0.1500 
  4 C       -4.8360     2.7770    -2.0620 C.ar  1 <1>  -0.1500 
  5 C       -5.0280     3.8600     0.4950 C.ar  1 <1>  -0.1500 
  6 C       -5.8020     2.3140    -1.1840 C.ar  1 <1>  -0.1500 
  7 C       -5.9030     2.8540     0.0940 C.ar  1 <1>  -0.1430 
  8 C       -6.9680     2.3530     1.0430 C.3   1 <1>   0.4870 
  9 N       -8.1900     3.1180     0.7490 N.4   1 <1>  -0.9060 
 10 C       -9.3880     2.6980     1.4960 C.3   1 <1>   0.4860 
 11 C      -10.5610     3.4420     0.8990 C.ar  1 <1>  -0.1430 
 12 C      -10.9090     3.2480    -0.4350 C.ar  1 <1>   0.0830 
 13 C      -11.2940     4.3190     1.6840 C.ar  1 <1>  -0.1500 
 14 O      -10.1380     2.3930    -1.1660 O.3   1 <1>  -0.3630 
 15 C      -12.0040     3.9230    -0.9660 C.ar  1 <1>  -0.1500 
 16 C      -12.3720     5.0060     1.1530 C.ar  1 <1>   0.0830 
 17 C      -10.5280     2.0120    -2.4730 C.3   1 <1>   0.0400 
 18 C      -12.7450     4.7840    -0.1770 C.ar  1 <1>   0.0830 
 19 O      -13.0150     5.8700     1.9790 O.3   1 <1>  -0.3620 
 20 O      -13.8190     5.3780    -0.7490 O.3   1 <1>  -0.3620 
 21 C      -13.0430     7.2280     1.5930 C.3   1 <1>   0.0400 
 22 C      -15.0860     4.9920    -0.2590 C.3   1 <1>   0.0400 
 23 H       -3.3720     5.1050    -0.0900 H     1 <1>   0.1500 
 24 H       -4.7380     2.3730    -3.0550 H     1 <1>   0.1500 
 25 H       -5.0840     4.2880     1.4820 H     1 <1>   0.1500 
 26 H       -6.4650     1.5300    -1.5120 H     1 <1>   0.1500 
 27 H       -6.6590     2.5080     2.0640 H     1 <1>   0.0800 
 28 H       -7.1340     1.2990     0.8830 H     1 <1>   0.0800 
 29 H       -8.4330     2.9950    -0.2470 H     1 <1>   0.4500 
 30 H       -8.0280     4.1220     0.8660 H     1 <1>   0.4500 
 31 H       -9.2870     2.9310     2.5430 H     1 <1>   0.0800 
 32 H       -9.5480     1.6380     1.3830 H     1 <1>   0.0800 
 33 H      -11.0490     4.4920     2.7180 H     1 <1>   0.1500 
 34 H      -12.3110     3.8020    -1.9870 H     1 <1>   0.1500 
 35 H       -9.8270     1.2830    -2.8390 H     1 <1>   0.0800 
 36 H      -10.5170     2.8780    -3.1120 H     1 <1>   0.0800 
 37 H      -11.5120     1.5790    -2.4350 H     1 <1>   0.0800 
 38 H      -13.4200     7.8040     2.4190 H     1 <1>   0.0800 
 39 H      -13.6900     7.3480     0.7430 H     1 <1>   0.0800 
 40 H      -12.0440     7.5450     1.3500 H     1 <1>   0.0800 
 41 H      -15.8380     5.4920    -0.8410 H     1 <1>   0.0800 
 42 H      -15.1720     5.2780     0.7740 H     1 <1>   0.0800 
 43 H      -15.1890     3.9260    -0.3610 H     1 <1>   0.0800 
@<TRIPOS>BOND
  1   1   2  1   
  2   2   3  ar  
  3   2   4  ar  
  4   3   5  ar  
  5   3  23  1   
  6   4   6  ar  
  7   4  24  1   
  8   5   7  ar  
  9   5  25  1   
 10   6   7  ar  
 11   6  26  1   
 12   7   8  1   
 13   8   9  1   
 14   8  27  1   
 15   8  28  1   
 16   9  10  1   
 17   9  29  1   
 18   9  30  1   
 19  10  11  1   
 20  10  31  1   
 21  10  32  1   
 22  11  12  ar  
 23  11  13  ar  
 24  12  14  1   
 25  12  15  ar  
 26  13  16  ar  
 27  13  33  1   
 28  14  17  1   
 29  15  18  ar  
 30  15  34  1   
 31  16  18  ar  
 32  16  19  1   
 33  17  35  1   
 34  17  36  1   
 35  17  37  1   
 36  18  20  1   
 37  19  21  1   
 38  20  22  1   
 39  21  38  1   
 40  21  39  1   
 41  21  40  1   
 42  22  41  1   
 43  22  42  1   
 44  22  43  1   
@<TRIPOS>SUBSTRUCTURE
  1 ****   9 GROUP 4 **** **** 0

# MOE 2024.06 (io_trps.svl 2023.06)
