@<TRIPOS>MOLECULE
NONAME
40 41 1 0 0 
SMALL
USER_CHARGES


@<TRIPOS>ATOM
  1 S        1.6440     4.7910     1.0730 S.3   1 <1>  -0.2860 
  2 C       -0.0790     4.7370     0.5820 C.2   1 <1>   0.2420 
  3 C        2.4120     3.2450     0.3960 C.3   1 <1>   0.1310 
  4 N       -0.8260     5.7810     0.5990 N.2   1 <1>  -0.5650 
  5 N       -0.6780     3.5940     0.1730 N.pl3 1 <1>   0.0330 
  6 C        3.8400     3.0880     0.8980 C.2   1 <1>   0.4480 
  7 C       -2.0290     5.3100     0.1640 C.ar  1 <1>   0.2270 
  8 C       -1.9580     3.9530    -0.1060 C.ar  1 <1>  -0.1520 
  9 O        4.0400     2.4000     1.8560 O.2   1 <1>  -0.5700 
 10 C        4.9930     3.7560     0.1050 C.3   1 <1>   0.0610 
 11 C       -3.2240     5.9980    -0.0210 C.ar  1 <1>  -0.1500 
 12 C       -3.0700     3.2460    -0.5630 C.ar  1 <1>  -0.1500 
 13 C        6.3120     3.6900     0.9020 C.3   1 <1>  -0.2400 
 14 C        5.2130     3.0170    -1.2270 C.3   1 <1>  -0.2400 
 15 C        4.7140     5.2410    -0.1960 C.3   1 <1>  -0.2400 
 16 C       -4.3360     5.3080    -0.4750 C.ar  1 <1>   0.0830 
 17 C       -4.2490     3.9350    -0.7430 C.ar  1 <1>  -0.1500 
 18 O       -5.5550     5.8750    -0.6930 O.3   1 <1>  -0.3630 
 19 C       -5.8230     7.2280    -0.3880 C.3   1 <1>   0.1200 
 20 C       -6.0790     7.3720     1.1140 C.3   1 <1>  -0.2400 
 21 H        2.3700     3.3050    -0.6750 H     1 <1>   0.0800 
 22 H        1.8190     2.4220     0.7480 H     1 <1>   0.0800 
 23 H       -0.2820     2.6550     0.1440 H     1 <1>   0.2700 
 24 H       -3.2280     7.0460     0.2010 H     1 <1>   0.1500 
 25 H       -3.0070     2.1910    -0.7680 H     1 <1>   0.1500 
 26 H        6.2020     4.1940     1.8470 H     1 <1>   0.0800 
 27 H        6.5810     2.6670     1.1010 H     1 <1>   0.0800 
 28 H        7.1180     4.1520     0.3600 H     1 <1>   0.0800 
 29 H        4.3480     3.0910    -1.8610 H     1 <1>   0.0800 
 30 H        5.4160     1.9760    -1.0450 H     1 <1>   0.0800 
 31 H        6.0510     3.4350    -1.7580 H     1 <1>   0.0800 
 32 H        3.8550     5.3570    -0.8330 H     1 <1>   0.0800 
 33 H        5.5550     5.6930    -0.6910 H     1 <1>   0.0800 
 34 H        4.5350     5.7790     0.7190 H     1 <1>   0.0800 
 35 H       -5.1310     3.4310    -1.0940 H     1 <1>   0.1500 
 36 H       -6.7070     7.5050    -0.9350 H     1 <1>   0.0800 
 37 H       -5.0080     7.8420    -0.7280 H     1 <1>   0.0800 
 38 H       -6.9040     6.7480     1.4060 H     1 <1>   0.0800 
 39 H       -6.3230     8.3930     1.3430 H     1 <1>   0.0800 
 40 H       -5.2070     7.0960     1.6790 H     1 <1>   0.0800 
@<TRIPOS>BOND
  1   1   2  1   
  2   1   3  1   
  3   2   4  2   
  4   2   5  1   
  5   3   6  1   
  6   3  21  1   
  7   3  22  1   
  8   4   7  1   
  9   5   8  1   
 10   5  23  1   
 11   6   9  2   
 12   6  10  1   
 13   7   8  ar  
 14   7  11  ar  
 15   8  12  ar  
 16  10  13  1   
 17  10  14  1   
 18  10  15  1   
 19  11  16  ar  
 20  11  24  1   
 21  12  17  ar  
 22  12  25  1   
 23  13  26  1   
 24  13  27  1   
 25  13  28  1   
 26  14  29  1   
 27  14  30  1   
 28  14  31  1   
 29  15  32  1   
 30  15  33  1   
 31  15  34  1   
 32  16  17  ar  
 33  16  18  1   
 34  17  35  1   
 35  18  19  1   
 36  19  20  1   
 37  19  36  1   
 38  19  37  1   
 39  20  38  1   
 40  20  39  1   
 41  20  40  1   
@<TRIPOS>SUBSTRUCTURE
  1 ****   2 GROUP 4 **** **** 0

# MOE 2024.06 (io_trps.svl 2023.06)
