@<TRIPOS>MOLECULE
NONAME
32 33 1 0 0 
SMALL
USER_CHARGES


@<TRIPOS>ATOM
  1 CL      -1.9850     0.4230     3.1790 Cl    1 <1>  -0.1770 
  2 C       -2.4580     1.0430     1.6170 C.ar  1 <1>   0.1770 
  3 C       -1.7500     2.0670     1.0120 C.ar  1 <1>   0.1770 
  4 C       -3.5630     0.4900     0.9930 C.ar  1 <1>  -0.1500 
  5 CL      -0.3570     2.7770     1.7910 Cl    1 <1>  -0.1770 
  6 C       -2.1410     2.5460    -0.2250 C.ar  1 <1>  -0.1500 
  7 C       -3.9690     0.9700    -0.2470 C.ar  1 <1>  -0.1440 
  8 C       -3.2490     1.9960    -0.8530 C.ar  1 <1>  -0.1500 
  9 C       -5.1870     0.3790    -0.9370 C.3   1 <1>   0.4870 
 10 N       -6.4160     0.8630    -0.2500 N.4   1 <1>  -0.9590 
 11 C       -7.6280     0.1220    -0.7450 C.3   1 <1>   0.3430 
 12 C       -6.5790     2.3430    -0.3830 C.3   1 <1>   0.3430 
 13 C       -8.9210     0.5750    -0.0410 C.3   1 <1>   0.2000 
 14 C       -7.8170     2.8040     0.3930 C.3   1 <1>  -0.1600 
 15 O       -9.9820     0.0030    -0.7070 O.3   1 <1>  -0.6800 
 16 C       -9.0940     2.0960    -0.0860 C.3   1 <1>  -0.1600 
 17 H       -4.0820    -0.3110     1.4900 H     1 <1>   0.1500 
 18 H       -1.5780     3.3390    -0.6880 H     1 <1>   0.1500 
 19 H       -3.5350     2.3770    -1.8200 H     1 <1>   0.1500 
 20 H       -5.1340    -0.6970    -0.8850 H     1 <1>   0.0800 
 21 H       -5.2020     0.6680    -1.9750 H     1 <1>   0.0800 
 22 H       -6.2990     0.6620     0.7510 H     1 <1>   0.4500 
 23 H       -7.5040    -0.9370    -0.5890 H     1 <1>   0.0800 
 24 H       -7.7460     0.2990    -1.8020 H     1 <1>   0.0800 
 25 H       -6.6910     2.6070    -1.4230 H     1 <1>   0.0800 
 26 H       -5.7080     2.8490     0.0030 H     1 <1>   0.0800 
 27 H       -8.9340     0.2150     0.9750 H     1 <1>   0.0800 
 28 H       -7.9330     3.8660     0.2610 H     1 <1>   0.0800 
 29 H       -7.6670     2.6280     1.4450 H     1 <1>   0.0800 
 30 H      -10.8370     0.2520    -0.2970 H     1 <1>   0.4000 
 31 H       -9.9220     2.3890     0.5370 H     1 <1>   0.0800 
 32 H       -9.3050     2.4040    -1.0980 H     1 <1>   0.0800 
@<TRIPOS>BOND
  1   1   2  1   
  2   2   3  ar  
  3   2   4  ar  
  4   3   5  1   
  5   3   6  ar  
  6   4   7  ar  
  7   4  17  1   
  8   6   8  ar  
  9   6  18  1   
 10   7   8  ar  
 11   7   9  1   
 12   8  19  1   
 13   9  10  1   
 14   9  20  1   
 15   9  21  1   
 16  10  11  1   
 17  10  12  1   
 18  10  22  1   
 19  11  13  1   
 20  11  23  1   
 21  11  24  1   
 22  12  14  1   
 23  12  25  1   
 24  12  26  1   
 25  13  15  1   
 26  13  16  1   
 27  13  27  1   
 28  14  16  1   
 29  14  28  1   
 30  14  29  1   
 31  15  30  1   
 32  16  31  1   
 33  16  32  1   
@<TRIPOS>SUBSTRUCTURE
  1 ****   7 GROUP 4 **** **** 0

# MOE 2024.06 (io_trps.svl 2023.06)
