@<TRIPOS>MOLECULE
NONAME
39 42 1 0 0 
SMALL
USER_CHARGES


@<TRIPOS>ATOM
  1 S        0.1580    -0.0240     1.8010 S.3   1 <1>  -0.0800 
  2 C        0.2570    -0.9120     0.2780 C.ar  1 <1>   0.0400 
  3 C        1.7490    -0.5940     2.2890 C.2   1 <1>  -0.1100 
  4 C        1.4600    -1.6000     0.2010 C.ar  1 <1>   0.0000 
  5 C       -0.7100    -0.9500    -0.7080 C.ar  1 <1>  -0.1500 
  6 C        2.3160    -1.3820     1.3480 C.2   1 <1>  -0.0010 
  7 C        1.6720    -2.3950    -0.9240 C.ar  1 <1>  -0.1500 
  8 C       -0.4670    -1.7280    -1.8250 C.ar  1 <1>  -0.1500 
  9 C        3.6380    -1.9510     1.4390 C.2   1 <1>   0.1880 
 10 C        0.7180    -2.4500    -1.9270 C.ar  1 <1>  -0.1500 
 11 N        4.0420    -2.7660     2.3740 N.2   1 <1>  -0.3380 
 12 N        4.6360    -1.6950     0.5710 N.pl3 1 <1>   0.0480 
 13 N        5.3160    -3.0750     2.1270 N.2   1 <1>  -0.3380 
 14 C        5.6290    -2.4280     1.0630 C.2   1 <1>   0.2430 
 15 C        4.6560    -0.7920    -0.6000 C.3   1 <1>   0.0160 
 16 S        7.2540    -2.4960     0.3040 S.3   1 <1>  -0.2860 
 17 C        8.1550    -3.7190     1.3820 C.3   1 <1>   0.1310 
 18 C        9.5940    -3.9180     0.9300 C.2   1 <1>   0.5690 
 19 O       10.1730    -4.9120     1.2980 O.2   1 <1>  -0.5700 
 20 N       10.1880    -2.9800     0.1420 N.am  1 <1>  -0.5790 
 21 C       11.5650    -3.0260    -0.3660 C.3   1 <1>   0.0490 
 22 C       12.2950    -1.7360    -0.5280 C.3   1 <1>  -0.2000 
 23 C       11.8240    -2.4910    -1.7350 C.3   1 <1>  -0.2000 
 24 H        2.1150    -0.2700     3.2470 H     1 <1>   0.1500 
 25 H       -1.6230    -0.3910    -0.5990 H     1 <1>   0.1500 
 26 H        2.5730    -2.9750    -1.0100 H     1 <1>   0.1500 
 27 H       -1.1970    -1.7820    -2.6140 H     1 <1>   0.1500 
 28 H        0.8890    -3.0630    -2.7960 H     1 <1>   0.1500 
 29 H        3.8220    -0.1150    -0.5570 H     1 <1>   0.0800 
 30 H        4.5980    -1.3760    -1.5010 H     1 <1>   0.0800 
 31 H        5.5690    -0.2250    -0.6000 H     1 <1>   0.0800 
 32 H        7.6160    -4.6460     1.3290 H     1 <1>   0.0800 
 33 H        8.1290    -3.3410     2.3870 H     1 <1>   0.0800 
 34 H        9.6330    -2.1810    -0.1660 H     1 <1>   0.3700 
 35 H       12.1130    -3.8960    -0.0360 H     1 <1>   0.1000 
 36 H       13.3510    -1.7130    -0.3230 H     1 <1>   0.1000 
 37 H       11.8010    -0.8200    -0.2560 H     1 <1>   0.1000 
 38 H       11.0000    -2.1050    -2.3080 H     1 <1>   0.1000 
 39 H       12.5610    -2.9820    -2.3470 H     1 <1>   0.1000 
@<TRIPOS>BOND
  1   1   2  1   
  2   1   3  1   
  3   2   4  ar  
  4   2   5  ar  
  5   3   6  2   
  6   3  24  1   
  7   4   6  1   
  8   4   7  ar  
  9   5   8  ar  
 10   5  25  1   
 11   6   9  1   
 12   7  10  ar  
 13   7  26  1   
 14   8  10  ar  
 15   8  27  1   
 16   9  11  2   
 17   9  12  1   
 18  10  28  1   
 19  11  13  1   
 20  12  14  1   
 21  12  15  1   
 22  13  14  2   
 23  14  16  1   
 24  15  29  1   
 25  15  30  1   
 26  15  31  1   
 27  16  17  1   
 28  17  18  1   
 29  17  32  1   
 30  17  33  1   
 31  18  19  2   
 32  18  20  am  
 33  20  21  1   
 34  20  34  1   
 35  21  22  1   
 36  21  23  1   
 37  21  35  1   
 38  22  23  1   
 39  22  36  1   
 40  22  37  1   
 41  23  38  1   
 42  23  39  1   
@<TRIPOS>SUBSTRUCTURE
  1 ****  12 GROUP 4 **** **** 0

# MOE 2024.06 (io_trps.svl 2023.06)
