@<TRIPOS>MOLECULE
NONAME
31 32 1 0 0 
SMALL
USER_CHARGES


@<TRIPOS>ATOM
  1 S        0.5010     0.1530     0.6370 S.3   1 <1>  -0.3320 
  2 C       -1.0920     0.9910     0.5750 C.ar  1 <1>   0.1020 
  3 C        1.4940     0.7980    -0.7970 C.3   1 <1>   0.1310 
  4 C       -1.9600     0.7630     1.6270 C.ar  1 <1>  -0.1500 
  5 C       -1.4470     1.8290    -0.4720 C.ar  1 <1>  -0.1500 
  6 C        2.9100     0.2360    -0.7900 C.2   1 <1>   0.5690 
  7 C       -3.1980     1.3840     1.6400 C.ar  1 <1>  -0.1500 
  8 C       -2.6860     2.4480    -0.4530 C.ar  1 <1>  -0.1500 
  9 O        3.2250    -0.4590    -1.7280 O.2   1 <1>  -0.5700 
 10 N        3.8030     0.5320     0.2130 N.am  1 <1>  -0.6600 
 11 C       -3.5580     2.2260     0.6010 C.ar  1 <1>  -0.1500 
 12 C        5.1690    -0.0710     0.2420 C.3   1 <1>   0.1400 
 13 C        3.5230     1.3930     1.4030 C.3   1 <1>   0.1400 
 14 C        6.2310     0.9960     0.5550 C.3   1 <1>   0.1200 
 15 C        4.6820     2.3730     1.6540 C.3   1 <1>   0.1200 
 16 O        5.9030     1.6940     1.7230 O.3   1 <1>  -0.5600 
 17 H        1.5130     1.8680    -0.7290 H     1 <1>   0.0800 
 18 H        0.9840     0.4930    -1.6920 H     1 <1>   0.0800 
 19 H       -1.6690     0.1060     2.4260 H     1 <1>   0.1500 
 20 H       -0.7880     2.0080    -1.2980 H     1 <1>   0.1500 
 21 H       -3.8780     1.2120     2.4550 H     1 <1>   0.1500 
 22 H       -2.9750     3.1010    -1.2580 H     1 <1>   0.1500 
 23 H       -4.5200     2.7090     0.6110 H     1 <1>   0.1500 
 24 H        5.4010    -0.5320    -0.7030 H     1 <1>   0.0800 
 25 H        5.2010    -0.8350     0.9980 H     1 <1>   0.0800 
 26 H        3.3980     0.7660     2.2680 H     1 <1>   0.0800 
 27 H        2.6180     1.9560     1.2700 H     1 <1>   0.0800 
 28 H        6.3120     1.6980    -0.2570 H     1 <1>   0.0800 
 29 H        7.1890     0.5310     0.7070 H     1 <1>   0.0800 
 30 H        4.5390     2.8840     2.5900 H     1 <1>   0.0800 
 31 H        4.7390     3.1040     0.8660 H     1 <1>   0.0800 
@<TRIPOS>BOND
  1   1   2  1   
  2   1   3  1   
  3   2   4  ar  
  4   2   5  ar  
  5   3   6  1   
  6   3  17  1   
  7   3  18  1   
  8   4   7  ar  
  9   4  19  1   
 10   5   8  ar  
 11   5  20  1   
 12   6   9  2   
 13   6  10  am  
 14   7  11  ar  
 15   7  21  1   
 16   8  11  ar  
 17   8  22  1   
 18  10  12  1   
 19  10  13  1   
 20  11  23  1   
 21  12  14  1   
 22  12  24  1   
 23  12  25  1   
 24  13  15  1   
 25  13  26  1   
 26  13  27  1   
 27  14  16  1   
 28  14  28  1   
 29  14  29  1   
 30  15  16  1   
 31  15  30  1   
 32  15  31  1   
@<TRIPOS>SUBSTRUCTURE
  1 ****   3 GROUP 4 **** **** 0

# MOE 2024.06 (io_trps.svl 2023.06)
