@<TRIPOS>MOLECULE
NONAME
66 68 1 0 0 
SMALL
USER_CHARGES


@<TRIPOS>ATOM
  1 O        5.2840     1.7330    -0.1200 O.3   1 <1>  -0.5600 
  2 C        4.2000     2.4850     0.3710 C.3   1 <1>   0.2000 
  3 C        5.0620     0.8240    -1.1640 C.3   1 <1>   0.2640 
  4 C        4.8060     3.7610     1.0080 C.3   1 <1>   0.3430 
  5 C        3.3930     1.6960     1.4400 C.3   1 <1>   0.3430 
  6 C        4.6700    -0.5340    -0.6070 C.ar  1 <1>  -0.1440 
  7 N        5.9960     4.2440     0.2390 N.4   1 <1>  -0.9590 
  8 N        2.3400     0.7530     0.9240 N.4   1 <1>  -0.9590 
  9 C        5.1980    -1.0010     0.5890 C.ar  1 <1>  -0.1500 
 10 C        3.8010    -1.3440    -1.3210 C.ar  1 <1>  -0.1500 
 11 C        6.9730     4.9900     1.0750 C.3   1 <1>   0.3430 
 12 C        5.6560     5.0210    -0.9800 C.3   1 <1>   0.3430 
 13 C        1.2250     1.4680     0.2390 C.3   1 <1>   0.3430 
 14 C        1.8120    -0.0430     2.0740 C.3   1 <1>   0.3430 
 15 C        4.8450    -2.2470     1.0740 C.ar  1 <1>  -0.1500 
 16 C        3.4560    -2.5940    -0.8390 C.ar  1 <1>  -0.1500 
 17 C        8.3970     4.7820     0.5530 C.3   1 <1>  -0.1600 
 18 C        6.4580     4.4960    -2.1710 C.3   1 <1>  -0.1600 
 19 C        0.7150     0.6980    -0.9770 C.3   1 <1>  -0.1600 
 20 C        0.9940    -1.2670     1.6550 C.3   1 <1>  -0.1600 
 21 C        3.9710    -3.0500     0.3630 C.ar  1 <1>  -0.1440 
 22 C        8.6360     5.1230    -0.9310 C.3   1 <1>  -0.1600 
 23 C        7.9340     4.1550    -1.8970 C.3   1 <1>  -0.1600 
 24 C        0.2160    -0.7330    -0.7180 C.3   1 <1>  -0.1600 
 25 C       -0.2080    -1.0230     0.7270 C.3   1 <1>  -0.1600 
 26 C        3.5970    -4.4280     0.8810 C.3   1 <1>  -0.0960 
 27 H        3.5750     2.7810    -0.4520 H     1 <1>   0.0800 
 28 H        5.9890     0.7200    -1.7040 H     1 <1>   0.0800 
 29 H        4.3170     1.2130    -1.8370 H     1 <1>   0.0800 
 30 H        5.1210     3.5160     2.0090 H     1 <1>   0.0800 
 31 H        4.0630     4.5390     1.0810 H     1 <1>   0.0800 
 32 H        2.9050     2.4070     2.0860 H     1 <1>   0.0800 
 33 H        4.0970     1.1460     2.0450 H     1 <1>   0.0800 
 34 H        6.4750     3.3850    -0.0890 H     1 <1>   0.4500 
 35 H        2.7760     0.0650     0.2790 H     1 <1>   0.4500 
 36 H        5.9060    -0.4080     1.1430 H     1 <1>   0.1500 
 37 H        3.3980    -1.0240    -2.2680 H     1 <1>   0.1500 
 38 H        6.9310     4.6390     2.0940 H     1 <1>   0.0800 
 39 H        6.7330     6.0420     1.0750 H     1 <1>   0.0800 
 40 H        5.8920     6.0620    -0.8240 H     1 <1>   0.0800 
 41 H        4.6040     4.9480    -1.2020 H     1 <1>   0.0800 
 42 H        1.5510     2.4380    -0.0930 H     1 <1>   0.0800 
 43 H        0.4100     1.6200     0.9300 H     1 <1>   0.0800 
 44 H        1.1990     0.5880     2.6980 H     1 <1>   0.0800 
 45 H        2.6380    -0.3920     2.6730 H     1 <1>   0.0800 
 46 H        5.2680    -2.6010     1.9990 H     1 <1>   0.1500 
 47 H        2.7930    -3.2220    -1.4100 H     1 <1>   0.1500 
 48 H        8.6960     3.7650     0.7400 H     1 <1>   0.0800 
 49 H        9.0490     5.4030     1.1440 H     1 <1>   0.0800 
 50 H        6.4200     5.2520    -2.9380 H     1 <1>   0.0800 
 51 H        5.9680     3.6280    -2.5750 H     1 <1>   0.0800 
 52 H        1.4680     0.6840    -1.7440 H     1 <1>   0.0800 
 53 H       -0.1120     1.2620    -1.3740 H     1 <1>   0.0800 
 54 H        0.6200    -1.7160     2.5590 H     1 <1>   0.0800 
 55 H        1.6470    -1.9960     1.2140 H     1 <1>   0.0800 
 56 H        9.6970     5.0500    -1.1100 H     1 <1>   0.0800 
 57 H        8.3580     6.1420    -1.1420 H     1 <1>   0.0800 
 58 H        8.4570     4.1750    -2.8400 H     1 <1>   0.0800 
 59 H        8.0220     3.1480    -1.5240 H     1 <1>   0.0800 
 60 H        0.9690    -1.4410    -1.0110 H     1 <1>   0.0800 
 61 H       -0.6290    -0.9130    -1.3640 H     1 <1>   0.0800 
 62 H       -0.8490    -0.2470     1.1110 H     1 <1>   0.0800 
 63 H       -0.7940    -1.9280     0.7150 H     1 <1>   0.0800 
 64 H        3.6490    -4.4580     1.9550 H     1 <1>   0.0800 
 65 H        4.2770    -5.1600     0.4840 H     1 <1>   0.0800 
 66 H        2.5980    -4.6880     0.5810 H     1 <1>   0.0800 
@<TRIPOS>BOND
  1   1   2  1   
  2   1   3  1   
  3   2   4  1   
  4   2   5  1   
  5   2  27  1   
  6   3   6  1   
  7   3  28  1   
  8   3  29  1   
  9   4   7  1   
 10   4  30  1   
 11   4  31  1   
 12   5   8  1   
 13   5  32  1   
 14   5  33  1   
 15   6   9  ar  
 16   6  10  ar  
 17   7  11  1   
 18   7  12  1   
 19   7  34  1   
 20   8  13  1   
 21   8  14  1   
 22   8  35  1   
 23   9  15  ar  
 24   9  36  1   
 25  10  16  ar  
 26  10  37  1   
 27  11  17  1   
 28  11  38  1   
 29  11  39  1   
 30  12  18  1   
 31  12  40  1   
 32  12  41  1   
 33  13  19  1   
 34  13  42  1   
 35  13  43  1   
 36  14  20  1   
 37  14  44  1   
 38  14  45  1   
 39  15  21  ar  
 40  15  46  1   
 41  16  21  ar  
 42  16  47  1   
 43  17  22  1   
 44  17  48  1   
 45  17  49  1   
 46  18  23  1   
 47  18  50  1   
 48  18  51  1   
 49  19  24  1   
 50  19  52  1   
 51  19  53  1   
 52  20  25  1   
 53  20  54  1   
 54  20  55  1   
 55  21  26  1   
 56  22  23  1   
 57  22  56  1   
 58  22  57  1   
 59  23  58  1   
 60  23  59  1   
 61  24  25  1   
 62  24  60  1   
 63  24  61  1   
 64  25  62  1   
 65  25  63  1   
 66  26  64  1   
 67  26  65  1   
 68  26  66  1   
@<TRIPOS>SUBSTRUCTURE
  1 ****   1 GROUP 4 **** **** 0

# MOE 2024.06 (io_trps.svl 2023.06)
