@<TRIPOS>MOLECULE
NONAME
38 39 1 0 0 
SMALL
USER_CHARGES


@<TRIPOS>ATOM
  1 O       -1.4100     4.8090     1.2950 O.2   1 <1>  -0.5700 
  2 C       -1.3730     3.8280     0.5810 C.2   1 <1>   0.6340 
  3 O       -0.1770     3.4010     0.1550 O.3   1 <1>  -0.4300 
  4 C       -2.5540     3.0960     0.1590 C.ar  1 <1>   0.0860 
  5 C        1.0230     4.0420     0.5190 C.3   1 <1>   0.2000 
  6 C       -3.8280     3.5030     0.5540 C.ar  1 <1>  -0.1500 
  7 C       -2.4730     1.9630    -0.6550 C.ar  1 <1>  -0.1500 
  8 C        1.2270     5.2660    -0.3780 C.3   1 <1>  -0.1600 
  9 C        2.1600     3.0380     0.3410 C.3   1 <1>  -0.1600 
 10 C       -4.9690     2.8250     0.1640 C.ar  1 <1>   0.0830 
 11 C       -3.6050     1.2740    -1.0530 C.ar  1 <1>  -0.1500 
 12 C        2.5890     5.8990    -0.1160 C.3   1 <1>   0.3430 
 13 C        3.5100     3.7070     0.5860 C.3   1 <1>   0.3430 
 14 O       -6.1530     3.3150     0.6090 O.3   1 <1>  -0.3630 
 15 C       -4.8560     1.7010    -0.6470 C.ar  1 <1>  -0.1500 
 16 N        3.6650     4.8840    -0.3210 N.4   1 <1>  -0.9590 
 17 C       -7.3770     2.7010     0.2730 C.3   1 <1>   0.0400 
 18 C        5.0150     5.5050    -0.1590 C.3   1 <1>   0.2630 
 19 H        0.9570     4.3340     1.5560 H     1 <1>   0.0800 
 20 H       -3.9390     4.3710     1.1810 H     1 <1>   0.1500 
 21 H       -1.5120     1.6090    -0.9850 H     1 <1>   0.1500 
 22 H        0.4650     5.9970    -0.1680 H     1 <1>   0.0800 
 23 H        1.1500     4.9880    -1.4140 H     1 <1>   0.0800 
 24 H        2.1390     2.6240    -0.6510 H     1 <1>   0.0800 
 25 H        2.0360     2.2340     1.0450 H     1 <1>   0.0800 
 26 H       -3.5140     0.4040    -1.6800 H     1 <1>   0.1500 
 27 H        2.6230     6.2710     0.8960 H     1 <1>   0.0800 
 28 H        2.7310     6.7320    -0.7870 H     1 <1>   0.0800 
 29 H        4.3010     2.9960     0.4070 H     1 <1>   0.0800 
 30 H        3.5710     4.0290     1.6140 H     1 <1>   0.0800 
 31 H       -5.7200     1.1510    -0.9680 H     1 <1>   0.1500 
 32 H        3.5810     4.5400    -1.2890 H     1 <1>   0.4500 
 33 H       -8.1690     3.2610     0.7380 H     1 <1>   0.0800 
 34 H       -7.3760     1.6920     0.6460 H     1 <1>   0.0800 
 35 H       -7.4960     2.7190    -0.7950 H     1 <1>   0.0800 
 36 H        5.1390     5.8790     0.8450 H     1 <1>   0.0800 
 37 H        5.1360     6.3250    -0.8490 H     1 <1>   0.0800 
 38 H        5.7880     4.7790    -0.3540 H     1 <1>   0.0800 
@<TRIPOS>BOND
  1   1   2  2   
  2   2   3  1   
  3   2   4  1   
  4   3   5  1   
  5   4   6  ar  
  6   4   7  ar  
  7   5   8  1   
  8   5   9  1   
  9   5  19  1   
 10   6  10  ar  
 11   6  20  1   
 12   7  11  ar  
 13   7  21  1   
 14   8  12  1   
 15   8  22  1   
 16   8  23  1   
 17   9  13  1   
 18   9  24  1   
 19   9  25  1   
 20  10  14  1   
 21  10  15  ar  
 22  11  15  ar  
 23  11  26  1   
 24  12  16  1   
 25  12  27  1   
 26  12  28  1   
 27  13  16  1   
 28  13  29  1   
 29  13  30  1   
 30  14  17  1   
 31  15  31  1   
 32  16  18  1   
 33  16  32  1   
 34  17  33  1   
 35  17  34  1   
 36  17  35  1   
 37  18  36  1   
 38  18  37  1   
 39  18  38  1   
@<TRIPOS>SUBSTRUCTURE
  1 ****   2 GROUP 4 **** **** 0

# MOE 2024.06 (io_trps.svl 2023.06)
