@<TRIPOS>MOLECULE
NONAME
37 36 1 0 0 
SMALL
USER_CHARGES


@<TRIPOS>ATOM
  1 O       -1.0830     1.0870     1.6280 O.2   1 <1>  -0.5700 
  2 C       -1.3060     1.2890     0.4450 C.2   1 <1>   0.7060 
  3 O       -1.4030     0.2320    -0.3760 O.3   1 <1>  -0.4300 
  4 C       -1.4240     2.5780    -0.1210 C.2   1 <1>   0.0290 
  5 C       -1.2980    -1.0920     0.1130 C.3   1 <1>   0.0400 
  6 C       -2.6820     3.1820    -0.2000 C.2   1 <1>   0.1000 
  7 C       -0.2030     3.1370    -0.5880 C.2   1 <1>   0.4950 
  8 N       -2.8340     4.5380    -0.3550 N.pl3 1 <1>  -0.8380 
  9 C       -3.8760     2.4060    -0.1070 C.2   1 <1>  -0.1500 
 10 O       -0.1040     3.9800    -1.4550 O.2   1 <1>  -0.5700 
 11 C        1.1300     2.6660    -0.0280 C.3   1 <1>  -0.1790 
 12 C       -3.7070     5.1040    -1.4200 C.3   1 <1>   0.1290 
 13 C       -2.0230     5.5430     0.3850 C.3   1 <1>   0.1290 
 14 C       -5.1080     2.8180     0.2960 C.2   1 <1>  -0.0500 
 15 N       -6.2570     2.0650     0.3680 N.pl3 1 <1>  -0.8380 
 16 C       -6.3410     0.6460    -0.0690 C.3   1 <1>   0.1290 
 17 C       -7.5030     2.6310     0.9450 C.3   1 <1>   0.1290 
 18 H       -1.4160    -1.7700    -0.7130 H     1 <1>   0.0800 
 19 H       -2.0720    -1.2570     0.8420 H     1 <1>   0.0800 
 20 H       -0.3290    -1.2220     0.5640 H     1 <1>   0.0800 
 21 H       -3.7730     1.3770    -0.3870 H     1 <1>   0.1500 
 22 H        1.0820     2.5790     1.0420 H     1 <1>   0.0800 
 23 H        1.9000     3.3760    -0.2730 H     1 <1>   0.0800 
 24 H        1.3930     1.7170    -0.4560 H     1 <1>   0.0800 
 25 H       -3.1160     5.7020    -2.0920 H     1 <1>   0.0800 
 26 H       -4.4740     5.7150    -0.9770 H     1 <1>   0.0800 
 27 H       -4.1710     4.3140    -1.9830 H     1 <1>   0.0800 
 28 H       -2.6700     6.2900     0.8090 H     1 <1>   0.0800 
 29 H       -1.3270     6.0150    -0.2870 H     1 <1>   0.0800 
 30 H       -1.4780     5.0680     1.1810 H     1 <1>   0.0800 
 31 H       -5.2060     3.8460     0.6070 H     1 <1>   0.1500 
 32 H       -7.3540     0.3950    -0.3260 H     1 <1>   0.0800 
 33 H       -6.0080     0.0040     0.7280 H     1 <1>   0.0800 
 34 H       -5.7230     0.4880    -0.9350 H     1 <1>   0.0800 
 35 H       -7.8170     2.0360     1.7840 H     1 <1>   0.0800 
 36 H       -8.2790     2.6370     0.2000 H     1 <1>   0.0800 
 37 H       -7.3350     3.6400     1.2810 H     1 <1>   0.0800 
@<TRIPOS>BOND
  1   1   2  2   
  2   2   3  1   
  3   2   4  1   
  4   3   5  1   
  5   4   6  2   
  6   4   7  1   
  7   5  18  1   
  8   5  19  1   
  9   5  20  1   
 10   6   8  1   
 11   6   9  1   
 12   7  10  2   
 13   7  11  1   
 14   8  12  1   
 15   8  13  1   
 16   9  14  2   
 17   9  21  1   
 18  11  22  1   
 19  11  23  1   
 20  11  24  1   
 21  12  25  1   
 22  12  26  1   
 23  12  27  1   
 24  13  28  1   
 25  13  29  1   
 26  13  30  1   
 27  14  15  1   
 28  14  31  1   
 29  15  16  1   
 30  15  17  1   
 31  16  32  1   
 32  16  33  1   
 33  16  34  1   
 34  17  35  1   
 35  17  36  1   
 36  17  37  1   
@<TRIPOS>SUBSTRUCTURE
  1 ****   6 GROUP 4 **** **** 0

# MOE 2024.06 (io_trps.svl 2023.06)
