@<TRIPOS>MOLECULE
NONAME
40 40 1 0 0 
SMALL
USER_CHARGES


@<TRIPOS>ATOM
  1 O        0.6240    -0.6240    -2.3730 O.2   1 <1>  -0.5700 
  2 C        0.9490    -1.2990    -1.4270 C.2   1 <1>   0.5690 
  3 N        1.9550    -0.9480    -0.5910 N.am  1 <1>  -0.7300 
  4 C        0.2110    -2.5970    -1.1560 C.3   1 <1>  -0.0990 
  5 C        2.8030     0.2450    -0.7190 C.3   1 <1>   0.2200 
  6 C       -0.5780    -2.5730     0.1630 C.3   1 <1>  -0.2400 
  7 C        4.3350    -0.0100    -0.5140 C.3   1 <1>  -0.0800 
  8 C        2.2540     1.3240     0.2220 C.3   1 <1>  -0.1600 
  9 C        4.8240    -1.2240     0.3690 C.3   1 <1>   0.0000 
 10 C        5.0350     1.3220    -0.1080 C.3   1 <1>  -0.1600 
 11 C        2.9060     2.6910    -0.0520 C.3   1 <1>  -0.1600 
 12 C        6.3570    -1.1780     0.5570 C.3   1 <1>  -0.2400 
 13 C        4.1980    -1.2330     1.7770 C.3   1 <1>  -0.2400 
 14 C        4.5500    -2.5840    -0.3110 C.3   1 <1>  -0.2400 
 15 C        4.3200     2.5690    -0.6410 C.3   1 <1>  -0.1600 
 16 H        2.2000    -1.5530     0.1900 H     1 <1>   0.3700 
 17 H        0.9240    -3.4000    -1.1410 H     1 <1>   0.0800 
 18 H       -0.4680    -2.7780    -1.9700 H     1 <1>   0.0800 
 19 H        2.6760     0.6210    -1.7220 H     1 <1>   0.0800 
 20 H        0.0830    -2.4320     1.0000 H     1 <1>   0.0800 
 21 H       -1.1080    -3.5000     0.2940 H     1 <1>   0.0800 
 22 H       -1.2920    -1.7680     0.1480 H     1 <1>   0.0800 
 23 H        4.6960    -0.2160    -1.5070 H     1 <1>   0.0800 
 24 H        2.4470     1.0360     1.2390 H     1 <1>   0.0800 
 25 H        1.1890     1.4140     0.0930 H     1 <1>   0.0800 
 26 H        6.0460     1.3250    -0.4770 H     1 <1>   0.0800 
 27 H        5.0790     1.4070     0.9630 H     1 <1>   0.0800 
 28 H        2.9430     3.2460     0.8690 H     1 <1>   0.0800 
 29 H        2.2950     3.2490    -0.7420 H     1 <1>   0.0800 
 30 H        6.6600    -0.3380     1.1540 H     1 <1>   0.0800 
 31 H        6.8510    -1.1170    -0.3970 H     1 <1>   0.0800 
 32 H        6.7100    -2.0610     1.0590 H     1 <1>   0.0800 
 33 H        4.4250    -0.3240     2.3020 H     1 <1>   0.0800 
 34 H        4.5890    -2.0530     2.3530 H     1 <1>   0.0800 
 35 H        3.1310    -1.3390     1.7420 H     1 <1>   0.0800 
 36 H        4.9190    -2.5780    -1.3220 H     1 <1>   0.0800 
 37 H        3.5120    -2.8430    -0.3360 H     1 <1>   0.0800 
 38 H        5.0480    -3.3790     0.2160 H     1 <1>   0.0800 
 39 H        4.2610     2.5070    -1.7150 H     1 <1>   0.0800 
 40 H        4.8870     3.4520    -0.3990 H     1 <1>   0.0800 
@<TRIPOS>BOND
  1   1   2  2   
  2   2   3  am  
  3   2   4  1   
  4   3   5  1   
  5   3  16  1   
  6   4   6  1   
  7   4  17  1   
  8   4  18  1   
  9   5   7  1   
 10   5   8  1   
 11   5  19  1   
 12   6  20  1   
 13   6  21  1   
 14   6  22  1   
 15   7   9  1   
 16   7  10  1   
 17   7  23  1   
 18   8  11  1   
 19   8  24  1   
 20   8  25  1   
 21   9  12  1   
 22   9  13  1   
 23   9  14  1   
 24  10  15  1   
 25  10  26  1   
 26  10  27  1   
 27  11  15  1   
 28  11  28  1   
 29  11  29  1   
 30  12  30  1   
 31  12  31  1   
 32  12  32  1   
 33  13  33  1   
 34  13  34  1   
 35  13  35  1   
 36  14  36  1   
 37  14  37  1   
 38  14  38  1   
 39  15  39  1   
 40  15  40  1   
@<TRIPOS>SUBSTRUCTURE
  1 ****   5 GROUP 4 **** **** 0

# MOE 2024.06 (io_trps.svl 2023.06)
