@<TRIPOS>MOLECULE
NONAME
47 48 1 0 0 
SMALL
USER_CHARGES


@<TRIPOS>ATOM
  1 O        0.6580    -3.6790     0.8540 O.2   1 <1>  -0.5700 
  2 C       -0.0350    -2.7240     0.6010 C.2   1 <1>   0.5690 
  3 N        0.5060    -1.4970     0.3800 N.am  1 <1>  -0.7300 
  4 C       -1.5440    -2.8990     0.5190 C.3   1 <1>   0.0440 
  5 C        1.9350    -1.1880     0.4360 C.3   1 <1>   0.2200 
  6 C       -2.2530    -1.6080     0.1170 C.ar  1 <1>  -0.1440 
  7 C        2.1350     0.1430     1.1550 C.3   1 <1>  -0.1600 
  8 C        2.4860    -1.1290    -0.9850 C.3   1 <1>  -0.1600 
  9 C       -2.6700    -0.7070     1.0840 C.ar  1 <1>  -0.1500 
 10 C       -2.4620    -1.3120    -1.2210 C.ar  1 <1>  -0.1500 
 11 C        3.6090     0.5370     1.1380 C.3   1 <1>   0.3430 
 12 C        3.9540    -0.7200    -0.9670 C.3   1 <1>   0.3430 
 13 C       -3.2800     0.4800     0.7170 C.ar  1 <1>  -0.1500 
 14 C       -3.0730    -0.1250    -1.5870 C.ar  1 <1>  -0.1500 
 15 N        4.1060     0.5940    -0.2730 N.4   1 <1>  -0.9590 
 16 C       -3.4820     0.7790    -0.6200 C.ar  1 <1>  -0.1430 
 17 C        5.5210     1.0530    -0.3490 C.3   1 <1>   0.3430 
 18 C       -4.1570     2.0780    -1.0200 C.3   1 <1>  -0.0970 
 19 C        5.6200     2.5450    -0.0220 C.3   1 <1>  -0.1600 
 20 C        7.0530     3.0530    -0.2160 C.3   1 <1>  -0.2400 
 21 H       -0.1440    -0.7400     0.1380 H     1 <1>   0.3700 
 22 H       -1.9000    -3.2310     1.4760 H     1 <1>   0.0800 
 23 H       -1.7590    -3.6730    -0.1940 H     1 <1>   0.0800 
 24 H        2.4440    -1.9670     0.9830 H     1 <1>   0.0800 
 25 H        1.8130     0.0440     2.1770 H     1 <1>   0.0800 
 26 H        1.5500     0.9170     0.6900 H     1 <1>   0.0800 
 27 H        1.9220    -0.4340    -1.5820 H     1 <1>   0.0800 
 28 H        2.4020    -2.1040    -1.4340 H     1 <1>   0.0800 
 29 H       -2.5220    -0.9220     2.1290 H     1 <1>   0.1500 
 30 H       -2.1510    -2.0020    -1.9870 H     1 <1>   0.1500 
 31 H        4.1820    -0.1860     1.6970 H     1 <1>   0.0800 
 32 H        3.7230     1.4980     1.6130 H     1 <1>   0.0800 
 33 H        4.3180    -0.6480    -1.9800 H     1 <1>   0.0800 
 34 H        4.5300    -1.4740    -0.4530 H     1 <1>   0.0800 
 35 H       -3.6020     1.1690     1.4780 H     1 <1>   0.1500 
 36 H       -3.2330     0.0910    -2.6290 H     1 <1>   0.1500 
 37 H        3.5310     1.2790    -0.7810 H     1 <1>   0.4500 
 38 H        5.8970     0.8980    -1.3480 H     1 <1>   0.0800 
 39 H        6.1360     0.4850     0.3310 H     1 <1>   0.0800 
 40 H       -5.2230     1.9420    -1.0380 H     1 <1>   0.0800 
 41 H       -3.8300     2.3890    -1.9960 H     1 <1>   0.0800 
 42 H       -3.9180     2.8570    -0.3180 H     1 <1>   0.0800 
 43 H        5.3340     2.7270     0.9990 H     1 <1>   0.0800 
 44 H        4.9680     3.1050    -0.6700 H     1 <1>   0.0800 
 45 H        7.7360     2.5330     0.4330 H     1 <1>   0.0800 
 46 H        7.1050     4.1030     0.0150 H     1 <1>   0.0800 
 47 H        7.3730     2.9190    -1.2360 H     1 <1>   0.0800 
@<TRIPOS>BOND
  1   1   2  2   
  2   2   3  am  
  3   2   4  1   
  4   3   5  1   
  5   3  21  1   
  6   4   6  1   
  7   4  22  1   
  8   4  23  1   
  9   5   7  1   
 10   5   8  1   
 11   5  24  1   
 12   6   9  ar  
 13   6  10  ar  
 14   7  11  1   
 15   7  25  1   
 16   7  26  1   
 17   8  12  1   
 18   8  27  1   
 19   8  28  1   
 20   9  13  ar  
 21   9  29  1   
 22  10  14  ar  
 23  10  30  1   
 24  11  15  1   
 25  11  31  1   
 26  11  32  1   
 27  12  15  1   
 28  12  33  1   
 29  12  34  1   
 30  13  16  ar  
 31  13  35  1   
 32  14  16  ar  
 33  14  36  1   
 34  15  17  1   
 35  15  37  1   
 36  16  18  1   
 37  17  19  1   
 38  17  38  1   
 39  17  39  1   
 40  18  40  1   
 41  18  41  1   
 42  18  42  1   
 43  19  20  1   
 44  19  43  1   
 45  19  44  1   
 46  20  45  1   
 47  20  46  1   
 48  20  47  1   
@<TRIPOS>SUBSTRUCTURE
  1 ****   3 GROUP 4 **** **** 0

# MOE 2024.06 (io_trps.svl 2023.06)
