@<TRIPOS>MOLECULE
NONAME
40 40 1 0 0 
SMALL
USER_CHARGES


@<TRIPOS>ATOM
  1 S        0.5060    -0.5950     1.8830 S.o2  1 <1>   1.4470 
  2 O        1.1030    -1.7210     2.5670 O.2   1 <1>  -0.6500 
  3 O        0.5990     0.7310     2.4450 O.2   1 <1>  -0.6500 
  4 N        1.2700    -0.4500     0.3990 N.am  1 <1>  -0.9140 
  5 C       -1.2070    -0.9790     1.4240 C.ar  1 <1>  -0.0090 
  6 C        2.7100    -0.5790     0.4960 C.3   1 <1>   0.1960 
  7 C       -2.0830     0.0160     1.0220 C.ar  1 <1>  -0.1500 
  8 C       -1.6780    -2.2840     1.4320 C.ar  1 <1>  -0.1500 
  9 C        3.3190    -0.2910    -0.8750 C.3   1 <1>  -0.1600 
 10 C       -3.4020    -0.2260     0.6280 C.ar  1 <1>   0.0860 
 11 C       -2.9740    -2.5740     1.0580 C.ar  1 <1>  -0.1500 
 12 C        4.8460    -0.4200    -0.8470 C.3   1 <1>  -0.2400 
 13 C       -3.8430    -1.5630     0.6540 C.ar  1 <1>   0.0830 
 14 C       -4.2220     0.9060     0.2140 C.2   1 <1>   0.5440 
 15 O       -5.1150    -1.8500     0.2760 O.3   1 <1>  -0.3630 
 16 O       -3.6980     1.9540    -0.1140 O.2   1 <1>  -0.5700 
 17 N       -5.5860     0.8430     0.1940 N.am  1 <1>  -0.7300 
 18 C       -5.6140    -3.1670     0.1620 C.3   1 <1>   0.0400 
 19 C       -6.5110     1.9010    -0.2490 C.3   1 <1>   0.1400 
 20 C       -7.4340     1.3190    -1.3120 C.3   1 <1>  -0.2400 
 21 H        1.0800     0.5120     0.1270 H     1 <1>   0.4200 
 22 H        2.9650    -1.5800     0.8050 H     1 <1>   0.0800 
 23 H        3.0950     0.1160     1.2260 H     1 <1>   0.0800 
 24 H       -1.7260     1.0340     1.0150 H     1 <1>   0.1500 
 25 H       -1.0180    -3.0810     1.7360 H     1 <1>   0.1500 
 26 H        3.0580     0.7060    -1.1850 H     1 <1>   0.0800 
 27 H        2.9210    -0.9880    -1.5920 H     1 <1>   0.0800 
 28 H       -3.2850    -3.6010     1.0880 H     1 <1>   0.1500 
 29 H        5.2730     0.2790    -0.1490 H     1 <1>   0.0800 
 30 H        5.2510    -0.2170    -1.8230 H     1 <1>   0.0800 
 31 H        5.1350    -1.4170    -0.5600 H     1 <1>   0.0800 
 32 H       -6.0010    -0.0780     0.3630 H     1 <1>   0.3700 
 33 H       -6.6250    -3.1120    -0.2010 H     1 <1>   0.0800 
 34 H       -5.6000    -3.6320     1.1320 H     1 <1>   0.0800 
 35 H       -5.0060    -3.7120    -0.5380 H     1 <1>   0.0800 
 36 H       -5.9590     2.7330    -0.6550 H     1 <1>   0.0800 
 37 H       -7.0840     2.2490     0.5940 H     1 <1>   0.0800 
 38 H       -6.8570     0.9720    -2.1510 H     1 <1>   0.0800 
 39 H       -8.1110     2.0790    -1.6560 H     1 <1>   0.0800 
 40 H       -8.0100     0.5060    -0.9080 H     1 <1>   0.0800 
@<TRIPOS>BOND
  1   1   2  2   
  2   1   3  2   
  3   1   4  am  
  4   1   5  1   
  5   4   6  1   
  6   4  21  1   
  7   5   7  ar  
  8   5   8  ar  
  9   6   9  1   
 10   6  22  1   
 11   6  23  1   
 12   7  10  ar  
 13   7  24  1   
 14   8  11  ar  
 15   8  25  1   
 16   9  12  1   
 17   9  26  1   
 18   9  27  1   
 19  10  13  ar  
 20  10  14  1   
 21  11  13  ar  
 22  11  28  1   
 23  12  29  1   
 24  12  30  1   
 25  12  31  1   
 26  13  15  1   
 27  14  16  2   
 28  14  17  am  
 29  15  18  1   
 30  17  19  1   
 31  17  32  1   
 32  18  33  1   
 33  18  34  1   
 34  18  35  1   
 35  19  20  1   
 36  19  36  1   
 37  19  37  1   
 38  20  38  1   
 39  20  39  1   
 40  20  40  1   
@<TRIPOS>SUBSTRUCTURE
  1 ****   7 GROUP 4 **** **** 0

# MOE 2024.06 (io_trps.svl 2023.06)
