@<TRIPOS>MOLECULE
NONAME
40 41 1 0 0 
SMALL
USER_CHARGES


@<TRIPOS>ATOM
  1 BR      -0.7940    -1.4490    -2.7900 Br    1 <1>  -0.1110 
  2 C       -2.2020    -1.7060    -1.5060 C.ar  1 <1>   0.1110 
  3 C       -3.3810    -2.2940    -1.9170 C.ar  1 <1>  -0.1500 
  4 C       -2.0010    -1.2980    -0.2020 C.ar  1 <1>  -0.1500 
  5 C       -4.3890    -2.4730    -0.9850 C.ar  1 <1>  -0.1500 
  6 C       -3.0220    -1.4860     0.7140 C.ar  1 <1>  -0.1500 
  7 C       -4.2300    -2.0720     0.3400 C.ar  1 <1>  -0.0090 
  8 S       -5.5720    -2.3070     1.5410 S.o2  1 <1>   1.4470 
  9 O       -5.2860    -1.5980     2.7690 O.2   1 <1>  -0.6500 
 10 O       -5.9230    -3.7090     1.5900 O.2   1 <1>  -0.6500 
 11 N       -6.8810    -1.5120     0.8210 N.am  1 <1>  -0.8490 
 12 C       -8.1320    -1.8320     1.5620 C.3   1 <1>   0.2570 
 13 C       -6.6880    -0.0600     0.7310 C.3   1 <1>   0.1960 
 14 C       -9.4330    -1.3460     0.9080 C.2   1 <1>   0.5690 
 15 C       -7.0650     0.4040    -0.6730 C.3   1 <1>  -0.2400 
 16 O      -10.0310    -0.4350     1.4360 O.2   1 <1>  -0.5700 
 17 N       -9.8930    -1.9320    -0.2420 N.am  1 <1>  -0.6600 
 18 C       -9.1640    -2.9500    -1.0300 C.3   1 <1>   0.1400 
 19 C      -11.1040    -1.4700    -0.9510 C.3   1 <1>   0.1400 
 20 C      -10.0870    -3.2670    -2.2020 C.3   1 <1>  -0.1600 
 21 C      -10.9520    -2.0200    -2.3640 C.3   1 <1>  -0.1600 
 22 H       -3.5040    -2.6030    -2.9400 H     1 <1>   0.1500 
 23 H       -1.0680    -0.8450     0.0860 H     1 <1>   0.1500 
 24 H       -5.3170    -2.9310    -1.2860 H     1 <1>   0.1500 
 25 H       -2.8790    -1.1730     1.7360 H     1 <1>   0.1500 
 26 H       -8.0770    -1.4180     2.5540 H     1 <1>   0.0800 
 27 H       -8.2240    -2.8980     1.6710 H     1 <1>   0.0800 
 28 H       -5.6560     0.2010     0.9030 H     1 <1>   0.0800 
 29 H       -7.2780     0.4600     1.4690 H     1 <1>   0.0800 
 30 H       -8.1070     0.2330    -0.8680 H     1 <1>   0.0800 
 31 H       -6.4740    -0.1130    -1.4070 H     1 <1>   0.0800 
 32 H       -6.8780     1.4580    -0.7640 H     1 <1>   0.0800 
 33 H       -8.9600    -3.8270    -0.4400 H     1 <1>   0.0800 
 34 H       -8.2400    -2.5260    -1.3850 H     1 <1>   0.0800 
 35 H      -11.1700    -0.3950    -0.9440 H     1 <1>   0.0800 
 36 H      -11.9710    -1.8890    -0.4700 H     1 <1>   0.0800 
 37 H      -10.7050    -4.1090    -1.9410 H     1 <1>   0.0800 
 38 H       -9.5340    -3.5030    -3.0940 H     1 <1>   0.0800 
 39 H      -10.4370    -1.2930    -2.9670 H     1 <1>   0.0800 
 40 H      -11.9060    -2.2360    -2.8130 H     1 <1>   0.0800 
@<TRIPOS>BOND
  1   1   2  1   
  2   2   3  ar  
  3   2   4  ar  
  4   3   5  ar  
  5   3  22  1   
  6   4   6  ar  
  7   4  23  1   
  8   5   7  ar  
  9   5  24  1   
 10   6   7  ar  
 11   6  25  1   
 12   7   8  1   
 13   8   9  2   
 14   8  10  2   
 15   8  11  am  
 16  11  12  1   
 17  11  13  1   
 18  12  14  1   
 19  12  26  1   
 20  12  27  1   
 21  13  15  1   
 22  13  28  1   
 23  13  29  1   
 24  14  16  2   
 25  14  17  am  
 26  15  30  1   
 27  15  31  1   
 28  15  32  1   
 29  17  18  1   
 30  17  19  1   
 31  18  20  1   
 32  18  33  1   
 33  18  34  1   
 34  19  21  1   
 35  19  35  1   
 36  19  36  1   
 37  20  21  1   
 38  20  37  1   
 39  20  38  1   
 40  21  39  1   
 41  21  40  1   
@<TRIPOS>SUBSTRUCTURE
  1 ****  11 GROUP 4 **** **** 0

# MOE 2024.06 (io_trps.svl 2023.06)
