@<TRIPOS>MOLECULE
NONAME
51 53 1 0 0 
SMALL
USER_CHARGES


@<TRIPOS>ATOM
  1 F        0.4420     1.4460     0.0740 F     1 <1>  -0.3400 
  2 C        1.4430     1.0480    -0.7040 C.3   1 <1>   1.1640 
  3 F        1.3730    -0.2790    -0.7420 F     1 <1>  -0.3400 
  4 F        1.1550     1.4710    -1.9280 F     1 <1>  -0.3400 
  5 C        2.8130     1.5520    -0.2260 C.ar  1 <1>  -0.1440 
  6 C        3.9720     0.8550    -0.5470 C.ar  1 <1>  -0.1500 
  7 C        2.9270     2.7190     0.5250 C.ar  1 <1>  -0.1500 
  8 C        5.2250     1.2900    -0.1320 C.ar  1 <1>   0.1000 
  9 C        4.1680     3.1670     0.9440 C.ar  1 <1>  -0.1500 
 10 N        6.3540     0.5480    -0.4710 N.pl3 1 <1>  -0.8380 
 11 C        5.3080     2.4570     0.6180 C.ar  1 <1>  -0.1500 
 12 C        7.5890     1.2220    -0.9810 C.3   1 <1>   0.2090 
 13 C        6.5370    -0.8020     0.1420 C.3   1 <1>   0.2090 
 14 C        8.7380     1.1660     0.0490 C.3   1 <1>   0.3430 
 15 C        7.6960    -0.8070     1.1610 C.3   1 <1>   0.3430 
 16 N        8.9600    -0.2210     0.5960 N.4   1 <1>  -0.9590 
 17 C       10.0930    -0.2730     1.5520 C.3   1 <1>   0.4860 
 18 C       11.3590     0.0870     0.8030 C.ar  1 <1>  -0.1430 
 19 C       11.8000    -0.7040    -0.2530 C.ar  1 <1>   0.0830 
 20 C       12.0780     1.2130     1.1690 C.ar  1 <1>  -0.1500 
 21 O       11.0470    -1.7920    -0.5800 O.3   1 <1>  -0.3630 
 22 C       12.9650    -0.3560    -0.9320 C.ar  1 <1>  -0.1500 
 23 C       13.2340     1.5630     0.4920 C.ar  1 <1>   0.0830 
 24 C       11.5530    -2.7810    -1.4570 C.3   1 <1>   0.0400 
 25 C       13.6780     0.7710    -0.5620 C.ar  1 <1>  -0.1500 
 26 O       13.8650     2.6850     0.9180 O.3   1 <1>  -0.3620 
 27 C       15.1060     3.0780     0.3710 C.3   1 <1>   0.0400 
 28 H        3.9190    -0.0410    -1.1390 H     1 <1>   0.1500 
 29 H        2.0510     3.2890     0.7880 H     1 <1>   0.1500 
 30 H        4.2410     4.0710     1.5240 H     1 <1>   0.1500 
 31 H        6.2610     2.8150     0.9530 H     1 <1>   0.1500 
 32 H        7.3710     2.2480    -1.2240 H     1 <1>   0.0800 
 33 H        7.9000     0.7360    -1.8900 H     1 <1>   0.0800 
 34 H        6.7340    -1.5180    -0.6370 H     1 <1>   0.0800 
 35 H        5.6290    -1.1010     0.6380 H     1 <1>   0.0800 
 36 H        8.4970     1.8360     0.8570 H     1 <1>   0.0800 
 37 H        9.6410     1.5260    -0.4180 H     1 <1>   0.0800 
 38 H        7.8720    -1.8200     1.4840 H     1 <1>   0.0800 
 39 H        7.3860    -0.2340     2.0200 H     1 <1>   0.0800 
 40 H        9.2770    -0.8120    -0.1910 H     1 <1>   0.4500 
 41 H       10.1950    -1.2700     1.9500 H     1 <1>   0.0800 
 42 H        9.9310     0.4120     2.3680 H     1 <1>   0.0800 
 43 H       11.7640     1.8410     1.9840 H     1 <1>   0.1500 
 44 H       13.3360    -0.9430    -1.7520 H     1 <1>   0.1500 
 45 H       11.6650    -2.3580    -2.4400 H     1 <1>   0.0800 
 46 H       10.8510    -3.5950    -1.4920 H     1 <1>   0.0800 
 47 H       12.4990    -3.1330    -1.0830 H     1 <1>   0.0800 
 48 H       14.5730     1.0180    -1.1030 H     1 <1>   0.1500 
 49 H       15.4330     3.9640     0.8850 H     1 <1>   0.0800 
 50 H       14.9770     3.2910    -0.6750 H     1 <1>   0.0800 
 51 H       15.8200     2.2870     0.5190 H     1 <1>   0.0800 
@<TRIPOS>BOND
  1   1   2  1   
  2   2   3  1   
  3   2   4  1   
  4   2   5  1   
  5   5   6  ar  
  6   5   7  ar  
  7   6   8  ar  
  8   6  28  1   
  9   7   9  ar  
 10   7  29  1   
 11   8  10  1   
 12   8  11  ar  
 13   9  11  ar  
 14   9  30  1   
 15  10  12  1   
 16  10  13  1   
 17  11  31  1   
 18  12  14  1   
 19  12  32  1   
 20  12  33  1   
 21  13  15  1   
 22  13  34  1   
 23  13  35  1   
 24  14  16  1   
 25  14  36  1   
 26  14  37  1   
 27  15  16  1   
 28  15  38  1   
 29  15  39  1   
 30  16  17  1   
 31  16  40  1   
 32  17  18  1   
 33  17  41  1   
 34  17  42  1   
 35  18  19  ar  
 36  18  20  ar  
 37  19  21  1   
 38  19  22  ar  
 39  20  23  ar  
 40  20  43  1   
 41  21  24  1   
 42  22  25  ar  
 43  22  44  1   
 44  23  25  ar  
 45  23  26  1   
 46  24  45  1   
 47  24  46  1   
 48  24  47  1   
 49  25  48  1   
 50  26  27  1   
 51  27  49  1   
 52  27  50  1   
 53  27  51  1   
@<TRIPOS>SUBSTRUCTURE
  1 ****  14 GROUP 4 **** **** 0

# MOE 2024.06 (io_trps.svl 2023.06)
