@<TRIPOS>MOLECULE
NONAME
34 35 1 0 0 
SMALL
USER_CHARGES


@<TRIPOS>ATOM
  1 CL       0.0010    -0.3330    -0.4110 Cl    1 <1>  -0.1770 
  2 C        1.4140     0.6820    -0.2750 C.ar  1 <1>   0.1770 
  3 C        1.2570     2.0550    -0.2060 C.ar  1 <1>  -0.1500 
  4 C        2.6670     0.0950    -0.2390 C.ar  1 <1>  -0.1500 
  5 C        2.3800     2.8590    -0.0990 C.ar  1 <1>  -0.1500 
  6 C        3.7920     0.8980    -0.1320 C.ar  1 <1>  -0.1500 
  7 C        3.6370     2.2760    -0.0620 C.ar  1 <1>   0.1020 
  8 S        5.0450     3.3910     0.0790 S.3   1 <1>  -0.3320 
  9 C        6.5560     2.3280     0.1050 C.3   1 <1>   0.0700 
 10 C        7.7770     3.2440     0.2220 C.3   1 <1>  -0.0990 
 11 C        9.0860     2.4720     0.2620 C.2   1 <1>   0.5690 
 12 O        9.0490     1.2740     0.1050 O.2   1 <1>  -0.5700 
 13 N       10.2690     3.1330     0.4710 N.am  1 <1>  -0.6600 
 14 C       11.5690     2.3970     0.5470 C.3   1 <1>   0.1400 
 15 C       10.4320     4.6110     0.6250 C.3   1 <1>   0.1400 
 16 C       12.6170     3.0480    -0.3700 C.3   1 <1>   0.1200 
 17 C       11.5450     5.1340    -0.2990 C.3   1 <1>   0.1200 
 18 O       12.7300     4.4170    -0.1000 O.3   1 <1>  -0.5600 
 19 H        0.2710     2.4840    -0.2360 H     1 <1>   0.1500 
 20 H        2.7570    -0.9750    -0.2950 H     1 <1>   0.1500 
 21 H        2.2870     3.9290    -0.0430 H     1 <1>   0.1500 
 22 H        4.7620     0.4400    -0.1040 H     1 <1>   0.1500 
 23 H        6.5760     1.7650    -0.8120 H     1 <1>   0.0800 
 24 H        6.4790     1.6690     0.9510 H     1 <1>   0.0800 
 25 H        7.6890     3.8210     1.1230 H     1 <1>   0.0800 
 26 H        7.7950     3.9070    -0.6220 H     1 <1>   0.0800 
 27 H       11.4420     1.3680     0.2610 H     1 <1>   0.0800 
 28 H       11.9260     2.4160     1.5610 H     1 <1>   0.0800 
 29 H       10.6930     4.8310     1.6450 H     1 <1>   0.0800 
 30 H        9.5200     5.1310     0.3970 H     1 <1>   0.0800 
 31 H       12.3460     2.9190    -1.4040 H     1 <1>   0.0800 
 32 H       13.5810     2.6000    -0.2070 H     1 <1>   0.0800 
 33 H       11.7490     6.1680    -0.0880 H     1 <1>   0.0800 
 34 H       11.2570     5.0410    -1.3320 H     1 <1>   0.0800 
@<TRIPOS>BOND
  1   1   2  1   
  2   2   3  ar  
  3   2   4  ar  
  4   3   5  ar  
  5   3  19  1   
  6   4   6  ar  
  7   4  20  1   
  8   5   7  ar  
  9   5  21  1   
 10   6   7  ar  
 11   6  22  1   
 12   7   8  1   
 13   8   9  1   
 14   9  10  1   
 15   9  23  1   
 16   9  24  1   
 17  10  11  1   
 18  10  25  1   
 19  10  26  1   
 20  11  12  2   
 21  11  13  am  
 22  13  14  1   
 23  13  15  1   
 24  14  16  1   
 25  14  27  1   
 26  14  28  1   
 27  15  17  1   
 28  15  29  1   
 29  15  30  1   
 30  16  18  1   
 31  16  31  1   
 32  16  32  1   
 33  17  18  1   
 34  17  33  1   
 35  17  34  1   
@<TRIPOS>SUBSTRUCTURE
  1 ****   9 GROUP 4 **** **** 0

# MOE 2024.06 (io_trps.svl 2023.06)
