@<TRIPOS>MOLECULE
NONAME
43 44 1 0 0 
SMALL
USER_CHARGES


@<TRIPOS>ATOM
  1 CL       1.0790    -0.0120    -1.3230 Cl    1 <1>  -0.1770 
  2 C        2.1890     1.3370    -1.4170 C.ar  1 <1>   0.1770 
  3 C        3.1460     1.4060    -2.4140 C.ar  1 <1>   0.1900 
  4 C        2.1000     2.3450    -0.4780 C.ar  1 <1>  -0.1500 
  5 F        3.2380     0.4500    -3.3050 F     1 <1>  -0.1900 
  6 C        4.0220     2.4730    -2.4950 C.ar  1 <1>  -0.1500 
  7 C        2.9710     3.4310    -0.5350 C.ar  1 <1>   0.1990 
  8 C        3.9250     3.4810    -1.5500 C.ar  1 <1>  -0.1500 
  9 N        2.9060     4.4750     0.3840 N.am  1 <1>  -0.6930 
 10 S        2.9450     4.2170     2.0950 S.o2  1 <1>   1.3330 
 11 C        2.1740     5.7090    -0.0550 C.3   1 <1>   0.2570 
 12 O        3.2150     5.5000     2.6920 O.2   1 <1>  -0.6500 
 13 O        1.7360     3.5020     2.4270 O.2   1 <1>  -0.6500 
 14 C        4.3710     3.1740     2.3110 C.3   1 <1>  -0.1350 
 15 C        0.6710     5.5080    -0.2870 C.2   1 <1>   0.5690 
 16 O        0.1710     6.0290    -1.2560 O.2   1 <1>  -0.5700 
 17 N       -0.0620     4.7550     0.5780 N.am  1 <1>  -0.7300 
 18 C       -1.4890     4.4370     0.4470 C.3   1 <1>   0.2200 
 19 C       -2.1960     4.8100     1.7530 C.3   1 <1>  -0.1600 
 20 C       -1.6320     2.9420     0.1460 C.3   1 <1>  -0.1600 
 21 C       -3.6740     4.3940     1.7240 C.3   1 <1>  -0.1600 
 22 C       -3.1090     2.5210     0.1110 C.3   1 <1>  -0.1600 
 23 C       -3.8220     2.8970     1.4170 C.3   1 <1>  -0.1600 
 24 H        1.3460     2.2820     0.2830 H     1 <1>   0.1500 
 25 H        4.7580     2.5080    -3.2800 H     1 <1>   0.1500 
 26 H        4.5950     4.3220    -1.5960 H     1 <1>   0.1500 
 27 H        2.6050     6.0530    -0.9770 H     1 <1>   0.0800 
 28 H        2.3010     6.4950     0.6660 H     1 <1>   0.0800 
 29 H        5.2470     3.6640     1.9330 H     1 <1>   0.0800 
 30 H        4.2390     2.2460     1.7910 H     1 <1>   0.0800 
 31 H        4.5180     2.9660     3.3530 H     1 <1>   0.0800 
 32 H        0.4030     4.2930     1.3730 H     1 <1>   0.3700 
 33 H       -1.9170     5.0050    -0.3630 H     1 <1>   0.0800 
 34 H       -2.1280     5.8740     1.9020 H     1 <1>   0.0800 
 35 H       -1.7100     4.3180     2.5780 H     1 <1>   0.0800 
 36 H       -1.1270     2.3720     0.9060 H     1 <1>   0.0800 
 37 H       -1.1790     2.7250    -0.8050 H     1 <1>   0.0800 
 38 H       -4.1890     4.9650     0.9690 H     1 <1>   0.0800 
 39 H       -4.1300     4.6150     2.6730 H     1 <1>   0.0800 
 40 H       -3.1780     1.4590    -0.0460 H     1 <1>   0.0800 
 41 H       -3.5980     3.0090    -0.7160 H     1 <1>   0.0800 
 42 H       -4.8660     2.6470     1.3420 H     1 <1>   0.0800 
 43 H       -3.4040     2.3250     2.2270 H     1 <1>   0.0800 
@<TRIPOS>BOND
  1   1   2  1   
  2   2   3  ar  
  3   2   4  ar  
  4   3   5  1   
  5   3   6  ar  
  6   4   7  ar  
  7   4  24  1   
  8   6   8  ar  
  9   6  25  1   
 10   7   8  ar  
 11   7   9  1   
 12   8  26  1   
 13   9  10  am  
 14   9  11  1   
 15  10  12  2   
 16  10  13  2   
 17  10  14  1   
 18  11  15  1   
 19  11  27  1   
 20  11  28  1   
 21  14  29  1   
 22  14  30  1   
 23  14  31  1   
 24  15  16  2   
 25  15  17  am  
 26  17  18  1   
 27  17  32  1   
 28  18  19  1   
 29  18  20  1   
 30  18  33  1   
 31  19  21  1   
 32  19  34  1   
 33  19  35  1   
 34  20  22  1   
 35  20  36  1   
 36  20  37  1   
 37  21  23  1   
 38  21  38  1   
 39  21  39  1   
 40  22  23  1   
 41  22  40  1   
 42  22  41  1   
 43  23  42  1   
 44  23  43  1   
@<TRIPOS>SUBSTRUCTURE
  1 ****   4 GROUP 4 **** **** 0

# MOE 2024.06 (io_trps.svl 2023.06)
