@<TRIPOS>MOLECULE
NONAME
50 52 1 0 0 
SMALL
USER_CHARGES


@<TRIPOS>ATOM
  1 O       -1.3170     1.1900     0.6690 O.2   1 <1>  -0.5700 
  2 C       -1.1910     2.0630    -0.1690 C.2   1 <1>   0.5440 
  3 N       -2.2310     2.2210    -1.0580 N.am  1 <1>  -0.6600 
  4 C       -0.0320     2.9390    -0.1770 C.ar  1 <1>   0.0860 
  5 C       -3.0680     1.0340    -1.3970 C.3   1 <1>   0.1400 
  6 C       -2.9980     3.4980    -1.0440 C.3   1 <1>   0.1400 
  7 C        0.7300     3.1360     0.9770 C.ar  1 <1>  -0.1500 
  8 C        0.3690     3.6200    -1.3290 C.ar  1 <1>  -0.1500 
  9 C       -4.2360     0.9190    -0.4000 C.3   1 <1>   0.3430 
 10 C       -4.1890     3.3830    -0.0670 C.3   1 <1>   0.3430 
 11 C        1.8230     3.9830     0.9930 C.ar  1 <1>  -0.1500 
 12 C        1.4590     4.4690    -1.3210 C.ar  1 <1>  -0.1500 
 13 N       -5.0620     2.1820    -0.3510 N.4   1 <1>  -0.9590 
 14 C        2.1940     4.6620    -0.1640 C.ar  1 <1>   0.0830 
 15 C       -6.1540     2.0450     0.6570 C.3   1 <1>   0.3430 
 16 O        3.2440     5.5100    -0.2370 O.3   1 <1>  -0.3630 
 17 C       -7.4810     2.6130     0.1330 C.3   1 <1>  -0.0800 
 18 C        4.0850     5.7500     0.8690 C.3   1 <1>   0.0400 
 19 C       -7.4210     4.1320    -0.1410 C.3   1 <1>  -0.0220 
 20 C       -8.6130     2.2930     1.1290 C.3   1 <1>  -0.1600 
 21 C       -8.8050     4.7040    -0.3830 C.2   1 <1>  -0.2880 
 22 C       -9.9880     2.6940     0.5710 C.3   1 <1>  -0.0220 
 23 C       -9.9360     4.0640    -0.0780 C.2   1 <1>  -0.2880 
 24 H       -2.4670     0.1410    -1.3460 H     1 <1>   0.0800 
 25 H       -3.4390     1.1230    -2.4030 H     1 <1>   0.0800 
 26 H       -3.3490     3.7200    -2.0360 H     1 <1>   0.0800 
 27 H       -2.3600     4.3080    -0.7300 H     1 <1>   0.0800 
 28 H        0.4580     2.6120     1.8780 H     1 <1>   0.1500 
 29 H       -0.1750     3.4790    -2.2460 H     1 <1>   0.1500 
 30 H       -3.8200     0.7170     0.5750 H     1 <1>   0.0800 
 31 H       -4.8550     0.0820    -0.6760 H     1 <1>   0.0800 
 32 H       -4.7720     4.2860    -0.1190 H     1 <1>   0.0800 
 33 H       -3.7920     3.3050     0.9320 H     1 <1>   0.0800 
 34 H        2.3740     4.1010     1.9060 H     1 <1>   0.1500 
 35 H        1.7560     4.9880    -2.2160 H     1 <1>   0.1500 
 36 H       -5.4950     2.3030    -1.2760 H     1 <1>   0.4500 
 37 H       -5.8800     2.5380     1.5760 H     1 <1>   0.0800 
 38 H       -6.3050     1.0010     0.8810 H     1 <1>   0.0800 
 39 H       -7.7250     2.1100    -0.7880 H     1 <1>   0.0800 
 40 H        4.8480     6.4420     0.5640 H     1 <1>   0.0800 
 41 H        4.5340     4.8210     1.1740 H     1 <1>   0.0800 
 42 H        3.5010     6.1760     1.6660 H     1 <1>   0.0800 
 43 H       -6.8220     4.3220    -1.0130 H     1 <1>   0.0800 
 44 H       -6.9870     4.6500     0.6970 H     1 <1>   0.0800 
 45 H       -8.4460     2.8350     2.0450 H     1 <1>   0.0800 
 46 H       -8.6300     1.2430     1.3640 H     1 <1>   0.0800 
 47 H       -8.7960     5.6880    -0.8240 H     1 <1>   0.1500 
 48 H      -10.7070     2.7020     1.3730 H     1 <1>   0.0800 
 49 H      -10.3150     1.9750    -0.1610 H     1 <1>   0.0800 
 50 H      -10.9120     4.4790    -0.2730 H     1 <1>   0.1500 
@<TRIPOS>BOND
  1   1   2  2   
  2   2   3  am  
  3   2   4  1   
  4   3   5  1   
  5   3   6  1   
  6   4   7  ar  
  7   4   8  ar  
  8   5   9  1   
  9   5  24  1   
 10   5  25  1   
 11   6  10  1   
 12   6  26  1   
 13   6  27  1   
 14   7  11  ar  
 15   7  28  1   
 16   8  12  ar  
 17   8  29  1   
 18   9  13  1   
 19   9  30  1   
 20   9  31  1   
 21  10  13  1   
 22  10  32  1   
 23  10  33  1   
 24  11  14  ar  
 25  11  34  1   
 26  12  14  ar  
 27  12  35  1   
 28  13  15  1   
 29  13  36  1   
 30  14  16  1   
 31  15  17  1   
 32  15  37  1   
 33  15  38  1   
 34  16  18  1   
 35  17  19  1   
 36  17  20  1   
 37  17  39  1   
 38  18  40  1   
 39  18  41  1   
 40  18  42  1   
 41  19  21  1   
 42  19  43  1   
 43  19  44  1   
 44  20  22  1   
 45  20  45  1   
 46  20  46  1   
 47  21  23  2   
 48  21  47  1   
 49  22  23  1   
 50  22  48  1   
 51  22  49  1   
 52  23  50  1   
@<TRIPOS>SUBSTRUCTURE
  1 ****   6 GROUP 4 **** **** 0

# MOE 2024.06 (io_trps.svl 2023.06)
