@<TRIPOS>MOLECULE
NONAME
39 40 1 0 0 
SMALL
USER_CHARGES


@<TRIPOS>ATOM
  1 S       -0.1010     0.2600     0.5110 S.3   1 <1>  -0.2860 
  2 C       -1.8570     0.3210     0.1270 C.2   1 <1>   0.2420 
  3 C        0.4360    -1.3420    -0.2310 C.3   1 <1>  -0.0100 
  4 N       -2.4850    -0.5950    -0.5210 N.2   1 <1>  -0.3380 
  5 N       -2.6320     1.3390     0.4980 N.pl3 1 <1>   0.0480 
  6 N       -3.7530    -0.1810    -0.5920 N.2   1 <1>  -0.3380 
  7 C       -3.8260     0.9590     0.0160 C.2   1 <1>   0.0070 
  8 C       -2.2400     2.5470     1.2510 C.3   1 <1>   0.0160 
  9 C       -5.1030     1.7750     0.1630 C.3   1 <1>   0.0200 
 10 C       -6.3470     0.9310    -0.1460 C.3   1 <1>   0.1100 
 11 N       -7.5950     1.7020     0.0390 N.3   1 <1>  -0.8100 
 12 C       -7.8650     2.6030    -1.1130 C.3   1 <1>   0.1100 
 13 C       -8.7390     0.7770     0.2340 C.3   1 <1>   0.1100 
 14 C       -9.2220     3.3430    -0.9900 C.3   1 <1>   0.3430 
 15 C      -10.0850     1.5200     0.4230 C.3   1 <1>   0.3430 
 16 N       -9.9090     3.0050     0.2990 N.4   1 <1>  -0.9590 
 17 C      -11.1670     3.7730     0.5250 C.3   1 <1>   0.2630 
 18 H        1.4880    -1.4580    -0.0460 H     1 <1>   0.0800 
 19 H        0.2290    -1.3000    -1.2860 H     1 <1>   0.0800 
 20 H       -0.1310    -2.1270     0.2370 H     1 <1>   0.0800 
 21 H       -2.1380     2.2980     2.2920 H     1 <1>   0.0800 
 22 H       -2.9830     3.3140     1.1340 H     1 <1>   0.0800 
 23 H       -1.2980     2.9100     0.8780 H     1 <1>   0.0800 
 24 H       -5.0460     2.6110    -0.5080 H     1 <1>   0.0800 
 25 H       -5.1780     2.1360     1.1720 H     1 <1>   0.0800 
 26 H       -6.3390     0.0890     0.5270 H     1 <1>   0.0800 
 27 H       -6.2900     0.5430    -1.1510 H     1 <1>   0.0800 
 28 H       -7.8600     2.0370    -2.0300 H     1 <1>   0.0800 
 29 H       -7.0830     3.3380    -1.1870 H     1 <1>   0.0800 
 30 H       -8.5590     0.1660     1.1030 H     1 <1>   0.0800 
 31 H       -8.8190     0.1140    -0.6110 H     1 <1>   0.0800 
 32 H       -9.8480     3.0710    -1.8230 H     1 <1>   0.0800 
 33 H       -9.0460     4.4050    -1.0460 H     1 <1>   0.0800 
 34 H      -10.4810     1.2790     1.3960 H     1 <1>   0.0800 
 35 H      -10.7880     1.1680    -0.3130 H     1 <1>   0.0800 
 36 H       -9.2040     3.2280     1.0220 H     1 <1>   0.4500 
 37 H      -11.8950     3.5310    -0.2320 H     1 <1>   0.0800 
 38 H      -10.9690     4.8320     0.4890 H     1 <1>   0.0800 
 39 H      -11.5810     3.5350     1.4920 H     1 <1>   0.0800 
@<TRIPOS>BOND
  1   1   2  1   
  2   1   3  1   
  3   2   4  2   
  4   2   5  1   
  5   3  18  1   
  6   3  19  1   
  7   3  20  1   
  8   4   6  1   
  9   5   7  1   
 10   5   8  1   
 11   6   7  2   
 12   7   9  1   
 13   8  21  1   
 14   8  22  1   
 15   8  23  1   
 16   9  10  1   
 17   9  24  1   
 18   9  25  1   
 19  10  11  1   
 20  10  26  1   
 21  10  27  1   
 22  11  12  1   
 23  11  13  1   
 24  12  14  1   
 25  12  28  1   
 26  12  29  1   
 27  13  15  1   
 28  13  30  1   
 29  13  31  1   
 30  14  16  1   
 31  14  32  1   
 32  14  33  1   
 33  15  16  1   
 34  15  34  1   
 35  15  35  1   
 36  16  17  1   
 37  16  36  1   
 38  17  37  1   
 39  17  38  1   
 40  17  39  1   
@<TRIPOS>SUBSTRUCTURE
  1 ****   9 GROUP 4 **** **** 0

# MOE 2024.06 (io_trps.svl 2023.06)
