@<TRIPOS>MOLECULE
NONAME
36 38 1 0 0 
SMALL
USER_CHARGES


@<TRIPOS>ATOM
  1 CL       0.0920    -0.6720    -1.1430 Cl    1 <1>  -0.1770 
  2 C        1.4720     0.3400    -0.7880 C.ar  1 <1>   0.1770 
  3 C        2.6990    -0.2370    -0.5730 C.ar  1 <1>  -0.1500 
  4 C        1.2820     1.7250    -0.7350 C.ar  1 <1>  -0.1500 
  5 C        3.7870     0.5940    -0.2900 C.ar  1 <1>   0.0000 
  6 C        2.3480     2.5510    -0.4580 C.ar  1 <1>  -0.1500 
  7 C        3.6030     1.9760    -0.2340 C.ar  1 <1>  -0.1520 
  8 C        5.1550     0.3680    -0.0280 C.2   1 <1>  -0.1810 
  9 N        4.8130     2.5600     0.0510 N.pl3 1 <1>   0.0330 
 10 C        5.7420     1.5660     0.1790 C.2   1 <1>  -0.3320 
 11 C        5.8880    -0.9590    -0.0050 C.3   1 <1>   0.0210 
 12 C        7.2220     1.7680     0.4940 C.3   1 <1>   0.1610 
 13 C        7.3060    -0.7890     0.5770 C.3   1 <1>  -0.1600 
 14 C        7.7830     3.0670    -0.1030 C.2   1 <1>   0.5690 
 15 C        7.9940     0.4970     0.0690 C.3   1 <1>  -0.1600 
 16 O        8.3940     3.0560    -1.1460 O.2   1 <1>  -0.5700 
 17 N        7.5640     4.2310     0.5760 N.am  1 <1>  -0.7300 
 18 C        8.0030     5.5670     0.1310 C.3   1 <1>   0.1400 
 19 C        6.8180     6.5210     0.2200 C.3   1 <1>  -0.2400 
 20 H        2.8310    -1.3000    -0.6190 H     1 <1>   0.1500 
 21 H        0.3000     2.1230    -0.9130 H     1 <1>   0.1500 
 22 H        2.2280     3.6190    -0.4130 H     1 <1>   0.1500 
 23 H        4.9940     3.5690     0.0810 H     1 <1>   0.2700 
 24 H        5.9550    -1.3240    -1.0150 H     1 <1>   0.0800 
 25 H        5.3360    -1.6750     0.5780 H     1 <1>   0.0800 
 26 H        7.3080     1.8520     1.5610 H     1 <1>   0.0800 
 27 H        7.9000    -1.6480     0.3190 H     1 <1>   0.0800 
 28 H        7.2360    -0.7460     1.6500 H     1 <1>   0.0800 
 29 H        9.0000     0.5490     0.4460 H     1 <1>   0.0800 
 30 H        8.0470     0.4600    -1.0060 H     1 <1>   0.0800 
 31 H        7.1200     4.2010     1.4950 H     1 <1>   0.3700 
 32 H        8.3630     5.5200    -0.8850 H     1 <1>   0.0800 
 33 H        8.8070     5.9080     0.7610 H     1 <1>   0.0800 
 34 H        6.0230     6.1850    -0.4210 H     1 <1>   0.0800 
 35 H        7.1220     7.5000    -0.1040 H     1 <1>   0.0800 
 36 H        6.4640     6.5930     1.2330 H     1 <1>   0.0800 
@<TRIPOS>BOND
  1   1   2  1   
  2   2   3  ar  
  3   2   4  ar  
  4   3   5  ar  
  5   3  20  1   
  6   4   6  ar  
  7   4  21  1   
  8   5   7  ar  
  9   5   8  1   
 10   6   7  ar  
 11   6  22  1   
 12   7   9  1   
 13   8  10  2   
 14   8  11  1   
 15   9  10  1   
 16   9  23  1   
 17  10  12  1   
 18  11  13  1   
 19  11  24  1   
 20  11  25  1   
 21  12  14  1   
 22  12  15  1   
 23  12  26  1   
 24  13  15  1   
 25  13  27  1   
 26  13  28  1   
 27  14  16  2   
 28  14  17  am  
 29  15  29  1   
 30  15  30  1   
 31  17  18  1   
 32  17  31  1   
 33  18  19  1   
 34  18  32  1   
 35  18  33  1   
 36  19  34  1   
 37  19  35  1   
 38  19  36  1   
@<TRIPOS>SUBSTRUCTURE
  1 ****  10 GROUP 4 **** **** 0

# MOE 2024.06 (io_trps.svl 2023.06)
