@<TRIPOS>MOLECULE
NONAME
43 44 1 0 0 
SMALL
USER_CHARGES


@<TRIPOS>ATOM
  1 CL      -0.0610    -0.2680     0.2730 Cl    1 <1>  -0.1770 
  2 C       -0.0010    -1.9870    -0.0190 C.ar  1 <1>   0.1770 
  3 C        0.6970    -2.8010     0.8500 C.ar  1 <1>  -0.1500 
  4 C       -0.6520    -2.5120    -1.1180 C.ar  1 <1>  -0.1500 
  5 C        0.7400    -4.1650     0.6110 C.ar  1 <1>  -0.1500 
  6 C       -0.6020    -3.8780    -1.3440 C.ar  1 <1>  -0.1500 
  7 C        0.0900    -4.7280    -0.4850 C.ar  1 <1>  -0.0090 
  8 S        0.1640    -6.5140    -0.8010 S.o2  1 <1>   1.4470 
  9 O       -0.9920    -6.9400    -1.5600 O.2   1 <1>  -0.6500 
 10 O        1.4720    -6.8600    -1.3150 O.2   1 <1>  -0.6500 
 11 N        0.0160    -7.1910     0.7510 N.am  1 <1>  -0.8490 
 12 C        0.9940    -8.2610     1.0610 C.3   1 <1>   0.2570 
 13 C       -1.3560    -7.5600     1.1160 C.3   1 <1>   0.1160 
 14 C        2.4310    -7.7620     1.3470 C.2   1 <1>   0.5690 
 15 O        2.5710    -7.0480     2.3130 O.2   1 <1>  -0.5700 
 16 N        3.5350    -8.1050     0.5850 N.am  1 <1>  -0.6600 
 17 C        4.8310    -7.3810     0.8050 C.3   1 <1>   0.1400 
 18 C        3.5140    -8.9560    -0.6500 C.3   1 <1>   0.1400 
 19 C        6.0420    -8.3240     0.7010 C.3   1 <1>   0.3430 
 20 C        4.7550    -9.8680    -0.7410 C.3   1 <1>   0.3430 
 21 N        6.0390    -9.1000    -0.5880 N.4   1 <1>  -0.9590 
 22 C        7.2260   -10.0030    -0.6780 C.3   1 <1>   0.2630 
 23 H        1.1990    -2.3740     1.7000 H     1 <1>   0.1500 
 24 H       -1.1890    -1.8600    -1.7830 H     1 <1>   0.1500 
 25 H        1.2840    -4.8030     1.2910 H     1 <1>   0.1500 
 26 H       -1.1100    -4.2920    -2.2010 H     1 <1>   0.1500 
 27 H        0.9740    -8.9880     0.2750 H     1 <1>   0.0800 
 28 H        0.6790    -8.7600     1.9600 H     1 <1>   0.0800 
 29 H       -2.0160    -6.7240     0.9590 H     1 <1>   0.0800 
 30 H       -1.4040    -7.8350     2.1560 H     1 <1>   0.0800 
 31 H       -1.6970    -8.3870     0.5140 H     1 <1>   0.0800 
 32 H        4.8490    -6.9180     1.7780 H     1 <1>   0.0800 
 33 H        4.9190    -6.5940     0.0770 H     1 <1>   0.0800 
 34 H        3.4840    -8.3180    -1.5170 H     1 <1>   0.0800 
 35 H        2.6410    -9.5790    -0.6770 H     1 <1>   0.0800 
 36 H        6.0160    -9.0040     1.5360 H     1 <1>   0.0800 
 37 H        6.9450    -7.7420     0.7770 H     1 <1>   0.0800 
 38 H        4.7440   -10.3760    -1.6910 H     1 <1>   0.0800 
 39 H        4.6860   -10.6140     0.0330 H     1 <1>   0.0800 
 40 H        6.0820    -8.4160    -1.3580 H     1 <1>   0.4500 
 41 H        7.2070   -10.7290     0.1190 H     1 <1>   0.0800 
 42 H        8.1380    -9.4330    -0.6010 H     1 <1>   0.0800 
 43 H        7.2290   -10.5270    -1.6200 H     1 <1>   0.0800 
@<TRIPOS>BOND
  1   1   2  1   
  2   2   3  ar  
  3   2   4  ar  
  4   3   5  ar  
  5   3  23  1   
  6   4   6  ar  
  7   4  24  1   
  8   5   7  ar  
  9   5  25  1   
 10   6   7  ar  
 11   6  26  1   
 12   7   8  1   
 13   8   9  2   
 14   8  10  2   
 15   8  11  am  
 16  11  12  1   
 17  11  13  1   
 18  12  14  1   
 19  12  27  1   
 20  12  28  1   
 21  13  29  1   
 22  13  30  1   
 23  13  31  1   
 24  14  15  2   
 25  14  16  am  
 26  16  17  1   
 27  16  18  1   
 28  17  19  1   
 29  17  32  1   
 30  17  33  1   
 31  18  20  1   
 32  18  34  1   
 33  18  35  1   
 34  19  21  1   
 35  19  36  1   
 36  19  37  1   
 37  20  21  1   
 38  20  38  1   
 39  20  39  1   
 40  21  22  1   
 41  21  40  1   
 42  22  41  1   
 43  22  42  1   
 44  22  43  1   
@<TRIPOS>SUBSTRUCTURE
  1 ****  10 GROUP 4 **** **** 0

# MOE 2024.06 (io_trps.svl 2023.06)
