@<TRIPOS>MOLECULE
NONAME
39 40 1 0 0 
SMALL
USER_CHARGES


@<TRIPOS>ATOM
  1 O       -0.0020     1.4960    -2.3970 O.3   1 <1>  -0.3370 
  2 N       -1.1490     1.9870    -1.9650 N.2   1 <1>  -0.5130 
  3 C       -1.1660     2.8870    -1.0650 C.2   1 <1>   0.3280 
  4 C       -2.5020     3.4790    -0.5330 C.3   1 <1>   0.3410 
  5 C        0.1070     3.4450    -0.4150 C.3   1 <1>  -0.0990 
  6 O       -2.3800     4.8460    -0.3210 O.3   1 <1>  -0.6800 
  7 C       -3.6720     3.3080    -1.5260 C.3   1 <1>  -0.1600 
  8 C       -2.8810     2.8510     0.8240 C.3   1 <1>  -0.1600 
  9 C        0.7260     4.5640    -1.2620 C.3   1 <1>  -0.0170 
 10 C       -5.0250     3.8120    -0.9870 C.3   1 <1>  -0.1600 
 11 C       -4.2310     3.3440     1.3800 C.3   1 <1>  -0.1600 
 12 C        1.9740     5.1080    -0.5880 C.ar  1 <1>  -0.1430 
 13 C       -5.3590     3.1540     0.3580 C.3   1 <1>  -0.1600 
 14 C        3.2130     4.5410    -0.8430 C.ar  1 <1>  -0.1500 
 15 C        1.8830     6.1750     0.2930 C.ar  1 <1>  -0.1500 
 16 C        4.3490     5.0360    -0.2260 C.ar  1 <1>  -0.1500 
 17 C        3.0180     6.6710     0.9110 C.ar  1 <1>  -0.1500 
 18 C        4.2520     6.1010     0.6520 C.ar  1 <1>  -0.1500 
 19 H       -0.0890     0.8140    -3.0930 H     1 <1>   0.4000 
 20 H       -0.1100     3.8220     0.5660 H     1 <1>   0.0800 
 21 H        0.8280     2.6570    -0.2950 H     1 <1>   0.0800 
 22 H       -3.2510     5.1760    -0.0320 H     1 <1>   0.4000 
 23 H       -3.4310     3.8080    -2.4480 H     1 <1>   0.0800 
 24 H       -3.7770     2.2610    -1.7540 H     1 <1>   0.0800 
 25 H       -2.9350     1.7850     0.6930 H     1 <1>   0.0800 
 26 H       -2.1050     3.0410     1.5440 H     1 <1>   0.0800 
 27 H        0.0140     5.3580    -1.3990 H     1 <1>   0.0800 
 28 H        0.9760     4.1820    -2.2360 H     1 <1>   0.0800 
 29 H       -5.0030     4.8820    -0.8750 H     1 <1>   0.0800 
 30 H       -5.7980     3.5800    -1.6990 H     1 <1>   0.0800 
 31 H       -4.4670     2.7960     2.2760 H     1 <1>   0.0800 
 32 H       -4.1580     4.3840     1.6490 H     1 <1>   0.0800 
 33 H       -5.5210     2.1010     0.2030 H     1 <1>   0.0800 
 34 H       -6.2730     3.5710     0.7460 H     1 <1>   0.0800 
 35 H        3.2950     3.7110    -1.5230 H     1 <1>   0.1500 
 36 H        0.9250     6.6200     0.5000 H     1 <1>   0.1500 
 37 H        5.3080     4.5910    -0.4290 H     1 <1>   0.1500 
 38 H        2.9400     7.4990     1.5930 H     1 <1>   0.1500 
 39 H        5.1350     6.4870     1.1310 H     1 <1>   0.1500 
@<TRIPOS>BOND
  1   1   2  1   
  2   1  19  1   
  3   2   3  2   
  4   3   4  1   
  5   3   5  1   
  6   4   6  1   
  7   4   7  1   
  8   4   8  1   
  9   5   9  1   
 10   5  20  1   
 11   5  21  1   
 12   6  22  1   
 13   7  10  1   
 14   7  23  1   
 15   7  24  1   
 16   8  11  1   
 17   8  25  1   
 18   8  26  1   
 19   9  12  1   
 20   9  27  1   
 21   9  28  1   
 22  10  13  1   
 23  10  29  1   
 24  10  30  1   
 25  11  13  1   
 26  11  31  1   
 27  11  32  1   
 28  12  14  ar  
 29  12  15  ar  
 30  13  33  1   
 31  13  34  1   
 32  14  16  ar  
 33  14  35  1   
 34  15  17  ar  
 35  15  36  1   
 36  16  18  ar  
 37  16  37  1   
 38  17  18  ar  
 39  17  38  1   
 40  18  39  1   
@<TRIPOS>SUBSTRUCTURE
  1 ****   5 GROUP 4 **** **** 0

# MOE 2024.06 (io_trps.svl 2023.06)
