@<TRIPOS>MOLECULE
NONAME
45 45 1 0 0 
SMALL
USER_CHARGES


@<TRIPOS>ATOM
  1 O       -0.6450    -1.2270    -0.6470 O.3   1 <1>  -0.3630 
  2 C       -1.9260    -1.3200    -0.2180 C.ar  1 <1>   0.0830 
  3 C        0.3540    -1.2410     0.3500 C.3   1 <1>   0.0400 
  4 C       -2.5550    -0.3150     0.5250 C.ar  1 <1>   0.0830 
  5 C       -2.6190    -2.4730    -0.5410 C.ar  1 <1>  -0.1500 
  6 O       -1.9630     0.8650     0.8420 O.3   1 <1>  -0.3630 
  7 C       -3.8490    -0.5060     0.9770 C.ar  1 <1>  -0.1500 
  8 C       -3.9270    -2.6540    -0.1020 C.ar  1 <1>   0.0830 
  9 C       -1.5640     1.6920    -0.2310 C.3   1 <1>   0.0400 
 10 C       -4.5380    -1.6690     0.6690 C.ar  1 <1>  -0.1440 
 11 O       -4.6610    -3.7650    -0.3960 O.3   1 <1>  -0.3630 
 12 C       -5.9510    -1.8640     1.1700 C.3   1 <1>   0.4860 
 13 C       -4.0500    -4.8950    -0.9910 C.3   1 <1>   0.0400 
 14 N       -6.8160    -1.9610    -0.0180 N.4   1 <1>  -0.9060 
 15 C       -8.2150    -2.3010     0.2690 C.3   1 <1>   0.4230 
 16 C       -8.6600    -3.3260    -0.7840 C.3   1 <1>  -0.1600 
 17 C       -9.0700    -1.0220     0.2440 C.3   1 <1>  -0.1600 
 18 C      -10.0540    -3.9140    -0.5150 C.3   1 <1>  -0.2400 
 19 C       -8.6190     0.0820     1.2160 C.3   1 <1>  -0.2400 
 20 H        1.3130    -1.2250    -0.1350 H     1 <1>   0.0800 
 21 H        0.2510    -2.1390     0.9330 H     1 <1>   0.0800 
 22 H        0.2470    -0.3750     0.9770 H     1 <1>   0.0800 
 23 H       -2.1070    -3.2070    -1.1330 H     1 <1>   0.1500 
 24 H       -4.2970     0.2750     1.5680 H     1 <1>   0.1500 
 25 H       -1.2780     2.6470     0.1700 H     1 <1>   0.0800 
 26 H       -2.3910     1.8100    -0.9100 H     1 <1>   0.0800 
 27 H       -0.7270     1.2470    -0.7370 H     1 <1>   0.0800 
 28 H       -6.2470    -1.0360     1.7930 H     1 <1>   0.0800 
 29 H       -6.0020    -2.7750     1.7450 H     1 <1>   0.0800 
 30 H       -3.2270    -5.2150    -0.3750 H     1 <1>   0.0800 
 31 H       -3.7080    -4.6340    -1.9770 H     1 <1>   0.0800 
 32 H       -4.7800    -5.6820    -1.0560 H     1 <1>   0.0800 
 33 H       -6.3820    -2.7000    -0.5910 H     1 <1>   0.4500 
 34 H       -6.7560    -1.0960    -0.5610 H     1 <1>   0.4500 
 35 H       -8.2840    -2.7600     1.2430 H     1 <1>   0.0800 
 36 H       -7.9620    -4.1470    -0.7900 H     1 <1>   0.0800 
 37 H       -8.6580    -2.8760    -1.7620 H     1 <1>   0.0800 
 38 H      -10.0790    -1.2860     0.5090 H     1 <1>   0.0800 
 39 H       -9.1060    -0.6250    -0.7560 H     1 <1>   0.0800 
 40 H      -10.1080    -4.3410     0.4720 H     1 <1>   0.0800 
 41 H      -10.2640    -4.6930    -1.2280 H     1 <1>   0.0800 
 42 H      -10.8220    -3.1660    -0.6130 H     1 <1>   0.0800 
 43 H       -8.5530    -0.2960     2.2220 H     1 <1>   0.0800 
 44 H       -9.3420     0.8810     1.2110 H     1 <1>   0.0800 
 45 H       -7.6710     0.5030     0.9290 H     1 <1>   0.0800 
@<TRIPOS>BOND
  1   1   2  1   
  2   1   3  1   
  3   2   4  ar  
  4   2   5  ar  
  5   3  20  1   
  6   3  21  1   
  7   3  22  1   
  8   4   6  1   
  9   4   7  ar  
 10   5   8  ar  
 11   5  23  1   
 12   6   9  1   
 13   7  10  ar  
 14   7  24  1   
 15   8  10  ar  
 16   8  11  1   
 17   9  25  1   
 18   9  26  1   
 19   9  27  1   
 20  10  12  1   
 21  11  13  1   
 22  12  14  1   
 23  12  28  1   
 24  12  29  1   
 25  13  30  1   
 26  13  31  1   
 27  13  32  1   
 28  14  15  1   
 29  14  33  1   
 30  14  34  1   
 31  15  16  1   
 32  15  17  1   
 33  15  35  1   
 34  16  18  1   
 35  16  36  1   
 36  16  37  1   
 37  17  19  1   
 38  17  38  1   
 39  17  39  1   
 40  18  40  1   
 41  18  41  1   
 42  18  42  1   
 43  19  43  1   
 44  19  44  1   
 45  19  45  1   
@<TRIPOS>SUBSTRUCTURE
  1 ****  10 GROUP 4 **** **** 0

# MOE 2024.06 (io_trps.svl 2023.06)
