@<TRIPOS>MOLECULE
NONAME
40 40 1 0 0 
SMALL
USER_CHARGES


@<TRIPOS>ATOM
  1 BR      -0.3250     0.3910     0.0360 Br    1 <1>  -0.1110 
  2 C        1.4660     1.0960    -0.0290 C.ar  1 <1>   0.1110 
  3 C        1.6480     2.4220    -0.3730 C.ar  1 <1>  -0.1500 
  4 C        2.5220     0.2560     0.2710 C.ar  1 <1>  -0.1500 
  5 C        2.9390     2.9190    -0.4170 C.ar  1 <1>  -0.1500 
  6 C        3.8100     0.7640     0.2240 C.ar  1 <1>  -0.1500 
  7 C        4.0210     2.1010    -0.1210 C.ar  1 <1>   0.0830 
  8 O        5.2480     2.6760    -0.1900 O.3   1 <1>  -0.3630 
  9 C        6.4180     1.9470     0.0870 C.3   1 <1>   0.1200 
 10 C        7.6020     2.9010    -0.0860 C.3   1 <1>  -0.1600 
 11 C        8.9440     2.2080     0.1920 C.3   1 <1>  -0.1600 
 12 C       10.0990     3.1910     0.0100 C.3   1 <1>   0.3430 
 13 N       11.3790     2.4940     0.2870 N.4   1 <1>  -0.9060 
 14 C       12.5710     3.3410     0.1070 C.3   1 <1>   0.4230 
 15 C       13.7900     2.4120     0.0180 C.3   1 <1>  -0.1600 
 16 C       12.6650     4.3120     1.2850 C.3   1 <1>  -0.2400 
 17 C       15.0890     3.1470    -0.3480 C.3   1 <1>  -0.2400 
 18 H        0.8020     3.0460    -0.6000 H     1 <1>   0.1500 
 19 H        2.3370    -0.7700     0.5340 H     1 <1>   0.1500 
 20 H        3.1150     3.9470    -0.6810 H     1 <1>   0.1500 
 21 H        4.6270     0.1090     0.4580 H     1 <1>   0.1500 
 22 H        6.4770     1.1250    -0.6060 H     1 <1>   0.0800 
 23 H        6.3580     1.5830     1.0990 H     1 <1>   0.0800 
 24 H        7.4730     3.7290     0.5900 H     1 <1>   0.0800 
 25 H        7.5890     3.2780    -1.0950 H     1 <1>   0.0800 
 26 H        9.0580     1.3820    -0.4890 H     1 <1>   0.0800 
 27 H        8.9400     1.8340     1.2010 H     1 <1>   0.0800 
 28 H        9.9730     4.0220     0.6870 H     1 <1>   0.0800 
 29 H       10.0960     3.5710    -1.0000 H     1 <1>   0.0800 
 30 H       11.4610     1.6840    -0.3370 H     1 <1>   0.4500 
 31 H       11.3810     2.1330     1.2470 H     1 <1>   0.4500 
 32 H       12.4880     3.8950    -0.8150 H     1 <1>   0.0800 
 33 H       13.6160     1.6730    -0.7450 H     1 <1>   0.0800 
 34 H       13.9370     1.9000     0.9540 H     1 <1>   0.0800 
 35 H       12.7860     3.7850     2.2150 H     1 <1>   0.0800 
 36 H       11.7990     4.9450     1.3420 H     1 <1>   0.0800 
 37 H       13.5150     4.9580     1.1590 H     1 <1>   0.0800 
 38 H       14.9730     3.7020    -1.2630 H     1 <1>   0.0800 
 39 H       15.8840     2.4340    -0.4890 H     1 <1>   0.0800 
 40 H       15.3920     3.8230     0.4320 H     1 <1>   0.0800 
@<TRIPOS>BOND
  1   1   2  1   
  2   2   3  ar  
  3   2   4  ar  
  4   3   5  ar  
  5   3  18  1   
  6   4   6  ar  
  7   4  19  1   
  8   5   7  ar  
  9   5  20  1   
 10   6   7  ar  
 11   6  21  1   
 12   7   8  1   
 13   8   9  1   
 14   9  10  1   
 15   9  22  1   
 16   9  23  1   
 17  10  11  1   
 18  10  24  1   
 19  10  25  1   
 20  11  12  1   
 21  11  26  1   
 22  11  27  1   
 23  12  13  1   
 24  12  28  1   
 25  12  29  1   
 26  13  14  1   
 27  13  30  1   
 28  13  31  1   
 29  14  15  1   
 30  14  16  1   
 31  14  32  1   
 32  15  17  1   
 33  15  33  1   
 34  15  34  1   
 35  16  35  1   
 36  16  36  1   
 37  16  37  1   
 38  17  38  1   
 39  17  39  1   
 40  17  40  1   
@<TRIPOS>SUBSTRUCTURE
  1 ****   9 GROUP 4 **** **** 0

# MOE 2024.06 (io_trps.svl 2023.06)
