@<TRIPOS>MOLECULE
NONAME
46 47 1 0 0 
SMALL
USER_CHARGES


@<TRIPOS>ATOM
  1 S        0.2010    -0.1440    -0.4550 S.3   1 <1>  -0.0800 
  2 C        1.0230     1.2910     0.1300 C.2   1 <1>   0.1040 
  3 C       -1.2850     0.7430    -0.7430 C.2   1 <1>  -0.1400 
  4 N        2.3660     1.2160     0.4720 N.am  1 <1>  -0.4940 
  5 C        0.1800     2.3670     0.1140 C.2   1 <1>  -0.0860 
  6 C       -1.1320     2.0370    -0.3990 C.2   1 <1>  -0.1810 
  7 C       -2.4280    -0.0790    -1.3080 C.3   1 <1>  -0.0600 
  8 C        3.1510     0.1440     0.8380 C.2   1 <1>   0.5440 
  9 C        0.5620     3.6740     0.5790 C.2   1 <1>   0.7160 
 10 C       -2.2170     3.1000    -0.5150 C.3   1 <1>  -0.0590 
 11 O        2.6350    -0.8480     1.3120 O.2   1 <1>  -0.5700 
 12 C        4.5920     0.2460     0.7180 C.ar  1 <1>   0.0860 
 13 O        0.2570     4.7040     0.0160 O.2   1 <1>  -0.5700 
 14 N        1.3020     3.8110     1.7020 N.am  1 <1>  -0.8000 
 15 C        5.4360    -0.4390     1.5930 C.ar  1 <1>  -0.1500 
 16 C        5.1980     1.0320    -0.2680 C.ar  1 <1>  -0.1500 
 17 C        6.8110    -0.3320     1.5050 C.ar  1 <1>  -0.1500 
 18 C        6.5730     1.1460    -0.3620 C.ar  1 <1>  -0.1500 
 19 C        7.3920     0.4630     0.5320 C.ar  1 <1>   0.0830 
 20 O        8.7410     0.5200     0.5130 O.3   1 <1>  -0.3630 
 21 C        9.4470     1.2550    -0.4650 C.3   1 <1>   0.1200 
 22 C       10.9570     1.0790    -0.2450 C.3   1 <1>  -0.0800 
 23 C       11.7410     1.9380    -1.2450 C.3   1 <1>  -0.2400 
 24 C       11.3840    -0.3910    -0.3800 C.3   1 <1>  -0.2400 
 25 H        2.8600     2.1080     0.4750 H     1 <1>   0.3700 
 26 H       -2.6780    -0.8680    -0.6230 H     1 <1>   0.0800 
 27 H       -2.1310    -0.5150    -2.2440 H     1 <1>   0.0800 
 28 H       -3.2990     0.5250    -1.4710 H     1 <1>   0.0800 
 29 H       -3.1510     2.6780    -0.8310 H     1 <1>   0.0800 
 30 H       -1.9230     3.8450    -1.2330 H     1 <1>   0.0800 
 31 H       -2.3680     3.5780     0.4360 H     1 <1>   0.0800 
 32 H        1.4320     4.7530     2.0700 H     1 <1>   0.3700 
 33 H        1.3660     3.0460     2.3740 H     1 <1>   0.3700 
 34 H        5.0000    -1.0660     2.3540 H     1 <1>   0.1500 
 35 H        4.5860     1.5560    -0.9810 H     1 <1>   0.1500 
 36 H        7.4460    -0.8660     2.1900 H     1 <1>   0.1500 
 37 H        6.9910     1.7630    -1.1350 H     1 <1>   0.1500 
 38 H        9.1720     2.2900    -0.3670 H     1 <1>   0.0800 
 39 H        9.1620     0.8870    -1.4350 H     1 <1>   0.0800 
 40 H       11.1930     1.4210     0.7480 H     1 <1>   0.0800 
 41 H       11.5340     1.6310    -2.2560 H     1 <1>   0.0800 
 42 H       12.7980     1.8430    -1.0680 H     1 <1>   0.0800 
 43 H       11.4750     2.9750    -1.1380 H     1 <1>   0.0800 
 44 H       11.1490    -0.7670    -1.3600 H     1 <1>   0.0800 
 45 H       10.8760    -0.9960     0.3500 H     1 <1>   0.0800 
 46 H       12.4430    -0.4890    -0.2180 H     1 <1>   0.0800 
@<TRIPOS>BOND
  1   1   2  1   
  2   1   3  1   
  3   2   4  1   
  4   2   5  2   
  5   3   6  2   
  6   3   7  1   
  7   4   8  am  
  8   4  25  1   
  9   5   6  1   
 10   5   9  1   
 11   6  10  1   
 12   7  26  1   
 13   7  27  1   
 14   7  28  1   
 15   8  11  2   
 16   8  12  1   
 17   9  13  2   
 18   9  14  am  
 19  10  29  1   
 20  10  30  1   
 21  10  31  1   
 22  12  15  ar  
 23  12  16  ar  
 24  14  32  1   
 25  14  33  1   
 26  15  17  ar  
 27  15  34  1   
 28  16  18  ar  
 29  16  35  1   
 30  17  19  ar  
 31  17  36  1   
 32  18  19  ar  
 33  18  37  1   
 34  19  20  1   
 35  20  21  1   
 36  21  22  1   
 37  21  38  1   
 38  21  39  1   
 39  22  23  1   
 40  22  24  1   
 41  22  40  1   
 42  23  41  1   
 43  23  42  1   
 44  23  43  1   
 45  24  44  1   
 46  24  45  1   
 47  24  46  1   
@<TRIPOS>SUBSTRUCTURE
  1 ****  12 GROUP 4 **** **** 0

# MOE 2024.06 (io_trps.svl 2023.06)
