@<TRIPOS>MOLECULE
NONAME
43 44 1 0 0 
SMALL
USER_CHARGES


@<TRIPOS>ATOM
  1 BR       0.5270     0.0570     1.2700 Br    1 <1>  -0.1110 
  2 C        0.2080     1.8100     0.5260 C.ar  1 <1>   0.1110 
  3 C        1.2840     2.5980     0.1380 C.ar  1 <1>   0.0830 
  4 C       -1.1030     2.2280     0.4030 C.ar  1 <1>  -0.1500 
  5 O        2.5410     2.1020     0.2970 O.3   1 <1>  -0.3630 
  6 C        1.0100     3.8560    -0.3930 C.ar  1 <1>  -0.1500 
  7 C       -1.3620     3.4810    -0.1290 C.ar  1 <1>  -0.1430 
  8 C        3.6780     2.8420    -0.0670 C.3   1 <1>   0.1200 
  9 C       -0.3020     4.2870    -0.5210 C.ar  1 <1>  -0.1500 
 10 C       -2.7900     3.9730    -0.2770 C.3   1 <1>  -0.0960 
 11 C        4.9000     1.9780     0.2500 C.3   1 <1>  -0.1600 
 12 C        6.2170     2.6850    -0.1030 C.3   1 <1>  -0.1600 
 13 C        7.4070     1.7790     0.2230 C.3   1 <1>   0.3430 
 14 N        8.6840     2.4110    -0.2050 N.4   1 <1>  -0.9590 
 15 C        9.7970     1.3950    -0.2120 C.3   1 <1>   0.3430 
 16 C        9.0650     3.5870     0.6610 C.3   1 <1>   0.3430 
 17 C       11.1470     2.0230    -0.6200 C.3   1 <1>   0.1100 
 18 C       10.4240     4.1910     0.2460 C.3   1 <1>   0.1100 
 19 N       11.4820     3.1690     0.2390 N.3   1 <1>  -0.9000 
 20 H       -1.9000     1.5800     0.7190 H     1 <1>   0.1500 
 21 H        1.7960     4.5130    -0.7110 H     1 <1>   0.1500 
 22 H        3.6870     3.7540     0.5060 H     1 <1>   0.0800 
 23 H        3.6180     3.0590    -1.1200 H     1 <1>   0.0800 
 24 H       -0.4980     5.2620    -0.9320 H     1 <1>   0.1500 
 25 H       -3.4750     3.1440    -0.3150 H     1 <1>   0.0800 
 26 H       -2.8970     4.5420    -1.1830 H     1 <1>   0.0800 
 27 H       -3.0490     4.5970     0.5590 H     1 <1>   0.0800 
 28 H        4.8200     1.0600    -0.3080 H     1 <1>   0.0800 
 29 H        4.8850     1.7410     1.3010 H     1 <1>   0.0800 
 30 H        6.2780     3.5990     0.4610 H     1 <1>   0.0800 
 31 H        6.2160     2.9190    -1.1540 H     1 <1>   0.0800 
 32 H        7.2780     0.8430    -0.2960 H     1 <1>   0.0800 
 33 H        7.4320     1.5730     1.2810 H     1 <1>   0.0800 
 34 H        8.5800     2.7530    -1.1670 H     1 <1>   0.4500 
 35 H        9.5610     0.5940    -0.8930 H     1 <1>   0.0800 
 36 H        9.9080     0.9720     0.7730 H     1 <1>   0.0800 
 37 H        9.1360     3.2720     1.6890 H     1 <1>   0.0800 
 38 H        8.3090     4.3520     0.6000 H     1 <1>   0.0800 
 39 H       11.1100     2.3340    -1.6500 H     1 <1>   0.0800 
 40 H       11.9230     1.2800    -0.5280 H     1 <1>   0.0800 
 41 H       10.6930     4.9650     0.9450 H     1 <1>   0.0800 
 42 H       10.3420     4.6410    -0.7290 H     1 <1>   0.0800 
 43 H       12.3760     3.5890    -0.0680 H     1 <1>   0.3600 
@<TRIPOS>BOND
  1   1   2  1   
  2   2   3  ar  
  3   2   4  ar  
  4   3   5  1   
  5   3   6  ar  
  6   4   7  ar  
  7   4  20  1   
  8   5   8  1   
  9   6   9  ar  
 10   6  21  1   
 11   7   9  ar  
 12   7  10  1   
 13   8  11  1   
 14   8  22  1   
 15   8  23  1   
 16   9  24  1   
 17  10  25  1   
 18  10  26  1   
 19  10  27  1   
 20  11  12  1   
 21  11  28  1   
 22  11  29  1   
 23  12  13  1   
 24  12  30  1   
 25  12  31  1   
 26  13  14  1   
 27  13  32  1   
 28  13  33  1   
 29  14  15  1   
 30  14  16  1   
 31  14  34  1   
 32  15  17  1   
 33  15  35  1   
 34  15  36  1   
 35  16  18  1   
 36  16  37  1   
 37  16  38  1   
 38  17  19  1   
 39  17  39  1   
 40  17  40  1   
 41  18  19  1   
 42  18  41  1   
 43  18  42  1   
 44  19  43  1   
@<TRIPOS>SUBSTRUCTURE
  1 ****   8 GROUP 4 **** **** 0

# MOE 2024.06 (io_trps.svl 2023.06)
