@<TRIPOS>MOLECULE
NONAME
34 34 1 0 0 
SMALL
USER_CHARGES


@<TRIPOS>ATOM
  1 O       -0.8760     0.3150    -0.1320 O.2   1 <1>  -0.5700 
  2 C       -1.6930    -0.5690    -0.2930 C.2   1 <1>   0.5440 
  3 N       -2.9490    -0.1650    -0.6270 N.am  1 <1>  -0.7300 
  4 C       -1.3180    -1.9620    -0.1270 C.ar  1 <1>   0.0860 
  5 C       -4.2150    -0.9210    -0.5010 C.3   1 <1>   0.1400 
  6 C       -1.8050    -2.9720    -0.9600 C.ar  1 <1>  -0.1500 
  7 C       -0.4290    -2.3440     0.8790 C.ar  1 <1>  -0.1500 
  8 C       -5.2740    -0.0180     0.1070 C.3   1 <1>  -0.2660 
  9 C       -1.4430    -4.2960    -0.7900 C.ar  1 <1>  -0.1500 
 10 C       -0.0590    -3.6640     1.0550 C.ar  1 <1>  -0.1500 
 11 C       -6.5760    -0.7660     0.1350 C.2   1 <1>   0.9060 
 12 C       -0.5630    -4.6540     0.2260 C.ar  1 <1>   0.0820 
 13 O       -6.6610    -1.7640     0.8540 O.co2 1 <1>  -0.9000 
 14 O       -7.4930    -0.3760    -0.5900 O.co2 1 <1>  -0.9000 
 15 O       -0.1520    -5.9200     0.4730 O.3   1 <1>  -0.3630 
 16 C       -0.5530    -7.0360    -0.2890 C.3   1 <1>   0.2000 
 17 C       -0.3380    -8.2730     0.5800 C.3   1 <1>  -0.2400 
 18 C        0.2990    -7.1000    -1.5590 C.3   1 <1>  -0.2400 
 19 H       -3.0700     0.8460    -0.7070 H     1 <1>   0.3700 
 20 H       -4.0810    -1.7870     0.1270 H     1 <1>   0.0800 
 21 H       -4.5390    -1.2470    -1.4750 H     1 <1>   0.0800 
 22 H       -2.4800    -2.7080    -1.7550 H     1 <1>   0.1500 
 23 H       -0.0290    -1.5850     1.5280 H     1 <1>   0.1500 
 24 H       -5.4070     0.8680    -0.4820 H     1 <1>   0.0800 
 25 H       -5.0170     0.2420     1.1150 H     1 <1>   0.0800 
 26 H       -1.8550    -5.0290    -1.4560 H     1 <1>   0.1500 
 27 H        0.6250    -3.9380     1.8380 H     1 <1>   0.1500 
 28 H       -1.6010    -6.9450    -0.5180 H     1 <1>   0.0800 
 29 H        0.6980    -8.3640     0.8530 H     1 <1>   0.0800 
 30 H       -0.6330    -9.1570     0.0450 H     1 <1>   0.0800 
 31 H       -0.9350    -8.1990     1.4720 H     1 <1>   0.0800 
 32 H        1.3410    -7.1800    -1.3030 H     1 <1>   0.0800 
 33 H        0.1520    -6.2220    -2.1590 H     1 <1>   0.0800 
 34 H        0.0230    -7.9590    -2.1430 H     1 <1>   0.0800 
@<TRIPOS>BOND
  1   1   2  2   
  2   2   3  am  
  3   2   4  1   
  4   3   5  1   
  5   3  19  1   
  6   4   6  ar  
  7   4   7  ar  
  8   5   8  1   
  9   5  20  1   
 10   5  21  1   
 11   6   9  ar  
 12   6  22  1   
 13   7  10  ar  
 14   7  23  1   
 15   8  11  1   
 16   8  24  1   
 17   8  25  1   
 18   9  12  ar  
 19   9  26  1   
 20  10  12  ar  
 21  10  27  1   
 22  11  13  ar  
 23  11  14  ar  
 24  12  15  1   
 25  15  16  1   
 26  16  17  1   
 27  16  18  1   
 28  16  28  1   
 29  17  29  1   
 30  17  30  1   
 31  17  31  1   
 32  18  32  1   
 33  18  33  1   
 34  18  34  1   
@<TRIPOS>SUBSTRUCTURE
  1 ****   6 GROUP 4 **** **** 0

# MOE 2024.06 (io_trps.svl 2023.06)
