@<TRIPOS>MOLECULE
NONAME
44 45 1 0 0 
SMALL
USER_CHARGES


@<TRIPOS>ATOM
  1 O        0.5500     0.2830    -1.1730 O.2   1 <1>  -0.5700 
  2 C        1.3030    -0.5620    -0.7790 C.2   1 <1>   0.4480 
  3 C        2.5160    -0.2530     0.0890 C.3   1 <1>   0.0610 
  4 C        1.1270    -2.0400    -1.1080 C.3   1 <1>   0.0610 
  5 C        3.7670    -0.7200    -0.6850 C.3   1 <1>   0.1400 
  6 C        2.3370    -1.0170     1.4190 C.3   1 <1>   0.1400 
  7 C        2.6180     1.2730     0.3740 C.3   1 <1>  -0.1600 
  8 C        2.3860    -2.4920    -1.8790 C.3   1 <1>   0.1400 
  9 C        0.9510    -2.7900     0.2310 C.3   1 <1>   0.1400 
 10 C       -0.1320    -2.2620    -1.9960 C.3   1 <1>  -0.1600 
 11 N        3.6710    -2.1230    -1.2050 N.am  1 <1>  -0.6600 
 12 N        2.0040    -2.4690     1.2450 N.am  1 <1>  -0.6600 
 13 C        3.8070     1.7150     1.2450 C.3   1 <1>  -0.2400 
 14 C       -0.4260    -3.7180    -2.4010 C.3   1 <1>  -0.2400 
 15 C        4.7660    -2.9490    -1.1260 C.2   1 <1>   0.5690 
 16 C        2.5950    -3.3990     2.0640 C.2   1 <1>   0.5690 
 17 O        5.8240    -2.5730    -0.6870 O.2   1 <1>  -0.5700 
 18 C        4.6990    -4.3770    -1.6170 C.3   1 <1>  -0.1790 
 19 O        3.3480    -3.0870     2.9540 O.2   1 <1>  -0.5700 
 20 C        2.3050    -4.8740     1.9030 C.3   1 <1>  -0.1790 
 21 H        4.6240    -0.6340    -0.0390 H     1 <1>   0.0800 
 22 H        3.9290    -0.0660    -1.5240 H     1 <1>   0.0800 
 23 H        3.2400    -0.9210     1.9950 H     1 <1>   0.0800 
 24 H        1.5430    -0.5610     1.9850 H     1 <1>   0.0800 
 25 H        1.7100     1.5990     0.8540 H     1 <1>   0.0800 
 26 H        2.6750     1.7990    -0.5640 H     1 <1>   0.0800 
 27 H        2.3820    -2.0280    -2.8510 H     1 <1>   0.0800 
 28 H        2.3370    -3.5540    -2.0280 H     1 <1>   0.0800 
 29 H        0.9340    -3.8450     0.0360 H     1 <1>   0.0800 
 30 H       -0.0030    -2.5230     0.6550 H     1 <1>   0.0800 
 31 H       -0.0310    -1.6770    -2.8950 H     1 <1>   0.0800 
 32 H       -0.9950    -1.8770    -1.4770 H     1 <1>   0.0800 
 33 H        3.7690     1.2640     2.2210 H     1 <1>   0.0800 
 34 H        3.7780     2.7830     1.3760 H     1 <1>   0.0800 
 35 H        4.7470     1.4670     0.7840 H     1 <1>   0.0800 
 36 H        0.3770    -4.1360    -2.9810 H     1 <1>   0.0800 
 37 H       -1.3140    -3.7430    -3.0090 H     1 <1>   0.0800 
 38 H       -0.6020    -4.3390    -1.5410 H     1 <1>   0.0800 
 39 H        4.4850    -4.3930    -2.6680 H     1 <1>   0.0800 
 40 H        3.9460    -4.9160    -1.0770 H     1 <1>   0.0800 
 41 H        5.6470    -4.8570    -1.4530 H     1 <1>   0.0800 
 42 H        1.2610    -5.0610     2.0700 H     1 <1>   0.0800 
 43 H        2.8730    -5.4330     2.6240 H     1 <1>   0.0800 
 44 H        2.5870    -5.1980     0.9210 H     1 <1>   0.0800 
@<TRIPOS>BOND
  1   1   2  2   
  2   2   3  1   
  3   2   4  1   
  4   3   5  1   
  5   3   6  1   
  6   3   7  1   
  7   4   8  1   
  8   4   9  1   
  9   4  10  1   
 10   5  11  1   
 11   5  21  1   
 12   5  22  1   
 13   6  12  1   
 14   6  23  1   
 15   6  24  1   
 16   7  13  1   
 17   7  25  1   
 18   7  26  1   
 19   8  11  1   
 20   8  27  1   
 21   8  28  1   
 22   9  12  1   
 23   9  29  1   
 24   9  30  1   
 25  10  14  1   
 26  10  31  1   
 27  10  32  1   
 28  11  15  am  
 29  12  16  am  
 30  13  33  1   
 31  13  34  1   
 32  13  35  1   
 33  14  36  1   
 34  14  37  1   
 35  14  38  1   
 36  15  17  2   
 37  15  18  1   
 38  16  19  2   
 39  16  20  1   
 40  18  39  1   
 41  18  40  1   
 42  18  41  1   
 43  20  42  1   
 44  20  43  1   
 45  20  44  1   
@<TRIPOS>SUBSTRUCTURE
  1 ****  11 GROUP 4 **** **** 0

# MOE 2024.06 (io_trps.svl 2023.06)
