@<TRIPOS>MOLECULE
NONAME
31 31 1 0 0 
SMALL
USER_CHARGES


@<TRIPOS>ATOM
  1 O        3.3250     3.5930    -1.4980 O.2   1 <1>  -0.5700 
  2 C        3.4820     4.2820    -0.5270 C.2   1 <1>   0.6590 
  3 O        2.5230     4.4410     0.3850 O.3   1 <1>  -0.2330 
  4 C        4.7760     5.0110    -0.2680 C.3   1 <1>  -0.1790 
  5 C        1.2950     3.8550     0.2580 C.ar  1 <1>   0.0820 
  6 C        0.1830     4.7030     0.0980 C.ar  1 <1>   0.1170 
  7 C        1.1380     2.4770     0.2740 C.ar  1 <1>   0.2170 
  8 N        0.3400     6.0780     0.1400 N.am  1 <1>  -0.5470 
  9 C       -1.0540     4.0840    -0.1100 C.ar  1 <1>  -0.1500 
 10 N       -0.0900     1.9450     0.0730 N.ar  1 <1>  -0.1790 
 11 C        2.2750     1.4880     0.5120 C.3   1 <1>  -0.0970 
 12 C       -0.5720     7.0980     0.2570 C.2   1 <1>   0.5690 
 13 C       -1.1800     2.7170    -0.1220 C.ar  1 <1>   0.2180 
 14 O       -1.7520     6.9230     0.3980 O.2   1 <1>  -0.5700 
 15 C       -0.0410     8.5090     0.2240 C.3   1 <1>  -0.1790 
 16 C       -2.5210     2.0400    -0.3490 C.3   1 <1>  -0.0970 
 17 H        4.6010     6.0700    -0.2440 H     1 <1>   0.0800 
 18 H        5.4790     4.7920    -1.0520 H     1 <1>   0.0800 
 19 H        5.1920     4.6970     0.6710 H     1 <1>   0.0800 
 20 H        1.3040     6.4090     0.1340 H     1 <1>   0.3700 
 21 H       -1.9300     4.6860    -0.2700 H     1 <1>   0.1500 
 22 H       -0.1960     0.9260     0.0640 H     1 <1>   0.4570 
 23 H        1.9650     0.6990     1.1740 H     1 <1>   0.0800 
 24 H        2.5900     1.0570    -0.4230 H     1 <1>   0.0800 
 25 H        3.1240     1.9700     0.9620 H     1 <1>   0.0800 
 26 H        0.6140     8.6740     1.0580 H     1 <1>   0.0800 
 27 H       -0.8590     9.2040     0.2850 H     1 <1>   0.0800 
 28 H        0.4880     8.6810    -0.6940 H     1 <1>   0.0800 
 29 H       -3.2970     2.7740    -0.4850 H     1 <1>   0.0800 
 30 H       -2.7840     1.4310     0.4980 H     1 <1>   0.0800 
 31 H       -2.4880     1.4240    -1.2300 H     1 <1>   0.0800 
@<TRIPOS>BOND
  1   1   2  2   
  2   2   3  1   
  3   2   4  1   
  4   3   5  1   
  5   4  17  1   
  6   4  18  1   
  7   4  19  1   
  8   5   6  ar  
  9   5   7  ar  
 10   6   8  1   
 11   6   9  ar  
 12   7  10  ar  
 13   7  11  1   
 14   8  12  am  
 15   8  20  1   
 16   9  13  ar  
 17   9  21  1   
 18  10  13  ar  
 19  10  22  1   
 20  11  23  1   
 21  11  24  1   
 22  11  25  1   
 23  12  14  2   
 24  12  15  1   
 25  13  16  1   
 26  15  26  1   
 27  15  27  1   
 28  15  28  1   
 29  16  29  1   
 30  16  30  1   
 31  16  31  1   
@<TRIPOS>SUBSTRUCTURE
  1 ****   6 GROUP 4 **** **** 0

# MOE 2024.06 (io_trps.svl 2023.06)
