@<TRIPOS>MOLECULE
NONAME
37 38 1 0 0 
SMALL
USER_CHARGES


@<TRIPOS>ATOM
  1 CL      -0.1630     1.0640     1.5390 Cl    1 <1>  -0.1770 
  2 C       -1.8060     1.2890     0.9710 C.ar  1 <1>   0.1770 
  3 C       -2.2980     0.5260    -0.0810 C.ar  1 <1>   0.0830 
  4 C       -2.5830     2.2420     1.5990 C.ar  1 <1>  -0.1500 
  5 O       -1.4700    -0.3950    -0.6510 O.3   1 <1>  -0.3630 
  6 C       -3.6070     0.7380    -0.5010 C.ar  1 <1>  -0.1500 
  7 C       -3.8910     2.4460     1.1740 C.ar  1 <1>   0.0830 
  8 C       -1.9170    -1.2340    -1.6950 C.3   1 <1>   0.0400 
  9 C       -4.4140     1.6900     0.1170 C.ar  1 <1>   0.1170 
 10 O       -4.7180     3.3740     1.7480 O.3   1 <1>  -0.3630 
 11 N       -5.7450     1.9380    -0.2730 N.am  1 <1>  -0.5470 
 12 C       -4.2740     4.1820     2.8170 C.3   1 <1>   0.0400 
 13 C       -6.5930     1.3600    -1.1780 C.2   1 <1>   0.5690 
 14 O       -6.2910     0.4180    -1.8690 O.2   1 <1>  -0.5700 
 15 C       -7.9900     1.9380    -1.3390 C.3   1 <1>   0.1310 
 16 S       -8.5540     2.8140     0.2020 S.3   1 <1>  -0.2860 
 17 C      -10.1620     3.4520    -0.2780 C.2   1 <1>   0.2420 
 18 N      -10.6660     3.3110    -1.4520 N.2   1 <1>  -0.3380 
 19 N      -10.9460     4.1240     0.5620 N.pl3 1 <1>   0.0480 
 20 N      -11.8570     3.9190    -1.4100 N.2   1 <1>  -0.3380 
 21 C      -12.0010     4.3900    -0.2160 C.2   1 <1>   0.0360 
 22 C      -10.7140     4.4770     1.9750 C.3   1 <1>   0.0160 
 23 H       -2.1450     2.7980     2.4040 H     1 <1>   0.1500 
 24 H       -4.0090     0.1670    -1.3120 H     1 <1>   0.1500 
 25 H       -1.1070    -1.8850    -1.9690 H     1 <1>   0.0800 
 26 H       -2.1980    -0.6270    -2.5370 H     1 <1>   0.0800 
 27 H       -2.7510    -1.8160    -1.3440 H     1 <1>   0.0800 
 28 H       -6.1660     2.6860     0.2860 H     1 <1>   0.3700 
 29 H       -5.0820     4.8310     3.1050 H     1 <1>   0.0800 
 30 H       -3.4350     4.7700     2.4880 H     1 <1>   0.0800 
 31 H       -4.0020     3.5510     3.6450 H     1 <1>   0.0800 
 32 H       -8.7000     1.1550    -1.5360 H     1 <1>   0.0800 
 33 H       -8.0090     2.6530    -2.1400 H     1 <1>   0.0800 
 34 H      -12.8620     4.9330     0.1270 H     1 <1>   0.1500 
 35 H      -10.5570     3.5780     2.5440 H     1 <1>   0.0800 
 36 H      -11.5670     5.0030     2.3630 H     1 <1>   0.0800 
 37 H       -9.8430     5.1020     2.0460 H     1 <1>   0.0800 
@<TRIPOS>BOND
  1   1   2  1   
  2   2   3  ar  
  3   2   4  ar  
  4   3   5  1   
  5   3   6  ar  
  6   4   7  ar  
  7   4  23  1   
  8   5   8  1   
  9   6   9  ar  
 10   6  24  1   
 11   7   9  ar  
 12   7  10  1   
 13   8  25  1   
 14   8  26  1   
 15   8  27  1   
 16   9  11  1   
 17  10  12  1   
 18  11  13  am  
 19  11  28  1   
 20  12  29  1   
 21  12  30  1   
 22  12  31  1   
 23  13  14  2   
 24  13  15  1   
 25  15  16  1   
 26  15  32  1   
 27  15  33  1   
 28  16  17  1   
 29  17  18  2   
 30  17  19  1   
 31  18  20  1   
 32  19  21  1   
 33  19  22  1   
 34  20  21  2   
 35  21  34  1   
 36  22  35  1   
 37  22  36  1   
 38  22  37  1   
@<TRIPOS>SUBSTRUCTURE
  1 ****  11 GROUP 4 **** **** 0

# MOE 2024.06 (io_trps.svl 2023.06)
