@<TRIPOS>MOLECULE
NONAME
29 30 1 0 0 
SMALL
USER_CHARGES


@<TRIPOS>ATOM
  1 S       -0.9540    -2.0710     0.4680 S.3   1 <1>  -0.3610 
  2 C       -2.6780    -2.1610     0.2110 C.cat 1 <1>   0.8400 
  3 C       -0.2000    -3.5380    -0.3630 C.3   1 <1>   0.2140 
  4 N       -3.3910    -1.2060     0.7430 N.pl3 1 <1>  -0.7940 
  5 N       -3.2100    -3.1360    -0.4860 N.pl3 1 <1>  -0.7940 
  6 C        1.2970    -3.4810    -0.1330 C.ar  1 <1>  -0.1430 
  7 C       -4.8600    -1.1070     0.6340 C.3   1 <1>   0.3290 
  8 C       -4.6650    -3.2460    -0.7410 C.3   1 <1>   0.3290 
  9 C        1.8580    -4.0940     0.9770 C.ar  1 <1>  -0.1500 
 10 C        2.1180    -2.8160    -1.0320 C.ar  1 <1>  -0.1500 
 11 C       -5.4390    -2.4990     0.3530 C.3   1 <1>  -0.1600 
 12 C        3.2260    -4.0470     1.1840 C.ar  1 <1>  -0.1500 
 13 C        3.4860    -2.7690    -0.8240 C.ar  1 <1>  -0.1500 
 14 C        4.0410    -3.3850     0.2830 C.ar  1 <1>  -0.1500 
 15 H       -0.4330    -3.4820    -1.4120 H     1 <1>   0.0800 
 16 H       -0.6260    -4.4230     0.0750 H     1 <1>   0.0800 
 17 H       -2.9100    -0.4620     1.2570 H     1 <1>   0.4500 
 18 H       -2.6330    -3.8590    -0.9140 H     1 <1>   0.4500 
 19 H       -5.1100    -0.4280    -0.1660 H     1 <1>   0.0800 
 20 H       -5.2700    -0.7190     1.5520 H     1 <1>   0.0800 
 21 H       -4.9590    -4.2830    -0.7480 H     1 <1>   0.0800 
 22 H       -4.8880    -2.8230    -1.7080 H     1 <1>   0.0800 
 23 H        1.2390    -4.6100     1.6900 H     1 <1>   0.1500 
 24 H        1.7030    -2.3280    -1.8960 H     1 <1>   0.1500 
 25 H       -6.4730    -2.4090     0.0690 H     1 <1>   0.0800 
 26 H       -5.4100    -3.0780     1.2600 H     1 <1>   0.0800 
 27 H        3.6570    -4.5240     2.0470 H     1 <1>   0.1500 
 28 H        4.1200    -2.2510    -1.5240 H     1 <1>   0.1500 
 29 H        5.1040    -3.3480     0.4450 H     1 <1>   0.1500 
@<TRIPOS>BOND
  1   1   2  1   
  2   1   3  1   
  3   2   4  ar  
  4   2   5  ar  
  5   3   6  1   
  6   3  15  1   
  7   3  16  1   
  8   4   7  1   
  9   4  17  1   
 10   5   8  1   
 11   5  18  1   
 12   6   9  ar  
 13   6  10  ar  
 14   7  11  1   
 15   7  19  1   
 16   7  20  1   
 17   8  11  1   
 18   8  21  1   
 19   8  22  1   
 20   9  12  ar  
 21   9  23  1   
 22  10  13  ar  
 23  10  24  1   
 24  11  25  1   
 25  11  26  1   
 26  12  14  ar  
 27  12  27  1   
 28  13  14  ar  
 29  13  28  1   
 30  14  29  1   
@<TRIPOS>SUBSTRUCTURE
  1 ****   1 GROUP 4 **** **** 0

# MOE 2024.06 (io_trps.svl 2023.06)
