@<TRIPOS>MOLECULE
NONAME
43 44 1 0 0 
SMALL
USER_CHARGES


@<TRIPOS>ATOM
  1 S       -1.8910    -0.3320     1.4620 S.3   1 <1>  -0.3320 
  2 C       -2.3340     0.7720     0.1170 C.ar  1 <1>   0.1020 
  3 C       -0.0500    -0.1910     1.5480 C.3   1 <1>   0.0700 
  4 C       -2.6210     0.2660    -1.1510 C.ar  1 <1>   0.0860 
  5 C       -2.3730     2.1270     0.3930 C.ar  1 <1>  -0.1500 
  6 C        0.5450    -0.7980     0.2810 C.3   1 <1>   0.1200 
  7 C       -2.5700    -1.1470    -1.4510 C.2   1 <1>   0.5440 
  8 C       -2.9500     1.1880    -2.1440 C.ar  1 <1>  -0.1500 
  9 C       -2.7070     3.0180    -0.6100 C.ar  1 <1>  -0.1500 
 10 O        1.9330    -0.7580     0.3850 O.3   1 <1>  -0.5600 
 11 O       -1.5640    -1.5960    -1.9720 O.2   1 <1>  -0.5700 
 12 N       -3.6340    -1.9870    -1.1940 N.am  1 <1>  -0.6600 
 13 C       -2.9950     2.5460    -1.8800 C.ar  1 <1>  -0.1500 
 14 C        2.5790    -1.2870    -0.7280 C.3   1 <1>   0.0400 
 15 C       -4.9230    -1.5310    -0.5980 C.3   1 <1>   0.1400 
 16 C       -3.5530    -3.4560    -1.4200 C.3   1 <1>   0.1400 
 17 C       -5.1780    -2.2520     0.7350 C.3   1 <1>  -0.0800 
 18 C       -3.7830    -4.1900    -0.0950 C.3   1 <1>  -0.1600 
 19 C       -5.1110    -3.7780     0.5580 C.3   1 <1>  -0.1600 
 20 C       -6.5340    -1.8420     1.3240 C.3   1 <1>  -0.2400 
 21 H        0.2670    -0.7330     2.4210 H     1 <1>   0.0800 
 22 H        0.1930     0.8520     1.6360 H     1 <1>   0.0800 
 23 H       -2.1470     2.4780     1.3840 H     1 <1>   0.1500 
 24 H        0.2490    -0.2300    -0.5850 H     1 <1>   0.0800 
 25 H        0.2320    -1.8220     0.1720 H     1 <1>   0.0800 
 26 H       -3.1670     0.8250    -3.1340 H     1 <1>   0.1500 
 27 H       -2.7410     4.0750    -0.4050 H     1 <1>   0.1500 
 28 H       -3.2520     3.2380    -2.6630 H     1 <1>   0.1500 
 29 H        3.6400    -1.2170    -0.5660 H     1 <1>   0.0800 
 30 H        2.3050    -0.7200    -1.6010 H     1 <1>   0.0800 
 31 H        2.2960    -2.3190    -0.8450 H     1 <1>   0.0800 
 32 H       -5.7180    -1.7540    -1.2880 H     1 <1>   0.0800 
 33 H       -4.9170    -0.4680    -0.4330 H     1 <1>   0.0800 
 34 H       -2.5920    -3.7310    -1.8200 H     1 <1>   0.0800 
 35 H       -4.3050    -3.7420    -2.1340 H     1 <1>   0.0800 
 36 H       -4.4090    -1.9520     1.4270 H     1 <1>   0.0800 
 37 H       -2.9660    -3.9650     0.5690 H     1 <1>   0.0800 
 38 H       -3.7790    -5.2510    -0.2710 H     1 <1>   0.0800 
 39 H       -5.9270    -4.1070    -0.0620 H     1 <1>   0.0800 
 40 H       -5.2030    -4.2610     1.5160 H     1 <1>   0.0800 
 41 H       -7.3370    -2.1170     0.6630 H     1 <1>   0.0800 
 42 H       -6.5640    -0.7780     1.4800 H     1 <1>   0.0800 
 43 H       -6.6880    -2.3260     2.2720 H     1 <1>   0.0800 
@<TRIPOS>BOND
  1   1   2  1   
  2   1   3  1   
  3   2   4  ar  
  4   2   5  ar  
  5   3   6  1   
  6   3  21  1   
  7   3  22  1   
  8   4   7  1   
  9   4   8  ar  
 10   5   9  ar  
 11   5  23  1   
 12   6  10  1   
 13   6  24  1   
 14   6  25  1   
 15   7  11  2   
 16   7  12  am  
 17   8  13  ar  
 18   8  26  1   
 19   9  13  ar  
 20   9  27  1   
 21  10  14  1   
 22  12  15  1   
 23  12  16  1   
 24  13  28  1   
 25  14  29  1   
 26  14  30  1   
 27  14  31  1   
 28  15  17  1   
 29  15  32  1   
 30  15  33  1   
 31  16  18  1   
 32  16  34  1   
 33  16  35  1   
 34  17  19  1   
 35  17  20  1   
 36  17  36  1   
 37  18  19  1   
 38  18  37  1   
 39  18  38  1   
 40  19  39  1   
 41  19  40  1   
 42  20  41  1   
 43  20  42  1   
 44  20  43  1   
@<TRIPOS>SUBSTRUCTURE
  1 ****   7 GROUP 4 **** **** 0

# MOE 2024.06 (io_trps.svl 2023.06)
