@<TRIPOS>MOLECULE
NONAME
47 48 1 0 0 
SMALL
USER_CHARGES


@<TRIPOS>ATOM
  1 O       -1.9720     2.8080     0.0070 O.3   1 <1>  -0.3630 
  2 C       -1.0260     3.5490     0.6270 C.ar  1 <1>   0.0830 
  3 C       -3.2650     3.3180    -0.2460 C.3   1 <1>   0.2640 
  4 C        0.1710     2.9090     0.8980 C.ar  1 <1>  -0.1500 
  5 C       -1.1900     4.8820     0.9910 C.ar  1 <1>  -0.1500 
  6 C       -4.0920     2.2320    -0.9120 C.ar  1 <1>  -0.1440 
  7 C        1.2100     3.5830     1.5210 C.ar  1 <1>  -0.1440 
  8 C       -0.1580     5.5540     1.6210 C.ar  1 <1>  -0.1500 
  9 C       -4.6070     1.1880    -0.1570 C.ar  1 <1>  -0.1500 
 10 C       -4.3420     2.2710    -2.2760 C.ar  1 <1>  -0.1500 
 11 C        1.0390     4.9100     1.8860 C.ar  1 <1>  -0.1500 
 12 C        2.5160     2.8740     1.7810 C.3   1 <1>   0.4860 
 13 C       -5.3670     0.1990    -0.7560 C.ar  1 <1>  -0.1500 
 14 C       -5.1020     1.2820    -2.8760 C.ar  1 <1>  -0.1500 
 15 N        3.2880     2.9760     0.5170 N.4   1 <1>  -0.9060 
 16 C       -5.6160     0.2460    -2.1170 C.ar  1 <1>  -0.1500 
 17 C        4.6410     2.3190     0.5790 C.3   1 <1>   0.3430 
 18 C        5.4600     2.4380    -0.7420 C.3   1 <1>   0.3430 
 19 N        6.8490     1.8400    -0.6830 N.4   1 <1>  -0.9590 
 20 C        7.6100     2.1780    -1.9350 C.3   1 <1>   0.2630 
 21 C        6.8600     0.3460    -0.5070 C.3   1 <1>   0.2630 
 22 H       -3.1740     4.1760    -0.8890 H     1 <1>   0.0800 
 23 H       -3.7080     3.6050     0.6910 H     1 <1>   0.0800 
 24 H        0.2530     1.8740     0.6130 H     1 <1>   0.1500 
 25 H       -2.1060     5.4090     0.7970 H     1 <1>   0.1500 
 26 H       -0.2910     6.5850     1.9070 H     1 <1>   0.1500 
 27 H       -4.4140     1.1420     0.9000 H     1 <1>   0.1500 
 28 H       -3.9450     3.0690    -2.8780 H     1 <1>   0.1500 
 29 H        1.8190     5.4630     2.3840 H     1 <1>   0.1500 
 30 H        2.3290     1.8440     2.0390 H     1 <1>   0.0800 
 31 H        3.0390     3.3520     2.5950 H     1 <1>   0.0800 
 32 H       -5.7630    -0.6080    -0.1650 H     1 <1>   0.1500 
 33 H       -5.2930     1.3180    -3.9350 H     1 <1>   0.1500 
 34 H        3.3350     3.9840     0.3060 H     1 <1>   0.4500 
 35 H        2.6750     2.5760    -0.2100 H     1 <1>   0.4500 
 36 H       -6.2060    -0.5240    -2.5830 H     1 <1>   0.1500 
 37 H        4.5100     1.2750     0.8120 H     1 <1>   0.0800 
 38 H        5.2090     2.7720     1.3750 H     1 <1>   0.0800 
 39 H        5.5520     3.4830    -0.9890 H     1 <1>   0.0800 
 40 H        4.9120     1.9580    -1.5370 H     1 <1>   0.0800 
 41 H        7.3890     2.2570     0.0960 H     1 <1>   0.4500 
 42 H        7.1250     1.7560    -2.8010 H     1 <1>   0.0800 
 43 H        8.6130     1.7840    -1.8820 H     1 <1>   0.0800 
 44 H        7.6750     3.2470    -2.0640 H     1 <1>   0.0800 
 45 H        6.3390    -0.1350    -1.3200 H     1 <1>   0.0800 
 46 H        6.3910     0.0630     0.4210 H     1 <1>   0.0800 
 47 H        7.8750    -0.0200    -0.4940 H     1 <1>   0.0800 
@<TRIPOS>BOND
  1   1   2  1   
  2   1   3  1   
  3   2   4  ar  
  4   2   5  ar  
  5   3   6  1   
  6   3  22  1   
  7   3  23  1   
  8   4   7  ar  
  9   4  24  1   
 10   5   8  ar  
 11   5  25  1   
 12   6   9  ar  
 13   6  10  ar  
 14   7  11  ar  
 15   7  12  1   
 16   8  11  ar  
 17   8  26  1   
 18   9  13  ar  
 19   9  27  1   
 20  10  14  ar  
 21  10  28  1   
 22  11  29  1   
 23  12  15  1   
 24  12  30  1   
 25  12  31  1   
 26  13  16  ar  
 27  13  32  1   
 28  14  16  ar  
 29  14  33  1   
 30  15  17  1   
 31  15  34  1   
 32  15  35  1   
 33  16  36  1   
 34  17  18  1   
 35  17  37  1   
 36  17  38  1   
 37  18  19  1   
 38  18  39  1   
 39  18  40  1   
 40  19  20  1   
 41  19  21  1   
 42  19  41  1   
 43  20  42  1   
 44  20  43  1   
 45  20  44  1   
 46  21  45  1   
 47  21  46  1   
 48  21  47  1   
@<TRIPOS>SUBSTRUCTURE
  1 ****   4 GROUP 4 **** **** 0

# MOE 2024.06 (io_trps.svl 2023.06)
