@<TRIPOS>MOLECULE
NONAME
38 41 1 0 0 
SMALL
USER_CHARGES


@<TRIPOS>ATOM
  1 S       -0.2140    -0.1410     0.3870 S.3   1 <1>  -0.3320 
  2 C       -1.9350     0.2600     0.1140 C.ar  1 <1>   0.7220 
  3 C        0.7410     1.3620    -0.1500 C.3   1 <1>   0.2110 
  4 N       -2.1910     1.4860    -0.4040 N.ar  1 <1>  -0.3100 
  5 N       -2.7910    -0.6720     0.4460 N.ar  1 <1>  -0.5670 
  6 C        2.1590     0.9940    -0.5930 C.2   1 <1>   0.4480 
  7 C        0.7480     2.3480     1.0310 C.3   1 <1>  -0.1600 
  8 N       -3.4200     1.8520    -0.6280 N.ar  1 <1>  -0.2560 
  9 C       -4.0460    -0.2840     0.2090 C.ar  1 <1>   0.1050 
 10 O        2.5370    -0.1230    -0.7870 O.2   1 <1>  -0.5700 
 11 C        3.0930     2.1740    -0.8030 C.3   1 <1>  -0.0990 
 12 C        1.6390     3.5660     0.7440 C.3   1 <1>  -0.1600 
 13 C       -4.3630     0.9550    -0.3180 C.ar  1 <1>   0.2560 
 14 N       -5.2000    -0.9920     0.4280 N.pl3 1 <1>   0.0480 
 15 C        3.0710     3.1380     0.3930 C.3   1 <1>  -0.1600 
 16 C       -5.7780     1.0140    -0.4300 C.ar  1 <1>   0.0000 
 17 C       -6.2680    -0.2030     0.0390 C.ar  1 <1>  -0.1520 
 18 C       -5.2900    -2.3580     0.9760 C.3   1 <1>   0.0160 
 19 C       -6.6630     1.9910    -0.8850 C.ar  1 <1>  -0.1500 
 20 C       -7.6400    -0.4560     0.0570 C.ar  1 <1>  -0.1500 
 21 C       -8.0180     1.7390    -0.8660 C.ar  1 <1>  -0.1500 
 22 C       -8.5050     0.5170    -0.3950 C.ar  1 <1>  -0.1500 
 23 H        0.2290     1.7840    -0.9940 H     1 <1>   0.0800 
 24 H        1.1180     1.8410     1.9070 H     1 <1>   0.0800 
 25 H       -0.2550     2.6780     1.2370 H     1 <1>   0.0800 
 26 H        2.7920     2.6940    -1.6940 H     1 <1>   0.0800 
 27 H        4.0930     1.8080    -0.9560 H     1 <1>   0.0800 
 28 H        1.6580     4.2060     1.6100 H     1 <1>   0.0800 
 29 H        1.2210     4.1340    -0.0710 H     1 <1>   0.0800 
 30 H        3.6650     4.0070     0.1680 H     1 <1>   0.0800 
 31 H        3.5140     2.6510     1.2460 H     1 <1>   0.0800 
 32 H       -4.3050    -2.7260     1.2010 H     1 <1>   0.0800 
 33 H       -5.7540    -3.0010     0.2510 H     1 <1>   0.0800 
 34 H       -5.8780    -2.3410     1.8750 H     1 <1>   0.0800 
 35 H       -6.2740     2.9280    -1.2450 H     1 <1>   0.1500 
 36 H       -8.0160    -1.3960     0.4190 H     1 <1>   0.1500 
 37 H       -8.7120     2.4850    -1.2140 H     1 <1>   0.1500 
 38 H       -9.5670     0.3430    -0.3900 H     1 <1>   0.1500 
@<TRIPOS>BOND
  1   1   2  1   
  2   1   3  1   
  3   2   4  ar  
  4   2   5  ar  
  5   3   6  1   
  6   3   7  1   
  7   3  23  1   
  8   4   8  ar  
  9   5   9  ar  
 10   6  10  2   
 11   6  11  1   
 12   7  12  1   
 13   7  24  1   
 14   7  25  1   
 15   8  13  ar  
 16   9  13  ar  
 17   9  14  1   
 18  11  15  1   
 19  11  26  1   
 20  11  27  1   
 21  12  15  1   
 22  12  28  1   
 23  12  29  1   
 24  13  16  1   
 25  14  17  1   
 26  14  18  1   
 27  15  30  1   
 28  15  31  1   
 29  16  17  ar  
 30  16  19  ar  
 31  17  20  ar  
 32  18  32  1   
 33  18  33  1   
 34  18  34  1   
 35  19  21  ar  
 36  19  35  1   
 37  20  22  ar  
 38  20  36  1   
 39  21  22  ar  
 40  21  37  1   
 41  22  38  1   
@<TRIPOS>SUBSTRUCTURE
  1 ****   4 GROUP 4 **** **** 0

# MOE 2024.06 (io_trps.svl 2023.06)
