@<TRIPOS>MOLECULE
NONAME
36 37 1 0 0 
SMALL
USER_CHARGES


@<TRIPOS>ATOM
  1 S        1.3500    -0.1500    -2.4630 S.3   1 <1>  -0.0800 
  2 C        2.0080     0.0250    -0.8770 C.2   1 <1>   0.4340 
  3 C        0.2910     1.1590    -2.0390 C.2   1 <1>   0.4620 
  4 S        3.3310    -1.0870    -0.4200 S.3   1 <1>  -0.2860 
  5 N        1.4800     0.9440    -0.1760 N.2   1 <1>  -0.3380 
  6 N        0.4840     1.6040    -0.8470 N.2   1 <1>  -0.3380 
  7 N       -0.6190     1.5910    -2.9570 N.pl3 1 <1>  -0.8840 
  8 C        3.6670    -0.6200     1.3450 C.3   1 <1>   0.1310 
  9 C        4.8550    -1.3970     1.8940 C.2   1 <1>   0.5690 
 10 O        4.6520    -2.3020     2.6630 O.2   1 <1>  -0.5700 
 11 N        6.1320    -1.0810     1.5680 N.am  1 <1>  -0.7300 
 12 C        6.6280    -0.0730     0.6090 C.3   1 <1>   0.2200 
 13 C        7.6440    -0.7160    -0.3580 C.3   1 <1>  -0.0800 
 14 C        7.2570     1.0750     1.4050 C.3   1 <1>  -0.1600 
 15 C        8.2500     0.3530    -1.2870 C.3   1 <1>  -0.1600 
 16 C        7.0130    -1.8340    -1.2050 C.3   1 <1>  -0.2400 
 17 C        7.8600     2.1340     0.4730 C.3   1 <1>  -0.1600 
 18 C        8.8750     1.5060    -0.4900 C.3   1 <1>  -0.1600 
 19 H       -1.2710     2.3430    -2.7220 H     1 <1>   0.4000 
 20 H       -0.7250     1.1560    -3.8750 H     1 <1>   0.4000 
 21 H        2.7790    -0.8490     1.9060 H     1 <1>   0.0800 
 22 H        3.8530     0.4370     1.3740 H     1 <1>   0.0800 
 23 H        6.8520    -1.6660     1.9940 H     1 <1>   0.3700 
 24 H        5.8080     0.3180     0.0310 H     1 <1>   0.0800 
 25 H        8.4460    -1.1390     0.2240 H     1 <1>   0.0800 
 26 H        8.0330     0.6870     2.0420 H     1 <1>   0.0800 
 27 H        6.5070     1.5350     2.0240 H     1 <1>   0.0800 
 28 H        7.4830     0.7460    -1.9320 H     1 <1>   0.0800 
 29 H        9.0050    -0.0950    -1.9100 H     1 <1>   0.0800 
 30 H        6.2000    -1.4500    -1.7950 H     1 <1>   0.0800 
 31 H        6.6350    -2.6210    -0.5770 H     1 <1>   0.0800 
 32 H        7.7460    -2.2600    -1.8670 H     1 <1>   0.0800 
 33 H        8.3430     2.8980     1.0580 H     1 <1>   0.0800 
 34 H        7.0730     2.6030    -0.0940 H     1 <1>   0.0800 
 35 H        9.2380     2.2570    -1.1710 H     1 <1>   0.0800 
 36 H        9.7170     1.1370     0.0700 H     1 <1>   0.0800 
@<TRIPOS>BOND
  1   1   2  1   
  2   1   3  1   
  3   2   4  1   
  4   2   5  2   
  5   3   6  2   
  6   3   7  1   
  7   4   8  1   
  8   5   6  1   
  9   7  19  1   
 10   7  20  1   
 11   8   9  1   
 12   8  21  1   
 13   8  22  1   
 14   9  10  2   
 15   9  11  am  
 16  11  12  1   
 17  11  23  1   
 18  12  13  1   
 19  12  14  1   
 20  12  24  1   
 21  13  15  1   
 22  13  16  1   
 23  13  25  1   
 24  14  17  1   
 25  14  26  1   
 26  14  27  1   
 27  15  18  1   
 28  15  28  1   
 29  15  29  1   
 30  16  30  1   
 31  16  31  1   
 32  16  32  1   
 33  17  18  1   
 34  17  33  1   
 35  17  34  1   
 36  18  35  1   
 37  18  36  1   
@<TRIPOS>SUBSTRUCTURE
  1 ****   4 GROUP 4 **** **** 0

# MOE 2024.06 (io_trps.svl 2023.06)
