@<TRIPOS>MOLECULE
NONAME
28 29 1 0 0 
SMALL
USER_CHARGES


@<TRIPOS>ATOM
  1 F       -1.4000     0.5360    -0.5680 F     1 <1>  -0.3400 
  2 C       -2.6480     0.9090    -0.8440 C.3   1 <1>   1.0200 
  3 F       -3.3280    -0.2300    -0.9630 F     1 <1>  -0.3400 
  4 F       -2.5920     1.4240    -2.0700 F     1 <1>  -0.3400 
  5 C       -3.2310     1.8810     0.2220 C.3   1 <1>   0.6800 
  6 F       -2.3660     2.8850     0.4330 F     1 <1>  -0.3400 
  7 F       -3.2840     1.2660     1.4110 F     1 <1>  -0.3400 
  8 C       -4.6120     2.4450    -0.1680 C.3   1 <1>   0.6800 
  9 F       -4.4890     3.2210    -1.2530 F     1 <1>  -0.3400 
 10 F       -5.4030     1.4540    -0.5930 F     1 <1>  -0.3400 
 11 C       -5.3270     3.2590     0.9500 C.3   1 <1>   0.8180 
 12 F       -5.6410     2.4790     1.9860 F     1 <1>  -0.3400 
 13 F       -4.4920     4.1520     1.4860 F     1 <1>  -0.3400 
 14 C       -6.6150     4.0000     0.4930 C.2   1 <1>   0.0330 
 15 N       -7.6710     3.2410     0.1180 N.2   1 <1>  -0.6210 
 16 C       -6.6750     5.3770     0.4670 C.2   1 <1>  -0.1360 
 17 C       -8.7440     3.9050    -0.2610 C.2   1 <1>   0.5600 
 18 C       -7.8350     6.0480     0.0520 C.2   1 <1>   0.6160 
 19 N       -9.8920     3.3680    -0.6640 N.pl3 1 <1>  -0.5000 
 20 N       -8.8970     5.2450    -0.3160 N.am  1 <1>  -0.0580 
 21 O       -7.8970     7.2770     0.0130 O.2   1 <1>  -0.5700 
 22 C      -10.7170     4.3980    -0.9350 C.2   1 <1>   0.5500 
 23 N      -10.1840     5.5440    -0.7520 N.2   1 <1>  -0.5120 
 24 N      -11.9830     4.1990    -1.3670 N.pl3 1 <1>  -0.8500 
 25 H       -5.8550     6.0070     0.7580 H     1 <1>   0.1500 
 26 H      -10.1240     2.3820    -0.6350 H     1 <1>   0.4000 
 27 H      -12.4400     5.0940    -1.5580 H     1 <1>   0.4000 
 28 H      -12.0620     3.5730    -2.1670 H     1 <1>   0.4000 
@<TRIPOS>BOND
  1   1   2  1   
  2   2   3  1   
  3   2   4  1   
  4   2   5  1   
  5   5   6  1   
  6   5   7  1   
  7   5   8  1   
  8   8   9  1   
  9   8  10  1   
 10   8  11  1   
 11  11  12  1   
 12  11  13  1   
 13  11  14  1   
 14  14  15  1   
 15  14  16  2   
 16  15  17  2   
 17  16  18  1   
 18  16  25  1   
 19  17  19  1   
 20  17  20  1   
 21  18  20  am  
 22  18  21  2   
 23  19  22  1   
 24  19  26  1   
 25  20  23  1   
 26  22  23  2   
 27  22  24  1   
 28  24  27  1   
 29  24  28  1   
@<TRIPOS>SUBSTRUCTURE
  1 ****  14 GROUP 4 **** **** 0

# MOE 2024.06 (io_trps.svl 2023.06)
