@<TRIPOS>MOLECULE
NONAME
39 40 1 0 0 
SMALL
USER_CHARGES


@<TRIPOS>ATOM
  1 CL      -0.1310     0.4360     1.1460 Cl    1 <1>  -0.1770 
  2 C        1.5380     0.7670     0.7530 C.ar  1 <1>   0.1770 
  3 C        1.9630     0.6460    -0.5560 C.ar  1 <1>  -0.1500 
  4 C        2.4070     1.1450     1.7580 C.ar  1 <1>  -0.1500 
  5 C        3.2870     0.9080    -0.8750 C.ar  1 <1>  -0.1440 
  6 C        3.7300     1.4070     1.4460 C.ar  1 <1>  -0.1500 
  7 C        4.1760     1.2900     0.1290 C.ar  1 <1>   0.0830 
  8 C        3.7510     0.7720    -2.3190 C.3   1 <1>  -0.0960 
  9 O        5.4630     1.5360    -0.2360 O.3   1 <1>  -0.3630 
 10 C        6.4360     1.9330     0.6950 C.3   1 <1>   0.1200 
 11 C        7.7400     2.1260    -0.0780 C.3   1 <1>  -0.1600 
 12 C        8.8630     2.5740     0.8540 C.3   1 <1>   0.3430 
 13 N       10.1490     2.6700     0.1090 N.4   1 <1>  -0.9590 
 14 C       11.3120     2.7930     1.0580 C.3   1 <1>   0.3430 
 15 C       10.1640     3.8120    -0.8770 C.3   1 <1>   0.3430 
 16 C       12.6410     3.0000     0.3070 C.3   1 <1>   0.1200 
 17 C       11.5460     3.9750    -1.5390 C.3   1 <1>   0.1200 
 18 O       12.5390     4.0900    -0.5620 O.3   1 <1>  -0.5600 
 19 H        1.2570     0.3490    -1.3100 H     1 <1>   0.1500 
 20 H        2.0470     1.2300     2.7670 H     1 <1>   0.1500 
 21 H        4.3870     1.6990     2.2420 H     1 <1>   0.1500 
 22 H        2.9430     0.4730    -2.9610 H     1 <1>   0.0800 
 23 H        4.5310     0.0350    -2.3830 H     1 <1>   0.0800 
 24 H        4.1350     1.7140    -2.6680 H     1 <1>   0.0800 
 25 H        6.5290     1.1560     1.4350 H     1 <1>   0.0800 
 26 H        6.1100     2.8530     1.1500 H     1 <1>   0.0800 
 27 H        7.5680     2.8660    -0.8380 H     1 <1>   0.0800 
 28 H        8.0020     1.1900    -0.5390 H     1 <1>   0.0800 
 29 H        8.9620     1.8520     1.6500 H     1 <1>   0.0800 
 30 H        8.6190     3.5280     1.2940 H     1 <1>   0.0800 
 31 H       10.2790     1.8000    -0.4250 H     1 <1>   0.4500 
 32 H       11.3850     1.9090     1.6700 H     1 <1>   0.0800 
 33 H       11.1610     3.6370     1.7110 H     1 <1>   0.0800 
 34 H        9.9210     4.7330    -0.3720 H     1 <1>   0.0800 
 35 H        9.4240     3.6510    -1.6440 H     1 <1>   0.0800 
 36 H       12.9110     2.1270    -0.2610 H     1 <1>   0.0800 
 37 H       13.4320     3.2130     1.0050 H     1 <1>   0.0800 
 38 H       11.5680     4.8710    -2.1340 H     1 <1>   0.0800 
 39 H       11.7770     3.1370    -2.1740 H     1 <1>   0.0800 
@<TRIPOS>BOND
  1   1   2  1   
  2   2   3  ar  
  3   2   4  ar  
  4   3   5  ar  
  5   3  19  1   
  6   4   6  ar  
  7   4  20  1   
  8   5   7  ar  
  9   5   8  1   
 10   6   7  ar  
 11   6  21  1   
 12   7   9  1   
 13   8  22  1   
 14   8  23  1   
 15   8  24  1   
 16   9  10  1   
 17  10  11  1   
 18  10  25  1   
 19  10  26  1   
 20  11  12  1   
 21  11  27  1   
 22  11  28  1   
 23  12  13  1   
 24  12  29  1   
 25  12  30  1   
 26  13  14  1   
 27  13  15  1   
 28  13  31  1   
 29  14  16  1   
 30  14  32  1   
 31  14  33  1   
 32  15  17  1   
 33  15  34  1   
 34  15  35  1   
 35  16  18  1   
 36  16  36  1   
 37  16  37  1   
 38  17  18  1   
 39  17  38  1   
 40  17  39  1   
@<TRIPOS>SUBSTRUCTURE
  1 ****  10 GROUP 4 **** **** 0

# MOE 2024.06 (io_trps.svl 2023.06)
