@<TRIPOS>MOLECULE
NONAME
39 40 1 0 0 
SMALL
USER_CHARGES


@<TRIPOS>ATOM
  1 CL      -1.2170     1.1410    -1.7100 Cl    1 <1>  -0.1770 
  2 C       -0.9070     2.2580    -0.4000 C.ar  1 <1>   0.1770 
  3 C       -1.8980     2.5870     0.5370 C.ar  1 <1>   0.0860 
  4 C        0.3710     2.7840    -0.3420 C.ar  1 <1>  -0.1500 
  5 C       -3.2540     2.0650     0.5080 C.2   1 <1>   0.5440 
  6 C       -1.5300     3.4730     1.5590 C.ar  1 <1>  -0.1500 
  7 C        0.6740     3.6570     0.6820 C.ar  1 <1>   0.1900 
  8 O       -3.8660     1.8960     1.5450 O.2   1 <1>  -0.5700 
  9 N       -3.9110     1.7850    -0.6600 N.am  1 <1>  -0.7300 
 10 C       -0.2570     4.0110     1.6380 C.ar  1 <1>  -0.1500 
 11 F        1.8730     4.1600     0.7490 F     1 <1>  -0.1900 
 12 C       -5.2130     1.0950    -0.7290 C.3   1 <1>   0.1400 
 13 C       -6.3300     2.1160    -0.5010 C.3   1 <1>  -0.1600 
 14 C       -7.6470     1.4040    -0.2050 C.3   1 <1>   0.3430 
 15 N       -8.6680     2.3810     0.2600 N.4   1 <1>  -0.9590 
 16 C       -9.8640     1.7180     0.8800 C.3   1 <1>   0.3430 
 17 C       -9.0980     3.3810    -0.7790 C.3   1 <1>   0.3430 
 18 C      -10.8910     2.7590     1.3860 C.3   1 <1>   0.1200 
 19 C      -10.2120     4.3130    -0.2480 C.3   1 <1>   0.1200 
 20 O      -10.4750     4.0690     1.1070 O.3   1 <1>  -0.5600 
 21 H        1.1140     2.5200    -1.0710 H     1 <1>   0.1500 
 22 H       -2.2610     3.7410     2.3050 H     1 <1>   0.1500 
 23 H       -3.3710     1.8100    -1.5320 H     1 <1>   0.3700 
 24 H        0.0140     4.6910     2.4270 H     1 <1>   0.1500 
 25 H       -5.2380     0.3370     0.0380 H     1 <1>   0.0800 
 26 H       -5.3190     0.6140    -1.6870 H     1 <1>   0.0800 
 27 H       -6.4170     2.7360    -1.3740 H     1 <1>   0.0800 
 28 H       -6.0710     2.7250     0.3470 H     1 <1>   0.0800 
 29 H       -7.4750     0.6750     0.5720 H     1 <1>   0.0800 
 30 H       -7.9960     0.8850    -1.0840 H     1 <1>   0.0800 
 31 H       -8.2600     2.9480     1.0210 H     1 <1>   0.4500 
 32 H       -9.5560     1.1010     1.7090 H     1 <1>   0.0800 
 33 H      -10.3440     1.0770     0.1600 H     1 <1>   0.0800 
 34 H       -9.4590     2.8710    -1.6560 H     1 <1>   0.0800 
 35 H       -8.2570     3.9840    -1.0770 H     1 <1>   0.0800 
 36 H      -11.0090     2.6740     2.4520 H     1 <1>   0.0800 
 37 H      -11.8530     2.5980     0.9290 H     1 <1>   0.0800 
 38 H      -11.1230     4.1760    -0.8050 H     1 <1>   0.0800 
 39 H       -9.9120     5.3420    -0.3440 H     1 <1>   0.0800 
@<TRIPOS>BOND
  1   1   2  1   
  2   2   3  ar  
  3   2   4  ar  
  4   3   5  1   
  5   3   6  ar  
  6   4   7  ar  
  7   4  21  1   
  8   5   8  2   
  9   5   9  am  
 10   6  10  ar  
 11   6  22  1   
 12   7  10  ar  
 13   7  11  1   
 14   9  12  1   
 15   9  23  1   
 16  10  24  1   
 17  12  13  1   
 18  12  25  1   
 19  12  26  1   
 20  13  14  1   
 21  13  27  1   
 22  13  28  1   
 23  14  15  1   
 24  14  29  1   
 25  14  30  1   
 26  15  16  1   
 27  15  17  1   
 28  15  31  1   
 29  16  18  1   
 30  16  32  1   
 31  16  33  1   
 32  17  19  1   
 33  17  34  1   
 34  17  35  1   
 35  18  20  1   
 36  18  36  1   
 37  18  37  1   
 38  19  20  1   
 39  19  38  1   
 40  19  39  1   
@<TRIPOS>SUBSTRUCTURE
  1 ****   9 GROUP 4 **** **** 0

# MOE 2024.06 (io_trps.svl 2023.06)
