@<TRIPOS>MOLECULE
NONAME
48 50 1 0 0 
SMALL
USER_CHARGES


@<TRIPOS>ATOM
  1 S       -0.1360    -0.3600     1.3910 S.o2  1 <1>   1.4470 
  2 O       -0.0120    -1.7710     1.6870 O.2   1 <1>  -0.6500 
  3 O       -0.3620     0.5710     2.4770 O.2   1 <1>  -0.6500 
  4 N        1.3090     0.1240     0.6450 N.am  1 <1>  -0.8490 
  5 C       -1.3780    -0.1260     0.0890 C.ar  1 <1>  -0.0090 
  6 C        2.4760    -0.3350     1.4020 C.3   1 <1>   0.1960 
  7 C        1.3460     1.5720     0.4130 C.3   1 <1>   0.1960 
  8 C       -1.1760    -0.6340    -1.1890 C.ar  1 <1>  -0.1500 
  9 C       -2.5610     0.5620     0.3360 C.ar  1 <1>  -0.1500 
 10 C        3.7660    -0.0110     0.6430 C.3   1 <1>  -0.1600 
 11 C        2.5930     1.9480    -0.3890 C.3   1 <1>  -0.1600 
 12 C       -2.1160    -0.4570    -2.1900 C.ar  1 <1>  -0.1500 
 13 C       -3.5070     0.7440    -0.6590 C.ar  1 <1>  -0.1500 
 14 C        3.8740     1.4900     0.3290 C.3   1 <1>  -0.0190 
 15 C       -3.2840     0.2350    -1.9250 C.ar  1 <1>  -0.1500 
 16 C        5.1290     1.8030    -0.4850 C.2   1 <1>   0.5690 
 17 O        5.2100     1.3880    -1.6150 O.2   1 <1>  -0.5700 
 18 N        6.1120     2.5370     0.1250 N.am  1 <1>  -0.5470 
 19 C        7.3570     2.9940    -0.3390 C.ar  1 <1>   0.1170 
 20 C        8.3000     3.3990     0.5980 C.ar  1 <1>  -0.1500 
 21 C        7.6920     3.0760    -1.6890 C.ar  1 <1>  -0.1500 
 22 C        9.5350     3.8660     0.1940 C.ar  1 <1>   0.1020 
 23 C        8.9320     3.5430    -2.0910 C.ar  1 <1>  -0.1500 
 24 S       10.6820     4.3650     1.4920 S.3   1 <1>  -0.3320 
 25 C        9.8650     3.9420    -1.1500 C.ar  1 <1>  -0.1500 
 26 C       12.2290     4.9210     0.6500 C.3   1 <1>  -0.0100 
 27 H        2.4210    -1.4030     1.5410 H     1 <1>   0.0800 
 28 H        2.4860     0.1290     2.3750 H     1 <1>   0.0800 
 29 H        1.3440     2.0970     1.3550 H     1 <1>   0.0800 
 30 H        0.4730     1.8740    -0.1410 H     1 <1>   0.0800 
 31 H       -0.2690    -1.1740    -1.4010 H     1 <1>   0.1500 
 32 H       -2.7450     0.9610     1.3200 H     1 <1>   0.1500 
 33 H        3.7780    -0.5760    -0.2740 H     1 <1>   0.0800 
 34 H        4.6120    -0.3240     1.2290 H     1 <1>   0.0800 
 35 H        2.6180     3.0130    -0.5340 H     1 <1>   0.0800 
 36 H        2.5320     1.4870    -1.3610 H     1 <1>   0.0800 
 37 H       -1.9390    -0.8570    -3.1740 H     1 <1>   0.1500 
 38 H       -4.4160     1.2810    -0.4470 H     1 <1>   0.1500 
 39 H        3.9330     2.0200     1.2630 H     1 <1>   0.0800 
 40 H       -4.0170     0.3740    -2.7000 H     1 <1>   0.1500 
 41 H        5.9330     2.7620     1.1000 H     1 <1>   0.3700 
 42 H        8.0820     3.3520     1.6470 H     1 <1>   0.1500 
 43 H        6.9850     2.7790    -2.4410 H     1 <1>   0.1500 
 44 H        9.1680     3.5950    -3.1400 H     1 <1>   0.1500 
 45 H       10.8210     4.3010    -1.4740 H     1 <1>   0.1500 
 46 H       12.9250     5.2190     1.4140 H     1 <1>   0.0800 
 47 H       11.9820     5.7520     0.0150 H     1 <1>   0.0800 
 48 H       12.6160     4.0920     0.0840 H     1 <1>   0.0800 
@<TRIPOS>BOND
  1   1   2  2   
  2   1   3  2   
  3   1   4  am  
  4   1   5  1   
  5   4   6  1   
  6   4   7  1   
  7   5   8  ar  
  8   5   9  ar  
  9   6  10  1   
 10   6  27  1   
 11   6  28  1   
 12   7  11  1   
 13   7  29  1   
 14   7  30  1   
 15   8  12  ar  
 16   8  31  1   
 17   9  13  ar  
 18   9  32  1   
 19  10  14  1   
 20  10  33  1   
 21  10  34  1   
 22  11  14  1   
 23  11  35  1   
 24  11  36  1   
 25  12  15  ar  
 26  12  37  1   
 27  13  15  ar  
 28  13  38  1   
 29  14  16  1   
 30  14  39  1   
 31  15  40  1   
 32  16  17  2   
 33  16  18  am  
 34  18  19  1   
 35  18  41  1   
 36  19  20  ar  
 37  19  21  ar  
 38  20  22  ar  
 39  20  42  1   
 40  21  23  ar  
 41  21  43  1   
 42  22  24  1   
 43  22  25  ar  
 44  23  25  ar  
 45  23  44  1   
 46  24  26  1   
 47  25  45  1   
 48  26  46  1   
 49  26  47  1   
 50  26  48  1   
@<TRIPOS>SUBSTRUCTURE
  1 ****  14 GROUP 4 **** **** 0

# MOE 2024.06 (io_trps.svl 2023.06)
