@<TRIPOS>MOLECULE
NONAME
26 26 1 0 0 
SMALL
USER_CHARGES


@<TRIPOS>ATOM
  1 O        0.9920     0.0650     0.2660 O.3   1 <1>  -0.3630 
  2 C        2.0170     0.9300     0.1720 C.ar  1 <1>   0.7020 
  3 C        1.1760    -1.3340     0.1810 C.3   1 <1>   0.0400 
  4 N        1.6660     2.1970     0.2830 N.ar  1 <1>  -0.6200 
  5 N        3.2310     0.4330    -0.0190 N.ar  1 <1>  -0.6200 
  6 C        2.6540     3.0630     0.2000 C.ar  1 <1>   0.3930 
  7 C        4.1940     1.3290    -0.0990 C.ar  1 <1>   0.3920 
  8 O        2.3730     4.3780     0.3020 O.3   1 <1>  -0.3630 
  9 C        3.9590     2.6790     0.0080 C.ar  1 <1>  -0.1440 
 10 O        5.4580     0.9060    -0.2990 O.3   1 <1>  -0.3630 
 11 C        1.0550     4.8320     0.5440 C.3   1 <1>   0.0400 
 12 C        5.0840     3.6940    -0.0790 C.3   1 <1>   0.3170 
 13 C        5.7790    -0.4700    -0.3540 C.3   1 <1>   0.0400 
 14 N        5.6190     3.9600     1.2460 N.2   1 <1>  -0.1710 
 15 O        6.7590     3.7580     1.4130 O.2   1 <1>  -0.1620 
 16 H        0.2170    -1.8070     0.2870 H     1 <1>   0.0800 
 17 H        1.8330    -1.6480     0.9730 H     1 <1>   0.0800 
 18 H        1.6010    -1.5720    -0.7790 H     1 <1>   0.0800 
 19 H        1.0700     5.9060     0.5990 H     1 <1>   0.0800 
 20 H        0.7100     4.4190     1.4760 H     1 <1>   0.0800 
 21 H        0.4210     4.5110    -0.2640 H     1 <1>   0.0800 
 22 H        4.7240     4.6180    -0.4930 H     1 <1>   0.0800 
 23 H        5.8690     3.3310    -0.7190 H     1 <1>   0.0800 
 24 H        5.4940    -0.9300     0.5760 H     1 <1>   0.0800 
 25 H        6.8400    -0.5640    -0.5020 H     1 <1>   0.0800 
 26 H        5.2490    -0.9200    -1.1750 H     1 <1>   0.0800 
@<TRIPOS>BOND
  1   1   2  1   
  2   1   3  1   
  3   2   4  ar  
  4   2   5  ar  
  5   3  16  1   
  6   3  17  1   
  7   3  18  1   
  8   4   6  ar  
  9   5   7  ar  
 10   6   8  1   
 11   6   9  ar  
 12   7   9  ar  
 13   7  10  1   
 14   8  11  1   
 15   9  12  1   
 16  10  13  1   
 17  11  19  1   
 18  11  20  1   
 19  11  21  1   
 20  12  14  1   
 21  12  22  1   
 22  12  23  1   
 23  13  24  1   
 24  13  25  1   
 25  13  26  1   
 26  14  15  2   
@<TRIPOS>SUBSTRUCTURE
  1 ****   9 GROUP 4 **** **** 0

# MOE 2024.06 (io_trps.svl 2023.06)
