@<TRIPOS>MOLECULE
NONAME
34 35 1 0 0 
SMALL
USER_CHARGES


@<TRIPOS>ATOM
  1 S        0.0130     0.1370    -2.0420 S.o2  1 <1>   1.2950 
  2 O        0.0710     1.4340    -2.6940 O.2   1 <1>  -0.6500 
  3 O        0.0050    -1.0000    -2.9470 O.2   1 <1>  -0.6500 
  4 N       -1.4570     0.0900    -1.0170 N.pl3 1 <1>   0.5840 
  5 C        1.3360    -0.0090    -0.7740 C.ar  1 <1>  -0.0090 
  6 N       -1.6620    -0.7250     0.0700 N.2   1 <1>  -0.7070 
  7 C       -2.5670     0.8550    -1.1990 C.2   1 <1>  -0.3020 
  8 C        1.8390     1.1220    -0.1100 C.ar  1 <1>  -0.1440 
  9 C        1.8600    -1.2560    -0.3960 C.ar  1 <1>  -0.1440 
 10 C       -2.8450    -0.4460     0.5100 C.2   1 <1>   0.1080 
 11 C       -3.4660     0.5390    -0.2450 C.2   1 <1>  -0.1500 
 12 C        2.8460     1.0050     0.8360 C.ar  1 <1>  -0.1500 
 13 C        1.3300     2.5390    -0.3610 C.3   1 <1>  -0.0970 
 14 C        2.8660    -1.3490     0.5520 C.ar  1 <1>  -0.1500 
 15 C        1.3680    -2.5800    -0.9740 C.3   1 <1>  -0.0970 
 16 C       -3.4460    -1.1370     1.7120 C.3   1 <1>  -0.0590 
 17 C        3.3680    -0.2250     1.1710 C.ar  1 <1>  -0.1430 
 18 C        4.4740    -0.3420     2.2050 C.3   1 <1>  -0.0970 
 19 H       -2.6390     1.5720    -1.9980 H     1 <1>   0.1500 
 20 H       -4.4500     0.9410    -0.0810 H     1 <1>   0.1500 
 21 H        3.2330     1.8810     1.3250 H     1 <1>   0.1500 
 22 H        0.2560     2.5740    -0.3260 H     1 <1>   0.0800 
 23 H        1.6670     2.8890    -1.3210 H     1 <1>   0.0800 
 24 H        1.6960     3.2230     0.3840 H     1 <1>   0.0800 
 25 H        3.2680    -2.3110     0.8210 H     1 <1>   0.1500 
 26 H        0.2950    -2.6410    -0.9250 H     1 <1>   0.0800 
 27 H        1.7600    -3.4170    -0.4250 H     1 <1>   0.0800 
 28 H        1.6840    -2.6800    -1.9970 H     1 <1>   0.0800 
 29 H       -2.8150    -0.9820     2.5680 H     1 <1>   0.0800 
 30 H       -3.5190    -2.1920     1.5210 H     1 <1>   0.0800 
 31 H       -4.4250    -0.7480     1.9210 H     1 <1>   0.0800 
 32 H        4.4160     0.4660     2.9130 H     1 <1>   0.0800 
 33 H        5.4310    -0.3100     1.7180 H     1 <1>   0.0800 
 34 H        4.3880    -1.2690     2.7430 H     1 <1>   0.0800 
@<TRIPOS>BOND
  1   1   2  2   
  2   1   3  2   
  3   1   4  1   
  4   1   5  1   
  5   4   6  1   
  6   4   7  1   
  7   5   8  ar  
  8   5   9  ar  
  9   6  10  2   
 10   7  11  2   
 11   7  19  1   
 12   8  12  ar  
 13   8  13  1   
 14   9  14  ar  
 15   9  15  1   
 16  10  11  1   
 17  10  16  1   
 18  11  20  1   
 19  12  17  ar  
 20  12  21  1   
 21  13  22  1   
 22  13  23  1   
 23  13  24  1   
 24  14  17  ar  
 25  14  25  1   
 26  15  26  1   
 27  15  27  1   
 28  15  28  1   
 29  16  29  1   
 30  16  30  1   
 31  16  31  1   
 32  17  18  1   
 33  18  32  1   
 34  18  33  1   
 35  18  34  1   
@<TRIPOS>SUBSTRUCTURE
  1 ****   5 GROUP 4 **** **** 0

# MOE 2024.06 (io_trps.svl 2023.06)
