@<TRIPOS>MOLECULE
NONAME
42 43 1 0 0 
SMALL
USER_CHARGES


@<TRIPOS>ATOM
  1 S       -0.4480     0.0630    -1.0210 S.o2  1 <1>   1.5760 
  2 O        0.9450     0.1660    -0.6570 O.2   1 <1>  -0.6500 
  3 O       -0.9570     0.7450    -2.1880 O.2   1 <1>  -0.6500 
  4 N       -0.9130    -1.5970    -1.1430 N.am  1 <1>  -0.6930 
  5 N       -1.3820     0.5330     0.3120 N.am  1 <1>  -0.8490 
  6 C       -0.1280    -2.6290    -0.6380 C.ar  1 <1>   0.1990 
  7 C       -1.9620    -1.9180    -2.1650 C.3   1 <1>   0.2570 
  8 C       -0.8180     0.0620     1.5820 C.3   1 <1>   0.1160 
  9 C       -1.5640     1.9850     0.3600 C.3   1 <1>   0.1160 
 10 C        1.1790    -2.8170    -1.0760 C.ar  1 <1>  -0.1500 
 11 C       -0.6370    -3.5060     0.3140 C.ar  1 <1>  -0.1500 
 12 C       -3.0130    -2.9470    -1.7350 C.2   1 <1>   0.5690 
 13 C        1.9570    -3.8460    -0.5750 C.ar  1 <1>  -0.1500 
 14 C        0.1350    -4.5380     0.8170 C.ar  1 <1>  -0.1500 
 15 O       -3.0370    -4.0120    -2.3090 O.2   1 <1>  -0.5700 
 16 N       -3.9220    -2.6570    -0.7490 N.am  1 <1>  -0.6600 
 17 C        1.4350    -4.7090     0.3730 C.ar  1 <1>  -0.1500 
 18 C       -4.9660    -3.6100    -0.3210 C.3   1 <1>   0.1400 
 19 C       -3.9860    -1.4050     0.0350 C.3   1 <1>   0.1400 
 20 C       -5.5720    -2.9860     0.9310 C.3   1 <1>  -0.1600 
 21 C       -5.3110    -1.4900     0.7830 C.3   1 <1>  -0.1600 
 22 H       -1.4730    -2.2860    -3.0480 H     1 <1>   0.0800 
 23 H       -2.4980    -1.0300    -2.4410 H     1 <1>   0.0800 
 24 H       -0.7070    -1.0080     1.5650 H     1 <1>   0.0800 
 25 H       -1.4730     0.3200     2.3960 H     1 <1>   0.0800 
 26 H        0.1490     0.5040     1.7560 H     1 <1>   0.0800 
 27 H       -2.0590     2.3240    -0.5350 H     1 <1>   0.0800 
 28 H       -0.6100     2.4810     0.4370 H     1 <1>   0.0800 
 29 H       -2.1730     2.2570     1.2050 H     1 <1>   0.0800 
 30 H        1.5900    -2.1500    -1.8120 H     1 <1>   0.1500 
 31 H       -1.6450    -3.3800     0.6610 H     1 <1>   0.1500 
 32 H        2.9670    -3.9740    -0.9230 H     1 <1>   0.1500 
 33 H       -0.2750    -5.2100     1.5510 H     1 <1>   0.1500 
 34 H        2.0380    -5.5110     0.7630 H     1 <1>   0.1500 
 35 H       -4.5410    -4.5800    -0.1220 H     1 <1>   0.0800 
 36 H       -5.7040    -3.6940    -1.1010 H     1 <1>   0.0800 
 37 H       -3.9420    -0.5360    -0.5990 H     1 <1>   0.0800 
 38 H       -3.1690    -1.3880     0.7340 H     1 <1>   0.0800 
 39 H       -5.0540    -3.3660     1.7950 H     1 <1>   0.0800 
 40 H       -6.6190    -3.2140     1.0230 H     1 <1>   0.0800 
 41 H       -6.0810    -1.0410     0.1800 H     1 <1>   0.0800 
 42 H       -5.2670    -0.9830     1.7310 H     1 <1>   0.0800 
@<TRIPOS>BOND
  1   1   2  2   
  2   1   3  2   
  3   1   4  am  
  4   1   5  am  
  5   4   6  1   
  6   4   7  1   
  7   5   8  1   
  8   5   9  1   
  9   6  10  ar  
 10   6  11  ar  
 11   7  12  1   
 12   7  22  1   
 13   7  23  1   
 14   8  24  1   
 15   8  25  1   
 16   8  26  1   
 17   9  27  1   
 18   9  28  1   
 19   9  29  1   
 20  10  13  ar  
 21  10  30  1   
 22  11  14  ar  
 23  11  31  1   
 24  12  15  2   
 25  12  16  am  
 26  13  17  ar  
 27  13  32  1   
 28  14  17  ar  
 29  14  33  1   
 30  16  18  1   
 31  16  19  1   
 32  17  34  1   
 33  18  20  1   
 34  18  35  1   
 35  18  36  1   
 36  19  21  1   
 37  19  37  1   
 38  19  38  1   
 39  20  21  1   
 40  20  39  1   
 41  20  40  1   
 42  21  41  1   
 43  21  42  1   
@<TRIPOS>SUBSTRUCTURE
  1 ****   4 GROUP 4 **** **** 0

# MOE 2024.06 (io_trps.svl 2023.06)
