@<TRIPOS>MOLECULE
NONAME
44 45 1 0 0 
SMALL
USER_CHARGES


@<TRIPOS>ATOM
  1 O       -0.2420    -4.1260    -0.9100 O.2   1 <1>  -0.5700 
  2 C        0.0960    -3.0830    -0.4150 C.2   1 <1>   0.6590 
  3 O       -0.5160    -1.9380    -0.6760 O.3   1 <1>  -0.4300 
  4 C        1.2750    -2.9900     0.5530 C.3   1 <1>  -0.0190 
  5 C       -1.6160    -1.8770    -1.5550 C.3   1 <1>   0.1200 
  6 C        2.5190    -2.4240    -0.1550 C.3   1 <1>  -0.1600 
  7 C        1.6140    -4.3470     1.2040 C.3   1 <1>  -0.1600 
  8 C       -2.0720    -0.4240    -1.6420 C.3   1 <1>  -0.2400 
  9 C        3.7310    -2.3680     0.7740 C.3   1 <1>   0.3430 
 10 C        2.8370    -4.2560     2.1130 C.3   1 <1>   0.3430 
 11 N        3.9920    -3.7240     1.3400 N.4   1 <1>  -0.9590 
 12 C        5.2460    -3.7520     2.1440 C.3   1 <1>   0.4860 
 13 C        6.4090    -3.4150     1.2340 C.ar  1 <1>  -0.1440 
 14 C        6.7930    -4.3020     0.2390 C.ar  1 <1>  -0.1500 
 15 C        7.0960    -2.2170     1.3790 C.ar  1 <1>  -0.1500 
 16 C        7.8370    -3.9970    -0.6160 C.ar  1 <1>   0.0820 
 17 C        8.1450    -1.9100     0.5300 C.ar  1 <1>  -0.1500 
 18 O        8.1290    -4.9210    -1.5630 O.3   1 <1>  -0.3620 
 19 C        8.5170    -2.7930    -0.4680 C.ar  1 <1>  -0.1500 
 20 C        9.2160    -4.7490    -2.4460 C.3   1 <1>   0.0400 
 21 H        0.9840    -2.3070     1.3320 H     1 <1>   0.0800 
 22 H       -2.4000    -2.5060    -1.1670 H     1 <1>   0.0800 
 23 H       -1.3050    -2.2430    -2.5200 H     1 <1>   0.0800 
 24 H        2.3070    -1.4300    -0.5100 H     1 <1>   0.0800 
 25 H        2.7590    -3.0250    -1.0160 H     1 <1>   0.0800 
 26 H        1.7940    -5.0890     0.4450 H     1 <1>   0.0800 
 27 H        0.7700    -4.6840     1.7820 H     1 <1>   0.0800 
 28 H       -2.3720    -0.0700    -0.6710 H     1 <1>   0.0800 
 29 H       -2.9140    -0.3490    -2.3060 H     1 <1>   0.0800 
 30 H       -1.2800     0.1930    -2.0240 H     1 <1>   0.0800 
 31 H        3.5440    -1.6670     1.5720 H     1 <1>   0.0800 
 32 H        4.5890    -2.0260     0.2170 H     1 <1>   0.0800 
 33 H        3.0680    -5.2370     2.5000 H     1 <1>   0.0800 
 34 H        2.6210    -3.6050     2.9450 H     1 <1>   0.0800 
 35 H        4.1570    -4.3460     0.5370 H     1 <1>   0.4500 
 36 H        5.3980    -4.7330     2.5620 H     1 <1>   0.0800 
 37 H        5.1900    -3.0400     2.9510 H     1 <1>   0.0800 
 38 H        6.2980    -5.2480     0.1050 H     1 <1>   0.1500 
 39 H        6.8290    -1.5130     2.1490 H     1 <1>   0.1500 
 40 H        8.6780    -0.9800     0.6450 H     1 <1>   0.1500 
 41 H        9.3330    -2.5290    -1.1150 H     1 <1>   0.1500 
 42 H        9.2690    -5.6130    -3.0840 H     1 <1>   0.0800 
 43 H       10.1230    -4.6640    -1.8720 H     1 <1>   0.0800 
 44 H        9.0510    -3.8670    -3.0390 H     1 <1>   0.0800 
@<TRIPOS>BOND
  1   1   2  2   
  2   2   3  1   
  3   2   4  1   
  4   3   5  1   
  5   4   6  1   
  6   4   7  1   
  7   4  21  1   
  8   5   8  1   
  9   5  22  1   
 10   5  23  1   
 11   6   9  1   
 12   6  24  1   
 13   6  25  1   
 14   7  10  1   
 15   7  26  1   
 16   7  27  1   
 17   8  28  1   
 18   8  29  1   
 19   8  30  1   
 20   9  11  1   
 21   9  31  1   
 22   9  32  1   
 23  10  11  1   
 24  10  33  1   
 25  10  34  1   
 26  11  12  1   
 27  11  35  1   
 28  12  13  1   
 29  12  36  1   
 30  12  37  1   
 31  13  14  ar  
 32  13  15  ar  
 33  14  16  ar  
 34  14  38  1   
 35  15  17  ar  
 36  15  39  1   
 37  16  18  1   
 38  16  19  ar  
 39  17  19  ar  
 40  17  40  1   
 41  18  20  1   
 42  19  41  1   
 43  20  42  1   
 44  20  43  1   
 45  20  44  1   
@<TRIPOS>SUBSTRUCTURE
  1 ****   9 GROUP 4 **** **** 0

# MOE 2024.06 (io_trps.svl 2023.06)
