@<TRIPOS>MOLECULE
NONAME
40 41 1 0 0 
SMALL
USER_CHARGES


@<TRIPOS>ATOM
  1 CL      -0.1420    -0.0630    -0.8520 Cl    1 <1>  -0.1770 
  2 C       -0.1120    -1.6140    -0.0520 C.ar  1 <1>   0.1770 
  3 C        1.0880    -2.2890     0.1310 C.ar  1 <1>  -0.0090 
  4 C       -1.3220    -2.1230     0.3860 C.ar  1 <1>  -0.1500 
  5 S        2.6300    -1.5570    -0.4670 S.o2  1 <1>   1.4470 
  6 C        1.0420    -3.5140     0.7970 C.ar  1 <1>  -0.1500 
  7 C       -1.3310    -3.3410     1.0320 C.ar  1 <1>   0.1770 
  8 O        3.0660    -0.4970     0.4120 O.2   1 <1>  -0.6500 
  9 O        2.6110    -1.3680    -1.8970 O.2   1 <1>  -0.6500 
 10 N        3.7780    -2.7760    -0.3260 N.am  1 <1>  -0.9140 
 11 C       -0.1590    -4.0420     1.2440 C.ar  1 <1>  -0.1500 
 12 CL      -2.8420    -4.0050     1.5920 Cl    1 <1>  -0.1770 
 13 C        5.1230    -2.2460    -0.2160 C.3   1 <1>   0.1960 
 14 C        6.1140    -3.4070    -0.1920 C.3   1 <1>  -0.1600 
 15 C        7.5280    -2.8750     0.0420 C.3   1 <1>   0.3430 
 16 N        8.4970    -3.9970     0.1930 N.4   1 <1>  -0.9590 
 17 C        9.8060    -3.4950     0.7450 C.3   1 <1>   0.3430 
 18 C        8.7360    -4.7410    -1.0980 C.3   1 <1>   0.3430 
 19 C       10.8650    -4.6130     0.8110 C.3   1 <1>   0.1200 
 20 C        9.8450    -5.8010    -0.9490 C.3   1 <1>   0.1200 
 21 O       11.0070    -5.2150    -0.4410 O.3   1 <1>  -0.5600 
 22 H       -2.2360    -1.5800     0.2280 H     1 <1>   0.1500 
 23 H        1.9490    -4.0670     0.9760 H     1 <1>   0.1500 
 24 H        3.7010    -3.2300    -1.2370 H     1 <1>   0.4200 
 25 H       -0.1910    -4.9890     1.7560 H     1 <1>   0.1500 
 26 H        5.2080    -1.6800     0.7000 H     1 <1>   0.0800 
 27 H        5.3260    -1.5860    -1.0460 H     1 <1>   0.0800 
 28 H        6.0600    -3.9270    -1.1310 H     1 <1>   0.0800 
 29 H        5.8430    -4.0710     0.6090 H     1 <1>   0.0800 
 30 H        7.5280    -2.2800     0.9420 H     1 <1>   0.0800 
 31 H        7.8240    -2.2390    -0.7780 H     1 <1>   0.0800 
 32 H        8.1180    -4.6690     0.8750 H     1 <1>   0.4500 
 33 H        9.6590    -3.0870     1.7320 H     1 <1>   0.0800 
 34 H       10.1890    -2.7070     0.1170 H     1 <1>   0.0800 
 35 H        9.0340    -4.0490    -1.8680 H     1 <1>   0.0800 
 36 H        7.8290    -5.2250    -1.4210 H     1 <1>   0.0800 
 37 H       10.5960    -5.3660     1.5320 H     1 <1>   0.0800 
 38 H       11.8210    -4.2020     1.0860 H     1 <1>   0.0800 
 39 H       10.0860    -6.2240    -1.9090 H     1 <1>   0.0800 
 40 H        9.5410    -6.5980    -0.2920 H     1 <1>   0.0800 
@<TRIPOS>BOND
  1   1   2  1   
  2   2   3  ar  
  3   2   4  ar  
  4   3   5  1   
  5   3   6  ar  
  6   4   7  ar  
  7   4  22  1   
  8   5   8  2   
  9   5   9  2   
 10   5  10  am  
 11   6  11  ar  
 12   6  23  1   
 13   7  11  ar  
 14   7  12  1   
 15  10  13  1   
 16  10  24  1   
 17  11  25  1   
 18  13  14  1   
 19  13  26  1   
 20  13  27  1   
 21  14  15  1   
 22  14  28  1   
 23  14  29  1   
 24  15  16  1   
 25  15  30  1   
 26  15  31  1   
 27  16  17  1   
 28  16  18  1   
 29  16  32  1   
 30  17  19  1   
 31  17  33  1   
 32  17  34  1   
 33  18  20  1   
 34  18  35  1   
 35  18  36  1   
 36  19  21  1   
 37  19  37  1   
 38  19  38  1   
 39  20  21  1   
 40  20  39  1   
 41  20  40  1   
@<TRIPOS>SUBSTRUCTURE
  1 ****  10 GROUP 4 **** **** 0

# MOE 2024.06 (io_trps.svl 2023.06)
