@<TRIPOS>MOLECULE
NONAME
37 37 1 0 0 
SMALL
USER_CHARGES


@<TRIPOS>ATOM
  1 CL       0.1650     0.4340    -0.2800 Cl    1 <1>  -0.1770 
  2 C        1.8120     1.0120    -0.1560 C.ar  1 <1>   0.1770 
  3 C        2.8760     0.1560    -0.4110 C.ar  1 <1>  -0.1440 
  4 C        2.0160     2.3320     0.1990 C.ar  1 <1>  -0.1500 
  5 C        4.1680     0.6500    -0.3020 C.ar  1 <1>  -0.1500 
  6 C        2.6340    -1.2950    -0.8020 C.3   1 <1>  -0.0960 
  7 C        3.3080     2.8140     0.3050 C.ar  1 <1>  -0.1500 
  8 C        4.3880     1.9810     0.0560 C.ar  1 <1>   0.0830 
  9 O        5.6190     2.5350     0.1840 O.3   1 <1>  -0.3630 
 10 C        6.7890     1.7810    -0.0150 C.3   1 <1>   0.1200 
 11 C        7.9770     2.7180     0.2190 C.3   1 <1>   0.3430 
 12 N        9.3110     2.0640    -0.0120 N.4   1 <1>  -0.9590 
 13 C        9.5930     0.9880     0.9800 C.3   1 <1>   0.3430 
 14 C       10.3780     3.1010    -0.0100 C.3   1 <1>   0.3430 
 15 C        9.5330    -0.3550     0.2660 C.3   1 <1>  -0.2400 
 16 C       11.6320     2.5470    -0.6760 C.3   1 <1>  -0.2400 
 17 H        1.1710     2.9690     0.3900 H     1 <1>   0.1500 
 18 H        4.9860    -0.0130    -0.5010 H     1 <1>   0.1500 
 19 H        2.0540    -1.3380    -1.7070 H     1 <1>   0.0800 
 20 H        2.0910    -1.7990    -0.0220 H     1 <1>   0.0800 
 21 H        3.5590    -1.8160    -0.9640 H     1 <1>   0.0800 
 22 H        3.4800     3.8400     0.5800 H     1 <1>   0.1500 
 23 H        6.7810     1.4150    -1.0270 H     1 <1>   0.0800 
 24 H        6.7830     0.9710     0.6920 H     1 <1>   0.0800 
 25 H        7.9300     3.0910     1.2300 H     1 <1>   0.0800 
 26 H        7.8730     3.5550    -0.4520 H     1 <1>   0.0800 
 27 H        9.3110     1.6380    -0.9480 H     1 <1>   0.4500 
 28 H        8.8730     1.0150     1.7840 H     1 <1>   0.0800 
 29 H       10.5750     1.1200     1.4070 H     1 <1>   0.0800 
 30 H       10.5970     3.4130     0.9990 H     1 <1>   0.0800 
 31 H       10.0460     3.9650    -0.5650 H     1 <1>   0.0800 
 32 H        8.5600    -0.5360    -0.1530 H     1 <1>   0.0800 
 33 H        9.7380    -1.1390     0.9740 H     1 <1>   0.0800 
 34 H       10.2780    -0.4080    -0.5080 H     1 <1>   0.0800 
 35 H       12.0460     1.7250    -0.1210 H     1 <1>   0.0800 
 36 H       12.3790     3.3210    -0.7170 H     1 <1>   0.0800 
 37 H       11.4260     2.2360    -1.6850 H     1 <1>   0.0800 
@<TRIPOS>BOND
  1   1   2  1   
  2   2   3  ar  
  3   2   4  ar  
  4   3   5  ar  
  5   3   6  1   
  6   4   7  ar  
  7   4  17  1   
  8   5   8  ar  
  9   5  18  1   
 10   6  19  1   
 11   6  20  1   
 12   6  21  1   
 13   7   8  ar  
 14   7  22  1   
 15   8   9  1   
 16   9  10  1   
 17  10  11  1   
 18  10  23  1   
 19  10  24  1   
 20  11  12  1   
 21  11  25  1   
 22  11  26  1   
 23  12  13  1   
 24  12  14  1   
 25  12  27  1   
 26  13  15  1   
 27  13  28  1   
 28  13  29  1   
 29  14  16  1   
 30  14  30  1   
 31  14  31  1   
 32  15  32  1   
 33  15  33  1   
 34  15  34  1   
 35  16  35  1   
 36  16  36  1   
 37  16  37  1   
@<TRIPOS>SUBSTRUCTURE
  1 ****  10 GROUP 4 **** **** 0

# MOE 2024.06 (io_trps.svl 2023.06)
