@<TRIPOS>MOLECULE
NONAME
31 32 1 0 0 
SMALL
USER_CHARGES


@<TRIPOS>ATOM
  1 O        0.4700    -0.6170    -1.4150 O.3   1 <1>  -0.5600 
  2 C        0.2220    -1.5750    -0.4280 C.3   1 <1>   0.2800 
  3 C        1.4270     0.3680    -1.1480 C.3   1 <1>   0.2640 
  4 C        1.5080    -2.3920    -0.2130 C.3   1 <1>  -0.0170 
  5 C       -0.2650    -0.9110     0.8890 C.3   1 <1>  -0.1600 
  6 C       -0.8690    -2.4830    -1.0080 C.3   1 <1>  -0.2400 
  7 C        2.6970    -0.2110    -0.5350 C.ar  1 <1>  -0.1440 
  8 C        2.7350    -1.5160    -0.0710 C.ar  1 <1>   0.1660 
  9 C       -1.4840     0.0210     0.7550 C.3   1 <1>  -0.2400 
 10 C        3.8310     0.5690    -0.4200 C.ar  1 <1>  -0.1500 
 11 N        3.7920    -2.0780     0.4880 N.ar  1 <1>  -0.6200 
 12 C        4.9510     0.0040     0.1600 C.ar  1 <1>   0.0730 
 13 C        4.8690    -1.3230     0.6010 C.ar  1 <1>   0.4100 
 14 C        6.1620     0.7480     0.3050 C.1   1 <1>   0.4840 
 15 N        5.9060    -1.9790     1.1940 N.pl3 1 <1>  -0.9000 
 16 N        7.1320     1.3400     0.3990 N.1   1 <1>  -0.5570 
 17 H        0.9910     1.0960    -0.4870 H     1 <1>   0.0800 
 18 H        1.6530     0.8500    -2.0830 H     1 <1>   0.0800 
 19 H        1.6690    -3.0470    -1.0490 H     1 <1>   0.0800 
 20 H        1.4010    -3.0080     0.6620 H     1 <1>   0.0800 
 21 H        0.5440    -0.3630     1.3390 H     1 <1>   0.0800 
 22 H       -0.5180    -1.6900     1.5860 H     1 <1>   0.0800 
 23 H       -0.5170    -2.9670    -1.9010 H     1 <1>   0.0800 
 24 H       -1.7450    -1.9130    -1.2580 H     1 <1>   0.0800 
 25 H       -1.1450    -3.2400    -0.2960 H     1 <1>   0.0800 
 26 H       -1.3060     0.7840     0.0190 H     1 <1>   0.0800 
 27 H       -1.6840     0.4980     1.6980 H     1 <1>   0.0800 
 28 H       -2.3600    -0.5320     0.4690 H     1 <1>   0.0800 
 29 H        3.8450     1.5880    -0.7690 H     1 <1>   0.1500 
 30 H        6.8720    -1.7400     0.9590 H     1 <1>   0.4000 
 31 H        5.7380    -2.9800     1.3230 H     1 <1>   0.4000 
@<TRIPOS>BOND
  1   1   2  1   
  2   1   3  1   
  3   2   4  1   
  4   2   5  1   
  5   2   6  1   
  6   3   7  1   
  7   3  17  1   
  8   3  18  1   
  9   4   8  1   
 10   4  19  1   
 11   4  20  1   
 12   5   9  1   
 13   5  21  1   
 14   5  22  1   
 15   6  23  1   
 16   6  24  1   
 17   6  25  1   
 18   7   8  ar  
 19   7  10  ar  
 20   8  11  ar  
 21   9  26  1   
 22   9  27  1   
 23   9  28  1   
 24  10  12  ar  
 25  10  29  1   
 26  11  13  ar  
 27  12  13  ar  
 28  12  14  1   
 29  13  15  1   
 30  14  16  3   
 31  15  30  1   
 32  15  31  1   
@<TRIPOS>SUBSTRUCTURE
  1 ****   7 GROUP 4 **** **** 0

# MOE 2024.06 (io_trps.svl 2023.06)
