@<TRIPOS>MOLECULE
Structure1654
40 40 1 0 0 
SMALL
USER_CHARGES


@<TRIPOS>ATOM
  1 O        0.2600    -0.1680     0.8370 O.2   1 <1>  -0.5700 
  2 C        0.8530    -1.1920     0.5630 C.2   1 <1>   0.7800 
  3 O        0.2060    -2.3320     0.3070 O.3   1 <1>  -0.4300 
  4 N        2.2170    -1.2370     0.5020 N.am  1 <1>  -0.6600 
  5 C       -1.1920    -2.5340     0.3090 C.3   1 <1>   0.2800 
  6 C        3.0030    -2.4450     0.2140 C.3   1 <1>   0.1400 
  7 C        3.0750    -0.0700     0.7700 C.3   1 <1>   0.1400 
  8 C       -1.8560    -1.6660    -0.7660 C.3   1 <1>  -0.2400 
  9 C       -1.3830    -4.0090    -0.0470 C.3   1 <1>  -0.2400 
 10 C       -1.7640    -2.2750     1.7070 C.3   1 <1>  -0.2400 
 11 C        4.4320    -2.0800     0.6210 C.3   1 <1>  -0.0800 
 12 C        4.4830    -0.5560     0.4420 C.3   1 <1>  -0.1600 
 13 C        5.5070    -2.8330    -0.1830 C.3   1 <1>   0.4230 
 14 N        5.3430    -4.2900    -0.0170 N.4   1 <1>  -0.8530 
 15 C        6.9180    -2.4730     0.2460 C.3   1 <1>  -0.2660 
 16 C        7.8100    -3.1850    -0.7100 C.2   1 <1>   0.9060 
 17 O        8.1690    -2.5940    -1.7170 O.co2 1 <1>  -0.9000 
 18 O        7.9180    -4.4050    -0.5440 O.co2 1 <1>  -0.9000 
 19 H        2.9370    -2.6480    -0.8420 H     1 <1>   0.0800 
 20 H        2.6260    -3.2840     0.7730 H     1 <1>   0.0800 
 21 H        2.9910     0.1970     1.8100 H     1 <1>   0.0800 
 22 H        2.7840     0.7680     0.1590 H     1 <1>   0.0800 
 23 H       -1.3840    -1.8210    -1.7190 H     1 <1>   0.0800 
 24 H       -1.8040    -0.6240    -0.5110 H     1 <1>   0.0800 
 25 H       -2.8950    -1.9250    -0.8550 H     1 <1>   0.0800 
 26 H       -0.9670    -4.2170    -1.0170 H     1 <1>   0.0800 
 27 H       -2.4290    -4.2540    -0.0700 H     1 <1>   0.0800 
 28 H       -0.9050    -4.6360     0.6840 H     1 <1>   0.0800 
 29 H       -1.7120    -1.2330     1.9620 H     1 <1>   0.0800 
 30 H       -1.2290    -2.8470     2.4440 H     1 <1>   0.0800 
 31 H       -2.7990    -2.5630     1.7380 H     1 <1>   0.0800 
 32 H        4.5510    -2.2950     1.6700 H     1 <1>   0.0800 
 33 H        5.2130    -0.0860     1.0780 H     1 <1>   0.0800 
 34 H        4.7020    -0.3020    -0.5820 H     1 <1>   0.0800 
 35 H        5.4080    -2.5820    -1.2290 H     1 <1>   0.0800 
 36 H        5.2570    -4.5680     0.9590 H     1 <1>   0.4500 
 37 H        6.2660    -4.6900    -0.3290 H     1 <1>   0.4500 
 38 H        4.6270    -4.6990    -0.6150 H     1 <1>   0.4500 
 39 H        7.1350    -2.7750     1.2520 H     1 <1>   0.0800 
 40 H        7.1000    -1.4200     0.1440 H     1 <1>   0.0800 
@<TRIPOS>BOND
  1   1   2  2   
  2   2   3  1   
  3   2   4  am  
  4   3   5  1   
  5   4   6  1   
  6   4   7  1   
  7   5   8  1   
  8   5   9  1   
  9   5  10  1   
 10   6  11  1   
 11   6  19  1   
 12   6  20  1   
 13   7  12  1   
 14   7  21  1   
 15   7  22  1   
 16   8  23  1   
 17   8  24  1   
 18   8  25  1   
 19   9  26  1   
 20   9  27  1   
 21   9  28  1   
 22  10  29  1   
 23  10  30  1   
 24  10  31  1   
 25  11  12  1   
 26  11  13  1   
 27  11  32  1   
 28  12  33  1   
 29  12  34  1   
 30  13  14  1   
 31  13  15  1   
 32  13  35  1   
 33  14  36  1   
 34  14  37  1   
 35  14  38  1   
 36  15  16  1   
 37  15  39  1   
 38  15  40  1   
 39  16  17  ar  
 40  16  18  ar  
@<TRIPOS>SUBSTRUCTURE
  1 ****   6 GROUP 4 **** **** 0

# MOE 2024.06 (io_trps.svl 2023.06)
