@<TRIPOS>MOLECULE
NONAME
35 34 1 0 0 
SMALL
USER_CHARGES


@<TRIPOS>ATOM
  1 O        2.0510    -1.2990    -1.7370 O.co2 1 <1>  -0.9000 
  2 C        1.8930    -1.0350    -0.5410 C.2   1 <1>   0.9060 
  3 O        0.8960    -1.3840     0.0940 O.co2 1 <1>  -0.9000 
  4 C        2.9550    -0.2330     0.1530 C.3   1 <1>  -0.2660 
  5 C        4.3200    -0.9020     0.0110 C.3   1 <1>   0.2200 
  6 N        4.4480    -1.9900     1.0020 N.am  1 <1>  -0.7300 
  7 C        5.4490     0.1110     0.2520 C.3   1 <1>  -0.1600 
  8 C        4.3210    -3.3240     0.8290 C.2   1 <1>   0.5690 
  9 C        6.8510    -0.4960     0.0710 C.3   1 <1>  -0.1600 
 10 O        4.6110    -4.0740     1.7290 O.2   1 <1>  -0.5700 
 11 C        3.8400    -3.9060    -0.4780 C.3   1 <1>  -0.1790 
 12 C        7.9420     0.5680     0.2420 C.3   1 <1>  -0.1600 
 13 C        9.3380    -0.0400     0.0610 C.3   1 <1>  -0.1600 
 14 C       10.4310     1.0210     0.2300 C.3   1 <1>  -0.1600 
 15 C       11.8240     0.4120     0.0480 C.3   1 <1>  -0.2400 
 16 H        2.6910    -0.0970     1.1830 H     1 <1>   0.0800 
 17 H        2.9620     0.7240    -0.3290 H     1 <1>   0.0800 
 18 H        4.4220    -1.2940    -0.9870 H     1 <1>   0.0800 
 19 H        4.6520    -1.6890     1.9510 H     1 <1>   0.3700 
 20 H        5.3510     0.5270     1.2390 H     1 <1>   0.0800 
 21 H        5.3320     0.9150    -0.4530 H     1 <1>   0.0800 
 22 H        6.9230    -0.9310    -0.9110 H     1 <1>   0.0800 
 23 H        7.0050    -1.2800     0.7920 H     1 <1>   0.0800 
 24 H        2.8060    -3.6520    -0.6210 H     1 <1>   0.0800 
 25 H        3.9310    -4.9750    -0.4570 H     1 <1>   0.0800 
 26 H        4.4150    -3.5210    -1.2960 H     1 <1>   0.0800 
 27 H        7.8660     1.0030     1.2240 H     1 <1>   0.0800 
 28 H        7.7960     1.3500    -0.4840 H     1 <1>   0.0800 
 29 H        9.4120    -0.4770    -0.9210 H     1 <1>   0.0800 
 30 H        9.4830    -0.8220     0.7860 H     1 <1>   0.0800 
 31 H       10.3620     1.4580     1.2120 H     1 <1>   0.0800 
 32 H       10.2900     1.8050    -0.4950 H     1 <1>   0.0800 
 33 H       11.9940    -0.3610     0.7770 H     1 <1>   0.0800 
 34 H       12.5770     1.1700     0.1710 H     1 <1>   0.0800 
 35 H       11.9230    -0.0120    -0.9370 H     1 <1>   0.0800 
@<TRIPOS>BOND
  1   1   2  ar  
  2   2   3  ar  
  3   2   4  1   
  4   4   5  1   
  5   4  16  1   
  6   4  17  1   
  7   5   6  1   
  8   5   7  1   
  9   5  18  1   
 10   6   8  am  
 11   6  19  1   
 12   7   9  1   
 13   7  20  1   
 14   7  21  1   
 15   8  10  2   
 16   8  11  1   
 17   9  12  1   
 18   9  22  1   
 19   9  23  1   
 20  11  24  1   
 21  11  25  1   
 22  11  26  1   
 23  12  13  1   
 24  12  27  1   
 25  12  28  1   
 26  13  14  1   
 27  13  29  1   
 28  13  30  1   
 29  14  15  1   
 30  14  31  1   
 31  14  32  1   
 32  15  33  1   
 33  15  34  1   
 34  15  35  1   
@<TRIPOS>SUBSTRUCTURE
  1 ****   5 GROUP 4 **** **** 0

# MOE 2024.06 (io_trps.svl 2023.06)
