@<TRIPOS>MOLECULE
NONAME
40 41 1 0 0 
SMALL
USER_CHARGES


@<TRIPOS>ATOM
  1 O        0.5970    -0.3050     0.0670 O.3   1 <1>  -0.3630 
  2 C       -0.6380    -0.8670     0.0730 C.ar  1 <1>   0.0820 
  3 C        1.7620    -1.1010     0.0600 C.3   1 <1>   0.1200 
  4 C       -1.7180     0.0010     0.0800 C.ar  1 <1>  -0.1500 
  5 C       -0.8640    -2.2410     0.0720 C.ar  1 <1>  -0.1500 
  6 C        2.9740    -0.1770     0.0550 C.3   1 <1>   0.1200 
  7 C       -3.0170    -0.4820     0.0860 C.ar  1 <1>  -0.1440 
  8 C       -2.1590    -2.7270     0.0770 C.ar  1 <1>  -0.1500 
  9 O        4.1410    -0.9710     0.0480 O.3   1 <1>  -0.3630 
 10 C       -3.2320    -1.8510     0.0840 C.ar  1 <1>  -0.1500 
 11 C       -4.1960     0.4730     0.0930 C.3   1 <1>  -0.0970 
 12 C        5.3740    -0.4000     0.0430 C.ar  1 <1>   0.0820 
 13 C        5.5920     0.9750     0.0430 C.ar  1 <1>  -0.1500 
 14 C        6.4590    -1.2620     0.0370 C.ar  1 <1>  -0.1500 
 15 C        6.8850     1.4680     0.0380 C.ar  1 <1>  -0.1500 
 16 C        7.7520    -0.7690     0.0320 C.ar  1 <1>  -0.1500 
 17 C        7.9710     0.6070     0.0320 C.ar  1 <1>   0.0820 
 18 O        9.2030     1.1790     0.0270 O.3   1 <1>  -0.3620 
 19 C       10.3700     0.3920     0.0210 C.3   1 <1>   0.1200 
 20 C       11.5720     1.3310     0.0170 C.3   1 <1>  -0.2400 
 21 H        1.7520    -1.7080    -0.8280 H     1 <1>   0.0800 
 22 H        1.7610    -1.7110     0.9460 H     1 <1>   0.0800 
 23 H       -1.5290     1.0580     0.0790 H     1 <1>   0.1500 
 24 H       -0.0520    -2.9430     0.0670 H     1 <1>   0.1500 
 25 H        2.9830     0.4310     0.9420 H     1 <1>   0.0800 
 26 H        2.9740     0.4340    -0.8310 H     1 <1>   0.0800 
 27 H       -2.3370    -3.7880     0.0760 H     1 <1>   0.1500 
 28 H       -4.2350    -2.2390     0.0870 H     1 <1>   0.1500 
 29 H       -3.8930     1.4490     0.4280 H     1 <1>   0.0800 
 30 H       -4.9640     0.1110     0.7520 H     1 <1>   0.0800 
 31 H       -4.6000     0.5580    -0.9000 H     1 <1>   0.0800 
 32 H        4.7770     1.6740     0.0470 H     1 <1>   0.1500 
 33 H        6.2830    -2.3220     0.0370 H     1 <1>   0.1500 
 34 H        7.0640     2.5280     0.0380 H     1 <1>   0.1500 
 35 H        8.5680    -1.4660     0.0270 H     1 <1>   0.1500 
 36 H       10.3640    -0.2210    -0.8630 H     1 <1>   0.0800 
 37 H       10.3710    -0.2230     0.9050 H     1 <1>   0.0800 
 38 H       11.5520     1.9520    -0.8610 H     1 <1>   0.0800 
 39 H       12.4820     0.7590     0.0120 H     1 <1>   0.0800 
 40 H       11.5590     1.9500     0.8960 H     1 <1>   0.0800 
@<TRIPOS>BOND
  1   1   2  1   
  2   1   3  1   
  3   2   4  ar  
  4   2   5  ar  
  5   3   6  1   
  6   3  21  1   
  7   3  22  1   
  8   4   7  ar  
  9   4  23  1   
 10   5   8  ar  
 11   5  24  1   
 12   6   9  1   
 13   6  25  1   
 14   6  26  1   
 15   7  10  ar  
 16   7  11  1   
 17   8  10  ar  
 18   8  27  1   
 19   9  12  1   
 20  10  28  1   
 21  11  29  1   
 22  11  30  1   
 23  11  31  1   
 24  12  13  ar  
 25  12  14  ar  
 26  13  15  ar  
 27  13  32  1   
 28  14  16  ar  
 29  14  33  1   
 30  15  17  ar  
 31  15  34  1   
 32  16  17  ar  
 33  16  35  1   
 34  17  18  1   
 35  18  19  1   
 36  19  20  1   
 37  19  36  1   
 38  19  37  1   
 39  20  38  1   
 40  20  39  1   
 41  20  40  1   
@<TRIPOS>SUBSTRUCTURE
  1 ****   6 GROUP 4 **** **** 0

# MOE 2024.06 (io_trps.svl 2023.06)
