@<TRIPOS>MOLECULE
NONAME
54 57 1 0 0 
SMALL
USER_CHARGES


@<TRIPOS>ATOM
  1 S       -6.4040     1.4690    -1.4210 S.3   1 <1>  -0.0870 
  2 C       -6.1120     2.9930    -0.5820 C.2   1 <1>  -0.1470 
  3 C       -8.1380     1.7210    -1.3760 C.2   1 <1>  -0.1170 
  4 C       -7.2820     3.6070    -0.3190 C.2   1 <1>  -0.1570 
  5 C       -4.6820     3.4130    -0.2800 C.3   1 <1>   0.3750 
  6 C       -8.4320     2.8830    -0.7670 C.2   1 <1>  -0.1570 
  7 O       -3.9180     3.2210    -1.4260 O.3   1 <1>  -0.6840 
  8 C       -4.0590     2.6620     0.9250 C.3   1 <1>   0.3480 
  9 N       -4.0900     1.1630     0.8410 N.pl3 1 <1>  -0.7670 
 10 C       -3.4390     0.3660    -0.0020 C.cat 1 <1>   1.0690 
 11 C       -4.9030     0.3580     1.6280 C.ar  1 <1>   0.3030 
 12 N       -2.6490     0.8000    -0.9520 N.pl3 1 <1>  -0.8390 
 13 N       -3.7100    -0.9240     0.2330 N.pl3 1 <1>  -0.7670 
 14 C       -4.6660    -0.9510     1.2460 C.ar  1 <1>   0.3030 
 15 C       -5.8290     0.6490     2.6250 C.ar  1 <1>  -0.1160 
 16 C       -3.2380    -2.1310    -0.4960 C.3   1 <1>   0.3480 
 17 C       -5.3510    -2.0010     1.8510 C.ar  1 <1>  -0.1160 
 18 C       -6.5030    -0.3930     3.2300 C.ar  1 <1>  -0.1570 
 19 C       -2.2680    -2.9680     0.3780 C.3   1 <1>   0.3370 
 20 C       -6.2650    -1.7130     2.8450 C.ar  1 <1>  -0.1570 
 21 N       -1.7010    -4.1930    -0.2910 N.4   1 <1>  -0.9610 
 22 C       -2.7340    -5.2270    -0.6170 C.3   1 <1>   0.3370 
 23 C       -0.6310    -4.7900     0.5670 C.3   1 <1>   0.3370 
 24 C       -2.0880    -6.3600    -1.4150 C.3   1 <1>  -0.1670 
 25 C        0.0720    -5.9120    -0.1970 C.3   1 <1>  -0.1670 
 26 C       -0.9170    -6.9910    -0.6540 C.3   1 <1>  -0.1670 
 27 H       -8.7660     0.9650    -1.8170 H     1 <1>   0.1430 
 28 H       -7.4040     4.5550     0.1770 H     1 <1>   0.1430 
 29 H       -4.6690     4.4690    -0.0670 H     1 <1>   0.0730 
 30 H       -9.4240     3.2710    -0.6130 H     1 <1>   0.1430 
 31 H       -4.4240     3.5840    -2.1870 H     1 <1>   0.3950 
 32 H       -4.5870     2.9720     1.8080 H     1 <1>   0.0730 
 33 H       -3.0410     2.9900     1.0430 H     1 <1>   0.0730 
 34 H       -2.2030     0.2320    -1.6600 H     1 <1>   0.4450 
 35 H       -2.7240     1.7960    -1.2040 H     1 <1>   0.4450 
 36 H       -6.0250     1.6640     2.9200 H     1 <1>   0.1430 
 37 H       -2.7370    -1.8370    -1.4010 H     1 <1>   0.0730 
 38 H       -4.0950    -2.7250    -0.7630 H     1 <1>   0.0730 
 39 H       -5.1840    -3.0190     1.5560 H     1 <1>   0.1430 
 40 H       -7.2260    -0.1920     4.0060 H     1 <1>   0.1430 
 41 H       -2.7850    -3.2690     1.2740 H     1 <1>   0.0730 
 42 H       -1.4510    -2.3280     0.6710 H     1 <1>   0.0730 
 43 H       -6.8100    -2.5060     3.3330 H     1 <1>   0.1430 
 44 H       -1.2310    -3.9500    -1.1750 H     1 <1>   0.4450 
 45 H       -3.5290    -4.7960    -1.2030 H     1 <1>   0.0730 
 46 H       -3.1540    -5.6250     0.2920 H     1 <1>   0.0730 
 47 H       -1.0640    -5.1880     1.4710 H     1 <1>   0.0730 
 48 H        0.0930    -4.0380     0.8380 H     1 <1>   0.0730 
 49 H       -1.7500    -5.9860    -2.3660 H     1 <1>   0.0730 
 50 H       -2.8280    -7.1170    -1.6140 H     1 <1>   0.0730 
 51 H        0.8130    -6.3610     0.4420 H     1 <1>   0.0730 
 52 H        0.5880    -5.5020    -1.0470 H     1 <1>   0.0730 
 53 H       -0.4140    -7.7080    -1.2820 H     1 <1>   0.0730 
 54 H       -1.2920    -7.5200     0.2070 H     1 <1>   0.0730 
@<TRIPOS>BOND
  1   1   2  1   
  2   1   3  1   
  3   2   4  2   
  4   2   5  1   
  5   3   6  2   
  6   3  27  1   
  7   4   6  1   
  8   4  28  1   
  9   5   7  1   
 10   5   8  1   
 11   5  29  1   
 12   6  30  1   
 13   7  31  1   
 14   8   9  1   
 15   8  32  1   
 16   8  33  1   
 17   9  10  ar  
 18   9  11  1   
 19  10  12  ar  
 20  10  13  ar  
 21  11  14  ar  
 22  11  15  ar  
 23  12  34  1   
 24  12  35  1   
 25  13  14  1   
 26  13  16  1   
 27  14  17  ar  
 28  15  18  ar  
 29  15  36  1   
 30  16  19  1   
 31  16  37  1   
 32  16  38  1   
 33  17  20  ar  
 34  17  39  1   
 35  18  20  ar  
 36  18  40  1   
 37  19  21  1   
 38  19  41  1   
 39  19  42  1   
 40  20  43  1   
 41  21  22  1   
 42  21  23  1   
 43  21  44  1   
 44  22  24  1   
 45  22  45  1   
 46  22  46  1   
 47  23  25  1   
 48  23  47  1   
 49  23  48  1   
 50  24  26  1   
 51  24  49  1   
 52  24  50  1   
 53  25  26  1   
 54  25  51  1   
 55  25  52  1   
 56  26  53  1   
 57  26  54  1   
@<TRIPOS>SUBSTRUCTURE
  1 ****  13 GROUP 4 **** **** 0

# MOE 2024.06 (io_trps.svl 2023.06)
