@<TRIPOS>MOLECULE
NONAME
34 35 1 0 0 
SMALL
USER_CHARGES


@<TRIPOS>ATOM
  1 CL       0.3780    -0.6990    -0.3760 Cl    1 <1>  -0.1770 
  2 C       -0.2140     0.8980     0.0130 C.ar  1 <1>   0.1770 
  3 C       -0.3040     1.8780    -0.9660 C.ar  1 <1>  -0.1440 
  4 C       -0.5850     1.1390     1.3250 C.ar  1 <1>  -0.1500 
  5 C       -0.7970     3.1180    -0.5800 C.ar  1 <1>   0.1770 
  6 C        0.1220     1.5960    -2.4030 C.3   1 <1>   0.2140 
  7 C       -1.0660     2.3860     1.6860 C.ar  1 <1>  -0.1500 
  8 CL      -0.9540     4.4150    -1.7400 Cl    1 <1>  -0.1770 
  9 C       -1.1730     3.3780     0.7270 C.ar  1 <1>  -0.1500 
 10 S        1.9360     1.6100    -2.4890 S.3   1 <1>  -0.4600 
 11 C        2.4050     3.3350    -2.0880 C.3   1 <1>   0.1310 
 12 C        3.8510     3.4340    -1.6100 C.2   1 <1>   0.5690 
 13 O        4.6110     4.0810    -2.2930 O.2   1 <1>  -0.5700 
 14 N        4.2610     2.8500    -0.4350 N.am  1 <1>  -0.6600 
 15 C        5.6850     2.9090     0.0090 C.3   1 <1>   0.1400 
 16 C        3.4020     2.0300     0.4730 C.3   1 <1>   0.1400 
 17 C        5.7750     3.2590     1.5030 C.3   1 <1>   0.1200 
 18 C        3.6270     2.4230     1.9430 C.3   1 <1>   0.1200 
 19 O        4.9880     2.3890     2.2670 O.3   1 <1>  -0.5600 
 20 H       -0.4990     0.3530     2.0540 H     1 <1>   0.1500 
 21 H       -0.2380     2.3270    -3.1030 H     1 <1>   0.0800 
 22 H       -0.1980     0.6190    -2.7200 H     1 <1>   0.0800 
 23 H       -1.3580     2.5810     2.7050 H     1 <1>   0.1500 
 24 H       -1.5500     4.3520     0.9880 H     1 <1>   0.1500 
 25 H        1.7490     3.6940    -1.3210 H     1 <1>   0.0800 
 26 H        2.2670     3.9150    -2.9820 H     1 <1>   0.0800 
 27 H        6.2290     3.6430    -0.5590 H     1 <1>   0.0800 
 28 H        6.1460     1.9520    -0.1590 H     1 <1>   0.0800 
 29 H        3.6430     0.9900     0.3420 H     1 <1>   0.0800 
 30 H        2.3620     2.1590     0.2420 H     1 <1>   0.0800 
 31 H        5.4420     4.2680     1.6750 H     1 <1>   0.0800 
 32 H        6.7910     3.1680     1.8440 H     1 <1>   0.0800 
 33 H        3.1180     1.7320     2.5920 H     1 <1>   0.0800 
 34 H        3.2540     3.4140     2.1310 H     1 <1>   0.0800 
@<TRIPOS>BOND
  1   1   2  1   
  2   2   3  ar  
  3   2   4  ar  
  4   3   5  ar  
  5   3   6  1   
  6   4   7  ar  
  7   4  20  1   
  8   5   8  1   
  9   5   9  ar  
 10   6  10  1   
 11   6  21  1   
 12   6  22  1   
 13   7   9  ar  
 14   7  23  1   
 15   9  24  1   
 16  10  11  1   
 17  11  12  1   
 18  11  25  1   
 19  11  26  1   
 20  12  13  2   
 21  12  14  am  
 22  14  15  1   
 23  14  16  1   
 24  15  17  1   
 25  15  27  1   
 26  15  28  1   
 27  16  18  1   
 28  16  29  1   
 29  16  30  1   
 30  17  19  1   
 31  17  31  1   
 32  17  32  1   
 33  18  19  1   
 34  18  33  1   
 35  18  34  1   
@<TRIPOS>SUBSTRUCTURE
  1 ****  16 GROUP 4 **** **** 0

# MOE 2024.06 (io_trps.svl 2023.06)
