@<TRIPOS>MOLECULE
NONAME
37 38 1 0 0 
SMALL
USER_CHARGES


@<TRIPOS>ATOM
  1 CL       0.0280    -0.2080     0.4690 Cl    1 <1>  -0.1770 
  2 C       -1.5460    -0.8840     0.1440 C.ar  1 <1>   0.1770 
  3 C       -2.6700    -0.1120     0.3560 C.ar  1 <1>  -0.1500 
  4 C       -1.6390    -2.1810    -0.3190 C.ar  1 <1>  -0.1500 
  5 C       -3.9450    -0.6240     0.1050 C.ar  1 <1>   0.0860 
  6 C       -2.8920    -2.7110    -0.5750 C.ar  1 <1>  -0.1500 
  7 C       -5.1260     0.1910     0.3280 C.2   1 <1>   0.6340 
  8 C       -4.0230    -1.9400    -0.3640 C.ar  1 <1>  -0.1500 
  9 O       -5.0830     1.3340     0.7320 O.2   1 <1>  -0.5700 
 10 O       -6.3310    -0.3380     0.0770 O.3   1 <1>  -0.4300 
 11 C       -7.5060     0.4190     0.2880 C.3   1 <1>   0.1200 
 12 C       -8.7180    -0.4280    -0.1130 C.3   1 <1>   0.3430 
 13 N      -10.0200     0.2680     0.1550 N.4   1 <1>  -0.9590 
 14 C      -11.1580    -0.6860    -0.0110 C.3   1 <1>   0.3430 
 15 C      -10.2060     1.4840    -0.6960 C.3   1 <1>   0.3430 
 16 C      -12.4640    -0.0100     0.4100 C.3   1 <1>  -0.1600 
 17 C      -11.4920     2.2070    -0.2920 C.3   1 <1>  -0.1600 
 18 C      -12.7140     1.2830    -0.3750 C.3   1 <1>  -0.1600 
 19 H       -2.5530     0.8940     0.7180 H     1 <1>   0.1500 
 20 H       -0.7470    -2.7620    -0.4760 H     1 <1>   0.1500 
 21 H       -2.9820    -3.7220    -0.9370 H     1 <1>   0.1500 
 22 H       -4.9850    -2.3760    -0.5710 H     1 <1>   0.1500 
 23 H       -7.4350     1.3090    -0.3130 H     1 <1>   0.0800 
 24 H       -7.5460     0.6800     1.3320 H     1 <1>   0.0800 
 25 H       -8.6850    -1.3460     0.4500 H     1 <1>   0.0800 
 26 H       -8.6470    -0.6680    -1.1610 H     1 <1>   0.0800 
 27 H      -10.0360     0.5770     1.1370 H     1 <1>   0.4500 
 28 H      -10.9990    -1.5640     0.5950 H     1 <1>   0.0800 
 29 H      -11.2290    -0.9940    -1.0420 H     1 <1>   0.0800 
 30 H      -10.2660     1.1990    -1.7340 H     1 <1>   0.0800 
 31 H       -9.3720     2.1570    -0.5770 H     1 <1>   0.0800 
 32 H      -12.4360     0.2000     1.4660 H     1 <1>   0.0800 
 33 H      -13.2820    -0.6910     0.2420 H     1 <1>   0.0800 
 34 H      -11.6410     3.0510    -0.9430 H     1 <1>   0.0800 
 35 H      -11.3880     2.5900     0.7090 H     1 <1>   0.0800 
 36 H      -13.5820     1.7880     0.0160 H     1 <1>   0.0800 
 37 H      -12.9130     1.0440    -1.4070 H     1 <1>   0.0800 
@<TRIPOS>BOND
  1   1   2  1   
  2   2   3  ar  
  3   2   4  ar  
  4   3   5  ar  
  5   3  19  1   
  6   4   6  ar  
  7   4  20  1   
  8   5   7  1   
  9   5   8  ar  
 10   6   8  ar  
 11   6  21  1   
 12   7   9  2   
 13   7  10  1   
 14   8  22  1   
 15  10  11  1   
 16  11  12  1   
 17  11  23  1   
 18  11  24  1   
 19  12  13  1   
 20  12  25  1   
 21  12  26  1   
 22  13  14  1   
 23  13  15  1   
 24  13  27  1   
 25  14  16  1   
 26  14  28  1   
 27  14  29  1   
 28  15  17  1   
 29  15  30  1   
 30  15  31  1   
 31  16  18  1   
 32  16  32  1   
 33  16  33  1   
 34  17  18  1   
 35  17  34  1   
 36  17  35  1   
 37  18  36  1   
 38  18  37  1   
@<TRIPOS>SUBSTRUCTURE
  1 ****  10 GROUP 4 **** **** 0

# MOE 2024.06 (io_trps.svl 2023.06)
