@<TRIPOS>MOLECULE
NONAME
49 51 1 0 0 
SMALL
USER_CHARGES


@<TRIPOS>ATOM
  1 O        1.7600    -2.3000    -0.2650 O.3   1 <1>  -0.3630 
  2 C        0.6730    -3.0990    -0.1910 C.ar  1 <1>   0.0820 
  3 C        2.7320    -2.5080     0.7350 C.3   1 <1>   0.1200 
  4 C       -0.4310    -2.6970     0.5580 C.ar  1 <1>  -0.1440 
  5 C        0.6700    -4.3150    -0.8710 C.ar  1 <1>  -0.1440 
  6 C        3.9930    -1.7200     0.3610 C.3   1 <1>   0.2000 
  7 C       -1.5230    -3.5430     0.6530 C.ar  1 <1>  -0.1500 
  8 C       -0.4730    -1.3500     1.2680 C.3   1 <1>  -0.0960 
  9 C       -0.4340    -5.1440    -0.7610 C.ar  1 <1>  -0.1500 
 10 C        1.8450    -4.7480    -1.7370 C.3   1 <1>  -0.0960 
 11 O        4.3200    -1.9970    -0.9680 O.3   1 <1>  -0.6800 
 12 C        5.1980    -2.0700     1.2610 C.3   1 <1>   0.3430 
 13 C       -1.5240    -4.7630     0.0010 C.ar  1 <1>  -0.1500 
 14 N        6.4820    -1.7830     0.5520 N.4   1 <1>  -0.9590 
 15 C        7.6160    -2.6270     1.0160 C.3   1 <1>   0.4860 
 16 C        6.8500    -0.3400     0.5270 C.3   1 <1>   0.3430 
 17 C        8.8750    -2.3240     0.2190 C.ar  1 <1>  -0.1430 
 18 C        7.9170    -0.0990    -0.5430 C.3   1 <1>  -0.0170 
 19 C        9.0260    -1.1400    -0.4990 C.ar  1 <1>  -0.1430 
 20 C        9.9040    -3.2550     0.2220 C.ar  1 <1>  -0.1500 
 21 C       10.1970    -0.9050    -1.2000 C.ar  1 <1>  -0.1500 
 22 C       11.0700    -3.0140    -0.4810 C.ar  1 <1>  -0.1500 
 23 C       11.2170    -1.8380    -1.1910 C.ar  1 <1>  -0.1500 
 24 H        2.9420    -3.5620     0.7930 H     1 <1>   0.0800 
 25 H        2.3280    -2.1750     1.6750 H     1 <1>   0.0800 
 26 H        3.7790    -0.6670     0.4320 H     1 <1>   0.0800 
 27 H       -2.3830    -3.2570     1.2330 H     1 <1>   0.1500 
 28 H        0.0390    -1.4140     2.2100 H     1 <1>   0.0800 
 29 H       -1.4900    -1.0510     1.4490 H     1 <1>   0.0800 
 30 H       -0.0090    -0.5930     0.6620 H     1 <1>   0.0800 
 31 H       -0.4550    -6.0910    -1.2700 H     1 <1>   0.1500 
 32 H        2.1500    -3.9390    -2.3760 H     1 <1>   0.0800 
 33 H        1.5730    -5.5800    -2.3620 H     1 <1>   0.0800 
 34 H        2.6730    -5.0410    -1.1200 H     1 <1>   0.0800 
 35 H        3.4840    -1.9940    -1.4940 H     1 <1>   0.4000 
 36 H        5.1460    -3.1230     1.4840 H     1 <1>   0.0800 
 37 H        5.1420    -1.5310     2.1920 H     1 <1>   0.0800 
 38 H       -2.3770    -5.4140     0.0810 H     1 <1>   0.1500 
 39 H        6.2870    -2.0470    -0.4340 H     1 <1>   0.4500 
 40 H        7.3670    -3.6690     0.8990 H     1 <1>   0.0800 
 41 H        7.8100    -2.4380     2.0590 H     1 <1>   0.0800 
 42 H        7.2370    -0.0480     1.4900 H     1 <1>   0.0800 
 43 H        5.9860     0.2640     0.3050 H     1 <1>   0.0800 
 44 H        8.3340     0.8830    -0.4040 H     1 <1>   0.0800 
 45 H        7.4540    -0.1210    -1.5140 H     1 <1>   0.0800 
 46 H        9.8140    -4.1780     0.7690 H     1 <1>   0.1500 
 47 H       10.3250     0.0050    -1.7620 H     1 <1>   0.1500 
 48 H       11.8660    -3.7390    -0.4760 H     1 <1>   0.1500 
 49 H       12.1260    -1.6490    -1.7380 H     1 <1>   0.1500 
@<TRIPOS>BOND
  1   1   2  1   
  2   1   3  1   
  3   2   4  ar  
  4   2   5  ar  
  5   3   6  1   
  6   3  24  1   
  7   3  25  1   
  8   4   7  ar  
  9   4   8  1   
 10   5   9  ar  
 11   5  10  1   
 12   6  11  1   
 13   6  12  1   
 14   6  26  1   
 15   7  13  ar  
 16   7  27  1   
 17   8  28  1   
 18   8  29  1   
 19   8  30  1   
 20   9  13  ar  
 21   9  31  1   
 22  10  32  1   
 23  10  33  1   
 24  10  34  1   
 25  11  35  1   
 26  12  14  1   
 27  12  36  1   
 28  12  37  1   
 29  13  38  1   
 30  14  15  1   
 31  14  16  1   
 32  14  39  1   
 33  15  17  1   
 34  15  40  1   
 35  15  41  1   
 36  16  18  1   
 37  16  42  1   
 38  16  43  1   
 39  17  19  ar  
 40  17  20  ar  
 41  18  19  1   
 42  18  44  1   
 43  18  45  1   
 44  19  21  ar  
 45  20  22  ar  
 46  20  46  1   
 47  21  23  ar  
 48  21  47  1   
 49  22  23  ar  
 50  22  48  1   
 51  23  49  1   
@<TRIPOS>SUBSTRUCTURE
  1 ****   6 GROUP 4 **** **** 0

# MOE 2024.06 (io_trps.svl 2023.06)
