@<TRIPOS>MOLECULE
NONAME
29 32 1 0 0 
SMALL
USER_CHARGES


@<TRIPOS>ATOM
  1 O       -0.4900    -0.8010    -0.7050 O.3   1 <1>  -0.3370 
  2 N       -1.5610    -0.6620    -1.4620 N.2   1 <1>  -0.5130 
  3 C       -2.3740     0.2610    -1.1820 C.2   1 <1>   0.3280 
  4 C       -2.2520     1.3350    -0.1020 C.3   1 <1>  -0.0190 
  5 C       -3.7070     0.4520    -1.8720 C.3   1 <1>  -0.0990 
  6 C       -2.8010     0.8820     1.2840 C.3   1 <1>  -0.0190 
  7 C       -3.2940     2.3800    -0.5380 C.3   1 <1>  -0.0800 
  8 C       -4.4430     1.4610    -0.9750 C.3   1 <1>  -0.0800 
  9 C       -3.2990    -0.5500     1.2890 C.2   1 <1>   0.3280 
 10 C       -4.0990     1.6920     1.4080 C.3   1 <1>  -0.0800 
 11 C       -3.7810     3.0090     0.7440 C.3   1 <1>  -0.1600 
 12 C       -4.9940     0.9440     0.4030 C.3   1 <1>  -0.0800 
 13 N       -2.6140    -1.5410     1.6720 N.2   1 <1>  -0.5130 
 14 C       -4.7320    -0.5310     0.7760 C.3   1 <1>  -0.0990 
 15 O       -3.1730    -2.7350     1.6310 O.3   1 <1>  -0.3370 
 16 H       -0.6710    -1.2390     0.1560 H     1 <1>   0.4000 
 17 H       -1.2600     1.7440    -0.0330 H     1 <1>   0.0800 
 18 H       -3.5290     0.8850    -2.8400 H     1 <1>   0.0800 
 19 H       -4.2340    -0.4740    -2.0030 H     1 <1>   0.0800 
 20 H       -2.1070     1.0820     2.0800 H     1 <1>   0.0800 
 21 H       -2.9510     3.0610    -1.2990 H     1 <1>   0.0800 
 22 H       -5.2020     2.0010    -1.5140 H     1 <1>   0.0800 
 23 H       -4.4950     1.7470     2.4080 H     1 <1>   0.0800 
 24 H       -4.6550     3.6220     0.6000 H     1 <1>   0.0800 
 25 H       -3.0090     3.5570     1.2580 H     1 <1>   0.0800 
 26 H       -6.0310     1.2090     0.5200 H     1 <1>   0.0800 
 27 H       -4.8790    -1.2180    -0.0360 H     1 <1>   0.0800 
 28 H       -5.3790    -0.8210     1.5840 H     1 <1>   0.0800 
 29 H       -2.5930    -3.4690     1.9180 H     1 <1>   0.4000 
@<TRIPOS>BOND
  1   1   2  1   
  2   1  16  1   
  3   2   3  2   
  4   3   4  1   
  5   3   5  1   
  6   4   6  1   
  7   4   7  1   
  8   4  17  1   
  9   5   8  1   
 10   5  18  1   
 11   5  19  1   
 12   6   9  1   
 13   6  10  1   
 14   6  20  1   
 15   7   8  1   
 16   7  11  1   
 17   7  21  1   
 18   8  12  1   
 19   8  22  1   
 20   9  13  2   
 21   9  14  1   
 22  10  11  1   
 23  10  12  1   
 24  10  23  1   
 25  11  24  1   
 26  11  25  1   
 27  12  14  1   
 28  12  26  1   
 29  13  15  1   
 30  14  27  1   
 31  14  28  1   
 32  15  29  1   
@<TRIPOS>SUBSTRUCTURE
  1 ****   6 GROUP 4 **** **** 0

# MOE 2024.06 (io_trps.svl 2023.06)
