@<TRIPOS>MOLECULE
NONAME
47 49 1 0 0 
SMALL
USER_CHARGES


@<TRIPOS>ATOM
  1 S        0.3780     0.6910    -1.2180 S.3   1 <1>  -0.2860 
  2 C       -1.3270     0.2190    -0.9170 C.2   1 <1>   0.2420 
  3 C        1.3570    -0.5240    -0.2130 C.3   1 <1>   0.0700 
  4 N       -1.6740    -0.6770    -0.0610 N.2   1 <1>  -0.5650 
  5 N       -2.3380     0.8080    -1.6060 N.pl3 1 <1>   0.0480 
  6 C        1.6280    -1.8150    -1.0040 C.3   1 <1>   0.3440 
  7 C       -3.0300    -0.7040    -0.1820 C.ar  1 <1>   0.2270 
  8 C       -3.4630     0.2060    -1.1340 C.ar  1 <1>  -0.1520 
  9 C       -2.2420     1.8220    -2.6720 C.3   1 <1>   0.0160 
 10 O        0.4630    -2.3210    -1.5500 O.3   1 <1>  -0.6800 
 11 C        2.2780    -2.8900    -0.1330 C.ar  1 <1>  -0.1430 
 12 C       -3.9550    -1.4940     0.4980 C.ar  1 <1>  -0.1500 
 13 C       -4.8220     0.3440    -1.4260 C.ar  1 <1>  -0.1500 
 14 C        1.6140    -3.4850     0.9400 C.ar  1 <1>   0.0830 
 15 C        3.5770    -3.2810    -0.4220 C.ar  1 <1>  -0.1500 
 16 C       -5.2990    -1.3640     0.2190 C.ar  1 <1>  -0.1430 
 17 C       -5.7260    -0.4420    -0.7460 C.ar  1 <1>  -0.1500 
 18 O        0.3400    -3.0840     1.2030 O.3   1 <1>  -0.3630 
 19 C        2.2610    -4.4550     1.7020 C.ar  1 <1>  -0.1500 
 20 C        4.2240    -4.2440     0.3350 C.ar  1 <1>   0.0830 
 21 C       -6.3330    -2.2090     0.9420 C.3   1 <1>  -0.0970 
 22 C       -0.4330    -3.6550     2.2330 C.3   1 <1>   0.0400 
 23 C        3.5580    -4.8330     1.4040 C.ar  1 <1>  -0.1500 
 24 O        5.4960    -4.5530    -0.0280 O.3   1 <1>  -0.3620 
 25 C        6.2220    -5.5570     0.6450 C.3   1 <1>   0.0400 
 26 H        0.8080    -0.7130     0.6900 H     1 <1>   0.0800 
 27 H        2.2840    -0.0450     0.0400 H     1 <1>   0.0800 
 28 H        2.2730    -1.5830    -1.8330 H     1 <1>   0.0800 
 29 H       -1.5040     2.5560    -2.4030 H     1 <1>   0.0800 
 30 H       -3.1930     2.3050    -2.8000 H     1 <1>   0.0800 
 31 H       -1.9530     1.3420    -3.5890 H     1 <1>   0.0800 
 32 H       -0.2090    -2.3550    -0.8330 H     1 <1>   0.4000 
 33 H       -3.5870    -2.1880     1.2280 H     1 <1>   0.1500 
 34 H       -5.1520     1.0490    -2.1670 H     1 <1>   0.1500 
 35 H        4.1100    -2.8440    -1.2470 H     1 <1>   0.1500 
 36 H       -6.7780    -0.3510    -0.9550 H     1 <1>   0.1500 
 37 H        1.7710    -4.9280     2.5310 H     1 <1>   0.1500 
 38 H       -5.8620    -2.8720     1.6450 H     1 <1>   0.0800 
 39 H       -6.8850    -2.7980     0.2320 H     1 <1>   0.0800 
 40 H       -7.0160    -1.5730     1.4750 H     1 <1>   0.0800 
 41 H       -1.3960    -3.1760     2.2260 H     1 <1>   0.0800 
 42 H        0.0540    -3.4790     3.1750 H     1 <1>   0.0800 
 43 H       -0.5450    -4.7070     2.0420 H     1 <1>   0.0800 
 44 H        4.0290    -5.5820     2.0100 H     1 <1>   0.1500 
 45 H        7.1860    -5.6420     0.1770 H     1 <1>   0.0800 
 46 H        5.6910    -6.4890     0.5590 H     1 <1>   0.0800 
 47 H        6.3400    -5.2720     1.6750 H     1 <1>   0.0800 
@<TRIPOS>BOND
  1   1   2  1   
  2   1   3  1   
  3   2   4  2   
  4   2   5  1   
  5   3   6  1   
  6   3  26  1   
  7   3  27  1   
  8   4   7  1   
  9   5   8  1   
 10   5   9  1   
 11   6  10  1   
 12   6  11  1   
 13   6  28  1   
 14   7   8  ar  
 15   7  12  ar  
 16   8  13  ar  
 17   9  29  1   
 18   9  30  1   
 19   9  31  1   
 20  10  32  1   
 21  11  14  ar  
 22  11  15  ar  
 23  12  16  ar  
 24  12  33  1   
 25  13  17  ar  
 26  13  34  1   
 27  14  18  1   
 28  14  19  ar  
 29  15  20  ar  
 30  15  35  1   
 31  16  17  ar  
 32  16  21  1   
 33  17  36  1   
 34  18  22  1   
 35  19  23  ar  
 36  19  37  1   
 37  20  23  ar  
 38  20  24  1   
 39  21  38  1   
 40  21  39  1   
 41  21  40  1   
 42  22  41  1   
 43  22  42  1   
 44  22  43  1   
 45  23  44  1   
 46  24  25  1   
 47  25  45  1   
 48  25  46  1   
 49  25  47  1   
@<TRIPOS>SUBSTRUCTURE
  1 ****  10 GROUP 4 **** **** 0

# MOE 2024.06 (io_trps.svl 2023.06)
