@<TRIPOS>MOLECULE
NONAME
43 47 1 0 0 
SMALL
USER_CHARGES


@<TRIPOS>ATOM
  1 O        0.6490    -0.7440     0.9060 O.2   1 <1>  -0.5700 
  2 C        1.7170    -0.4120     0.4300 C.2   1 <1>   0.5690 
  3 N        2.6650    -1.3340     0.1580 N.am  1 <1>  -0.5470 
  4 C        2.2320     1.0390     0.0420 C.3   1 <1>   0.7440 
  5 C        3.7910    -0.7470    -0.3680 C.ar  1 <1>   0.1170 
  6 N        1.3930     1.7130    -1.0130 N.3   1 <1>  -0.8100 
  7 N        2.2920     1.9880     1.2110 N.3   1 <1>  -0.8100 
  8 C        3.6470     0.6300    -0.4780 C.ar  1 <1>  -0.1430 
  9 C        4.9450    -1.4100    -0.7520 C.ar  1 <1>  -0.1500 
 10 C        1.9370     3.0160    -1.4420 C.3   1 <1>   0.1100 
 11 C        0.0090     1.9150    -0.5240 C.3   1 <1>   0.1100 
 12 C        2.8660     3.3030     0.8690 C.3   1 <1>   0.1100 
 13 C        0.9400     2.2020     1.7790 C.3   1 <1>   0.1100 
 14 C        4.7230     1.3470    -0.9970 C.ar  1 <1>  -0.1500 
 15 C        5.9990    -0.6790    -1.2650 C.ar  1 <1>  -0.1500 
 16 C        2.0360     3.9820    -0.2400 C.3   1 <1>   0.0000 
 17 C        0.0080     2.8310     0.7210 C.3   1 <1>   0.0000 
 18 C        5.8850     0.6960    -1.3850 C.ar  1 <1>  -0.1500 
 19 C        0.6170     4.2020     0.3400 C.3   1 <1>   0.2000 
 20 C        2.7040     5.3060    -0.6570 C.3   1 <1>  -0.2400 
 21 C       -1.4150     2.9670     1.2960 C.3   1 <1>  -0.2400 
 22 O       -0.1950     4.8700    -0.5750 O.3   1 <1>  -0.6800 
 23 H        2.5200    -2.3250     0.3410 H     1 <1>   0.3700 
 24 H        5.0150    -2.4770    -0.6510 H     1 <1>   0.1500 
 25 H        1.2920     3.4350    -2.1940 H     1 <1>   0.0800 
 26 H        2.8870     2.8820    -1.9160 H     1 <1>   0.0800 
 27 H       -0.4510     0.9720    -0.2930 H     1 <1>   0.0800 
 28 H       -0.5840     2.3540    -1.3070 H     1 <1>   0.0800 
 29 H        3.8930     3.1950     0.5840 H     1 <1>   0.0800 
 30 H        2.8650     3.9240     1.7490 H     1 <1>   0.0800 
 31 H        0.5310     1.2760     2.1390 H     1 <1>   0.0800 
 32 H        1.0150     2.8550     2.6320 H     1 <1>   0.0800 
 33 H        4.6980     2.4100    -1.1150 H     1 <1>   0.1500 
 34 H        6.9040    -1.1750    -1.5690 H     1 <1>   0.1500 
 35 H        6.7070     1.2640    -1.7850 H     1 <1>   0.1500 
 36 H        0.6770     4.8280     1.2140 H     1 <1>   0.0800 
 37 H        3.7050     5.1310    -1.0100 H     1 <1>   0.0800 
 38 H        2.7480     5.9820     0.1790 H     1 <1>   0.0800 
 39 H        2.1450     5.7820    -1.4430 H     1 <1>   0.0800 
 40 H       -1.7920     2.0050     1.5950 H     1 <1>   0.0800 
 41 H       -2.0840     3.3800     0.5620 H     1 <1>   0.0800 
 42 H       -1.4120     3.6170     2.1530 H     1 <1>   0.0800 
 43 H       -0.3070     4.3180    -1.3710 H     1 <1>   0.4000 
@<TRIPOS>BOND
  1   1   2  2   
  2   2   3  am  
  3   2   4  1   
  4   3   5  1   
  5   3  23  1   
  6   4   6  1   
  7   4   7  1   
  8   4   8  1   
  9   5   8  ar  
 10   5   9  ar  
 11   6  10  1   
 12   6  11  1   
 13   7  12  1   
 14   7  13  1   
 15   8  14  ar  
 16   9  15  ar  
 17   9  24  1   
 18  10  16  1   
 19  10  25  1   
 20  10  26  1   
 21  11  17  1   
 22  11  27  1   
 23  11  28  1   
 24  12  16  1   
 25  12  29  1   
 26  12  30  1   
 27  13  17  1   
 28  13  31  1   
 29  13  32  1   
 30  14  18  ar  
 31  14  33  1   
 32  15  18  ar  
 33  15  34  1   
 34  16  19  1   
 35  16  20  1   
 36  17  19  1   
 37  17  21  1   
 38  18  35  1   
 39  19  22  1   
 40  19  36  1   
 41  20  37  1   
 42  20  38  1   
 43  20  39  1   
 44  21  40  1   
 45  21  41  1   
 46  21  42  1   
 47  22  43  1   
@<TRIPOS>SUBSTRUCTURE
  1 ****   4 GROUP 4 **** **** 0

# MOE 2024.06 (io_trps.svl 2023.06)
