@<TRIPOS>MOLECULE
NONAME
44 46 1 0 0 
SMALL
USER_CHARGES


@<TRIPOS>ATOM
  1 S       -0.3040     1.0820    -0.6340 S.3   1 <1>  -0.3320 
  2 C        1.4490     0.8020    -0.4700 C.ar  1 <1>   0.7220 
  3 C       -0.9280     1.0750     1.1200 C.3   1 <1>   0.1310 
  4 N        1.8920     0.6580     0.7690 N.ar  1 <1>  -0.6200 
  5 N        2.1110     0.7680    -1.6120 N.ar  1 <1>  -0.6200 
  6 C       -2.4310     1.2980     1.1890 C.2   1 <1>   0.5690 
  7 C        3.1860     0.4530     0.8610 C.ar  1 <1>   0.1660 
  8 C        3.4000     0.5620    -1.4880 C.ar  1 <1>   0.1660 
  9 O       -2.9310     1.3990     2.2830 O.2   1 <1>  -0.5700 
 10 N       -3.1430     1.3780     0.0220 N.am  1 <1>  -0.5470 
 11 C        3.9910     0.3970    -0.2550 C.ar  1 <1>  -0.1500 
 12 C        3.7560     0.2820     2.2530 C.3   1 <1>  -0.0970 
 13 C        4.2130     0.5140    -2.7640 C.3   1 <1>  -0.0970 
 14 C       -4.5120     1.5740    -0.2390 C.ar  1 <1>   0.1170 
 15 C       -5.4980     1.4360     0.7320 C.ar  1 <1>  -0.1500 
 16 C       -4.8880     1.9140    -1.5430 C.ar  1 <1>  -0.1500 
 17 C       -6.8250     1.6430     0.3910 C.ar  1 <1>   0.1170 
 18 C       -6.2140     2.1190    -1.8850 C.ar  1 <1>  -0.1500 
 19 N       -7.9880     1.5750     1.1500 N.am  1 <1>  -0.4770 
 20 C       -7.1830     1.9800    -0.9030 C.ar  1 <1>   0.1170 
 21 C       -9.0350     1.8710     0.3200 C.2   1 <1>   0.6900 
 22 C       -8.0690     1.2770     2.5950 C.3   1 <1>   0.0600 
 23 N       -8.5670     2.1200    -0.9420 N.am  1 <1>  -0.4770 
 24 O      -10.2120     1.9090     0.6540 O.2   1 <1>  -0.5700 
 25 C       -9.3810     2.4820    -2.1210 C.3   1 <1>   0.0600 
 26 H       -0.4120     1.8570     1.6460 H     1 <1>   0.0800 
 27 H       -0.6740     0.1220     1.5470 H     1 <1>   0.0800 
 28 H       -2.5540     1.3150    -0.8120 H     1 <1>   0.3700 
 29 H        5.0480     0.2280    -0.1660 H     1 <1>   0.1500 
 30 H        3.2910    -0.5620     2.7310 H     1 <1>   0.0800 
 31 H        3.5560     1.1630     2.8350 H     1 <1>   0.0800 
 32 H        4.8170     0.1210     2.2190 H     1 <1>   0.0800 
 33 H        3.8470    -0.2770    -3.3930 H     1 <1>   0.0800 
 34 H        5.2530     0.3410    -2.5570 H     1 <1>   0.0800 
 35 H        4.1120     1.4460    -3.2900 H     1 <1>   0.0800 
 36 H       -5.2560     1.1690     1.7420 H     1 <1>   0.1500 
 37 H       -4.1300     2.0210    -2.2970 H     1 <1>   0.1500 
 38 H       -6.4980     2.3800    -2.8880 H     1 <1>   0.1500 
 39 H       -7.4910     1.9980     3.1440 H     1 <1>   0.0800 
 40 H       -7.6820     0.2910     2.7810 H     1 <1>   0.0800 
 41 H       -9.0940     1.3220     2.9220 H     1 <1>   0.0800 
 42 H       -9.0810     3.4490    -2.4830 H     1 <1>   0.0800 
 43 H      -10.4220     2.5140    -1.8510 H     1 <1>   0.0800 
 44 H       -9.2410     1.7480    -2.8940 H     1 <1>   0.0800 
@<TRIPOS>BOND
  1   1   2  1   
  2   1   3  1   
  3   2   4  ar  
  4   2   5  ar  
  5   3   6  1   
  6   3  26  1   
  7   3  27  1   
  8   4   7  ar  
  9   5   8  ar  
 10   6   9  2   
 11   6  10  am  
 12   7  11  ar  
 13   7  12  1   
 14   8  11  ar  
 15   8  13  1   
 16  10  14  1   
 17  10  28  1   
 18  11  29  1   
 19  12  30  1   
 20  12  31  1   
 21  12  32  1   
 22  13  33  1   
 23  13  34  1   
 24  13  35  1   
 25  14  15  ar  
 26  14  16  ar  
 27  15  17  ar  
 28  15  36  1   
 29  16  18  ar  
 30  16  37  1   
 31  17  19  1   
 32  17  20  ar  
 33  18  20  ar  
 34  18  38  1   
 35  19  21  am  
 36  19  22  1   
 37  20  23  1   
 38  21  23  am  
 39  21  24  2   
 40  22  39  1   
 41  22  40  1   
 42  22  41  1   
 43  23  25  1   
 44  25  42  1   
 45  25  43  1   
 46  25  44  1   
@<TRIPOS>SUBSTRUCTURE
  1 ****  10 GROUP 4 **** **** 0

# MOE 2024.06 (io_trps.svl 2023.06)
