@<TRIPOS>MOLECULE
NONAME
65 68 1 0 0 
SMALL
USER_CHARGES


@<TRIPOS>ATOM
  1 O       -0.3340     0.8600     0.7730 O.2   1 <1>  -0.5700 
  2 C        0.5750     1.6630     0.7070 C.2   1 <1>   0.7800 
  3 O        0.3710     2.8870     0.2090 O.3   1 <1>  -0.4300 
  4 N        1.8450     1.3640     1.1360 N.am  1 <1>  -0.6600 
  5 C       -0.8320     3.4150    -0.3030 C.3   1 <1>   0.2800 
  6 C        2.1920     0.0130     1.6490 C.3   1 <1>   0.1400 
  7 C        2.9680     2.3330     1.0920 C.3   1 <1>   0.1400 
  8 C       -0.4880     4.8400    -0.7390 C.3   1 <1>  -0.2400 
  9 C       -1.2880     2.6100    -1.5260 C.3   1 <1>  -0.2400 
 10 C       -1.9000     3.4680     0.7960 C.3   1 <1>  -0.2400 
 11 C        3.3240    -0.5760     0.8040 C.3   1 <1>  -0.1600 
 12 C        4.0990     1.7580     0.2360 C.3   1 <1>  -0.1600 
 13 C        4.5410     0.3690     0.7380 C.3   1 <1>  -0.0190 
 14 C        5.6580    -0.2090    -0.1360 C.2   1 <1>   0.5690 
 15 O        5.3780    -0.6770    -1.2140 O.2   1 <1>  -0.5700 
 16 N        6.9690    -0.1640     0.2640 N.am  1 <1>  -0.6600 
 17 C        7.9790    -0.9860    -0.4670 C.3   1 <1>   0.1400 
 18 C        7.5710     1.0150     0.9500 C.3   1 <1>   0.1400 
 19 C        8.6590    -0.1200    -1.5400 C.3   1 <1>   0.3430 
 20 C        8.2890     1.9010    -0.0910 C.3   1 <1>   0.3430 
 21 N        9.2690     1.1260    -0.9450 N.4   1 <1>  -0.9590 
 22 C        9.8630     1.9870    -2.0060 C.3   1 <1>   0.4860 
 23 C       10.5660     3.1540    -1.3400 C.ar  1 <1>  -0.1440 
 24 C       11.7370     2.9390    -0.6190 C.ar  1 <1>  -0.1500 
 25 C       10.0320     4.4410    -1.4400 C.ar  1 <1>  -0.1500 
 26 C       12.3280     4.0220    -0.0020 C.ar  1 <1>   0.0820 
 27 C       10.6480     5.5180    -0.8150 C.ar  1 <1>  -0.1500 
 28 O       13.4360     4.0420     0.7440 O.3   1 <1>  -0.3620 
 29 C       11.8000     5.2750    -0.0950 C.ar  1 <1>   0.0820 
 30 C       13.6410     5.4000     1.1360 C.3   1 <1>   0.4000 
 31 O       12.5530     6.1430     0.5870 O.3   1 <1>  -0.3620 
 32 H        1.3370    -0.6420     1.6100 H     1 <1>   0.0800 
 33 H        2.4980     0.0960     2.6780 H     1 <1>   0.0800 
 34 H        3.3140     2.5090     2.0970 H     1 <1>   0.0800 
 35 H        2.6510     3.2770     0.6830 H     1 <1>   0.0800 
 36 H       -0.1400     5.4130     0.1020 H     1 <1>   0.0800 
 37 H       -1.3550     5.3260    -1.1460 H     1 <1>   0.0800 
 38 H        0.2780     4.8230    -1.4930 H     1 <1>   0.0800 
 39 H       -0.4890     2.5330    -2.2410 H     1 <1>   0.0800 
 40 H       -2.1220     3.0980    -1.9960 H     1 <1>   0.0800 
 41 H       -1.6060     1.6230    -1.2450 H     1 <1>   0.0800 
 42 H       -1.5200     3.9760     1.6630 H     1 <1>   0.0800 
 43 H       -2.2180     2.4810     1.0760 H     1 <1>   0.0800 
 44 H       -2.7650     3.9980     0.4410 H     1 <1>   0.0800 
 45 H        2.9460    -0.7600    -0.1880 H     1 <1>   0.0800 
 46 H        3.6190    -1.5230     1.2180 H     1 <1>   0.0800 
 47 H        4.9270     2.4410     0.2470 H     1 <1>   0.0800 
 48 H        3.7530     1.6790    -0.7810 H     1 <1>   0.0800 
 49 H        4.9140     0.4660     1.7420 H     1 <1>   0.0800 
 50 H        7.5020    -1.8310    -0.9350 H     1 <1>   0.0800 
 51 H        8.7080    -1.3690     0.2260 H     1 <1>   0.0800 
 52 H        8.2710     0.6790     1.6950 H     1 <1>   0.0800 
 53 H        6.8180     1.5960     1.4500 H     1 <1>   0.0800 
 54 H        7.9130     0.1490    -2.2700 H     1 <1>   0.0800 
 55 H        9.4170    -0.7030    -2.0370 H     1 <1>   0.0800 
 56 H        8.8030     2.6990     0.4220 H     1 <1>   0.0800 
 57 H        7.5410     2.3480    -0.7240 H     1 <1>   0.0800 
 58 H       10.0410     0.8460    -0.3300 H     1 <1>   0.4500 
 59 H        9.0920     2.3500    -2.6670 H     1 <1>   0.0800 
 60 H       10.5760     1.4250    -2.5870 H     1 <1>   0.0800 
 61 H       12.2010     1.9730    -0.5250 H     1 <1>   0.1500 
 62 H        9.1340     4.6240    -2.0070 H     1 <1>   0.1500 
 63 H       10.2560     6.5180    -0.8810 H     1 <1>   0.1500 
 64 H       14.5670     5.7590     0.7240 H     1 <1>   0.0800 
 65 H       13.6260     5.4750     2.2080 H     1 <1>   0.0800 
@<TRIPOS>BOND
  1   1   2  2   
  2   2   3  1   
  3   2   4  am  
  4   3   5  1   
  5   4   6  1   
  6   4   7  1   
  7   5   8  1   
  8   5   9  1   
  9   5  10  1   
 10   6  11  1   
 11   6  32  1   
 12   6  33  1   
 13   7  12  1   
 14   7  34  1   
 15   7  35  1   
 16   8  36  1   
 17   8  37  1   
 18   8  38  1   
 19   9  39  1   
 20   9  40  1   
 21   9  41  1   
 22  10  42  1   
 23  10  43  1   
 24  10  44  1   
 25  11  13  1   
 26  11  45  1   
 27  11  46  1   
 28  12  13  1   
 29  12  47  1   
 30  12  48  1   
 31  13  14  1   
 32  13  49  1   
 33  14  15  2   
 34  14  16  am  
 35  16  17  1   
 36  16  18  1   
 37  17  19  1   
 38  17  50  1   
 39  17  51  1   
 40  18  20  1   
 41  18  52  1   
 42  18  53  1   
 43  19  21  1   
 44  19  54  1   
 45  19  55  1   
 46  20  21  1   
 47  20  56  1   
 48  20  57  1   
 49  21  22  1   
 50  21  58  1   
 51  22  23  1   
 52  22  59  1   
 53  22  60  1   
 54  23  24  ar  
 55  23  25  ar  
 56  24  26  ar  
 57  24  61  1   
 58  25  27  ar  
 59  25  62  1   
 60  26  28  1   
 61  26  29  ar  
 62  27  29  ar  
 63  27  63  1   
 64  28  30  1   
 65  29  31  1   
 66  30  31  1   
 67  30  64  1   
 68  30  65  1   
@<TRIPOS>SUBSTRUCTURE
  1 ****  18 GROUP 4 **** **** 0

# MOE 2024.06 (io_trps.svl 2023.06)
