@<TRIPOS>MOLECULE
NONAME
29 29 1 0 0 
SMALL
USER_CHARGES


@<TRIPOS>ATOM
  1 S        0.4860     0.1340     1.9320 S.3   1 <1>  -0.3710 
  2 C        1.6940     1.2690     1.3200 C.2   1 <1>   0.6970 
  3 C        0.8350    -1.1450     0.6800 C.3   1 <1>   0.1310 
  4 O        1.7840     2.3250     1.9090 O.2   1 <1>  -0.5700 
  5 C        2.4110     0.7600     0.1910 C.2   1 <1>   0.0290 
  6 C        1.8980    -0.5210    -0.2070 C.2   1 <1>   0.4950 
  7 C        3.4460     1.4680    -0.4030 C.2   1 <1>  -0.0380 
  8 O        2.1970    -1.1540    -1.1920 O.2   1 <1>  -0.5700 
  9 N        3.7650     2.7290    -0.0090 N.pl3 1 <1>  -0.8690 
 10 C        4.3070     0.9040    -1.5320 C.3   1 <1>  -0.1020 
 11 C        4.7670     3.6860    -0.5370 C.3   1 <1>   0.2090 
 12 C        5.9720     3.7030     0.4020 C.3   1 <1>  -0.1600 
 13 C        7.0510     4.6780    -0.0880 C.3   1 <1>  -0.1600 
 14 C        8.2550     4.6870     0.8590 C.3   1 <1>  -0.2400 
 15 H        1.1970    -2.0240     1.1820 H     1 <1>   0.0800 
 16 H       -0.0710    -1.3460     0.1380 H     1 <1>   0.0800 
 17 H        3.2360     3.1330     0.7880 H     1 <1>   0.4000 
 18 H        5.3320     1.2020    -1.4110 H     1 <1>   0.0800 
 19 H        3.9490     1.2630    -2.4790 H     1 <1>   0.0800 
 20 H        4.3190    -0.1680    -1.5490 H     1 <1>   0.0800 
 21 H        5.0690     3.4130    -1.5320 H     1 <1>   0.0800 
 22 H        4.3230     4.6660    -0.5830 H     1 <1>   0.0800 
 23 H        5.6460     3.9930     1.3860 H     1 <1>   0.0800 
 24 H        6.3840     2.7110     0.4570 H     1 <1>   0.0800 
 25 H        7.3790     4.3920    -1.0730 H     1 <1>   0.0800 
 26 H        6.6410     5.6730    -0.1470 H     1 <1>   0.0800 
 27 H        8.6940     3.7070     0.9180 H     1 <1>   0.0800 
 28 H        7.9550     4.9930     1.8460 H     1 <1>   0.0800 
 29 H        9.0010     5.3750     0.5010 H     1 <1>   0.0800 
@<TRIPOS>BOND
  1   1   2  1   
  2   1   3  1   
  3   2   4  2   
  4   2   5  1   
  5   3   6  1   
  6   3  15  1   
  7   3  16  1   
  8   5   6  1   
  9   5   7  2   
 10   6   8  2   
 11   7   9  1   
 12   7  10  1   
 13   9  11  1   
 14   9  17  1   
 15  10  18  1   
 16  10  19  1   
 17  10  20  1   
 18  11  12  1   
 19  11  21  1   
 20  11  22  1   
 21  12  13  1   
 22  12  23  1   
 23  12  24  1   
 24  13  14  1   
 25  13  25  1   
 26  13  26  1   
 27  14  27  1   
 28  14  28  1   
 29  14  29  1   
@<TRIPOS>SUBSTRUCTURE
  1 ****   7 GROUP 4 **** **** 0

# MOE 2024.06 (io_trps.svl 2023.06)
