@<TRIPOS>MOLECULE
NONAME
52 54 1 0 0 
SMALL
USER_CHARGES


@<TRIPOS>ATOM
  1 S       -0.1010    -0.7140     1.6390 S.o2  1 <1>   1.4470 
  2 O       -0.5050     0.6420     1.3280 O.2   1 <1>  -0.6500 
  3 O        0.0140    -1.0890     3.0340 O.2   1 <1>  -0.6500 
  4 N       -1.2470    -1.7680     0.9670 N.am  1 <1>  -0.8490 
  5 C        1.4470    -1.1050     0.7850 C.ar  1 <1>  -0.0090 
  6 C       -2.6180    -1.3680     1.3160 C.3   1 <1>   0.1960 
  7 C       -1.0020    -3.1640     1.3370 C.3   1 <1>   0.1960 
  8 C        1.5720    -0.9800    -0.5950 C.ar  1 <1>   0.0820 
  9 C        2.5590    -1.5440     1.4950 C.ar  1 <1>  -0.1500 
 10 C       -3.6320    -2.2090     0.5290 C.3   1 <1>  -0.0190 
 11 C       -1.9470    -4.0850     0.5580 C.3   1 <1>  -0.1600 
 12 O        0.5270    -0.5730    -1.3440 O.3   1 <1>  -0.3630 
 13 C        2.7600    -1.2920    -1.2420 C.ar  1 <1>  -0.1500 
 14 C        3.7520    -1.8550     0.8650 C.ar  1 <1>   0.0820 
 15 C       -5.0580    -1.7860     0.8740 C.2   1 <1>   0.5690 
 16 C       -3.4160    -3.7100     0.7970 C.3   1 <1>  -0.1600 
 17 C        0.5380     0.7760    -1.7550 C.3   1 <1>   0.0400 
 18 C        3.8520    -1.7280    -0.5170 C.ar  1 <1>  -0.1500 
 19 O        4.7690    -2.2750     1.6600 O.3   1 <1>  -0.3630 
 20 O       -5.3170    -1.5310     2.0270 O.2   1 <1>  -0.5700 
 21 N       -6.0200    -1.7150    -0.0980 N.am  1 <1>  -0.6600 
 22 C        6.0310    -2.6000     1.1220 C.3   1 <1>   0.0400 
 23 C       -5.8710    -2.0640    -1.5280 C.3   1 <1>   0.1400 
 24 C       -7.4060    -1.2990     0.2040 C.3   1 <1>   0.1400 
 25 C       -7.2950    -2.1050    -2.0690 C.3   1 <1>  -0.1600 
 26 C       -8.0810    -1.1670    -1.1560 C.3   1 <1>  -0.1600 
 27 H       -2.7700    -0.3310     1.0690 H     1 <1>   0.0800 
 28 H       -2.7740    -1.4840     2.3770 H     1 <1>   0.0800 
 29 H       -1.1520    -3.2960     2.3970 H     1 <1>   0.0800 
 30 H        0.0150    -3.4310     1.1040 H     1 <1>   0.0800 
 31 H        2.5040    -1.6490     2.5650 H     1 <1>   0.1500 
 32 H       -3.4500    -2.0090    -0.5090 H     1 <1>   0.0800 
 33 H       -1.7800    -5.1040     0.8580 H     1 <1>   0.0800 
 34 H       -1.7150    -4.0080    -0.4900 H     1 <1>   0.0800 
 35 H        2.8200    -1.1970    -2.3110 H     1 <1>   0.1500 
 36 H       -4.0550    -4.2950     0.1590 H     1 <1>   0.0800 
 37 H       -3.6770    -3.9270     1.8190 H     1 <1>   0.0800 
 38 H       -0.3820     0.9770    -2.2720 H     1 <1>   0.0800 
 39 H        1.3750     0.9370    -2.4100 H     1 <1>   0.0800 
 40 H        0.6140     1.4070    -0.8860 H     1 <1>   0.0800 
 41 H        4.7600    -1.9630    -1.0390 H     1 <1>   0.1500 
 42 H        6.6730    -2.8960     1.9330 H     1 <1>   0.0800 
 43 H        6.4370    -1.7320     0.6340 H     1 <1>   0.0800 
 44 H        5.9180    -3.4150     0.4300 H     1 <1>   0.0800 
 45 H       -5.3780    -3.0140    -1.6500 H     1 <1>   0.0800 
 46 H       -5.3060    -1.2910    -2.0220 H     1 <1>   0.0800 
 47 H       -7.4170    -0.3710     0.7500 H     1 <1>   0.0800 
 48 H       -7.8800    -2.0670     0.7920 H     1 <1>   0.0800 
 49 H       -7.6760    -3.1070    -1.9760 H     1 <1>   0.0800 
 50 H       -7.3410    -1.8070    -3.1010 H     1 <1>   0.0800 
 51 H       -7.9790    -0.1520    -1.4980 H     1 <1>   0.0800 
 52 H       -9.1260    -1.4170    -1.1090 H     1 <1>   0.0800 
@<TRIPOS>BOND
  1   1   2  2   
  2   1   3  2   
  3   1   4  am  
  4   1   5  1   
  5   4   6  1   
  6   4   7  1   
  7   5   8  ar  
  8   5   9  ar  
  9   6  10  1   
 10   6  27  1   
 11   6  28  1   
 12   7  11  1   
 13   7  29  1   
 14   7  30  1   
 15   8  12  1   
 16   8  13  ar  
 17   9  14  ar  
 18   9  31  1   
 19  10  15  1   
 20  10  16  1   
 21  10  32  1   
 22  11  16  1   
 23  11  33  1   
 24  11  34  1   
 25  12  17  1   
 26  13  18  ar  
 27  13  35  1   
 28  14  18  ar  
 29  14  19  1   
 30  15  20  2   
 31  15  21  am  
 32  16  36  1   
 33  16  37  1   
 34  17  38  1   
 35  17  39  1   
 36  17  40  1   
 37  18  41  1   
 38  19  22  1   
 39  21  23  1   
 40  21  24  1   
 41  22  42  1   
 42  22  43  1   
 43  22  44  1   
 44  23  25  1   
 45  23  45  1   
 46  23  46  1   
 47  24  26  1   
 48  24  47  1   
 49  24  48  1   
 50  25  26  1   
 51  25  49  1   
 52  25  50  1   
 53  26  51  1   
 54  26  52  1   
@<TRIPOS>SUBSTRUCTURE
  1 ****   4 GROUP 4 **** **** 0

# MOE 2024.06 (io_trps.svl 2023.06)
