@<TRIPOS>MOLECULE
NONAME
33 33 1 0 0 
SMALL
USER_CHARGES


@<TRIPOS>ATOM
  1 S        0.3300    -0.0510     0.0290 S.o2  1 <1>   1.3330 
  2 O       -0.2660     1.1880    -0.4090 O.2   1 <1>  -0.6500 
  3 O        1.6380    -0.4480    -0.4410 O.2   1 <1>  -0.6500 
  4 N       -0.7550    -1.3490    -0.3660 N.am  1 <1>  -0.6930 
  5 C        0.3280    -0.1140     1.8260 C.3   1 <1>  -0.0550 
  6 C       -2.1220    -1.2820    -0.1410 C.ar  1 <1>   0.1990 
  7 C       -0.1560    -2.5940    -0.9070 C.3   1 <1>   0.1160 
  8 C        1.2470     0.9200     2.5010 C.3   1 <1>  -0.2400 
  9 C       -2.7520    -2.2100     0.6810 C.ar  1 <1>  -0.1500 
 10 C       -2.9070    -0.2990    -0.7310 C.ar  1 <1>  -0.1500 
 11 C       -4.1120    -2.1460     0.9130 C.ar  1 <1>  -0.1500 
 12 C       -4.2670    -0.2360    -0.4980 C.ar  1 <1>  -0.1500 
 13 C       -4.9100    -1.1540     0.3390 C.ar  1 <1>   0.0860 
 14 C       -6.3350    -1.0940     0.6060 C.2   1 <1>   0.5440 
 15 O       -6.9420    -2.0890     0.9520 O.2   1 <1>  -0.5700 
 16 N       -7.0230     0.0860     0.4920 N.am  1 <1>  -0.7300 
 17 C       -8.4780     0.2630     0.7290 C.3   1 <1>   0.0600 
 18 H        0.6300    -1.0940     2.1380 H     1 <1>   0.0800 
 19 H       -0.6750     0.0420     2.1740 H     1 <1>   0.0800 
 20 H        0.4080    -2.3640    -1.7950 H     1 <1>   0.0800 
 21 H       -0.9250    -3.3030    -1.1610 H     1 <1>   0.0800 
 22 H        0.5040    -3.0300    -0.1780 H     1 <1>   0.0800 
 23 H        2.2660     0.7700     2.1880 H     1 <1>   0.0800 
 24 H        1.1940     0.8250     3.5710 H     1 <1>   0.0800 
 25 H        0.9470     1.9170     2.2250 H     1 <1>   0.0800 
 26 H       -2.1680    -2.9850     1.1430 H     1 <1>   0.1500 
 27 H       -2.4430     0.4180    -1.3860 H     1 <1>   0.1500 
 28 H       -4.5790    -2.8760     1.5540 H     1 <1>   0.1500 
 29 H       -4.8400     0.5330    -0.9840 H     1 <1>   0.1500 
 30 H       -6.4970     0.9420     0.3100 H     1 <1>   0.3700 
 31 H       -8.9540    -0.6910     0.8850 H     1 <1>   0.0800 
 32 H       -8.9300     0.7390    -0.1230 H     1 <1>   0.0800 
 33 H       -8.6320     0.8730     1.6020 H     1 <1>   0.0800 
@<TRIPOS>BOND
  1   1   2  2   
  2   1   3  2   
  3   1   4  am  
  4   1   5  1   
  5   4   6  1   
  6   4   7  1   
  7   5   8  1   
  8   5  18  1   
  9   5  19  1   
 10   6   9  ar  
 11   6  10  ar  
 12   7  20  1   
 13   7  21  1   
 14   7  22  1   
 15   8  23  1   
 16   8  24  1   
 17   8  25  1   
 18   9  11  ar  
 19   9  26  1   
 20  10  12  ar  
 21  10  27  1   
 22  11  13  ar  
 23  11  28  1   
 24  12  13  ar  
 25  12  29  1   
 26  13  14  1   
 27  14  15  2   
 28  14  16  am  
 29  16  17  1   
 30  16  30  1   
 31  17  31  1   
 32  17  32  1   
 33  17  33  1   
@<TRIPOS>SUBSTRUCTURE
  1 ****   6 GROUP 4 **** **** 0

# MOE 2024.06 (io_trps.svl 2023.06)
