@<TRIPOS>MOLECULE
NONAME
51 53 1 0 0 
SMALL
USER_CHARGES


@<TRIPOS>ATOM
  1 CL       0.4470     0.2740    -1.6970 Cl    1 <1>  -0.1770 
  2 C        1.9560     0.8510    -1.0360 C.ar  1 <1>   0.1770 
  3 C        3.0900     0.0760    -1.1640 C.ar  1 <1>  -0.1500 
  4 C        1.9880     2.0760    -0.3960 C.ar  1 <1>  -0.1500 
  5 C        4.2980     0.5200    -0.6400 C.ar  1 <1>   0.1000 
  6 C        3.1880     2.5290     0.1260 C.ar  1 <1>  -0.1500 
  7 N        5.4350    -0.2770    -0.7650 N.pl3 1 <1>  -0.8380 
  8 C        4.3300     1.7550     0.0040 C.ar  1 <1>  -0.1500 
  9 C        6.7610     0.3130    -1.1270 C.3   1 <1>   0.2090 
 10 C        5.4660    -1.6090    -0.0880 C.3   1 <1>   0.2090 
 11 C        7.7460     0.2640     0.0600 C.3   1 <1>   0.3430 
 12 C        6.4670    -1.6180     1.0870 C.3   1 <1>   0.3430 
 13 N        7.8240    -1.1050     0.6900 N.4   1 <1>  -0.9590 
 14 C        8.8160    -1.1660     1.7920 C.3   1 <1>   0.4860 
 15 C       10.1830    -0.8720     1.2080 C.ar  1 <1>  -0.1430 
 16 C       10.6890    -1.6550     0.1730 C.ar  1 <1>   0.0830 
 17 C       10.9280     0.1930     1.6860 C.ar  1 <1>  -0.1500 
 18 O        9.9530    -2.7170    -0.2380 O.3   1 <1>  -0.3630 
 19 C       11.9030    -1.3360    -0.4330 C.ar  1 <1>  -0.1430 
 20 C       12.1550     0.4880     1.1250 C.ar  1 <1>  -0.1500 
 21 C       10.4240    -3.9940     0.1490 C.3   1 <1>   0.0400 
 22 C       12.6460    -0.2690     0.0640 C.ar  1 <1>   0.0830 
 23 C       12.4310    -2.1150    -1.6400 C.3   1 <1>  -0.0970 
 24 O       13.8450    -0.0050    -0.5210 O.3   1 <1>  -0.3630 
 25 C       14.7210     0.9880    -0.0330 C.3   1 <1>   0.0400 
 26 H        3.0370    -0.8650    -1.6760 H     1 <1>   0.1500 
 27 H        1.0890     2.6610    -0.3120 H     1 <1>   0.1500 
 28 H        3.2270     3.4820     0.6260 H     1 <1>   0.1500 
 29 H        5.2500     2.1180     0.4180 H     1 <1>   0.1500 
 30 H        6.6320     1.3330    -1.4500 H     1 <1>   0.0800 
 31 H        7.1720    -0.2350    -1.9570 H     1 <1>   0.0800 
 32 H        5.7400    -2.3620    -0.8060 H     1 <1>   0.0800 
 33 H        4.4840    -1.8510     0.2830 H     1 <1>   0.0800 
 34 H        7.4230     0.9800     0.7960 H     1 <1>   0.0800 
 35 H        8.7220     0.5630    -0.2870 H     1 <1>   0.0800 
 36 H        6.5500    -2.6220     1.4670 H     1 <1>   0.0800 
 37 H        6.0640    -0.9980     1.8710 H     1 <1>   0.0800 
 38 H        8.2200    -1.7340    -0.0310 H     1 <1>   0.4500 
 39 H        8.8250    -2.1510     2.2280 H     1 <1>   0.0800 
 40 H        8.5730    -0.4480     2.5570 H     1 <1>   0.0800 
 41 H       10.5670     0.8040     2.4970 H     1 <1>   0.1500 
 42 H       12.7150     1.3140     1.5220 H     1 <1>   0.1500 
 43 H       11.4050    -4.1570    -0.2610 H     1 <1>   0.0800 
 44 H        9.7470    -4.7380    -0.2310 H     1 <1>   0.0800 
 45 H       10.4650    -4.0440     1.2230 H     1 <1>   0.0800 
 46 H       11.6510    -2.6650    -2.1310 H     1 <1>   0.0800 
 47 H       13.2000    -2.7970    -1.3250 H     1 <1>   0.0800 
 48 H       12.8520    -1.4400    -2.3640 H     1 <1>   0.0800 
 49 H       15.6110     0.9720    -0.6360 H     1 <1>   0.0800 
 50 H       14.9700     0.7630     0.9890 H     1 <1>   0.0800 
 51 H       14.2430     1.9480    -0.1140 H     1 <1>   0.0800 
@<TRIPOS>BOND
  1   1   2  1   
  2   2   3  ar  
  3   2   4  ar  
  4   3   5  ar  
  5   3  26  1   
  6   4   6  ar  
  7   4  27  1   
  8   5   7  1   
  9   5   8  ar  
 10   6   8  ar  
 11   6  28  1   
 12   7   9  1   
 13   7  10  1   
 14   8  29  1   
 15   9  11  1   
 16   9  30  1   
 17   9  31  1   
 18  10  12  1   
 19  10  32  1   
 20  10  33  1   
 21  11  13  1   
 22  11  34  1   
 23  11  35  1   
 24  12  13  1   
 25  12  36  1   
 26  12  37  1   
 27  13  14  1   
 28  13  38  1   
 29  14  15  1   
 30  14  39  1   
 31  14  40  1   
 32  15  16  ar  
 33  15  17  ar  
 34  16  18  1   
 35  16  19  ar  
 36  17  20  ar  
 37  17  41  1   
 38  18  21  1   
 39  19  22  ar  
 40  19  23  1   
 41  20  22  ar  
 42  20  42  1   
 43  21  43  1   
 44  21  44  1   
 45  21  45  1   
 46  22  24  1   
 47  23  46  1   
 48  23  47  1   
 49  23  48  1   
 50  24  25  1   
 51  25  49  1   
 52  25  50  1   
 53  25  51  1   
@<TRIPOS>SUBSTRUCTURE
  1 ****  11 GROUP 4 **** **** 0

# MOE 2024.06 (io_trps.svl 2023.06)
