@<TRIPOS>MOLECULE
NONAME
46 48 1 0 0 
SMALL
USER_CHARGES


@<TRIPOS>ATOM
  1 O        1.0100    -1.1350     1.7240 O.2   1 <1>  -0.5700 
  2 C        1.5810    -1.3540     0.6810 C.2   1 <1>   0.5690 
  3 N        1.2070    -2.2850    -0.2510 N.am  1 <1>  -0.2370 
  4 C        2.8930    -0.6580     0.2830 C.3   1 <1>   0.2510 
  5 C       -0.0080    -3.0070    -0.2350 C.ar  1 <1>   0.1170 
  6 C        2.2040    -2.4220    -1.1780 C.2   1 <1>   0.5690 
  7 N        2.7930     0.7640    -0.1720 N.3   1 <1>  -0.8100 
  8 C        3.3760    -1.5190    -0.8910 C.3   1 <1>  -0.0990 
  9 C       -1.2160    -2.3560     0.0000 C.ar  1 <1>  -0.1500 
 10 C       -0.0320    -4.3820    -0.4510 C.ar  1 <1>  -0.1500 
 11 O        2.2140    -3.1790    -2.1140 O.2   1 <1>  -0.5700 
 12 C        4.1360     1.3860    -0.2390 C.3   1 <1>   0.1100 
 13 C        1.8930     1.5770     0.6740 C.3   1 <1>   0.1100 
 14 C       -2.4100    -3.0550     0.0190 C.ar  1 <1>  -0.1500 
 15 C       -1.2230    -5.0850    -0.4340 C.ar  1 <1>  -0.1500 
 16 C        4.0640     2.7880    -0.8570 C.3   1 <1>  -0.0190 
 17 C        1.7460     2.9890     0.0970 C.3   1 <1>  -0.1600 
 18 C       -2.4140    -4.4220    -0.1990 C.ar  1 <1>  -0.1500 
 19 C        5.4590     3.3860    -0.9480 C.2   1 <1>   0.6590 
 20 C        3.1040     3.6840    -0.0550 C.3   1 <1>  -0.1600 
 21 O        5.9440     3.6960    -2.0050 O.2   1 <1>  -0.5700 
 22 O        6.1120     3.5370     0.1980 O.3   1 <1>  -0.4300 
 23 C        7.4070     4.0900     0.2380 C.3   1 <1>   0.1200 
 24 C        7.8650     4.1150     1.6920 C.3   1 <1>  -0.2400 
 25 H        3.5730    -0.7270     1.1140 H     1 <1>   0.0800 
 26 H        4.2200    -2.1190    -0.6070 H     1 <1>   0.0800 
 27 H        3.6070    -0.9450    -1.7700 H     1 <1>   0.0800 
 28 H       -1.2240    -1.2950     0.1740 H     1 <1>   0.1500 
 29 H        0.8870    -4.9080    -0.6390 H     1 <1>   0.1500 
 30 H        4.7940     0.7840    -0.8410 H     1 <1>   0.0800 
 31 H        4.5540     1.4500     0.7530 H     1 <1>   0.0800 
 32 H        2.2750     1.6240     1.6810 H     1 <1>   0.0800 
 33 H        0.9120     1.1370     0.7040 H     1 <1>   0.0800 
 34 H       -3.3340    -2.5370     0.2030 H     1 <1>   0.1500 
 35 H       -1.2230    -6.1470    -0.6050 H     1 <1>   0.1500 
 36 H        3.6890     2.6870    -1.8600 H     1 <1>   0.0800 
 37 H        1.1120     3.5720     0.7420 H     1 <1>   0.0800 
 38 H        1.2620     2.9200    -0.8620 H     1 <1>   0.0800 
 39 H       -3.3420    -4.9670    -0.1850 H     1 <1>   0.1500 
 40 H        2.9790     4.6290    -0.5560 H     1 <1>   0.0800 
 41 H        3.5150     3.8740     0.9220 H     1 <1>   0.0800 
 42 H        7.3650     5.0850    -0.1720 H     1 <1>   0.0800 
 43 H        8.0580     3.4790    -0.3640 H     1 <1>   0.0800 
 44 H        7.1980     4.7190     2.2810 H     1 <1>   0.0800 
 45 H        8.8520     4.5360     1.7530 H     1 <1>   0.0800 
 46 H        7.8940     3.1160     2.0900 H     1 <1>   0.0800 
@<TRIPOS>BOND
  1   1   2  2   
  2   2   3  am  
  3   2   4  1   
  4   3   5  1   
  5   3   6  am  
  6   4   7  1   
  7   4   8  1   
  8   4  25  1   
  9   5   9  ar  
 10   5  10  ar  
 11   6   8  1   
 12   6  11  2   
 13   7  12  1   
 14   7  13  1   
 15   8  26  1   
 16   8  27  1   
 17   9  14  ar  
 18   9  28  1   
 19  10  15  ar  
 20  10  29  1   
 21  12  16  1   
 22  12  30  1   
 23  12  31  1   
 24  13  17  1   
 25  13  32  1   
 26  13  33  1   
 27  14  18  ar  
 28  14  34  1   
 29  15  18  ar  
 30  15  35  1   
 31  16  19  1   
 32  16  20  1   
 33  16  36  1   
 34  17  20  1   
 35  17  37  1   
 36  17  38  1   
 37  18  39  1   
 38  19  21  2   
 39  19  22  1   
 40  20  40  1   
 41  20  41  1   
 42  22  23  1   
 43  23  24  1   
 44  23  42  1   
 45  23  43  1   
 46  24  44  1   
 47  24  45  1   
 48  24  46  1   
@<TRIPOS>SUBSTRUCTURE
  1 ****   4 GROUP 4 **** **** 0

# MOE 2024.06 (io_trps.svl 2023.06)
