@<TRIPOS>MOLECULE
NONAME
49 51 1 0 0 
SMALL
USER_CHARGES


@<TRIPOS>ATOM
  1 S       -0.3010     0.2420     0.6420 S.3   1 <1>  -0.2860 
  2 C        1.2460     0.3750    -0.2600 C.2   1 <1>   0.2420 
  3 C       -1.0770    -1.2670    -0.0850 C.3   1 <1>   0.0700 
  4 N        1.6210    -0.5090    -1.1240 N.2   1 <1>  -0.5650 
  5 N        2.0950     1.4100    -0.0730 N.pl3 1 <1>   0.0480 
  6 C       -2.3220    -1.6050     0.7310 C.3   1 <1>  -0.0990 
  7 C        2.8040    -0.0190    -1.5470 C.2   1 <1>   0.0770 
  8 C        3.1100     1.1410    -0.9210 C.2   1 <1>  -0.3020 
  9 C        1.9640     2.5610     0.8440 C.3   1 <1>   0.2390 
 10 C       -2.9640    -2.8650     0.2030 C.2   1 <1>   0.5690 
 11 C        1.6350     3.8290     0.0700 C.ar  1 <1>  -0.1440 
 12 O       -3.8950    -2.7710    -0.5570 O.2   1 <1>  -0.5700 
 13 N       -2.4590    -4.0600     0.5990 N.am  1 <1>  -0.7300 
 14 C        0.3790     3.9910    -0.4960 C.ar  1 <1>  -0.1500 
 15 C        2.5810     4.8320    -0.0760 C.ar  1 <1>  -0.1500 
 16 C       -2.9470    -5.3740     0.1530 C.3   1 <1>   0.2200 
 17 C        0.0720     5.1430    -1.1980 C.ar  1 <1>  -0.1500 
 18 C        2.2740     5.9850    -0.7780 C.ar  1 <1>  -0.1500 
 19 C       -3.3880    -6.1810     1.3770 C.3   1 <1>  -0.1600 
 20 C       -1.8240    -6.0850    -0.6090 C.3   1 <1>  -0.1600 
 21 C        1.0190     6.1410    -1.3390 C.ar  1 <1>  -0.1500 
 22 C       -3.8060    -7.6050     0.9820 C.3   1 <1>  -0.1600 
 23 C       -2.2400    -7.5080    -1.0090 C.3   1 <1>  -0.1600 
 24 C       -2.6850    -8.3210     0.2150 C.3   1 <1>  -0.1600 
 25 H       -0.3450    -2.0540    -0.0430 H     1 <1>   0.0800 
 26 H       -1.3170    -1.0440    -1.1100 H     1 <1>   0.0800 
 27 H       -3.0290    -0.7990     0.6620 H     1 <1>   0.0800 
 28 H       -2.0610    -1.7440     1.7640 H     1 <1>   0.0800 
 29 H        3.3850    -0.5360    -2.2940 H     1 <1>   0.1500 
 30 H        3.9690     1.7780    -1.0350 H     1 <1>   0.1500 
 31 H        2.8900     2.6780     1.3760 H     1 <1>   0.0800 
 32 H        1.1900     2.3640     1.5620 H     1 <1>   0.0800 
 33 H       -1.6640    -4.0920     1.2360 H     1 <1>   0.3700 
 34 H       -0.3660     3.2190    -0.3970 H     1 <1>   0.1500 
 35 H        3.5620     4.7250     0.3530 H     1 <1>   0.1500 
 36 H       -3.7910    -5.2440    -0.5060 H     1 <1>   0.0800 
 37 H       -0.9040     5.2620    -1.6360 H     1 <1>   0.1500 
 38 H        3.0120     6.7610    -0.8890 H     1 <1>   0.1500 
 39 H       -4.2180    -5.6850     1.8480 H     1 <1>   0.0800 
 40 H       -2.5780    -6.2390     2.0830 H     1 <1>   0.0800 
 41 H       -0.9450    -6.1380     0.0080 H     1 <1>   0.0800 
 42 H       -1.5870    -5.5230    -1.4960 H     1 <1>   0.0800 
 43 H        0.7810     7.0370    -1.8860 H     1 <1>   0.1500 
 44 H       -4.6860    -7.5580     0.3620 H     1 <1>   0.0800 
 45 H       -4.0560    -8.1680     1.8650 H     1 <1>   0.0800 
 46 H       -1.4140    -8.0040    -1.4910 H     1 <1>   0.0800 
 47 H       -3.0510    -7.4560    -1.7160 H     1 <1>   0.0800 
 48 H       -3.0280    -9.2910    -0.1020 H     1 <1>   0.0800 
 49 H       -1.8430    -8.4680     0.8700 H     1 <1>   0.0800 
@<TRIPOS>BOND
  1   1   2  1   
  2   1   3  1   
  3   2   4  2   
  4   2   5  1   
  5   3   6  1   
  6   3  25  1   
  7   3  26  1   
  8   4   7  1   
  9   5   8  1   
 10   5   9  1   
 11   6  10  1   
 12   6  27  1   
 13   6  28  1   
 14   7   8  2   
 15   7  29  1   
 16   8  30  1   
 17   9  11  1   
 18   9  31  1   
 19   9  32  1   
 20  10  12  2   
 21  10  13  am  
 22  11  14  ar  
 23  11  15  ar  
 24  13  16  1   
 25  13  33  1   
 26  14  17  ar  
 27  14  34  1   
 28  15  18  ar  
 29  15  35  1   
 30  16  19  1   
 31  16  20  1   
 32  16  36  1   
 33  17  21  ar  
 34  17  37  1   
 35  18  21  ar  
 36  18  38  1   
 37  19  22  1   
 38  19  39  1   
 39  19  40  1   
 40  20  23  1   
 41  20  41  1   
 42  20  42  1   
 43  21  43  1   
 44  22  24  1   
 45  22  44  1   
 46  22  45  1   
 47  23  24  1   
 48  23  46  1   
 49  23  47  1   
 50  24  48  1   
 51  24  49  1   
@<TRIPOS>SUBSTRUCTURE
  1 ****   3 GROUP 4 **** **** 0

# MOE 2024.06 (io_trps.svl 2023.06)
