@<TRIPOS>MOLECULE
NONAME
34 34 1 0 0 
SMALL
USER_CHARGES


@<TRIPOS>ATOM
  1 F       -2.3190     0.5210     2.9210 F     1 <1>  -0.1900 
  2 C       -2.5770     0.9880     1.7300 C.ar  1 <1>   0.1900 
  3 C       -3.6900     0.5150     1.0620 C.ar  1 <1>  -0.1500 
  4 C       -1.7340     1.9370     1.1870 C.ar  1 <1>  -0.1500 
  5 C       -3.9770     1.0150    -0.2010 C.ar  1 <1>  -0.1440 
  6 C       -2.0190     2.4250    -0.0770 C.ar  1 <1>  -0.1500 
  7 C       -3.1320     1.9660    -0.7650 C.ar  1 <1>  -0.1500 
  8 C       -5.2010     0.5310    -0.9560 C.3   1 <1>   0.4870 
  9 N       -6.4170     1.1140    -0.3200 N.4   1 <1>  -0.9590 
 10 C       -7.6500     0.4340    -0.8400 C.3   1 <1>   0.3430 
 11 C       -6.4470     2.5970    -0.5050 C.3   1 <1>   0.3430 
 12 C       -8.5820    -0.0280     0.2880 C.3   1 <1>   0.1200 
 13 C       -7.5180     3.2430     0.3750 C.3   1 <1>  -0.1600 
 14 O       -9.6540    -0.6750    -0.2970 O.3   1 <1>  -0.6800 
 15 C       -7.4180     4.7720     0.3190 C.3   1 <1>  -0.2400 
 16 H       -4.2990    -0.2320     1.5390 H     1 <1>   0.1500 
 17 H       -0.8760     2.2780     1.7390 H     1 <1>   0.1500 
 18 H       -1.3700     3.1620    -0.5230 H     1 <1>   0.1500 
 19 H       -3.3240     2.3610    -1.7490 H     1 <1>   0.1500 
 20 H       -5.2380    -0.5460    -0.9090 H     1 <1>   0.0800 
 21 H       -5.1410     0.8250    -1.9910 H     1 <1>   0.0800 
 22 H       -6.3210     0.9350     0.6860 H     1 <1>   0.4500 
 23 H       -7.3740    -0.4370    -1.4130 H     1 <1>   0.0800 
 24 H       -8.1920     1.1020    -1.4900 H     1 <1>   0.0800 
 25 H       -6.6290     2.8410    -1.5400 H     1 <1>   0.0800 
 26 H       -5.4900     3.0130    -0.2290 H     1 <1>   0.0800 
 27 H       -8.9640     0.8040     0.8530 H     1 <1>   0.0800 
 28 H       -8.0870    -0.7290     0.9380 H     1 <1>   0.0800 
 29 H       -7.3910     2.9310     1.3970 H     1 <1>   0.0800 
 30 H       -8.5000     2.9600     0.0380 H     1 <1>   0.0800 
 31 H      -10.3000    -0.9920     0.3710 H     1 <1>   0.4000 
 32 H       -6.4570     5.1060     0.6730 H     1 <1>   0.0800 
 33 H       -8.1760     5.2130     0.9430 H     1 <1>   0.0800 
 34 H       -7.5610     5.1300    -0.6860 H     1 <1>   0.0800 
@<TRIPOS>BOND
  1   1   2  1   
  2   2   3  ar  
  3   2   4  ar  
  4   3   5  ar  
  5   3  16  1   
  6   4   6  ar  
  7   4  17  1   
  8   5   7  ar  
  9   5   8  1   
 10   6   7  ar  
 11   6  18  1   
 12   7  19  1   
 13   8   9  1   
 14   8  20  1   
 15   8  21  1   
 16   9  10  1   
 17   9  11  1   
 18   9  22  1   
 19  10  12  1   
 20  10  23  1   
 21  10  24  1   
 22  11  13  1   
 23  11  25  1   
 24  11  26  1   
 25  12  14  1   
 26  12  27  1   
 27  12  28  1   
 28  13  15  1   
 29  13  29  1   
 30  13  30  1   
 31  14  31  1   
 32  15  32  1   
 33  15  33  1   
 34  15  34  1   
@<TRIPOS>SUBSTRUCTURE
  1 ****   9 GROUP 4 **** **** 0

# MOE 2024.06 (io_trps.svl 2023.06)
