@<TRIPOS>MOLECULE
NONAME
45 46 1 0 0 
SMALL
USER_CHARGES


@<TRIPOS>ATOM
  1 S       -0.2910     0.0710     0.7040 S.3   1 <1>  -0.3220 
  2 C        1.4290    -0.0150     0.3210 C.cat 1 <1>   0.8920 
  3 C       -0.7840     1.8120     0.3210 C.3   1 <1>   0.0700 
  4 N        2.1360     1.0070    -0.1360 N.pl3 1 <1>  -0.7000 
  5 N        2.1570    -1.1090     0.4540 N.pl3 1 <1>  -0.7640 
  6 C       -2.2680     1.9860     0.6130 C.3   1 <1>   0.1200 
  7 C        3.4040     0.5480    -0.3150 C.2   1 <1>   0.4260 
  8 C        3.4470    -0.7630     0.0430 C.2   1 <1>   0.2770 
  9 C        1.7380    -2.4550     0.9230 C.3   1 <1>   0.3540 
 10 O       -2.5770     3.3030     0.3070 O.3   1 <1>  -0.5600 
 11 N        4.5050     1.2540    -0.7830 N.am  1 <1>  -0.4360 
 12 C        4.6990    -1.4560    -0.0690 C.2   1 <1>   0.7030 
 13 C        1.4170    -3.3360    -0.2880 C.3   1 <1>  -0.1600 
 14 C       -3.9120     3.6350     0.5200 C.3   1 <1>   0.0400 
 15 C        5.7090     0.5730    -0.8880 C.2   1 <1>   0.6900 
 16 C        4.3990     2.6950    -1.1610 C.3   1 <1>   0.0600 
 17 O        4.8520    -2.6240     0.2240 O.2   1 <1>  -0.5700 
 18 N        5.7670    -0.7440    -0.5330 N.am  1 <1>  -0.4900 
 19 C        1.0850    -4.7890     0.0970 C.3   1 <1>  -0.0800 
 20 O        6.7170     1.1060    -1.2870 O.2   1 <1>  -0.5700 
 21 C        0.8960    -5.6270    -1.1720 C.3   1 <1>  -0.2400 
 22 C       -0.1780    -4.8870     0.9640 C.3   1 <1>  -0.2400 
 23 H       -0.5840     1.9870    -0.7210 H     1 <1>   0.0800 
 24 H       -0.1990     2.4630     0.9460 H     1 <1>   0.0800 
 25 H        1.7920     1.9470    -0.3180 H     1 <1>   0.4500 
 26 H       -2.4790     1.8110     1.6540 H     1 <1>   0.0800 
 27 H       -2.8610     1.3350    -0.0070 H     1 <1>   0.0800 
 28 H        0.8720    -2.3670     1.5580 H     1 <1>   0.0800 
 29 H        2.5310    -2.9010     1.5000 H     1 <1>   0.0800 
 30 H        2.2730    -3.3490    -0.9400 H     1 <1>   0.0800 
 31 H        0.5870    -2.9140    -0.8260 H     1 <1>   0.0800 
 32 H       -4.0470     4.6690     0.2540 H     1 <1>   0.0800 
 33 H       -4.1540     3.4960     1.5600 H     1 <1>   0.0800 
 34 H       -4.5380     3.0180    -0.1010 H     1 <1>   0.0800 
 35 H        3.6980     2.8110    -1.9690 H     1 <1>   0.0800 
 36 H        5.3520     3.0800    -1.4830 H     1 <1>   0.0800 
 37 H        4.0720     3.2730    -0.3150 H     1 <1>   0.0800 
 38 H        6.6660    -1.2130    -0.6210 H     1 <1>   0.3700 
 39 H        1.9140    -5.2060     0.6470 H     1 <1>   0.0800 
 40 H        0.0710    -5.2570    -1.7570 H     1 <1>   0.0800 
 41 H        0.6970    -6.6530    -0.9160 H     1 <1>   0.0800 
 42 H        1.7850    -5.6030    -1.7770 H     1 <1>   0.0800 
 43 H       -1.0190    -4.4370     0.4660 H     1 <1>   0.0800 
 44 H       -0.0400    -4.4100     1.9170 H     1 <1>   0.0800 
 45 H       -0.4140    -5.9200     1.1530 H     1 <1>   0.0800 
@<TRIPOS>BOND
  1   1   2  1   
  2   1   3  1   
  3   2   4  ar  
  4   2   5  ar  
  5   3   6  1   
  6   3  23  1   
  7   3  24  1   
  8   4   7  1   
  9   4  25  1   
 10   5   8  1   
 11   5   9  1   
 12   6  10  1   
 13   6  26  1   
 14   6  27  1   
 15   7   8  2   
 16   7  11  1   
 17   8  12  1   
 18   9  13  1   
 19   9  28  1   
 20   9  29  1   
 21  10  14  1   
 22  11  15  am  
 23  11  16  1   
 24  12  17  2   
 25  12  18  am  
 26  13  19  1   
 27  13  30  1   
 28  13  31  1   
 29  14  32  1   
 30  14  33  1   
 31  14  34  1   
 32  15  18  am  
 33  15  20  2   
 34  16  35  1   
 35  16  36  1   
 36  16  37  1   
 37  18  38  1   
 38  19  21  1   
 39  19  22  1   
 40  19  39  1   
 41  21  40  1   
 42  21  41  1   
 43  21  42  1   
 44  22  43  1   
 45  22  44  1   
 46  22  45  1   
@<TRIPOS>SUBSTRUCTURE
  1 ****   2 GROUP 4 **** **** 0

# MOE 2024.06 (io_trps.svl 2023.06)
