@<TRIPOS>MOLECULE
NONAME
46 48 1 0 0 
SMALL
USER_CHARGES


@<TRIPOS>ATOM
  1 O        0.3020    -0.1720    -0.9830 O.3   1 <1>  -0.3630 
  2 C        0.2840    -1.5000    -0.6710 C.ar  1 <1>   0.0830 
  3 C        0.8510     0.7440    -0.0600 C.3   1 <1>   0.0400 
  4 C        1.4320    -2.2320    -0.2500 C.ar  1 <1>   0.3100 
  5 C       -0.9340    -2.1070    -0.8030 C.ar  1 <1>  -0.1500 
  6 N        2.6320    -1.5900    -0.2060 N.ar  1 <1>  -0.6200 
  7 C        1.2810    -3.6090     0.0900 C.ar  1 <1>   0.0000 
  8 C       -1.0840    -3.4530    -0.5020 C.ar  1 <1>  -0.1500 
  9 C        3.6790    -2.2470     0.1880 C.ar  1 <1>   0.4100 
 10 C       -0.0110    -4.1980    -0.0630 C.ar  1 <1>   0.0830 
 11 C        2.4490    -4.2840     0.5520 C.ar  1 <1>  -0.1440 
 12 N        4.8970    -1.5990     0.2070 N.pl3 1 <1>  -0.8380 
 13 C        3.6160    -3.5870     0.5870 C.ar  1 <1>  -0.1500 
 14 O       -0.1690    -5.5180     0.2290 O.3   1 <1>  -0.3630 
 15 C        2.4860    -5.7360     1.0190 C.3   1 <1>  -0.0970 
 16 C        5.9470    -2.0780    -0.7280 C.3   1 <1>   0.2090 
 17 C        4.9250    -0.1310     0.4320 C.3   1 <1>   0.2090 
 18 C       -1.3910    -6.2060     0.0750 C.3   1 <1>   0.0400 
 19 C        7.3390    -1.7050    -0.1920 C.3   1 <1>  -0.0800 
 20 C        6.2960     0.2760     0.9810 C.3   1 <1>  -0.1600 
 21 C        7.4390    -0.1920     0.0660 C.3   1 <1>  -0.1600 
 22 C        8.4400    -2.1560    -1.1620 C.3   1 <1>  -0.2400 
 23 H        0.3660     1.6920    -0.2000 H     1 <1>   0.0800 
 24 H        1.9030     0.8430    -0.2560 H     1 <1>   0.0800 
 25 H        0.6860     0.3840     0.9400 H     1 <1>   0.0800 
 26 H       -1.7810    -1.5380    -1.1400 H     1 <1>   0.1500 
 27 H       -2.0640    -3.8720    -0.6260 H     1 <1>   0.1500 
 28 H        4.5310    -4.0300     0.9280 H     1 <1>   0.1500 
 29 H        1.7940    -5.8790     1.8290 H     1 <1>   0.0800 
 30 H        3.4650    -6.0100     1.3670 H     1 <1>   0.0800 
 31 H        2.2260    -6.3910     0.2070 H     1 <1>   0.0800 
 32 H        5.7890    -1.6230    -1.6910 H     1 <1>   0.0800 
 33 H        5.8760    -3.1450    -0.8470 H     1 <1>   0.0800 
 34 H        4.1560     0.1420     1.1340 H     1 <1>   0.0800 
 35 H        4.7290     0.3730    -0.5000 H     1 <1>   0.0800 
 36 H       -1.2340    -7.2310     0.3590 H     1 <1>   0.0800 
 37 H       -1.6940    -6.1550    -0.9560 H     1 <1>   0.0800 
 38 H       -2.1280    -5.7590     0.7190 H     1 <1>   0.0800 
 39 H        7.4780    -2.2250     0.7410 H     1 <1>   0.0800 
 40 H        6.4130    -0.1570     1.9580 H     1 <1>   0.0800 
 41 H        6.3310     1.3450     1.0880 H     1 <1>   0.0800 
 42 H        7.3810     0.3380    -0.8690 H     1 <1>   0.0800 
 43 H        8.3850     0.0410     0.5250 H     1 <1>   0.0800 
 44 H        8.3320    -1.6640    -2.1130 H     1 <1>   0.0800 
 45 H        8.3880    -3.2190    -1.3160 H     1 <1>   0.0800 
 46 H        9.4090    -1.9190    -0.7600 H     1 <1>   0.0800 
@<TRIPOS>BOND
  1   1   2  1   
  2   1   3  1   
  3   2   4  ar  
  4   2   5  ar  
  5   3  23  1   
  6   3  24  1   
  7   3  25  1   
  8   4   6  ar  
  9   4   7  ar  
 10   5   8  ar  
 11   5  26  1   
 12   6   9  ar  
 13   7  10  ar  
 14   7  11  ar  
 15   8  10  ar  
 16   8  27  1   
 17   9  12  1   
 18   9  13  ar  
 19  10  14  1   
 20  11  13  ar  
 21  11  15  1   
 22  12  16  1   
 23  12  17  1   
 24  13  28  1   
 25  14  18  1   
 26  15  29  1   
 27  15  30  1   
 28  15  31  1   
 29  16  19  1   
 30  16  32  1   
 31  16  33  1   
 32  17  20  1   
 33  17  34  1   
 34  17  35  1   
 35  18  36  1   
 36  18  37  1   
 37  18  38  1   
 38  19  21  1   
 39  19  22  1   
 40  19  39  1   
 41  20  21  1   
 42  20  40  1   
 43  20  41  1   
 44  21  42  1   
 45  21  43  1   
 46  22  44  1   
 47  22  45  1   
 48  22  46  1   
@<TRIPOS>SUBSTRUCTURE
  1 ****   6 GROUP 4 **** **** 0

# MOE 2024.06 (io_trps.svl 2023.06)
