@<TRIPOS>MOLECULE
NONAME
45 47 1 0 0 
SMALL
USER_CHARGES


@<TRIPOS>ATOM
  1 S       -0.2680    -0.1990    -0.4030 S.3   1 <1>  -0.0800 
  2 C       -1.6820     0.6530     0.2200 C.2   1 <1>   0.4420 
  3 C        0.7250     1.1910    -0.0280 C.ar  1 <1>   0.0400 
  4 N       -1.4400     1.8360     0.6400 N.2   1 <1>  -0.5650 
  5 N       -2.8750    -0.0270     0.1520 N.am  1 <1>  -0.4940 
  6 C       -0.0960     2.1580     0.5200 C.ar  1 <1>   0.2270 
  7 C        2.0830     1.3570    -0.2190 C.ar  1 <1>  -0.1500 
  8 C       -4.0630     0.2770     0.7580 C.2   1 <1>   0.5690 
  9 C        0.4810     3.3610     0.9010 C.ar  1 <1>  -0.1500 
 10 C        2.6460     2.5650     0.1650 C.ar  1 <1>  -0.1440 
 11 O       -4.1530     1.0430     1.6860 O.2   1 <1>  -0.5700 
 12 C       -5.3420    -0.3870     0.2160 C.3   1 <1>   0.1710 
 13 C        1.8420     3.5580     0.7220 C.ar  1 <1>  -0.1500 
 14 C        4.1320     2.8190    -0.0150 C.3   1 <1>  -0.0970 
 15 N       -6.4980     0.5400     0.0410 N.3   1 <1>  -0.8100 
 16 C       -6.1870     1.7420    -0.7750 C.3   1 <1>   0.1100 
 17 C       -7.7410    -0.1180    -0.4130 C.3   1 <1>   0.1100 
 18 C       -7.3790     2.7290    -0.8320 C.3   1 <1>   0.3430 
 19 C       -8.9400     0.8660    -0.4160 C.3   1 <1>   0.3430 
 20 N       -8.5170     2.2440     0.0150 N.4   1 <1>  -0.9590 
 21 C       -9.6130     3.2340     0.1380 C.3   1 <1>   0.3430 
 22 C      -10.5250     2.8530     1.2970 C.3   1 <1>  -0.2400 
 23 H       -2.8480    -0.8580    -0.4310 H     1 <1>   0.3700 
 24 H        2.6720     0.5680    -0.6510 H     1 <1>   0.1500 
 25 H       -0.1430     4.1220     1.3310 H     1 <1>   0.1500 
 26 H       -5.6210    -1.1560     0.9140 H     1 <1>   0.0800 
 27 H       -5.1210    -0.8550    -0.7260 H     1 <1>   0.0800 
 28 H        2.2810     4.4940     1.0200 H     1 <1>   0.1500 
 29 H        4.6180     1.9690    -0.4600 H     1 <1>   0.0800 
 30 H        4.5880     3.0130     0.9400 H     1 <1>   0.0800 
 31 H        4.2830     3.6720    -0.6520 H     1 <1>   0.0800 
 32 H       -5.9130     1.4520    -1.7750 H     1 <1>   0.0800 
 33 H       -5.3470     2.2650    -0.3480 H     1 <1>   0.0800 
 34 H       -7.9710    -0.9410     0.2430 H     1 <1>   0.0800 
 35 H       -7.6050    -0.5190    -1.4040 H     1 <1>   0.0800 
 36 H       -7.7000     2.8400    -1.8540 H     1 <1>   0.0800 
 37 H       -7.0460     3.6930    -0.4840 H     1 <1>   0.0800 
 38 H       -9.6940     0.4880     0.2540 H     1 <1>   0.0800 
 39 H       -9.3680     0.9030    -1.4030 H     1 <1>   0.0800 
 40 H       -8.0750     2.0910     0.9370 H     1 <1>   0.4500 
 41 H      -10.1770     3.2830    -0.7800 H     1 <1>   0.0800 
 42 H       -9.1950     4.2100     0.3300 H     1 <1>   0.0800 
 43 H      -11.0440     1.9320     1.1030 H     1 <1>   0.0800 
 44 H      -11.2650     3.6220     1.4300 H     1 <1>   0.0800 
 45 H       -9.9650     2.7700     2.2110 H     1 <1>   0.0800 
@<TRIPOS>BOND
  1   1   2  1   
  2   1   3  1   
  3   2   4  2   
  4   2   5  1   
  5   3   6  ar  
  6   3   7  ar  
  7   4   6  1   
  8   5   8  am  
  9   5  23  1   
 10   6   9  ar  
 11   7  10  ar  
 12   7  24  1   
 13   8  11  2   
 14   8  12  1   
 15   9  13  ar  
 16   9  25  1   
 17  10  13  ar  
 18  10  14  1   
 19  12  15  1   
 20  12  26  1   
 21  12  27  1   
 22  13  28  1   
 23  14  29  1   
 24  14  30  1   
 25  14  31  1   
 26  15  16  1   
 27  15  17  1   
 28  16  18  1   
 29  16  32  1   
 30  16  33  1   
 31  17  19  1   
 32  17  34  1   
 33  17  35  1   
 34  18  20  1   
 35  18  36  1   
 36  18  37  1   
 37  19  20  1   
 38  19  38  1   
 39  19  39  1   
 40  20  21  1   
 41  20  40  1   
 42  21  22  1   
 43  21  41  1   
 44  21  42  1   
 45  22  43  1   
 46  22  44  1   
 47  22  45  1   
@<TRIPOS>SUBSTRUCTURE
  1 ****   8 GROUP 4 **** **** 0

# MOE 2024.06 (io_trps.svl 2023.06)
