@<TRIPOS>MOLECULE
NONAME
46 48 1 0 0 
SMALL
USER_CHARGES


@<TRIPOS>ATOM
  1 F       -1.4410     1.0660     2.1190 F     1 <1>  -0.1900 
  2 C       -1.1630     2.0580     1.3060 C.ar  1 <1>   0.1900 
  3 C       -2.1070     2.4220     0.3460 C.ar  1 <1>   0.1170 
  4 C        0.0570     2.6890     1.4500 C.ar  1 <1>  -0.1500 
  5 N       -3.3280     1.7180     0.2750 N.am  1 <1>  -0.5470 
  6 C       -1.7660     3.4800    -0.4930 C.ar  1 <1>  -0.1500 
  7 C        0.3660     3.7370     0.6010 C.ar  1 <1>  -0.1500 
  8 C       -4.4090     1.8160    -0.5580 C.2   1 <1>   0.5690 
  9 C       -0.5470     4.1280    -0.3660 C.ar  1 <1>  -0.1500 
 10 O       -4.4840     2.6100    -1.4630 O.2   1 <1>  -0.5700 
 11 C       -5.5670     0.8470    -0.3180 C.3   1 <1>  -0.0190 
 12 C       -5.5050    -0.3390    -1.2960 C.3   1 <1>  -0.1600 
 13 C       -6.9390     1.5400    -0.4260 C.3   1 <1>  -0.1600 
 14 C       -6.6620    -1.3150    -1.0730 C.3   1 <1>   0.1400 
 15 C       -8.0890     0.5540    -0.2090 C.3   1 <1>   0.1400 
 16 N       -7.9610    -0.5900    -1.1570 N.am  1 <1>  -0.6600 
 17 C       -8.9620    -1.0340    -1.9920 C.2   1 <1>   0.5690 
 18 O       -8.8180    -2.0150    -2.6850 O.2   1 <1>  -0.5700 
 19 C      -10.3030    -0.3140    -2.0960 C.3   1 <1>   0.0440 
 20 C      -11.1370    -0.3800    -0.8180 C.ar  1 <1>  -0.1430 
 21 C      -11.2610    -1.5730    -0.1220 C.ar  1 <1>  -0.1500 
 22 C      -11.7800     0.7530    -0.3410 C.ar  1 <1>  -0.1500 
 23 C      -12.0080    -1.6310     1.0420 C.ar  1 <1>  -0.1500 
 24 C      -12.5270     0.6960     0.8230 C.ar  1 <1>  -0.1500 
 25 C      -12.6400    -0.4950     1.5160 C.ar  1 <1>  -0.1500 
 26 H        0.7480     2.3670     2.2080 H     1 <1>   0.1500 
 27 H       -3.3970     0.9860     0.9830 H     1 <1>   0.3700 
 28 H       -2.4470     3.8130    -1.2540 H     1 <1>   0.1500 
 29 H        1.3100     4.2470     0.6900 H     1 <1>   0.1500 
 30 H       -0.3080     4.9440    -1.0280 H     1 <1>   0.1500 
 31 H       -5.4780     0.4610     0.6820 H     1 <1>   0.0800 
 32 H       -4.5730    -0.8630    -1.1770 H     1 <1>   0.0800 
 33 H       -5.5470     0.0230    -2.3100 H     1 <1>   0.0800 
 34 H       -7.0480     1.9870    -1.3990 H     1 <1>   0.0800 
 35 H       -7.0050     2.3290     0.3030 H     1 <1>   0.0800 
 36 H       -6.5800    -1.7720    -0.1020 H     1 <1>   0.0800 
 37 H       -6.6120    -2.0980    -1.8120 H     1 <1>   0.0800 
 38 H       -9.0190     1.0730    -0.3420 H     1 <1>   0.0800 
 39 H       -8.0660     0.1740     0.7980 H     1 <1>   0.0800 
 40 H      -10.8690    -0.7620    -2.8920 H     1 <1>   0.0800 
 41 H      -10.1170     0.7060    -2.3740 H     1 <1>   0.0800 
 42 H      -10.7760    -2.4650    -0.4820 H     1 <1>   0.1500 
 43 H      -11.7050     1.6860    -0.8720 H     1 <1>   0.1500 
 44 H      -12.0970    -2.5600     1.5770 H     1 <1>   0.1500 
 45 H      -13.0230     1.5790     1.1880 H     1 <1>   0.1500 
 46 H      -13.2200    -0.5400     2.4210 H     1 <1>   0.1500 
@<TRIPOS>BOND
  1   1   2  1   
  2   2   3  ar  
  3   2   4  ar  
  4   3   5  1   
  5   3   6  ar  
  6   4   7  ar  
  7   4  26  1   
  8   5   8  am  
  9   5  27  1   
 10   6   9  ar  
 11   6  28  1   
 12   7   9  ar  
 13   7  29  1   
 14   8  10  2   
 15   8  11  1   
 16   9  30  1   
 17  11  12  1   
 18  11  13  1   
 19  11  31  1   
 20  12  14  1   
 21  12  32  1   
 22  12  33  1   
 23  13  15  1   
 24  13  34  1   
 25  13  35  1   
 26  14  16  1   
 27  14  36  1   
 28  14  37  1   
 29  15  16  1   
 30  15  38  1   
 31  15  39  1   
 32  16  17  am  
 33  17  18  2   
 34  17  19  1   
 35  19  20  1   
 36  19  40  1   
 37  19  41  1   
 38  20  21  ar  
 39  20  22  ar  
 40  21  23  ar  
 41  21  42  1   
 42  22  24  ar  
 43  22  43  1   
 44  23  25  ar  
 45  23  44  1   
 46  24  25  ar  
 47  24  45  1   
 48  25  46  1   
@<TRIPOS>SUBSTRUCTURE
  1 ****  11 GROUP 4 **** **** 0

# MOE 2024.06 (io_trps.svl 2023.06)
