@<TRIPOS>MOLECULE
NONAME
33 34 1 0 0 
SMALL
USER_CHARGES


@<TRIPOS>ATOM
  1 O        0.1420    -0.0480    -0.6220 O.2   1 <1>  -0.5700 
  2 C        0.0220     1.0700    -0.1590 C.2   1 <1>   0.6900 
  3 N       -1.1980     1.6070     0.1330 N.am  1 <1>  -0.5470 
  4 N        1.1180     1.8370     0.0810 N.am  1 <1>  -0.5790 
  5 C       -2.5160     1.1170     0.0540 C.ar  1 <1>   0.1170 
  6 C        2.5120     1.4460    -0.1770 C.3   1 <1>   0.0490 
  7 C       -3.5650     2.0310     0.2080 C.ar  1 <1>   0.0830 
  8 C       -2.8230    -0.2230    -0.1550 C.ar  1 <1>  -0.1500 
  9 C        3.5560     1.8960     0.7900 C.3   1 <1>  -0.2000 
 10 C        3.4770     2.5130    -0.5750 C.3   1 <1>  -0.2000 
 11 O       -3.2260     3.3400     0.4240 O.3   1 <1>  -0.3630 
 12 C       -4.8840     1.5970     0.1390 C.ar  1 <1>  -0.1500 
 13 C       -4.1370    -0.6520    -0.2230 C.ar  1 <1>  -0.1500 
 14 C       -4.2190     4.3350     0.5470 C.3   1 <1>   0.0400 
 15 C       -5.1750     0.2610    -0.0770 C.ar  1 <1>   0.0830 
 16 O       -6.4920    -0.0740    -0.1300 O.3   1 <1>  -0.3630 
 17 C       -6.8900    -1.4070    -0.3640 C.3   1 <1>   0.0400 
 18 H       -1.1890     2.5970     0.3660 H     1 <1>   0.3700 
 19 H        1.0000     2.7420     0.5250 H     1 <1>   0.3700 
 20 H        2.6070     0.4680    -0.6240 H     1 <1>   0.1000 
 21 H       -2.0370    -0.9470    -0.2660 H     1 <1>   0.1500 
 22 H        4.3770     1.2340     1.0020 H     1 <1>   0.1000 
 23 H        3.2580     2.4740     1.6460 H     1 <1>   0.1000 
 24 H        3.1220     3.5230    -0.6760 H     1 <1>   0.1000 
 25 H        4.2440     2.2690    -1.2890 H     1 <1>   0.1000 
 26 H       -5.7110     2.2690     0.2510 H     1 <1>   0.1500 
 27 H       -4.3250    -1.6960    -0.3890 H     1 <1>   0.1500 
 28 H       -3.7300     5.2820     0.6930 H     1 <1>   0.0800 
 29 H       -4.8380     4.1100     1.3970 H     1 <1>   0.0800 
 30 H       -4.8010     4.3620    -0.3580 H     1 <1>   0.0800 
 31 H       -7.9640    -1.4390    -0.3730 H     1 <1>   0.0800 
 32 H       -6.5130    -2.0280     0.4300 H     1 <1>   0.0800 
 33 H       -6.5060    -1.7240    -1.3170 H     1 <1>   0.0800 
@<TRIPOS>BOND
  1   1   2  2   
  2   2   3  am  
  3   2   4  am  
  4   3   5  1   
  5   3  18  1   
  6   4   6  1   
  7   4  19  1   
  8   5   7  ar  
  9   5   8  ar  
 10   6   9  1   
 11   6  10  1   
 12   6  20  1   
 13   7  11  1   
 14   7  12  ar  
 15   8  13  ar  
 16   8  21  1   
 17   9  10  1   
 18   9  22  1   
 19   9  23  1   
 20  10  24  1   
 21  10  25  1   
 22  11  14  1   
 23  12  15  ar  
 24  12  26  1   
 25  13  15  ar  
 26  13  27  1   
 27  14  28  1   
 28  14  29  1   
 29  14  30  1   
 30  15  16  1   
 31  16  17  1   
 32  17  31  1   
 33  17  32  1   
 34  17  33  1   
@<TRIPOS>SUBSTRUCTURE
  1 ****   5 GROUP 4 **** **** 0

# MOE 2024.06 (io_trps.svl 2023.06)
