@<TRIPOS>MOLECULE
NONAME
46 48 1 0 0 
SMALL
USER_CHARGES


@<TRIPOS>ATOM
  1 CL      -1.4840     2.7840    -3.0690 Cl    1 <1>  -0.1770 
  2 C       -1.8320     2.7650    -1.3550 C.ar  1 <1>   0.1770 
  3 C       -0.9030     3.2620    -0.4520 C.ar  1 <1>  -0.1440 
  4 C       -3.0440     2.2510    -0.9390 C.ar  1 <1>  -0.1500 
  5 C       -1.2190     3.2320     0.8980 C.ar  1 <1>  -0.1500 
  6 C        0.4300     3.8240    -0.9200 C.3   1 <1>  -0.0960 
  7 C       -3.3620     2.2190     0.4140 C.ar  1 <1>   0.1170 
  8 C       -2.4330     2.7180     1.3210 C.ar  1 <1>  -0.1500 
  9 N       -4.5830     1.7270     0.8930 N.am  1 <1>  -0.5470 
 10 C       -5.4540     0.8200     0.3620 C.2   1 <1>   0.6900 
 11 O       -5.1560     0.1590    -0.6150 O.2   1 <1>  -0.5700 
 12 N       -6.6690     0.6480     0.9700 N.am  1 <1>  -0.6600 
 13 C       -7.4290     1.7660     1.6110 C.3   1 <1>   0.1400 
 14 C       -7.5180    -0.5420     0.6500 C.3   1 <1>   0.1400 
 15 C       -8.6440     2.1620     0.7550 C.3   1 <1>   0.1400 
 16 C       -8.7320    -0.1440    -0.2030 C.3   1 <1>   0.1400 
 17 N       -9.4940     0.9720     0.4450 N.am  1 <1>  -0.6600 
 18 C      -10.8490     0.9630     0.7000 C.2   1 <1>   0.5690 
 19 O      -11.3710     1.9160     1.2390 O.2   1 <1>  -0.5700 
 20 C      -11.7290    -0.2610     0.3330 C.3   1 <1>   0.2610 
 21 O      -11.6770    -0.5370    -1.0420 O.3   1 <1>  -0.5600 
 22 C      -13.2290    -0.1030     0.5870 C.3   1 <1>  -0.1600 
 23 C      -12.6210     0.2350    -1.7140 C.3   1 <1>   0.1200 
 24 C      -13.7430     0.5000    -0.7120 C.3   1 <1>  -0.1600 
 25 H       -3.7350     1.8800    -1.6730 H     1 <1>   0.1500 
 26 H       -0.5200     3.6080     1.6250 H     1 <1>   0.1500 
 27 H        0.9810     3.0670    -1.4490 H     1 <1>   0.0800 
 28 H        1.0230     4.1600    -0.0880 H     1 <1>   0.0800 
 29 H        0.2650     4.6570    -1.5800 H     1 <1>   0.0800 
 30 H       -2.6570     2.7020     2.3720 H     1 <1>   0.1500 
 31 H       -4.8100     1.9630     1.8520 H     1 <1>   0.3700 
 32 H       -6.8040     2.6310     1.7400 H     1 <1>   0.0800 
 33 H       -7.7700     1.4520     2.5820 H     1 <1>   0.0800 
 34 H       -7.8600    -0.9860     1.5680 H     1 <1>   0.0800 
 35 H       -6.9420    -1.2850     0.1250 H     1 <1>   0.0800 
 36 H       -8.3010     2.5960    -0.1670 H     1 <1>   0.0800 
 37 H       -9.2120     2.9110     1.2780 H     1 <1>   0.0800 
 38 H       -9.3500    -1.0100    -0.3480 H     1 <1>   0.0800 
 39 H       -8.3900     0.1790    -1.1710 H     1 <1>   0.0800 
 40 H      -11.3540    -1.1190     0.8590 H     1 <1>   0.0800 
 41 H      -13.4490     0.5060     1.4460 H     1 <1>   0.0800 
 42 H      -13.6600    -1.0770     0.7340 H     1 <1>   0.0800 
 43 H      -12.9630    -0.3130    -2.5760 H     1 <1>   0.0800 
 44 H      -12.1490     1.1530    -2.0220 H     1 <1>   0.0800 
 45 H      -13.8910     1.5620    -0.6110 H     1 <1>   0.0800 
 46 H      -14.6650     0.0440    -1.0260 H     1 <1>   0.0800 
@<TRIPOS>BOND
  1   1   2  1   
  2   2   3  ar  
  3   2   4  ar  
  4   3   5  ar  
  5   3   6  1   
  6   4   7  ar  
  7   4  25  1   
  8   5   8  ar  
  9   5  26  1   
 10   6  27  1   
 11   6  28  1   
 12   6  29  1   
 13   7   8  ar  
 14   7   9  1   
 15   8  30  1   
 16   9  10  am  
 17   9  31  1   
 18  10  11  2   
 19  10  12  am  
 20  12  13  1   
 21  12  14  1   
 22  13  15  1   
 23  13  32  1   
 24  13  33  1   
 25  14  16  1   
 26  14  34  1   
 27  14  35  1   
 28  15  17  1   
 29  15  36  1   
 30  15  37  1   
 31  16  17  1   
 32  16  38  1   
 33  16  39  1   
 34  17  18  am  
 35  18  19  2   
 36  18  20  1   
 37  20  21  1   
 38  20  22  1   
 39  20  40  1   
 40  21  23  1   
 41  22  24  1   
 42  22  41  1   
 43  22  42  1   
 44  23  24  1   
 45  23  43  1   
 46  23  44  1   
 47  24  45  1   
 48  24  46  1   
@<TRIPOS>SUBSTRUCTURE
  1 ****  12 GROUP 4 **** **** 0

# MOE 2024.06 (io_trps.svl 2023.06)
