@<TRIPOS>MOLECULE
NONAME
52 54 1 0 0 
SMALL
USER_CHARGES


@<TRIPOS>ATOM
  1 O        0.6040     0.7820    -0.4900 O.2   1 <1>  -0.5700 
  2 C        1.0190     1.7000     0.1790 C.2   1 <1>   0.5690 
  3 N        2.2340     1.6460     0.8170 N.am  1 <1>  -0.6600 
  4 C        0.1700     2.9730     0.2720 C.3   1 <1>  -0.0190 
  5 C        2.9500     0.3720     1.1560 C.3   1 <1>   0.2200 
  6 C        3.2110     2.7690     0.6380 C.3   1 <1>   0.1400 
  7 C       -1.3110     2.7300     0.5700 C.3   1 <1>  -0.1600 
  8 C        0.1350     3.7920    -1.0210 C.3   1 <1>  -0.1600 
  9 C        3.9250     0.0080     0.0180 C.3   1 <1>   0.1400 
 10 C        2.0180    -0.7830     1.5370 C.3   1 <1>  -0.2400 
 11 C        4.1850     2.4100    -0.5030 C.3   1 <1>   0.2200 
 12 C       -2.0130     4.0220     0.1480 C.3   1 <1>  -0.1600 
 13 C       -1.1100     4.6770    -0.9050 C.3   1 <1>  -0.1600 
 14 N        4.8990     1.1320    -0.1750 N.am  1 <1>  -0.6600 
 15 C        5.1180     3.5670    -0.8750 C.3   1 <1>  -0.2400 
 16 C        6.1370     1.0660     0.4150 C.2   1 <1>   0.5690 
 17 O        6.5650     1.9660     1.0990 O.2   1 <1>  -0.5700 
 18 C        6.9920    -0.2000     0.2590 C.3   1 <1>  -0.0190 
 19 C        8.4770    -0.0180     0.5890 C.3   1 <1>  -0.1600 
 20 C        7.0340    -0.7620    -1.1680 C.3   1 <1>  -0.1600 
 21 C        9.1810    -1.2060    -0.0650 C.3   1 <1>  -0.1600 
 22 C        8.2850    -1.6440    -1.2280 C.3   1 <1>  -0.1600 
 23 H        0.5530     3.5930     1.0630 H     1 <1>   0.0800 
 24 H        3.5460     0.5710     2.0310 H     1 <1>   0.0800 
 25 H        3.7640     2.9240     1.5480 H     1 <1>   0.0800 
 26 H        2.7060     3.6850     0.3960 H     1 <1>   0.0800 
 27 H       -1.4800     2.4950     1.6060 H     1 <1>   0.0800 
 28 H       -1.6750     1.9180    -0.0370 H     1 <1>   0.0800 
 29 H        0.0160     3.1240    -1.8580 H     1 <1>   0.0800 
 30 H        1.0290     4.3720    -1.1620 H     1 <1>   0.0800 
 31 H        3.3730    -0.1600    -0.8910 H     1 <1>   0.0800 
 32 H        4.4360    -0.9020     0.2700 H     1 <1>   0.0800 
 33 H        1.5190    -1.1860     0.6750 H     1 <1>   0.0800 
 34 H        1.2860    -0.4480     2.2500 H     1 <1>   0.0800 
 35 H        2.5890    -1.5750     1.9850 H     1 <1>   0.0800 
 36 H        3.5880     2.2190    -1.3790 H     1 <1>   0.0800 
 37 H       -2.1100     4.6780     0.9960 H     1 <1>   0.0800 
 38 H       -2.9940     3.8160    -0.2460 H     1 <1>   0.0800 
 39 H       -1.6110     4.7510    -1.8550 H     1 <1>   0.0800 
 40 H       -0.8330     5.6650    -0.5800 H     1 <1>   0.0800 
 41 H        5.6210     3.9580    -0.0100 H     1 <1>   0.0800 
 42 H        4.5470     4.3660    -1.3120 H     1 <1>   0.0800 
 43 H        5.8460     3.2390    -1.5950 H     1 <1>   0.0800 
 44 H        6.6030    -0.9540     0.9190 H     1 <1>   0.0800 
 45 H        8.6490     0.0260     1.6510 H     1 <1>   0.0800 
 46 H        8.8320     0.8960     0.1420 H     1 <1>   0.0800 
 47 H        7.1430     0.0530    -1.8630 H     1 <1>   0.0800 
 48 H        6.1450    -1.3140    -1.4160 H     1 <1>   0.0800 
 49 H        9.2680    -2.0110     0.6450 H     1 <1>   0.0800 
 50 H       10.1660    -0.9330    -0.4030 H     1 <1>   0.0800 
 51 H        8.7870    -1.5240    -2.1730 H     1 <1>   0.0800 
 52 H        8.0150    -2.6800    -1.1080 H     1 <1>   0.0800 
@<TRIPOS>BOND
  1   1   2  2   
  2   2   3  am  
  3   2   4  1   
  4   3   5  1   
  5   3   6  1   
  6   4   7  1   
  7   4   8  1   
  8   4  23  1   
  9   5   9  1   
 10   5  10  1   
 11   5  24  1   
 12   6  11  1   
 13   6  25  1   
 14   6  26  1   
 15   7  12  1   
 16   7  27  1   
 17   7  28  1   
 18   8  13  1   
 19   8  29  1   
 20   8  30  1   
 21   9  14  1   
 22   9  31  1   
 23   9  32  1   
 24  10  33  1   
 25  10  34  1   
 26  10  35  1   
 27  11  14  1   
 28  11  15  1   
 29  11  36  1   
 30  12  13  1   
 31  12  37  1   
 32  12  38  1   
 33  13  39  1   
 34  13  40  1   
 35  14  16  am  
 36  15  41  1   
 37  15  42  1   
 38  15  43  1   
 39  16  17  2   
 40  16  18  1   
 41  18  19  1   
 42  18  20  1   
 43  18  44  1   
 44  19  21  1   
 45  19  45  1   
 46  19  46  1   
 47  20  22  1   
 48  20  47  1   
 49  20  48  1   
 50  21  22  1   
 51  21  49  1   
 52  21  50  1   
 53  22  51  1   
 54  22  52  1   
@<TRIPOS>SUBSTRUCTURE
  1 ****  11 GROUP 4 **** **** 0

# MOE 2024.06 (io_trps.svl 2023.06)
