@<TRIPOS>MOLECULE
NONAME
39 40 1 0 0 
SMALL
USER_CHARGES


@<TRIPOS>ATOM
  1 O       -3.3220     2.8950    -0.0490 O.3   1 <1>  -0.5600 
  2 C       -4.5920     2.4560     0.2780 C.3   1 <1>   0.2000 
  3 C       -2.3550     2.1640     0.6410 C.3   1 <1>   0.1200 
  4 C       -4.4250     0.9520     0.4690 C.3   1 <1>  -0.1600 
  5 C       -5.5410     2.8760    -0.8550 C.3   1 <1>   0.3430 
  6 C       -3.0150     0.8420     1.0270 C.3   1 <1>  -0.1600 
  7 N       -6.9210     2.3290    -0.6800 N.4   1 <1>  -0.9060 
  8 C       -7.8330     2.6870    -1.7850 C.3   1 <1>   0.4860 
  9 C       -9.1590     2.0460    -1.4580 C.ar  1 <1>  -0.1430 
 10 C      -10.0530     2.6940    -0.6190 C.ar  1 <1>  -0.1500 
 11 C       -9.4930     0.8040    -1.9790 C.ar  1 <1>  -0.1500 
 12 C      -11.2650     2.1110    -0.2900 C.ar  1 <1>   0.0820 
 13 C      -10.7050     0.2180    -1.6570 C.ar  1 <1>  -0.1500 
 14 O      -12.0660     2.8180     0.5420 O.3   1 <1>  -0.3630 
 15 C      -11.5910     0.8640    -0.8140 C.ar  1 <1>  -0.1500 
 16 C      -13.3560     2.3630     0.8820 C.3   1 <1>   0.1200 
 17 C      -13.9990     3.4060     1.7900 C.3   1 <1>  -0.2400 
 18 H       -4.8620     2.9330     1.2060 H     1 <1>   0.0800 
 19 H       -2.0590     2.7260     1.5120 H     1 <1>   0.0800 
 20 H       -1.5080     2.0210    -0.0080 H     1 <1>   0.0800 
 21 H       -4.4760     0.4470    -0.4800 H     1 <1>   0.0800 
 22 H       -5.1570     0.5380     1.1400 H     1 <1>   0.0800 
 23 H       -5.1280     2.5200    -1.7850 H     1 <1>   0.0800 
 24 H       -5.5760     3.9530    -0.8890 H     1 <1>   0.0800 
 25 H       -3.0270     0.7480     2.0990 H     1 <1>   0.0800 
 26 H       -2.4810     0.0040     0.6120 H     1 <1>   0.0800 
 27 H       -7.3450     2.6620     0.1940 H     1 <1>   0.4500 
 28 H       -6.9010     1.3050    -0.6130 H     1 <1>   0.4500 
 29 H       -7.4610     2.3110    -2.7240 H     1 <1>   0.0800 
 30 H       -7.9470     3.7570    -1.8540 H     1 <1>   0.0800 
 31 H       -9.8370     3.6630    -0.2040 H     1 <1>   0.1500 
 32 H       -8.8250     0.2780    -2.6420 H     1 <1>   0.1500 
 33 H      -10.9630    -0.7460    -2.0640 H     1 <1>   0.1500 
 34 H      -12.5240     0.3860    -0.5790 H     1 <1>   0.1500 
 35 H      -13.2640     1.4200     1.3930 H     1 <1>   0.0800 
 36 H      -13.9260     2.2440    -0.0230 H     1 <1>   0.0800 
 37 H      -13.4160     3.5290     2.6860 H     1 <1>   0.0800 
 38 H      -14.9880     3.0880     2.0660 H     1 <1>   0.0800 
 39 H      -14.0730     4.3490     1.2780 H     1 <1>   0.0800 
@<TRIPOS>BOND
  1   1   2  1   
  2   1   3  1   
  3   2   4  1   
  4   2   5  1   
  5   2  18  1   
  6   3   6  1   
  7   3  19  1   
  8   3  20  1   
  9   4   6  1   
 10   4  21  1   
 11   4  22  1   
 12   5   7  1   
 13   5  23  1   
 14   5  24  1   
 15   6  25  1   
 16   6  26  1   
 17   7   8  1   
 18   7  27  1   
 19   7  28  1   
 20   8   9  1   
 21   8  29  1   
 22   8  30  1   
 23   9  10  ar  
 24   9  11  ar  
 25  10  12  ar  
 26  10  31  1   
 27  11  13  ar  
 28  11  32  1   
 29  12  14  1   
 30  12  15  ar  
 31  13  15  ar  
 32  13  33  1   
 33  14  16  1   
 34  15  34  1   
 35  16  17  1   
 36  16  35  1   
 37  16  36  1   
 38  17  37  1   
 39  17  38  1   
 40  17  39  1   
@<TRIPOS>SUBSTRUCTURE
  1 ****   7 GROUP 4 **** **** 0

# MOE 2024.06 (io_trps.svl 2023.06)
