@<TRIPOS>MOLECULE
NONAME
39 39 1 0 0 
SMALL
USER_CHARGES


@<TRIPOS>ATOM
  1 O        0.3680    -0.2930     0.4590 O.2   1 <1>  -0.5700 
  2 C        0.6640    -1.1810    -0.3150 C.2   1 <1>   0.6900 
  3 N       -0.2420    -2.1260    -0.7000 N.am  1 <1>  -0.5470 
  4 N        1.9180    -1.2890    -0.8270 N.am  1 <1>  -0.7300 
  5 C       -1.6240    -2.2070    -0.5100 C.ar  1 <1>   0.1170 
  6 C        3.0900    -0.4320    -0.5510 C.3   1 <1>   0.2200 
  7 C       -2.2470    -3.4460    -0.6040 C.ar  1 <1>  -0.1500 
  8 C       -2.4250    -1.1000    -0.2470 C.ar  1 <1>  -0.1500 
  9 C        3.4350    -0.4570     0.9470 C.3   1 <1>  -0.1600 
 10 C        2.8320     0.9730    -1.0960 C.3   1 <1>  -0.2400 
 11 C       -3.6120    -3.5740    -0.4360 C.ar  1 <1>  -0.1500 
 12 C       -3.7900    -1.2300    -0.0780 C.ar  1 <1>  -0.1500 
 13 C        4.8080     0.1560     1.2600 C.3   1 <1>  -0.2400 
 14 C       -4.4280    -2.4710    -0.1680 C.ar  1 <1>   0.0860 
 15 C       -5.8590    -2.6230     0.0060 C.2   1 <1>   0.6340 
 16 O       -6.4290    -3.6940    -0.0710 O.2   1 <1>  -0.5700 
 17 O       -6.5840    -1.5290     0.2610 O.3   1 <1>  -0.4300 
 18 C       -7.9800    -1.5930     0.4440 C.3   1 <1>   0.1200 
 19 C       -8.4880    -0.1810     0.7150 C.3   1 <1>  -0.2400 
 20 H        0.1890    -2.9510    -1.1000 H     1 <1>   0.3700 
 21 H        2.0450    -1.9080    -1.6230 H     1 <1>   0.3700 
 22 H        3.9250    -0.8510    -1.0880 H     1 <1>   0.0800 
 23 H       -1.6570    -4.3220    -0.8060 H     1 <1>   0.1500 
 24 H       -1.9780    -0.1250    -0.1740 H     1 <1>   0.1500 
 25 H        3.4370    -1.4790     1.2840 H     1 <1>   0.0800 
 26 H        2.6830     0.0740     1.5030 H     1 <1>   0.0800 
 27 H        2.0580     1.4610    -0.5310 H     1 <1>   0.0800 
 28 H        2.5370     0.9240    -2.1290 H     1 <1>   0.0800 
 29 H        3.7230     1.5680    -1.0300 H     1 <1>   0.0800 
 30 H       -4.0660    -4.5480    -0.5130 H     1 <1>   0.1500 
 31 H       -4.3740    -0.3490     0.1270 H     1 <1>   0.1500 
 32 H        5.5820    -0.3430     0.7040 H     1 <1>   0.0800 
 33 H        5.0200     0.0520     2.3090 H     1 <1>   0.0800 
 34 H        4.8220     1.2040     1.0180 H     1 <1>   0.0800 
 35 H       -8.1850    -2.2450     1.2760 H     1 <1>   0.0800 
 36 H       -8.4230    -1.9990    -0.4510 H     1 <1>   0.0800 
 37 H       -8.0280     0.2130     1.6040 H     1 <1>   0.0800 
 38 H       -9.5530    -0.2000     0.8590 H     1 <1>   0.0800 
 39 H       -8.2650     0.4590    -0.1190 H     1 <1>   0.0800 
@<TRIPOS>BOND
  1   1   2  2   
  2   2   3  am  
  3   2   4  am  
  4   3   5  1   
  5   3  20  1   
  6   4   6  1   
  7   4  21  1   
  8   5   7  ar  
  9   5   8  ar  
 10   6   9  1   
 11   6  10  1   
 12   6  22  1   
 13   7  11  ar  
 14   7  23  1   
 15   8  12  ar  
 16   8  24  1   
 17   9  13  1   
 18   9  25  1   
 19   9  26  1   
 20  10  27  1   
 21  10  28  1   
 22  10  29  1   
 23  11  14  ar  
 24  11  30  1   
 25  12  14  ar  
 26  12  31  1   
 27  13  32  1   
 28  13  33  1   
 29  13  34  1   
 30  14  15  1   
 31  15  16  2   
 32  15  17  1   
 33  17  18  1   
 34  18  19  1   
 35  18  35  1   
 36  18  36  1   
 37  19  37  1   
 38  19  38  1   
 39  19  39  1   
@<TRIPOS>SUBSTRUCTURE
  1 ****   8 GROUP 4 **** **** 0

# MOE 2024.06 (io_trps.svl 2023.06)
