@<TRIPOS>MOLECULE
NONAME
39 41 1 0 0 
SMALL
USER_CHARGES


@<TRIPOS>ATOM
  1 S       -0.1080    -0.7320    -1.3720 S.3   1 <1>  -0.0800 
  2 C       -0.5420    -1.6990     0.0260 C.2   1 <1>  -0.1400 
  3 C       -1.7870    -0.3200    -1.6560 C.2   1 <1>  -0.1100 
  4 C       -1.8740    -1.6810     0.2110 C.2   1 <1>  -0.1500 
  5 C        0.5800    -2.3760     0.7920 C.3   1 <1>   0.0200 
  6 C       -2.6090    -0.9050    -0.7550 C.2   1 <1>  -0.0010 
  7 C        1.4320    -1.3500     1.5430 C.3   1 <1>  -0.2400 
  8 C       -4.0470    -0.7700    -0.7340 C.2   1 <1>   0.1880 
  9 N       -4.6880     0.3510    -0.9240 N.2   1 <1>  -0.3380 
 10 N       -4.9180    -1.7810    -0.5320 N.pl3 1 <1>   0.0480 
 11 N       -5.9940     0.1010    -0.8330 N.2   1 <1>  -0.3380 
 12 C       -6.0910    -1.1590    -0.6040 C.2   1 <1>   0.2430 
 13 C       -4.6610    -3.2270    -0.3640 C.3   1 <1>   0.0160 
 14 S       -7.6600    -2.0060    -0.4020 S.3   1 <1>  -0.2860 
 15 C       -8.8970    -0.6370    -0.6520 C.3   1 <1>   0.1310 
 16 C      -10.3290    -1.1260    -0.4890 C.2   1 <1>   0.5690 
 17 O      -11.2210    -0.4130    -0.8830 O.2   1 <1>  -0.5700 
 18 N      -10.5670    -2.3310     0.0970 N.am  1 <1>  -0.5790 
 19 C      -11.8860    -2.9340     0.3280 C.3   1 <1>   0.0490 
 20 C      -12.0680    -3.7750     1.5470 C.3   1 <1>  -0.2000 
 21 C      -12.0130    -4.4150     0.1920 C.3   1 <1>  -0.2000 
 22 H       -2.0070     0.3290    -2.4850 H     1 <1>   0.1500 
 23 H       -2.3840    -2.1830     1.0130 H     1 <1>   0.1500 
 24 H        1.1960    -2.9310     0.1060 H     1 <1>   0.0800 
 25 H        0.1580    -3.0690     1.4980 H     1 <1>   0.0800 
 26 H        1.8990    -0.6710     0.8510 H     1 <1>   0.0800 
 27 H        2.2000    -1.8480     2.1070 H     1 <1>   0.0800 
 28 H        0.8170    -0.7830     2.2190 H     1 <1>   0.0800 
 29 H       -3.7430    -3.4920    -0.8560 H     1 <1>   0.0800 
 30 H       -5.4650    -3.7910    -0.8020 H     1 <1>   0.0800 
 31 H       -4.5910    -3.4570     0.6830 H     1 <1>   0.0800 
 32 H       -8.7470    -0.2500    -1.6430 H     1 <1>   0.0800 
 33 H       -8.6800     0.1270     0.0700 H     1 <1>   0.0800 
 34 H       -9.7680    -2.9000     0.3830 H     1 <1>   0.3700 
 35 H      -12.7040    -2.3110     0.0000 H     1 <1>   0.1000 
 36 H      -13.0160    -3.7430     2.0560 H     1 <1>   0.1000 
 37 H      -11.2400    -3.9000     2.2220 H     1 <1>   0.1000 
 38 H      -11.1460    -4.9880    -0.0830 H     1 <1>   0.1000 
 39 H      -12.9220    -4.8170    -0.2180 H     1 <1>   0.1000 
@<TRIPOS>BOND
  1   1   2  1   
  2   1   3  1   
  3   2   4  2   
  4   2   5  1   
  5   3   6  2   
  6   3  22  1   
  7   4   6  1   
  8   4  23  1   
  9   5   7  1   
 10   5  24  1   
 11   5  25  1   
 12   6   8  1   
 13   7  26  1   
 14   7  27  1   
 15   7  28  1   
 16   8   9  2   
 17   8  10  1   
 18   9  11  1   
 19  10  12  1   
 20  10  13  1   
 21  11  12  2   
 22  12  14  1   
 23  13  29  1   
 24  13  30  1   
 25  13  31  1   
 26  14  15  1   
 27  15  16  1   
 28  15  32  1   
 29  15  33  1   
 30  16  17  2   
 31  16  18  am  
 32  18  19  1   
 33  18  34  1   
 34  19  20  1   
 35  19  21  1   
 36  19  35  1   
 37  20  21  1   
 38  20  36  1   
 39  20  37  1   
 40  21  38  1   
 41  21  39  1   
@<TRIPOS>SUBSTRUCTURE
  1 ****  12 GROUP 4 **** **** 0

# MOE 2024.06 (io_trps.svl 2023.06)
