@<TRIPOS>MOLECULE
NONAME
47 50 1 0 0 
SMALL
USER_CHARGES


@<TRIPOS>ATOM
  1 F       -1.1180     0.6220    -1.3890 F     1 <1>  -0.1900 
  2 C       -2.3380     0.3810    -0.9880 C.ar  1 <1>   0.1900 
  3 C       -3.1890    -0.3210    -1.8190 C.ar  1 <1>  -0.1500 
  4 C       -2.7350     0.8370     0.2550 C.ar  1 <1>  -0.1500 
  5 C       -4.4800    -0.5720    -1.3870 C.ar  1 <1>  -0.1500 
  6 C       -4.0280     0.5770     0.6740 C.ar  1 <1>  -0.1500 
  7 C       -4.9170    -0.1280    -0.1390 C.ar  1 <1>   0.1170 
  8 N       -6.2380    -0.3930     0.2920 N.am  1 <1>  -0.2370 
  9 C       -7.1030     0.5240     0.8240 C.2   1 <1>   0.5690 
 10 C       -6.8420    -1.6200     0.2640 C.2   1 <1>   0.5690 
 11 O       -6.8210     1.6540     1.1450 O.2   1 <1>  -0.5700 
 12 C       -8.4960    -0.0880     1.0540 C.3   1 <1>   0.2510 
 13 O       -6.3590    -2.6450    -0.1440 O.2   1 <1>  -0.5700 
 14 C       -8.2330    -1.5850     0.8410 C.3   1 <1>  -0.0990 
 15 N       -9.5800     0.3520     0.1230 N.3   1 <1>  -0.8100 
 16 C      -10.9110    -0.0880     0.6110 C.3   1 <1>   0.1100 
 17 C       -9.5940     1.8270    -0.0740 C.3   1 <1>   0.1100 
 18 C      -12.0430     0.3010    -0.3560 C.3   1 <1>   0.1400 
 19 C      -10.7010     2.2740    -1.0430 C.3   1 <1>   0.1400 
 20 N      -12.0350     1.7730    -0.6000 N.am  1 <1>  -0.6600 
 21 C      -13.0370     2.6280    -0.1940 C.2   1 <1>   0.5440 
 22 O      -12.7670     3.7950     0.0130 O.2   1 <1>  -0.5700 
 23 C      -14.3960     2.1750     0.0110 C.ar  1 <1>   0.0860 
 24 C      -15.0910     2.5450     1.1600 C.ar  1 <1>   0.1600 
 25 C      -15.0670     1.3720    -0.9030 C.ar  1 <1>  -0.1500 
 26 N      -16.3250     2.1750     1.4740 N.ar  1 <1>  -0.6200 
 27 C      -16.3540     0.9830    -0.6020 C.ar  1 <1>  -0.1500 
 28 C      -16.9290     1.4040     0.5850 C.ar  1 <1>   0.1600 
 29 H       -2.8450    -0.6620    -2.7790 H     1 <1>   0.1500 
 30 H       -2.0450     1.3810     0.8740 H     1 <1>   0.1500 
 31 H       -5.1520    -1.1230    -2.0220 H     1 <1>   0.1500 
 32 H       -4.3500     0.9300     1.6380 H     1 <1>   0.1500 
 33 H       -8.7870     0.1090     2.0720 H     1 <1>   0.0800 
 34 H       -8.2370    -2.1130     1.7750 H     1 <1>   0.0800 
 35 H       -8.9180    -2.0420     0.1510 H     1 <1>   0.0800 
 36 H      -11.1120     0.3550     1.5720 H     1 <1>   0.0800 
 37 H      -10.9260    -1.1570     0.7290 H     1 <1>   0.0800 
 38 H       -8.6570     2.1530    -0.4890 H     1 <1>   0.0800 
 39 H       -9.7320     2.3270     0.8710 H     1 <1>   0.0800 
 40 H      -12.9800    -0.0120     0.0660 H     1 <1>   0.0800 
 41 H      -11.9050    -0.2140    -1.2910 H     1 <1>   0.0800 
 42 H      -10.4870     1.8870    -2.0230 H     1 <1>   0.0800 
 43 H      -10.7010     3.3480    -1.1100 H     1 <1>   0.0800 
 44 H      -14.5850     3.1880     1.8610 H     1 <1>   0.1500 
 45 H      -14.5900     1.0720    -1.8200 H     1 <1>   0.1500 
 46 H      -16.9130     0.3610    -1.2790 H     1 <1>   0.1500 
 47 H      -17.9340     1.0930     0.8150 H     1 <1>   0.1500 
@<TRIPOS>BOND
  1   1   2  1   
  2   2   3  ar  
  3   2   4  ar  
  4   3   5  ar  
  5   3  29  1   
  6   4   6  ar  
  7   4  30  1   
  8   5   7  ar  
  9   5  31  1   
 10   6   7  ar  
 11   6  32  1   
 12   7   8  1   
 13   8   9  am  
 14   8  10  am  
 15   9  11  2   
 16   9  12  1   
 17  10  13  2   
 18  10  14  1   
 19  12  14  1   
 20  12  15  1   
 21  12  33  1   
 22  14  34  1   
 23  14  35  1   
 24  15  16  1   
 25  15  17  1   
 26  16  18  1   
 27  16  36  1   
 28  16  37  1   
 29  17  19  1   
 30  17  38  1   
 31  17  39  1   
 32  18  20  1   
 33  18  40  1   
 34  18  41  1   
 35  19  20  1   
 36  19  42  1   
 37  19  43  1   
 38  20  21  am  
 39  21  22  2   
 40  21  23  1   
 41  23  24  ar  
 42  23  25  ar  
 43  24  26  ar  
 44  24  44  1   
 45  25  27  ar  
 46  25  45  1   
 47  26  28  ar  
 48  27  28  ar  
 49  27  46  1   
 50  28  47  1   
@<TRIPOS>SUBSTRUCTURE
  1 ****  15 GROUP 4 **** **** 0

# MOE 2024.06 (io_trps.svl 2023.06)
