@<TRIPOS>MOLECULE
NONAME
32 33 1 0 0 
SMALL
USER_CHARGES


@<TRIPOS>ATOM
  1 CL       0.2900    -0.6290    -0.8760 Cl    1 <1>  -0.1240 
  2 C        1.7340     0.2310    -0.4270 C.2   1 <1>   0.1640 
  3 S        2.2250     1.5470    -1.4630 S.3   1 <1>  -0.0800 
  4 C        2.5760     0.0670     0.6070 C.2   1 <1>  -0.1500 
  5 C        3.6390     1.8850    -0.4490 C.2   1 <1>  -0.0450 
  6 C        3.6500     1.0060     0.5930 C.2   1 <1>  -0.1500 
  7 C        4.5160     2.9670    -0.8290 C.2   1 <1>   0.7150 
  8 O        4.0690     3.9220    -1.4390 O.2   1 <1>  -0.5700 
  9 N        5.8600     2.9580    -0.5030 N.am  1 <1>  -0.6600 
 10 C        6.6130     1.6690    -0.4230 C.3   1 <1>   0.1400 
 11 C        6.5990     4.2590    -0.4200 C.3   1 <1>   0.1400 
 12 C        7.9130     1.6730    -1.2420 C.3   1 <1>  -0.1600 
 13 C        7.4970     4.3820     0.8180 C.3   1 <1>  -0.1600 
 14 C        9.1920     1.5860    -0.3920 C.3   1 <1>  -0.1600 
 15 C        8.9680     3.9690     0.6130 C.3   1 <1>  -0.1600 
 16 C        9.2590     2.4810     0.8570 C.3   1 <1>  -0.1600 
 17 H        2.4770    -0.6780     1.3760 H     1 <1>   0.1500 
 18 H        4.3930     0.9970     1.3710 H     1 <1>   0.1500 
 19 H        5.9960     0.8780    -0.8130 H     1 <1>   0.0800 
 20 H        6.8050     1.4350     0.6080 H     1 <1>   0.0800 
 21 H        5.8780     5.0570    -0.3640 H     1 <1>   0.0800 
 22 H        7.1640     4.4260    -1.3200 H     1 <1>   0.0800 
 23 H        7.9600     2.5230    -1.8960 H     1 <1>   0.0800 
 24 H        7.9000     0.8100    -1.8840 H     1 <1>   0.0800 
 25 H        7.0550     3.8750     1.6570 H     1 <1>   0.0800 
 26 H        7.5120     5.4280     1.0700 H     1 <1>   0.0800 
 27 H       10.0310     1.8160    -1.0270 H     1 <1>   0.0800 
 28 H        9.3170     0.5660    -0.0700 H     1 <1>   0.0800 
 29 H        9.5480     4.5200     1.3350 H     1 <1>   0.0800 
 30 H        9.3220     4.2710    -0.3580 H     1 <1>   0.0800 
 31 H       10.2620     2.4020     1.2420 H     1 <1>   0.0800 
 32 H        8.6140     2.1030     1.6310 H     1 <1>   0.0800 
@<TRIPOS>BOND
  1   1   2  1   
  2   2   3  1   
  3   2   4  2   
  4   3   5  1   
  5   4   6  1   
  6   4  17  1   
  7   5   6  2   
  8   5   7  1   
  9   6  18  1   
 10   7   8  2   
 11   7   9  am  
 12   9  10  1   
 13   9  11  1   
 14  10  12  1   
 15  10  19  1   
 16  10  20  1   
 17  11  13  1   
 18  11  21  1   
 19  11  22  1   
 20  12  14  1   
 21  12  23  1   
 22  12  24  1   
 23  13  15  1   
 24  13  25  1   
 25  13  26  1   
 26  14  16  1   
 27  14  27  1   
 28  14  28  1   
 29  15  16  1   
 30  15  29  1   
 31  15  30  1   
 32  16  31  1   
 33  16  32  1   
@<TRIPOS>SUBSTRUCTURE
  1 ****   9 GROUP 4 **** **** 0

# MOE 2024.06 (io_trps.svl 2023.06)
