@<TRIPOS>MOLECULE
NONAME
62 63 1 0 0 
SMALL
USER_CHARGES


@<TRIPOS>ATOM
  1 S       -0.7030     0.5100    -1.2880 S.o2  1 <1>   1.4470 
  2 O        0.1590     1.5520    -1.7930 O.2   1 <1>  -0.6500 
  3 O       -1.6510    -0.1660    -2.1460 O.2   1 <1>  -0.6500 
  4 N       -1.6110     1.2930    -0.0380 N.am  1 <1>  -0.6400 
  5 C        0.2620    -0.7000    -0.3450 C.ar  1 <1>  -0.0090 
  6 N       -3.0830     1.0400    -0.0330 N.am  1 <1>  -0.3480 
  7 C        1.4530    -0.3440     0.2760 C.ar  1 <1>  -0.1500 
  8 C       -0.1790    -2.0100    -0.1940 C.ar  1 <1>  -0.1500 
  9 C       -3.9790     1.6540    -0.8490 C.2   1 <1>   0.5690 
 10 C        2.1800    -1.2600     1.0170 C.ar  1 <1>  -0.1500 
 11 C        0.5430    -2.9310     0.5450 C.ar  1 <1>  -0.1500 
 12 O       -3.6680     2.5950    -1.5520 O.2   1 <1>  -0.5700 
 13 C       -5.4160     1.1610    -0.8830 C.3   1 <1>   0.1810 
 14 C        1.7270    -2.5600     1.1570 C.ar  1 <1>  -0.1430 
 15 O       -5.6440     0.2050     0.1440 O.3   1 <1>  -0.3630 
 16 C        2.5230    -3.5670     1.9670 C.3   1 <1>  -0.0970 
 17 C       -6.8470    -0.4060     0.2740 C.ar  1 <1>   0.0830 
 18 C       -6.9780    -1.3240     1.2990 C.ar  1 <1>  -0.1500 
 19 C       -7.9340    -0.1640    -0.5570 C.ar  1 <1>  -0.1500 
 20 C       -8.1730    -1.9910     1.5010 C.ar  1 <1>  -0.1500 
 21 C       -9.1260    -0.8360    -0.3490 C.ar  1 <1>  -0.1500 
 22 C       -9.2790    -1.7560     0.6850 C.ar  1 <1>  -0.1430 
 23 C      -10.6370    -2.4830     0.8720 C.3   1 <1>   0.1440 
 24 C      -10.7820    -3.4600    -0.3340 C.3   1 <1>  -0.1600 
 25 C      -11.7480    -1.4110     0.8930 C.3   1 <1>  -0.2400 
 26 C      -10.7000    -3.2100     2.2260 C.3   1 <1>  -0.2400 
 27 C      -11.8730    -4.5670    -0.4620 C.3   1 <1>   0.0000 
 28 C      -13.2940    -4.0700    -0.1640 C.3   1 <1>  -0.2400 
 29 C      -11.8540    -5.0540    -1.9220 C.3   1 <1>  -0.2400 
 30 C      -11.5700    -5.7930     0.4160 C.3   1 <1>  -0.2400 
 31 H       -1.4360     2.2900    -0.2060 H     1 <1>   0.4200 
 32 H       -3.4310     0.2740     0.5610 H     1 <1>   0.3700 
 33 H        1.8210     0.6640     0.1770 H     1 <1>   0.1500 
 34 H       -1.0990    -2.3160    -0.6650 H     1 <1>   0.1500 
 35 H        3.1010    -0.9550     1.4840 H     1 <1>   0.1500 
 36 H        0.1780    -3.9400     0.6400 H     1 <1>   0.1500 
 37 H       -5.6050     0.6960    -1.8330 H     1 <1>   0.0800 
 38 H       -6.0850     1.9890    -0.7340 H     1 <1>   0.0800 
 39 H        3.0550    -3.0760     2.7620 H     1 <1>   0.0800 
 40 H        3.2320    -4.0660     1.3310 H     1 <1>   0.0800 
 41 H        1.8690    -4.3020     2.4020 H     1 <1>   0.0800 
 42 H       -6.1400    -1.5180     1.9420 H     1 <1>   0.1500 
 43 H       -7.8810     0.5360    -1.3690 H     1 <1>   0.1500 
 44 H       -8.2100    -2.6970     2.3080 H     1 <1>   0.1500 
 45 H       -9.9420    -0.6300    -1.0170 H     1 <1>   0.1500 
 46 H       -9.8340    -3.9570    -0.4380 H     1 <1>   0.0800 
 47 H      -10.8690    -2.8380    -1.2070 H     1 <1>   0.0800 
 48 H      -11.9250    -1.0080    -0.0860 H     1 <1>   0.0800 
 49 H      -11.4620    -0.6060     1.5460 H     1 <1>   0.0800 
 50 H      -12.6760    -1.8050     1.2580 H     1 <1>   0.0800 
 51 H      -10.4520    -2.5330     3.0240 H     1 <1>   0.0800 
 52 H      -10.0160    -4.0390     2.2450 H     1 <1>   0.0800 
 53 H      -11.6880    -3.5810     2.4200 H     1 <1>   0.0800 
 54 H      -14.0180    -4.8200    -0.4310 H     1 <1>   0.0800 
 55 H      -13.5090    -3.1800    -0.7270 H     1 <1>   0.0800 
 56 H      -13.4190    -3.8640     0.8810 H     1 <1>   0.0800 
 57 H      -12.1060    -4.2530    -2.5950 H     1 <1>   0.0800 
 58 H      -12.5650    -5.8480    -2.0720 H     1 <1>   0.0800 
 59 H      -10.8790    -5.4230    -2.1850 H     1 <1>   0.0800 
 60 H      -10.5620    -6.1330     0.2570 H     1 <1>   0.0800 
 61 H      -12.2370    -6.6020     0.1730 H     1 <1>   0.0800 
 62 H      -11.6980    -5.5820     1.4580 H     1 <1>   0.0800 
@<TRIPOS>BOND
  1   1   2  2   
  2   1   3  2   
  3   1   4  am  
  4   1   5  1   
  5   4   6  1   
  6   4  31  1   
  7   5   7  ar  
  8   5   8  ar  
  9   6   9  am  
 10   6  32  1   
 11   7  10  ar  
 12   7  33  1   
 13   8  11  ar  
 14   8  34  1   
 15   9  12  2   
 16   9  13  1   
 17  10  14  ar  
 18  10  35  1   
 19  11  14  ar  
 20  11  36  1   
 21  13  15  1   
 22  13  37  1   
 23  13  38  1   
 24  14  16  1   
 25  15  17  1   
 26  16  39  1   
 27  16  40  1   
 28  16  41  1   
 29  17  18  ar  
 30  17  19  ar  
 31  18  20  ar  
 32  18  42  1   
 33  19  21  ar  
 34  19  43  1   
 35  20  22  ar  
 36  20  44  1   
 37  21  22  ar  
 38  21  45  1   
 39  22  23  1   
 40  23  24  1   
 41  23  25  1   
 42  23  26  1   
 43  24  27  1   
 44  24  46  1   
 45  24  47  1   
 46  25  48  1   
 47  25  49  1   
 48  25  50  1   
 49  26  51  1   
 50  26  52  1   
 51  26  53  1   
 52  27  28  1   
 53  27  29  1   
 54  27  30  1   
 55  28  54  1   
 56  28  55  1   
 57  28  56  1   
 58  29  57  1   
 59  29  58  1   
 60  29  59  1   
 61  30  60  1   
 62  30  61  1   
 63  30  62  1   
@<TRIPOS>SUBSTRUCTURE
  1 ****  15 GROUP 4 **** **** 0

# MOE 2024.06 (io_trps.svl 2023.06)
