@<TRIPOS>MOLECULE
NONAME
49 51 1 0 0 
SMALL
USER_CHARGES


@<TRIPOS>ATOM
  1 S       -0.1870     0.3500     1.0050 S.3   1 <1>  -0.4600 
  2 C       -0.0740     1.7820    -0.0730 C.3   1 <1>   0.2300 
  3 C        1.3360    -0.5620     0.6500 C.3   1 <1>   0.2140 
  4 C        1.1930     2.5350     0.3490 C.3   1 <1>  -0.0160 
  5 C       -0.0520     1.3010    -1.5300 C.3   1 <1>  -0.2400 
  6 C       -1.3330     2.6090     0.1960 C.3   1 <1>  -0.2400 
  7 C        2.5510     0.3450     0.4330 C.ar  1 <1>  -0.1440 
  8 C        2.5010     1.7260     0.2940 C.ar  1 <1>  -0.1430 
  9 C        3.7860    -0.3100     0.3640 C.ar  1 <1>   0.4100 
 10 C        3.7200     2.3860     0.1200 C.ar  1 <1>   0.0730 
 11 N        4.9420     0.3020     0.1860 N.ar  1 <1>  -0.6200 
 12 N        3.8640    -1.6800     0.4800 N.pl3 1 <1>  -0.8380 
 13 C        3.8150     3.8100    -0.0040 C.1   1 <1>   0.4840 
 14 C        4.8720     1.6100     0.0770 C.ar  1 <1>   0.4120 
 15 C        4.5130    -2.2020     1.7180 C.3   1 <1>   0.2090 
 16 C        4.3250    -2.4280    -0.7270 C.3   1 <1>   0.2090 
 17 N        3.8260     4.9460    -0.1020 N.1   1 <1>  -0.5570 
 18 S        6.4670     2.4060    -0.1500 S.3   1 <1>  -0.3310 
 19 C        4.3650    -3.7320     1.8130 C.3   1 <1>   0.1200 
 20 C        4.1850    -3.9470    -0.5170 C.3   1 <1>   0.1200 
 21 C        7.6900     1.0070    -0.1140 C.3   1 <1>   0.1310 
 22 O        4.8420    -4.3550     0.6510 O.3   1 <1>  -0.5600 
 23 C        9.0990     1.5250    -0.3170 C.2   1 <1>   0.6590 
 24 O        9.9170     1.4930     0.5670 O.2   1 <1>  -0.5700 
 25 O        9.3850     1.9930    -1.5270 O.3   1 <1>  -0.4300 
 26 C       10.6590     2.5180    -1.8370 C.3   1 <1>   0.0400 
 27 H        1.1480    -1.1540    -0.2270 H     1 <1>   0.0800 
 28 H        1.4920    -1.2170     1.4880 H     1 <1>   0.0800 
 29 H        1.0640     2.8900     1.3560 H     1 <1>   0.0800 
 30 H        1.2610     3.4000    -0.2860 H     1 <1>   0.0800 
 31 H        0.8310     0.7300    -1.7470 H     1 <1>   0.0800 
 32 H       -0.0720     2.1450    -2.1950 H     1 <1>   0.0800 
 33 H       -0.9140     0.6910    -1.7310 H     1 <1>   0.0800 
 34 H       -1.3840     2.8910     1.2330 H     1 <1>   0.0800 
 35 H       -2.2120     2.0380    -0.0450 H     1 <1>   0.0800 
 36 H       -1.3310     3.5020    -0.4030 H     1 <1>   0.0800 
 37 H        4.0620    -1.7420     2.5810 H     1 <1>   0.0800 
 38 H        5.5590    -1.9470     1.7120 H     1 <1>   0.0800 
 39 H        5.3570    -2.1930    -0.9250 H     1 <1>   0.0800 
 40 H        3.7430    -2.1270    -1.5800 H     1 <1>   0.0800 
 41 H        3.3330    -4.0020     1.9490 H     1 <1>   0.0800 
 42 H        4.9350    -4.1080     2.6440 H     1 <1>   0.0800 
 43 H        4.6250    -4.4780    -1.3420 H     1 <1>   0.0800 
 44 H        3.1470    -4.2210    -0.4410 H     1 <1>   0.0800 
 45 H        7.4230     0.3240    -0.8990 H     1 <1>   0.0800 
 46 H        7.5980     0.5270     0.8430 H     1 <1>   0.0800 
 47 H       10.6550     2.8370    -2.8640 H     1 <1>   0.0800 
 48 H       11.3980     1.7500    -1.6880 H     1 <1>   0.0800 
 49 H       10.8560     3.3550    -1.1890 H     1 <1>   0.0800 
@<TRIPOS>BOND
  1   1   2  1   
  2   1   3  1   
  3   2   4  1   
  4   2   5  1   
  5   2   6  1   
  6   3   7  1   
  7   3  27  1   
  8   3  28  1   
  9   4   8  1   
 10   4  29  1   
 11   4  30  1   
 12   5  31  1   
 13   5  32  1   
 14   5  33  1   
 15   6  34  1   
 16   6  35  1   
 17   6  36  1   
 18   7   8  ar  
 19   7   9  ar  
 20   8  10  ar  
 21   9  11  ar  
 22   9  12  1   
 23  10  13  1   
 24  10  14  ar  
 25  11  14  ar  
 26  12  15  1   
 27  12  16  1   
 28  13  17  3   
 29  14  18  1   
 30  15  19  1   
 31  15  37  1   
 32  15  38  1   
 33  16  20  1   
 34  16  39  1   
 35  16  40  1   
 36  18  21  1   
 37  19  22  1   
 38  19  41  1   
 39  19  42  1   
 40  20  22  1   
 41  20  43  1   
 42  20  44  1   
 43  21  23  1   
 44  21  45  1   
 45  21  46  1   
 46  23  24  2   
 47  23  25  1   
 48  25  26  1   
 49  26  47  1   
 50  26  48  1   
 51  26  49  1   
@<TRIPOS>SUBSTRUCTURE
  1 ****  11 GROUP 4 **** **** 0

# MOE 2024.06 (io_trps.svl 2023.06)
