@<TRIPOS>MOLECULE
NONAME
42 44 1 0 0 
SMALL
USER_CHARGES


@<TRIPOS>ATOM
  1 O       -0.2110     0.4720    -0.3820 O.2   1 <1>  -0.5700 
  2 C       -0.1380     1.6120     0.0330 C.2   1 <1>   0.5440 
  3 N       -1.2560     2.1840     0.5750 N.am  1 <1>  -0.7300 
  4 C        1.1100     2.3500    -0.0360 C.ar  1 <1>   0.0860 
  5 C       -2.5840     1.5330     0.6890 C.3   1 <1>   0.1400 
  6 C        2.3360     1.6860     0.0340 C.ar  1 <1>  -0.1500 
  7 C        1.1370     3.7420    -0.1710 C.ar  1 <1>  -0.1500 
  8 C       -3.5400     2.1210    -0.3500 C.3   1 <1>  -0.0220 
  9 C        3.5310     2.3760    -0.0130 C.ar  1 <1>   0.0830 
 10 C        2.3290     4.4430    -0.2250 C.ar  1 <1>  -0.1500 
 11 C       -4.9410     1.5390    -0.2090 C.2   1 <1>  -0.2760 
 12 O        4.6950     1.6830     0.0840 O.3   1 <1>  -0.3630 
 13 C        3.5320     3.7650    -0.1510 C.ar  1 <1>   0.0830 
 14 C       -5.9880     2.2620     0.2010 C.2   1 <1>  -0.2880 
 15 C       -5.0580     0.0620    -0.5800 C.3   1 <1>  -0.0220 
 16 C        5.8640     2.4290     0.3640 C.3   1 <1>   0.1200 
 17 O        4.6880     4.4640    -0.2230 O.3   1 <1>  -0.3630 
 18 C       -7.3970     1.7160     0.3710 C.3   1 <1>  -0.0220 
 19 C       -6.5210    -0.3590    -0.7810 C.3   1 <1>  -0.1600 
 20 C        5.8760     3.7290    -0.4530 C.3   1 <1>   0.1200 
 21 C       -7.4120     0.1810     0.3450 C.3   1 <1>  -0.1600 
 22 H       -1.1830     3.1080     1.0000 H     1 <1>   0.3700 
 23 H       -2.9770     1.6920     1.6780 H     1 <1>   0.0800 
 24 H       -2.4850     0.4720     0.5340 H     1 <1>   0.0800 
 25 H        2.3520     0.6140     0.1290 H     1 <1>   0.1500 
 26 H        0.2120     4.2860    -0.2450 H     1 <1>   0.1500 
 27 H       -3.1650     1.9220    -1.3380 H     1 <1>   0.0800 
 28 H       -3.5860     3.1870    -0.2160 H     1 <1>   0.0800 
 29 H        2.3370     5.5130    -0.3310 H     1 <1>   0.1500 
 30 H       -5.9190     3.3090     0.4450 H     1 <1>   0.1500 
 31 H       -4.6210    -0.5330     0.2020 H     1 <1>   0.0800 
 32 H       -4.5160    -0.1340    -1.4890 H     1 <1>   0.0800 
 33 H        6.7140     1.8170     0.1210 H     1 <1>   0.0800 
 34 H        5.8770     2.6490     1.4170 H     1 <1>   0.0800 
 35 H       -8.0130     2.0990    -0.4230 H     1 <1>   0.0800 
 36 H       -7.8070     2.0560     1.3060 H     1 <1>   0.0800 
 37 H       -6.5840    -1.4330    -0.8190 H     1 <1>   0.0800 
 38 H       -6.8710     0.0280    -1.7220 H     1 <1>   0.0800 
 39 H        5.9330     3.5080    -1.5040 H     1 <1>   0.0800 
 40 H        6.7080     4.3490    -0.1750 H     1 <1>   0.0800 
 41 H       -8.4210    -0.1670     0.2170 H     1 <1>   0.0800 
 42 H       -7.0470    -0.1900     1.2870 H     1 <1>   0.0800 
@<TRIPOS>BOND
  1   1   2  2   
  2   2   3  am  
  3   2   4  1   
  4   3   5  1   
  5   3  22  1   
  6   4   6  ar  
  7   4   7  ar  
  8   5   8  1   
  9   5  23  1   
 10   5  24  1   
 11   6   9  ar  
 12   6  25  1   
 13   7  10  ar  
 14   7  26  1   
 15   8  11  1   
 16   8  27  1   
 17   8  28  1   
 18   9  12  1   
 19   9  13  ar  
 20  10  13  ar  
 21  10  29  1   
 22  11  14  2   
 23  11  15  1   
 24  12  16  1   
 25  13  17  1   
 26  14  18  1   
 27  14  30  1   
 28  15  19  1   
 29  15  31  1   
 30  15  32  1   
 31  16  20  1   
 32  16  33  1   
 33  16  34  1   
 34  17  20  1   
 35  18  21  1   
 36  18  35  1   
 37  18  36  1   
 38  19  21  1   
 39  19  37  1   
 40  19  38  1   
 41  20  39  1   
 42  20  40  1   
 43  21  41  1   
 44  21  42  1   
@<TRIPOS>SUBSTRUCTURE
  1 ****   2 GROUP 4 **** **** 0

# MOE 2024.06 (io_trps.svl 2023.06)
