@<TRIPOS>MOLECULE
NONAME
49 50 1 0 0 
SMALL
USER_CHARGES


@<TRIPOS>ATOM
  1 S        0.0910     0.3800     0.5440 S.o2  1 <1>   1.3330 
  2 O        0.3000    -0.1330     1.8780 O.2   1 <1>  -0.6500 
  3 O       -0.9900     1.3040     0.2880 O.2   1 <1>  -0.6500 
  4 N        1.5350     1.1040     0.0330 N.am  1 <1>  -0.8490 
  5 C       -0.0960    -0.9830    -0.5870 C.3   1 <1>  -0.1350 
  6 C        2.7240     0.3640     0.4920 C.3   1 <1>   0.1960 
  7 C        1.6030     2.5020     0.4750 C.3   1 <1>   0.1960 
  8 C        3.9990     0.9530    -0.1340 C.3   1 <1>  -0.0190 
  9 C        2.8420     3.1900    -0.1110 C.3   1 <1>  -0.1600 
 10 C        5.2350     0.1610     0.2740 C.2   1 <1>   0.5690 
 11 C        4.1330     2.4400     0.2430 C.3   1 <1>  -0.1600 
 12 O        5.1810    -0.5560     1.2430 O.2   1 <1>  -0.5700 
 13 N        6.3540     0.3060    -0.5020 N.am  1 <1>  -0.5470 
 14 C        7.6400    -0.2470    -0.3910 C.ar  1 <1>   0.1170 
 15 C        8.1400    -0.7910     0.7880 C.ar  1 <1>  -0.1500 
 16 C        8.4660    -0.2370    -1.5090 C.ar  1 <1>  -0.1500 
 17 C        9.4200    -1.3120     0.8440 C.ar  1 <1>  -0.1500 
 18 C        9.7470    -0.7560    -1.4560 C.ar  1 <1>  -0.1500 
 19 C       10.2330    -1.3000    -0.2780 C.ar  1 <1>  -0.1430 
 20 C       11.6400    -1.8730    -0.2150 C.3   1 <1>  -0.0170 
 21 C       12.6450    -0.7880     0.1880 C.3   1 <1>  -0.1600 
 22 C       14.0740    -1.3420     0.2600 C.3   1 <1>  -0.1600 
 23 C       15.0670    -0.2500     0.6640 C.3   1 <1>  -0.2400 
 24 H       -1.0140    -1.4980    -0.3870 H     1 <1>   0.0800 
 25 H        0.7150    -1.6750    -0.4800 H     1 <1>   0.0800 
 26 H       -0.1170    -0.6220    -1.5960 H     1 <1>   0.0800 
 27 H        2.6440    -0.6710     0.2100 H     1 <1>   0.0800 
 28 H        2.7920     0.4070     1.5690 H     1 <1>   0.0800 
 29 H        1.6280     2.5430     1.5530 H     1 <1>   0.0800 
 30 H        0.7280     3.0350     0.1410 H     1 <1>   0.0800 
 31 H        3.8960     0.8690    -1.2010 H     1 <1>   0.0800 
 32 H        2.8950     4.1980     0.2620 H     1 <1>   0.0800 
 33 H        2.7300     3.2430    -1.1800 H     1 <1>   0.0800 
 34 H        4.9660     2.8860    -0.2700 H     1 <1>   0.0800 
 35 H        4.3120     2.5210     1.3030 H     1 <1>   0.0800 
 36 H        6.2340     0.9060    -1.3140 H     1 <1>   0.3700 
 37 H        7.5360    -0.8090     1.6750 H     1 <1>   0.1500 
 38 H        8.1100     0.1770    -2.4340 H     1 <1>   0.1500 
 39 H        9.7810    -1.7270     1.7680 H     1 <1>   0.1500 
 40 H       10.3670    -0.7360    -2.3340 H     1 <1>   0.1500 
 41 H       11.9070    -2.2780    -1.1760 H     1 <1>   0.0800 
 42 H       11.6680    -2.6780     0.4970 H     1 <1>   0.0800 
 43 H       12.3640    -0.3880     1.1480 H     1 <1>   0.0800 
 44 H       12.6050     0.0140    -0.5290 H     1 <1>   0.0800 
 45 H       14.3570    -1.7400    -0.7000 H     1 <1>   0.0800 
 46 H       14.1160    -2.1420     0.9800 H     1 <1>   0.0800 
 47 H       15.0580     0.5520    -0.0540 H     1 <1>   0.0800 
 48 H       16.0630    -0.6560     0.7100 H     1 <1>   0.0800 
 49 H       14.8150     0.1490     1.6310 H     1 <1>   0.0800 
@<TRIPOS>BOND
  1   1   2  2   
  2   1   3  2   
  3   1   4  am  
  4   1   5  1   
  5   4   6  1   
  6   4   7  1   
  7   5  24  1   
  8   5  25  1   
  9   5  26  1   
 10   6   8  1   
 11   6  27  1   
 12   6  28  1   
 13   7   9  1   
 14   7  29  1   
 15   7  30  1   
 16   8  10  1   
 17   8  11  1   
 18   8  31  1   
 19   9  11  1   
 20   9  32  1   
 21   9  33  1   
 22  10  12  2   
 23  10  13  am  
 24  11  34  1   
 25  11  35  1   
 26  13  14  1   
 27  13  36  1   
 28  14  15  ar  
 29  14  16  ar  
 30  15  17  ar  
 31  15  37  1   
 32  16  18  ar  
 33  16  38  1   
 34  17  19  ar  
 35  17  39  1   
 36  18  19  ar  
 37  18  40  1   
 38  19  20  1   
 39  20  21  1   
 40  20  41  1   
 41  20  42  1   
 42  21  22  1   
 43  21  43  1   
 44  21  44  1   
 45  22  23  1   
 46  22  45  1   
 47  22  46  1   
 48  23  47  1   
 49  23  48  1   
 50  23  49  1   
@<TRIPOS>SUBSTRUCTURE
  1 ****  13 GROUP 4 **** **** 0

# MOE 2024.06 (io_trps.svl 2023.06)
