@<TRIPOS>MOLECULE
NONAME
42 44 1 0 0 
SMALL
USER_CHARGES


@<TRIPOS>ATOM
  1 S       -0.2670    -0.1020    -0.4710 S.o2  1 <1>   1.4470 
  2 O       -0.6000    -0.2960    -1.8640 O.2   1 <1>  -0.6500 
  3 O       -1.1420     0.6680     0.3830 O.2   1 <1>  -0.6500 
  4 N        1.1980     0.7570    -0.5020 N.am  1 <1>  -0.8490 
  5 C        0.1880    -1.6670     0.3240 C.ar  1 <1>  -0.0090 
  6 C        2.1730     0.1820    -1.4540 C.3   1 <1>   0.1960 
  7 C        0.9490     2.1820    -0.8220 C.3   1 <1>   0.1960 
  8 C        0.4980    -1.7140     1.6790 C.ar  1 <1>  -0.1500 
  9 C        0.2670    -2.8500    -0.4040 C.ar  1 <1>  -0.1500 
 10 C        3.5350     0.9240    -1.4160 C.3   1 <1>   0.3430 
 11 C        2.2510     3.0050    -0.9850 C.3   1 <1>   0.3430 
 12 C        0.8810    -2.8970     2.2870 C.ar  1 <1>  -0.1500 
 13 C        0.6490    -4.0370     0.1970 C.ar  1 <1>  -0.1500 
 14 N        3.4650     2.1940    -0.6120 N.4   1 <1>  -0.9590 
 15 C        0.9590    -4.0600     1.5440 C.ar  1 <1>  -0.1500 
 16 C        4.7340     2.9720    -0.6060 C.3   1 <1>   0.4860 
 17 C        4.5750     4.1530     0.3330 C.ar  1 <1>  -0.1430 
 18 C        4.5020     3.9940     1.7050 C.ar  1 <1>  -0.1500 
 19 C        4.4830     5.4490    -0.1400 C.ar  1 <1>  -0.1500 
 20 C        4.3250     5.1050     2.5120 C.ar  1 <1>   0.1600 
 21 C        4.3090     6.4910     0.7540 C.ar  1 <1>   0.1600 
 22 N        4.2180     6.3430     2.0640 N.ar  1 <1>  -0.6200 
 23 H        1.7790     0.2290    -2.4570 H     1 <1>   0.0800 
 24 H        2.3410    -0.8570    -1.2260 H     1 <1>   0.0800 
 25 H        0.3640     2.6260    -0.0320 H     1 <1>   0.0800 
 26 H        0.3680     2.2620    -1.7270 H     1 <1>   0.0800 
 27 H        0.4330    -0.8140     2.2670 H     1 <1>   0.1500 
 28 H        0.0210    -2.8480    -1.4530 H     1 <1>   0.1500 
 29 H        3.8390     1.1400    -2.4270 H     1 <1>   0.0800 
 30 H        4.2730     0.2660    -0.9880 H     1 <1>   0.0800 
 31 H        2.1830     3.8830    -0.3620 H     1 <1>   0.0800 
 32 H        2.3310     3.3370    -2.0060 H     1 <1>   0.0800 
 33 H        1.1130    -2.9160     3.3390 H     1 <1>   0.1500 
 34 H        0.7020    -4.9440    -0.3820 H     1 <1>   0.1500 
 35 H        3.2700     1.8950     0.3550 H     1 <1>   0.4500 
 36 H        1.2550    -4.9830     2.0140 H     1 <1>   0.1500 
 37 H        4.9610     3.3230    -1.5990 H     1 <1>   0.0800 
 38 H        5.5490     2.3530    -0.2670 H     1 <1>   0.0800 
 39 H        4.5810     3.0260     2.1680 H     1 <1>   0.1500 
 40 H        4.5460     5.6720    -1.1910 H     1 <1>   0.1500 
 41 H        4.2690     4.9730     3.5800 H     1 <1>   0.1500 
 42 H        4.2400     7.4990     0.3770 H     1 <1>   0.1500 
@<TRIPOS>BOND
  1   1   2  2   
  2   1   3  2   
  3   1   4  am  
  4   1   5  1   
  5   4   6  1   
  6   4   7  1   
  7   5   8  ar  
  8   5   9  ar  
  9   6  10  1   
 10   6  23  1   
 11   6  24  1   
 12   7  11  1   
 13   7  25  1   
 14   7  26  1   
 15   8  12  ar  
 16   8  27  1   
 17   9  13  ar  
 18   9  28  1   
 19  10  14  1   
 20  10  29  1   
 21  10  30  1   
 22  11  14  1   
 23  11  31  1   
 24  11  32  1   
 25  12  15  ar  
 26  12  33  1   
 27  13  15  ar  
 28  13  34  1   
 29  14  16  1   
 30  14  35  1   
 31  15  36  1   
 32  16  17  1   
 33  16  37  1   
 34  16  38  1   
 35  17  18  ar  
 36  17  19  ar  
 37  18  20  ar  
 38  18  39  1   
 39  19  21  ar  
 40  19  40  1   
 41  20  22  ar  
 42  20  41  1   
 43  21  22  ar  
 44  21  42  1   
@<TRIPOS>SUBSTRUCTURE
  1 ****   4 GROUP 4 **** **** 0

# MOE 2024.06 (io_trps.svl 2023.06)
