@<TRIPOS>MOLECULE
NONAME
55 56 1 0 0 
SMALL
USER_CHARGES


@<TRIPOS>ATOM
  1 S       -0.4900    -0.0050    -0.3860 S.o2  1 <1>   1.3330 
  2 O        0.3520    -1.0030    -0.9980 O.2   1 <1>  -0.6500 
  3 O        0.1200     1.0900     0.3280 O.2   1 <1>  -0.6500 
  4 N       -1.5920    -0.8310     0.6820 N.am  1 <1>  -0.6930 
  5 C       -1.5230     0.6530    -1.6780 C.3   1 <1>  -0.1350 
  6 C       -1.6380    -2.2240     0.7250 C.ar  1 <1>   0.1990 
  7 C       -2.6960    -0.1050     1.3930 C.3   1 <1>   0.3370 
  8 C       -1.8290    -2.9830    -0.4240 C.ar  1 <1>  -0.1500 
  9 C       -1.5200    -2.8910     1.9370 C.ar  1 <1>  -0.1500 
 10 C       -3.9920    -0.0340     0.5590 C.2   1 <1>   0.5690 
 11 C       -2.2720     1.2500     1.9750 C.3   1 <1>  -0.2400 
 12 C       -1.9130    -4.3640    -0.3760 C.ar  1 <1>  -0.1440 
 13 C       -1.6100    -4.2680     2.0000 C.ar  1 <1>  -0.1500 
 14 O       -4.1840     0.9130    -0.1680 O.2   1 <1>  -0.5700 
 15 N       -4.8840    -1.0670     0.6750 N.am  1 <1>  -0.5470 
 16 C       -1.8080    -5.0150     0.8490 C.ar  1 <1>  -0.1430 
 17 C       -2.1060    -5.1380    -1.6740 C.3   1 <1>  -0.0970 
 18 C       -6.1830    -1.1950     0.1520 C.ar  1 <1>   0.1170 
 19 C       -1.8880    -6.5310     0.9550 C.3   1 <1>  -0.0970 
 20 C       -6.5050    -2.3410    -0.5850 C.ar  1 <1>  -0.1430 
 21 C       -7.1750    -0.2310     0.3770 C.ar  1 <1>  -0.1430 
 22 C       -7.7790    -2.4950    -1.1050 C.ar  1 <1>  -0.1500 
 23 C       -5.4930    -3.4530    -0.8430 C.3   1 <1>  -0.0170 
 24 C       -8.4390    -0.4030    -0.1600 C.ar  1 <1>  -0.1500 
 25 C       -6.9380     1.0200     1.2170 C.3   1 <1>  -0.0970 
 26 C       -8.7430    -1.5280    -0.9010 C.ar  1 <1>  -0.1500 
 27 C       -5.4360    -4.4210     0.3420 C.3   1 <1>  -0.2400 
 28 H       -0.9120     1.0060    -2.4850 H     1 <1>   0.0800 
 29 H       -2.1000     1.4780    -1.3140 H     1 <1>   0.0800 
 30 H       -2.1860    -0.1010    -2.0540 H     1 <1>   0.0800 
 31 H       -2.9490    -0.6990     2.2520 H     1 <1>   0.0800 
 32 H       -1.9060    -2.4790    -1.3680 H     1 <1>   0.1500 
 33 H       -1.3430    -2.3280     2.8350 H     1 <1>   0.1500 
 34 H       -2.1220     1.9780     1.1980 H     1 <1>   0.0800 
 35 H       -1.3700     1.1450     2.5510 H     1 <1>   0.0800 
 36 H       -3.0470     1.6210     2.6200 H     1 <1>   0.0800 
 37 H       -1.5140    -4.7590     2.9530 H     1 <1>   0.1500 
 38 H       -4.5080    -1.9370     1.0520 H     1 <1>   0.3700 
 39 H       -2.1860    -4.4710    -2.5130 H     1 <1>   0.0800 
 40 H       -3.0000    -5.7310    -1.6270 H     1 <1>   0.0800 
 41 H       -1.2640    -5.7850    -1.8410 H     1 <1>   0.0800 
 42 H       -2.8310    -6.8820     0.5770 H     1 <1>   0.0800 
 43 H       -1.7940    -6.8530     1.9770 H     1 <1>   0.0800 
 44 H       -1.0930    -6.9810     0.3870 H     1 <1>   0.0800 
 45 H       -8.0330    -3.3710    -1.6750 H     1 <1>   0.1500 
 46 H       -4.5220    -3.0360    -1.0340 H     1 <1>   0.0800 
 47 H       -5.7750    -3.9990    -1.7270 H     1 <1>   0.0800 
 48 H       -9.2020     0.3390    -0.0030 H     1 <1>   0.1500 
 49 H       -6.4960     1.7880     0.6100 H     1 <1>   0.0800 
 50 H       -6.2890     0.8070     2.0460 H     1 <1>   0.0800 
 51 H       -7.8650     1.3930     1.6140 H     1 <1>   0.0800 
 52 H       -9.7280    -1.6520    -1.3140 H     1 <1>   0.1500 
 53 H       -5.0970    -3.9190     1.2300 H     1 <1>   0.0800 
 54 H       -4.7610    -5.2290     0.1280 H     1 <1>   0.0800 
 55 H       -6.4130    -4.8310     0.5300 H     1 <1>   0.0800 
@<TRIPOS>BOND
  1   1   2  2   
  2   1   3  2   
  3   1   4  am  
  4   1   5  1   
  5   4   6  1   
  6   4   7  1   
  7   5  28  1   
  8   5  29  1   
  9   5  30  1   
 10   6   8  ar  
 11   6   9  ar  
 12   7  10  1   
 13   7  11  1   
 14   7  31  1   
 15   8  12  ar  
 16   8  32  1   
 17   9  13  ar  
 18   9  33  1   
 19  10  14  2   
 20  10  15  am  
 21  11  34  1   
 22  11  35  1   
 23  11  36  1   
 24  12  16  ar  
 25  12  17  1   
 26  13  16  ar  
 27  13  37  1   
 28  15  18  1   
 29  15  38  1   
 30  16  19  1   
 31  17  39  1   
 32  17  40  1   
 33  17  41  1   
 34  18  20  ar  
 35  18  21  ar  
 36  19  42  1   
 37  19  43  1   
 38  19  44  1   
 39  20  22  ar  
 40  20  23  1   
 41  21  24  ar  
 42  21  25  1   
 43  22  26  ar  
 44  22  45  1   
 45  23  27  1   
 46  23  46  1   
 47  23  47  1   
 48  24  26  ar  
 49  24  48  1   
 50  25  49  1   
 51  25  50  1   
 52  25  51  1   
 53  26  52  1   
 54  27  53  1   
 55  27  54  1   
 56  27  55  1   
@<TRIPOS>SUBSTRUCTURE
  1 ****  15 GROUP 4 **** **** 0

# MOE 2024.06 (io_trps.svl 2023.06)
