@<TRIPOS>MOLECULE
NONAME
29 29 1 0 0 
SMALL
USER_CHARGES


@<TRIPOS>ATOM
  1 BR      -0.6090     0.2570    -0.2160 Br    1 <1>  -0.1110 
  2 C        0.5460     1.7790     0.0460 C.ar  1 <1>   0.1110 
  3 C       -0.0090     3.0310     0.2480 C.ar  1 <1>   0.0820 
  4 C        1.9130     1.5730     0.0200 C.ar  1 <1>  -0.1500 
  5 O       -1.3570     3.1890     0.2630 O.3   1 <1>  -0.2330 
  6 C        0.8500     4.1100     0.4390 C.ar  1 <1>   0.0830 
  7 C        2.7730     2.6510     0.2070 C.ar  1 <1>   0.0730 
  8 C       -2.0100     3.8330    -0.7000 C.2   1 <1>   0.6590 
  9 O        0.3370     5.3420     0.6670 O.3   1 <1>  -0.3630 
 10 C        2.2250     3.9140     0.4200 C.ar  1 <1>  -0.1500 
 11 C        4.1960     2.4650     0.1860 C.1   1 <1>   0.4840 
 12 O       -1.4760     4.2370    -1.7020 O.2   1 <1>  -0.5700 
 13 C       -3.4970     4.0280    -0.4650 C.3   1 <1>  -0.0990 
 14 C        0.6550     6.3510    -0.2640 C.3   1 <1>   0.1200 
 15 N        5.3260     2.3180     0.1680 N.1   1 <1>  -0.5570 
 16 C       -3.7950     5.0090     0.6810 C.3   1 <1>  -0.2400 
 17 C       -0.2410     7.5530     0.0180 C.3   1 <1>  -0.2400 
 18 H        2.3000     0.5830    -0.1440 H     1 <1>   0.1500 
 19 H        2.8770     4.7530     0.5830 H     1 <1>   0.1500 
 20 H       -3.9360     3.0720    -0.2470 H     1 <1>   0.0800 
 21 H       -3.9400     4.3970    -1.3730 H     1 <1>   0.0800 
 22 H        0.4790     5.9710    -1.2570 H     1 <1>   0.0800 
 23 H        1.6920     6.6140    -0.1510 H     1 <1>   0.0800 
 24 H       -3.3720     4.6500     1.6030 H     1 <1>   0.0800 
 25 H       -4.8570     5.1180     0.8090 H     1 <1>   0.0800 
 26 H       -3.3740     5.9750     0.4630 H     1 <1>   0.0800 
 27 H       -1.2720     7.2780    -0.1100 H     1 <1>   0.0800 
 28 H       -0.0110     8.3460    -0.6700 H     1 <1>   0.0800 
 29 H       -0.0810     7.9080     1.0200 H     1 <1>   0.0800 
@<TRIPOS>BOND
  1   1   2  1   
  2   2   3  ar  
  3   2   4  ar  
  4   3   5  1   
  5   3   6  ar  
  6   4   7  ar  
  7   4  18  1   
  8   5   8  1   
  9   6   9  1   
 10   6  10  ar  
 11   7  10  ar  
 12   7  11  1   
 13   8  12  2   
 14   8  13  1   
 15   9  14  1   
 16  10  19  1   
 17  11  15  3   
 18  13  16  1   
 19  13  20  1   
 20  13  21  1   
 21  14  17  1   
 22  14  22  1   
 23  14  23  1   
 24  16  24  1   
 25  16  25  1   
 26  16  26  1   
 27  17  27  1   
 28  17  28  1   
 29  17  29  1   
@<TRIPOS>SUBSTRUCTURE
  1 ****   3 GROUP 4 **** **** 0

# MOE 2024.06 (io_trps.svl 2023.06)
