@<TRIPOS>MOLECULE
NONAME
52 53 1 0 0 
SMALL
USER_CHARGES


@<TRIPOS>ATOM
  1 O        1.0840    -2.4890    -1.8110 O.2   1 <1>  -0.5700 
  2 C        1.0460    -2.6710    -0.6190 C.2   1 <1>   0.6300 
  3 N        1.9240    -2.1290     0.2740 N.am  1 <1>  -0.5470 
  4 C       -0.0170    -3.5890    -0.0420 C.3   1 <1>  -0.1000 
  5 C        3.0090    -1.2450     0.1320 C.ar  1 <1>   0.1170 
  6 C       -0.9810    -3.1650     1.0300 C.3   1 <1>  -0.1900 
  7 C       -1.4740    -3.3640    -0.3690 C.3   1 <1>  -0.0600 
  8 C        3.9640    -1.1550     1.1470 C.ar  1 <1>  -0.1440 
  9 C        3.1420    -0.4400    -0.9930 C.ar  1 <1>  -0.1500 
 10 C       -0.9940    -1.7300     1.5770 C.3   1 <1>  -0.1450 
 11 C       -1.3310    -4.1870     2.1200 C.3   1 <1>  -0.1450 
 12 C       -2.3980    -4.5240    -0.7040 C.2   1 <1>  -0.1900 
 13 C        5.0420    -0.2730     1.0130 C.ar  1 <1>   0.1170 
 14 C        3.8050    -2.0340     2.3950 C.3   1 <1>  -0.0970 
 15 C        4.2010     0.4350    -1.1210 C.ar  1 <1>  -0.1500 
 16 C       -2.1850    -5.5310    -1.5600 C.2   1 <1>  -0.2760 
 17 N        6.0260    -0.1730     2.0070 N.am  1 <1>  -0.5470 
 18 C        5.1540     0.5270    -0.1250 C.ar  1 <1>  -0.1430 
 19 C       -3.2010    -6.6440    -1.7580 C.3   1 <1>  -0.1020 
 20 C       -0.9560    -5.7010    -2.4430 C.3   1 <1>  -0.1020 
 21 C        7.1410    -0.9270     2.1670 C.2   1 <1>   0.5690 
 22 C        6.3110     1.5050    -0.2990 C.3   1 <1>  -0.0970 
 23 O        7.9040    -0.6990     3.0680 O.2   1 <1>  -0.5700 
 24 C        7.4330    -2.0600     1.2120 C.3   1 <1>  -0.1790 
 25 H        1.7590    -2.4390     1.2270 H     1 <1>   0.3700 
 26 H        0.3180    -4.6090    -0.0400 H     1 <1>   0.1000 
 27 H       -1.7160    -2.4830    -0.9410 H     1 <1>   0.1000 
 28 H        2.4140    -0.4860    -1.7810 H     1 <1>   0.1500 
 29 H       -1.9690    -1.4960     1.9670 H     1 <1>   0.0800 
 30 H       -0.7660    -1.0160     0.8040 H     1 <1>   0.0800 
 31 H       -0.2740    -1.6210     2.3680 H     1 <1>   0.0800 
 32 H       -0.6250    -4.1280     2.9290 H     1 <1>   0.0800 
 33 H       -1.3140    -5.1900     1.7300 H     1 <1>   0.0800 
 34 H       -2.3150    -3.9930     2.5070 H     1 <1>   0.0800 
 35 H       -3.3150    -4.4490    -0.1450 H     1 <1>   0.1500 
 36 H        3.7980    -3.0710     2.1110 H     1 <1>   0.0800 
 37 H        2.8810    -1.7990     2.8920 H     1 <1>   0.0800 
 38 H        4.5950    -1.9000     3.1090 H     1 <1>   0.0800 
 39 H        4.2720     1.0420    -2.0060 H     1 <1>   0.1500 
 40 H        5.9430     0.5930     2.6730 H     1 <1>   0.3700 
 41 H       -3.5410    -6.6590    -2.7780 H     1 <1>   0.0800 
 42 H       -4.0540    -6.5030    -1.1190 H     1 <1>   0.0800 
 43 H       -2.7570    -7.5960    -1.5260 H     1 <1>   0.0800 
 44 H       -1.2550    -5.8460    -3.4660 H     1 <1>   0.0800 
 45 H       -0.3850    -6.5540    -2.1250 H     1 <1>   0.0800 
 46 H       -0.3240    -4.8330    -2.4160 H     1 <1>   0.0800 
 47 H        6.2270     2.0440    -1.2260 H     1 <1>   0.0800 
 48 H        7.2460     0.9740    -0.3010 H     1 <1>   0.0800 
 49 H        6.3170     2.2170     0.5060 H     1 <1>   0.0800 
 50 H        6.6670    -2.8070     1.2900 H     1 <1>   0.0800 
 51 H        8.3820    -2.5040     1.4520 H     1 <1>   0.0800 
 52 H        7.4660    -1.6880     0.2050 H     1 <1>   0.0800 
@<TRIPOS>BOND
  1   1   2  2   
  2   2   3  am  
  3   2   4  1   
  4   3   5  1   
  5   3  25  1   
  6   4   6  1   
  7   4   7  1   
  8   4  26  1   
  9   5   8  ar  
 10   5   9  ar  
 11   6   7  1   
 12   6  10  1   
 13   6  11  1   
 14   7  12  1   
 15   7  27  1   
 16   8  13  ar  
 17   8  14  1   
 18   9  15  ar  
 19   9  28  1   
 20  10  29  1   
 21  10  30  1   
 22  10  31  1   
 23  11  32  1   
 24  11  33  1   
 25  11  34  1   
 26  12  16  2   
 27  12  35  1   
 28  13  17  1   
 29  13  18  ar  
 30  14  36  1   
 31  14  37  1   
 32  14  38  1   
 33  15  18  ar  
 34  15  39  1   
 35  16  19  1   
 36  16  20  1   
 37  17  21  am  
 38  17  40  1   
 39  18  22  1   
 40  19  41  1   
 41  19  42  1   
 42  19  43  1   
 43  20  44  1   
 44  20  45  1   
 45  20  46  1   
 46  21  23  2   
 47  21  24  1   
 48  22  47  1   
 49  22  48  1   
 50  22  49  1   
 51  24  50  1   
 52  24  51  1   
 53  24  52  1   
@<TRIPOS>SUBSTRUCTURE
  1 ****   3 GROUP 4 **** **** 0

# MOE 2024.06 (io_trps.svl 2023.06)
