@<TRIPOS>MOLECULE
NONAME
41 43 1 0 0 
SMALL
USER_CHARGES


@<TRIPOS>ATOM
  1 O      -14.1320     0.9830    -0.7450 O.3   1 <1>  -0.6800 
  2 C      -12.9270     1.5980    -1.0230 C.3   1 <1>   0.1200 
  3 C      -12.0200     1.3970     0.1970 C.3   1 <1>   0.3430 
  4 N      -10.6780     2.0130    -0.0050 N.4   1 <1>  -0.9060 
  5 C       -9.7750     1.8270     1.1480 C.3   1 <1>   0.4860 
  6 C       -8.4680     2.4700     0.7560 C.ar  1 <1>  -0.1440 
  7 C       -7.4940     1.7270     0.1170 C.ar  1 <1>  -0.1500 
  8 C       -8.2510     3.8270     1.0240 C.ar  1 <1>  -0.1500 
  9 C       -6.3040     2.3390    -0.2700 C.ar  1 <1>   0.0000 
 10 C       -7.0750     4.4370     0.6450 C.ar  1 <1>  -0.1500 
 11 C       -6.1000     3.6870    -0.0110 C.ar  1 <1>  -0.1520 
 12 C       -5.1420     1.8550    -0.9320 C.ar  1 <1>   0.0000 
 13 N       -4.8550     4.0460    -0.4930 N.pl3 1 <1>   0.0480 
 14 C       -4.2670     2.9280    -1.0550 C.ar  1 <1>  -0.1520 
 15 C       -4.7790     0.6020    -1.4250 C.ar  1 <1>  -0.1500 
 16 C       -4.2490     5.3940    -0.4250 C.3   1 <1>   0.0960 
 17 C       -3.0230     2.7620    -1.6660 C.ar  1 <1>  -0.1500 
 18 C       -3.5510     0.4410    -2.0310 C.ar  1 <1>  -0.1500 
 19 C       -3.4340     5.5510     0.8620 C.3   1 <1>  -0.2400 
 20 C       -2.6740     1.5200    -2.1500 C.ar  1 <1>  -0.1500 
 21 H      -14.7700     1.0730    -1.4860 H     1 <1>   0.4000 
 22 H      -13.1190     2.6420    -1.2010 H     1 <1>   0.0800 
 23 H      -12.5110     1.1330    -1.9010 H     1 <1>   0.0800 
 24 H      -11.9120     0.3390     0.3730 H     1 <1>   0.0800 
 25 H      -12.4990     1.8390     1.0570 H     1 <1>   0.0800 
 26 H      -10.7500     3.0220    -0.1800 H     1 <1>   0.4500 
 27 H      -10.2050     1.6160    -0.8260 H     1 <1>   0.4500 
 28 H       -9.6240     0.7780     1.3490 H     1 <1>   0.0800 
 29 H      -10.1740     2.3010     2.0310 H     1 <1>   0.0800 
 30 H       -7.6140     0.6800    -0.0960 H     1 <1>   0.1500 
 31 H       -8.9970     4.4120     1.5350 H     1 <1>   0.1500 
 32 H       -6.9030     5.4790     0.8540 H     1 <1>   0.1500 
 33 H       -5.4560    -0.2250    -1.3270 H     1 <1>   0.1500 
 34 H       -5.0320     6.1290    -0.4610 H     1 <1>   0.0800 
 35 H       -3.6180     5.5340    -1.2830 H     1 <1>   0.0800 
 36 H       -2.3460     3.5920    -1.7560 H     1 <1>   0.1500 
 37 H       -3.2580    -0.5210    -2.4150 H     1 <1>   0.1500 
 38 H       -4.0670     5.4250     1.7230 H     1 <1>   0.0800 
 39 H       -2.9950     6.5320     0.9000 H     1 <1>   0.0800 
 40 H       -2.6440     4.8210     0.8930 H     1 <1>   0.0800 
 41 H       -1.7200     1.3730    -2.6250 H     1 <1>   0.1500 
@<TRIPOS>BOND
  1   1   2  1   
  2   1  21  1   
  3   2   3  1   
  4   2  22  1   
  5   2  23  1   
  6   3   4  1   
  7   3  24  1   
  8   3  25  1   
  9   4   5  1   
 10   4  26  1   
 11   4  27  1   
 12   5   6  1   
 13   5  28  1   
 14   5  29  1   
 15   6   7  ar  
 16   6   8  ar  
 17   7   9  ar  
 18   7  30  1   
 19   8  10  ar  
 20   8  31  1   
 21   9  11  ar  
 22   9  12  1   
 23  10  11  ar  
 24  10  32  1   
 25  11  13  1   
 26  12  14  ar  
 27  12  15  ar  
 28  13  14  1   
 29  13  16  1   
 30  14  17  ar  
 31  15  18  ar  
 32  15  33  1   
 33  16  19  1   
 34  16  34  1   
 35  16  35  1   
 36  17  20  ar  
 37  17  36  1   
 38  18  20  ar  
 39  18  37  1   
 40  19  38  1   
 41  19  39  1   
 42  19  40  1   
 43  20  41  1   
@<TRIPOS>SUBSTRUCTURE
  1 ****   9 GROUP 4 **** **** 0

# MOE 2024.06 (io_trps.svl 2023.06)
