@<TRIPOS>MOLECULE
NONAME
50 52 1 0 0 
SMALL
USER_CHARGES


@<TRIPOS>ATOM
  1 O       -0.6030    -1.6100    -1.5760 O.3   1 <1>  -0.3630 
  2 C       -1.4290    -1.5290    -0.4840 C.ar  1 <1>   0.0830 
  3 C       -0.8860    -0.8920    -2.7590 C.3   1 <1>   0.0400 
  4 C       -1.0630    -2.2220     0.6850 C.ar  1 <1>   0.1000 
  5 C       -2.6080    -0.7880    -0.5010 C.ar  1 <1>  -0.1500 
  6 N        0.1010    -2.9960     0.8050 N.pl3 1 <1>  -0.8380 
  7 C       -1.8910    -2.1450     1.7950 C.ar  1 <1>  -0.1500 
  8 C       -3.4180    -0.7270     0.6200 C.ar  1 <1>  -0.1500 
  9 C        1.3700    -2.2090     0.7570 C.3   1 <1>   0.2090 
 10 C        0.1140    -4.2210    -0.0470 C.3   1 <1>   0.2090 
 11 C       -3.0590    -1.4060     1.7690 C.ar  1 <1>  -0.1500 
 12 C        2.5890    -3.1020     1.0580 C.3   1 <1>   0.3430 
 13 C        1.3420    -5.1000     0.2620 C.3   1 <1>   0.3430 
 14 N        2.6330    -4.3290     0.1770 N.4   1 <1>  -0.9590 
 15 C        3.8200    -5.1740     0.4620 C.3   1 <1>   0.4860 
 16 C        5.0630    -4.3620     0.1540 C.ar  1 <1>  -0.1430 
 17 C        5.4870    -4.1330    -1.1530 C.ar  1 <1>  -0.1430 
 18 C        5.7800    -3.8260     1.2160 C.ar  1 <1>  -0.1500 
 19 C        6.6110    -3.3500    -1.3670 C.ar  1 <1>  -0.1500 
 20 C        4.7740    -4.7130    -2.3680 C.3   1 <1>  -0.0970 
 21 C        6.9000    -3.0470     0.9940 C.ar  1 <1>  -0.1430 
 22 C        7.3110    -2.8100    -0.3050 C.ar  1 <1>  -0.1500 
 23 C        7.6830    -2.4630     2.1570 C.3   1 <1>  -0.0970 
 24 H       -0.0990    -1.0840    -3.4650 H     1 <1>   0.0800 
 25 H       -0.9220     0.1590    -2.5310 H     1 <1>   0.0800 
 26 H       -1.8250    -1.2320    -3.1590 H     1 <1>   0.0800 
 27 H       -2.9230    -0.2480    -1.3730 H     1 <1>   0.1500 
 28 H       -1.6120    -2.6720     2.6890 H     1 <1>   0.1500 
 29 H       -4.3270    -0.1520     0.5980 H     1 <1>   0.1500 
 30 H        1.3190    -1.4170     1.4850 H     1 <1>   0.0800 
 31 H        1.4870    -1.7560    -0.2110 H     1 <1>   0.0800 
 32 H        0.1200    -3.9460    -1.0870 H     1 <1>   0.0800 
 33 H       -0.7850    -4.7850     0.1380 H     1 <1>   0.0800 
 34 H       -3.6880    -1.3590     2.6420 H     1 <1>   0.1500 
 35 H        2.5390    -3.4000     2.0920 H     1 <1>   0.0800 
 36 H        3.4860    -2.5200     0.9230 H     1 <1>   0.0800 
 37 H        1.3610    -5.9280    -0.4270 H     1 <1>   0.0800 
 38 H        1.2240    -5.4970     1.2570 H     1 <1>   0.0800 
 39 H        2.7470    -3.9810    -0.7820 H     1 <1>   0.4500 
 40 H        3.8080    -6.0580    -0.1530 H     1 <1>   0.0800 
 41 H        3.8240    -5.4760     1.4970 H     1 <1>   0.0800 
 42 H        5.4730    -4.0120     2.2320 H     1 <1>   0.1500 
 43 H        6.9580    -3.1550    -2.3670 H     1 <1>   0.1500 
 44 H        3.8880    -4.1480    -2.5910 H     1 <1>   0.0800 
 45 H        4.5160    -5.7440    -2.2090 H     1 <1>   0.0800 
 46 H        5.4160    -4.6750    -3.2320 H     1 <1>   0.0800 
 47 H        8.1820    -2.2070    -0.4960 H     1 <1>   0.1500 
 48 H        7.0470    -2.3150     3.0110 H     1 <1>   0.0800 
 49 H        8.1070    -1.5130     1.8850 H     1 <1>   0.0800 
 50 H        8.4800    -3.1300     2.4300 H     1 <1>   0.0800 
@<TRIPOS>BOND
  1   1   2  1   
  2   1   3  1   
  3   2   4  ar  
  4   2   5  ar  
  5   3  24  1   
  6   3  25  1   
  7   3  26  1   
  8   4   6  1   
  9   4   7  ar  
 10   5   8  ar  
 11   5  27  1   
 12   6   9  1   
 13   6  10  1   
 14   7  11  ar  
 15   7  28  1   
 16   8  11  ar  
 17   8  29  1   
 18   9  12  1   
 19   9  30  1   
 20   9  31  1   
 21  10  13  1   
 22  10  32  1   
 23  10  33  1   
 24  11  34  1   
 25  12  14  1   
 26  12  35  1   
 27  12  36  1   
 28  13  14  1   
 29  13  37  1   
 30  13  38  1   
 31  14  15  1   
 32  14  39  1   
 33  15  16  1   
 34  15  40  1   
 35  15  41  1   
 36  16  17  ar  
 37  16  18  ar  
 38  17  19  ar  
 39  17  20  1   
 40  18  21  ar  
 41  18  42  1   
 42  19  22  ar  
 43  19  43  1   
 44  20  44  1   
 45  20  45  1   
 46  20  46  1   
 47  21  22  ar  
 48  21  23  1   
 49  22  47  1   
 50  23  48  1   
 51  23  49  1   
 52  23  50  1   
@<TRIPOS>SUBSTRUCTURE
  1 ****  12 GROUP 4 **** **** 0

# MOE 2024.06 (io_trps.svl 2023.06)
