@<TRIPOS>MOLECULE
NONAME
47 48 1 0 0 
SMALL
USER_CHARGES


@<TRIPOS>ATOM
  1 O       -0.6040    -0.0140    -1.7950 O.3   1 <1>  -0.3630 
  2 C       -1.4410    -0.2720    -0.7650 C.ar  1 <1>   0.0830 
  3 C        0.5690    -0.7940    -1.8800 C.3   1 <1>   0.1200 
  4 C       -2.3400    -1.3340    -0.8110 C.ar  1 <1>  -0.1440 
  5 C       -1.3960     0.5600     0.3420 C.ar  1 <1>  -0.1500 
  6 C        1.6630    -0.1690    -1.0110 C.3   1 <1>  -0.1600 
  7 C       -3.1620    -1.5630     0.2820 C.ar  1 <1>  -0.1500 
  8 C       -2.4520    -2.2370    -2.0310 C.3   1 <1>  -0.0970 
  9 C       -2.2240     0.3220     1.4240 C.ar  1 <1>  -0.1500 
 10 C        2.9850    -0.9360    -1.1450 C.3   1 <1>  -0.1600 
 11 C       -3.1090    -0.7440     1.3990 C.ar  1 <1>  -0.1430 
 12 C        4.0710    -0.3120    -0.2610 C.3   1 <1>  -0.1600 
 13 C       -4.0180    -1.0140     2.5840 C.3   1 <1>  -0.0970 
 14 C        5.4010    -1.0650    -0.3790 C.3   1 <1>   0.0210 
 15 C        6.4510    -0.4170     0.5060 C.2   1 <1>  -0.1810 
 16 C        7.3170     0.6170     0.1490 C.2   1 <1>   0.1080 
 17 C        6.7590    -0.6940     1.7920 C.2   1 <1>  -0.3320 
 18 N        8.1020     0.9580     1.1210 N.2   1 <1>  -0.7070 
 19 C        7.3780     1.2940    -1.2010 C.3   1 <1>  -0.0590 
 20 N        7.7570     0.1470     2.1350 N.pl3 1 <1>   0.3000 
 21 C        6.1670    -1.7130     2.7500 C.3   1 <1>  -0.0600 
 22 H        0.8700    -0.8060    -2.9130 H     1 <1>   0.0800 
 23 H        0.3480    -1.7980    -1.5630 H     1 <1>   0.0800 
 24 H       -0.7110     1.3870     0.3510 H     1 <1>   0.1500 
 25 H        1.3500    -0.1870     0.0180 H     1 <1>   0.0800 
 26 H        1.8080     0.8540    -1.3120 H     1 <1>   0.0800 
 27 H       -3.8540    -2.3860     0.2630 H     1 <1>   0.1500 
 28 H       -2.3000    -1.6690    -2.9310 H     1 <1>   0.0800 
 29 H       -3.4270    -2.6870    -2.0810 H     1 <1>   0.0800 
 30 H       -1.7140    -3.0160    -1.9790 H     1 <1>   0.0800 
 31 H       -2.1770     0.9690     2.2810 H     1 <1>   0.1500 
 32 H        3.3050    -0.9200    -2.1730 H     1 <1>   0.0800 
 33 H        2.8340    -1.9620    -0.8560 H     1 <1>   0.0800 
 34 H        3.7550    -0.3270     0.7680 H     1 <1>   0.0800 
 35 H        4.2220     0.7160    -0.5430 H     1 <1>   0.0800 
 36 H       -3.5750    -1.7610     3.2190 H     1 <1>   0.0800 
 37 H       -4.9750    -1.3680     2.2470 H     1 <1>   0.0800 
 38 H       -4.1700    -0.1170     3.1570 H     1 <1>   0.0800 
 39 H        5.7390    -1.0620    -1.3990 H     1 <1>   0.0800 
 40 H        5.2670    -2.0890    -0.0820 H     1 <1>   0.0800 
 41 H        7.8030     0.6220    -1.9230 H     1 <1>   0.0800 
 42 H        7.9940     2.1730    -1.1390 H     1 <1>   0.0800 
 43 H        6.3930     1.5820    -1.5140 H     1 <1>   0.0800 
 44 H        8.2210     0.1940     3.0500 H     1 <1>   0.2700 
 45 H        5.3540    -2.2420     2.2870 H     1 <1>   0.0800 
 46 H        5.7920    -1.2200     3.6290 H     1 <1>   0.0800 
 47 H        6.9180    -2.4260     3.0420 H     1 <1>   0.0800 
@<TRIPOS>BOND
  1   1   2  1   
  2   1   3  1   
  3   2   4  ar  
  4   2   5  ar  
  5   3   6  1   
  6   3  22  1   
  7   3  23  1   
  8   4   7  ar  
  9   4   8  1   
 10   5   9  ar  
 11   5  24  1   
 12   6  10  1   
 13   6  25  1   
 14   6  26  1   
 15   7  11  ar  
 16   7  27  1   
 17   8  28  1   
 18   8  29  1   
 19   8  30  1   
 20   9  11  ar  
 21   9  31  1   
 22  10  12  1   
 23  10  32  1   
 24  10  33  1   
 25  11  13  1   
 26  12  14  1   
 27  12  34  1   
 28  12  35  1   
 29  13  36  1   
 30  13  37  1   
 31  13  38  1   
 32  14  15  1   
 33  14  39  1   
 34  14  40  1   
 35  15  16  1   
 36  15  17  2   
 37  16  18  2   
 38  16  19  1   
 39  17  20  1   
 40  17  21  1   
 41  18  20  1   
 42  19  41  1   
 43  19  42  1   
 44  19  43  1   
 45  20  44  1   
 46  21  45  1   
 47  21  46  1   
 48  21  47  1   
@<TRIPOS>SUBSTRUCTURE
  1 ****   6 GROUP 4 **** **** 0

# MOE 2024.06 (io_trps.svl 2023.06)
