@<TRIPOS>MOLECULE
NONAME
42 43 1 0 0 
SMALL
USER_CHARGES


@<TRIPOS>ATOM
  1 O        2.0600    -0.6730     1.4580 O.2   1 <1>  -0.5700 
  2 C        2.9820    -0.4460     0.7140 C.2   1 <1>   0.5690 
  3 N        2.9140     0.5310    -0.2430 N.am  1 <1>  -0.6600 
  4 C        4.2200    -1.2980     0.8790 C.3   1 <1>  -0.1790 
  5 C        3.9820     0.7720    -1.2650 C.3   1 <1>   0.3200 
  6 C        1.6980     1.3770    -0.3750 C.3   1 <1>   0.2780 
  7 C        5.2630     1.3490    -0.6740 C.2   1 <1>   0.2980 
  8 C        2.0890     2.8400    -0.3080 C.2   1 <1>  -0.2880 
  9 O        5.2210     2.5200    -0.0950 O.3   1 <1>  -0.0190 
 10 N        6.4050     0.7920    -0.6930 N.2   1 <1>  -0.5650 
 11 C        1.9280     3.7380    -1.2860 C.2   1 <1>  -0.3000 
 12 N        6.4410     2.7240     0.2940 N.2   1 <1>  -0.4100 
 13 C        7.1450     1.7050    -0.0530 C.2   1 <1>   0.4620 
 14 C        8.5650     1.5290     0.2010 C.ar  1 <1>   0.0540 
 15 C        9.2450     0.3760    -0.1930 C.ar  1 <1>  -0.1500 
 16 C        9.3070     2.5140     0.8550 C.ar  1 <1>  -0.1500 
 17 C       10.6030     0.2030     0.0510 C.ar  1 <1>   0.0820 
 18 C       10.6570     2.3610     1.1070 C.ar  1 <1>  -0.1500 
 19 O       11.2790    -0.9200    -0.3290 O.3   1 <1>  -0.3630 
 20 C       11.3200     1.2060     0.7090 C.ar  1 <1>   0.0820 
 21 C       10.6510    -1.9690    -1.0300 C.3   1 <1>   0.0400 
 22 O       12.6500     1.0080     0.9340 O.3   1 <1>  -0.3630 
 23 C       13.4470     1.9690     1.5870 C.3   1 <1>   0.0400 
 24 H        4.5250    -1.7170    -0.0600 H     1 <1>   0.0800 
 25 H        4.0120    -2.1050     1.5580 H     1 <1>   0.0800 
 26 H        5.0150    -0.7070     1.2920 H     1 <1>   0.0800 
 27 H        3.6220     1.4480    -2.0200 H     1 <1>   0.0800 
 28 H        4.2150    -0.1560    -1.7540 H     1 <1>   0.0800 
 29 H        0.9930     1.1660     0.4120 H     1 <1>   0.0800 
 30 H        1.2170     1.1610    -1.3140 H     1 <1>   0.0800 
 31 H        2.5280     3.0920     0.6430 H     1 <1>   0.1500 
 32 H        1.4910     3.5250    -2.2470 H     1 <1>   0.1500 
 33 H        2.2210     4.7710    -1.2000 H     1 <1>   0.1500 
 34 H        8.6860    -0.3880    -0.6960 H     1 <1>   0.1500 
 35 H        8.8160     3.4180     1.1740 H     1 <1>   0.1500 
 36 H       11.1740     3.1530     1.6140 H     1 <1>   0.1500 
 37 H       11.3900    -2.7250    -1.2280 H     1 <1>   0.0800 
 38 H       10.2630    -1.5860    -1.9580 H     1 <1>   0.0800 
 39 H        9.8660    -2.3770    -0.4190 H     1 <1>   0.0800 
 40 H       14.4500     1.5850     1.6430 H     1 <1>   0.0800 
 41 H       13.0610     2.1270     2.5780 H     1 <1>   0.0800 
 42 H       13.4360     2.8790     1.0150 H     1 <1>   0.0800 
@<TRIPOS>BOND
  1   1   2  2   
  2   2   3  am  
  3   2   4  1   
  4   3   5  1   
  5   3   6  1   
  6   4  24  1   
  7   4  25  1   
  8   4  26  1   
  9   5   7  1   
 10   5  27  1   
 11   5  28  1   
 12   6   8  1   
 13   6  29  1   
 14   6  30  1   
 15   7   9  1   
 16   7  10  2   
 17   8  11  2   
 18   8  31  1   
 19   9  12  1   
 20  10  13  1   
 21  11  32  1   
 22  11  33  1   
 23  12  13  2   
 24  13  14  1   
 25  14  15  ar  
 26  14  16  ar  
 27  15  17  ar  
 28  15  34  1   
 29  16  18  ar  
 30  16  35  1   
 31  17  19  1   
 32  17  20  ar  
 33  18  20  ar  
 34  18  36  1   
 35  19  21  1   
 36  20  22  1   
 37  21  37  1   
 38  21  38  1   
 39  21  39  1   
 40  22  23  1   
 41  23  40  1   
 42  23  41  1   
 43  23  42  1   
@<TRIPOS>SUBSTRUCTURE
  1 ****  13 GROUP 4 **** **** 0

# MOE 2024.06 (io_trps.svl 2023.06)
