@<TRIPOS>MOLECULE
NONAME
29 29 1 0 0 
SMALL
USER_CHARGES


@<TRIPOS>ATOM
  1 O        1.0120    -0.8200    -1.1020 O.3   1 <1>  -0.6800 
  2 C        1.5000    -1.0920     0.1710 C.3   1 <1>   0.4800 
  3 C        1.9730     0.1850     0.8130 C.1   1 <1>   0.3570 
  4 C        0.3730    -1.7710     0.9810 C.3   1 <1>  -0.0800 
  5 C        2.6710    -2.0600    -0.0100 C.3   1 <1>  -0.1600 
  6 N        2.3160     1.1500     1.3080 N.1   1 <1>  -0.5570 
  7 C       -0.0260    -3.0820     0.2960 C.3   1 <1>   0.3430 
  8 C       -0.8800    -0.8880     1.1810 C.3   1 <1>  -0.2400 
  9 C        2.2270    -3.3560    -0.6870 C.3   1 <1>   0.4230 
 10 N        1.1440    -3.9970     0.1160 N.4   1 <1>  -0.9590 
 11 C        3.4220    -4.3020    -0.8140 C.3   1 <1>  -0.2400 
 12 C        0.6560    -5.2730    -0.5030 C.3   1 <1>   0.2630 
 13 H        0.6620     0.0970    -1.1320 H     1 <1>   0.4000 
 14 H        0.7520    -2.0060     1.9610 H     1 <1>   0.0800 
 15 H        3.1140    -2.2790     0.9460 H     1 <1>   0.0800 
 16 H        3.4270    -1.5830    -0.6090 H     1 <1>   0.0800 
 17 H       -0.4530    -2.8540    -0.6680 H     1 <1>   0.0800 
 18 H       -0.7840    -3.5720     0.8880 H     1 <1>   0.0800 
 19 H       -1.3260    -0.6200     0.2380 H     1 <1>   0.0800 
 20 H       -0.6360     0.0170     1.7100 H     1 <1>   0.0800 
 21 H       -1.6190    -1.4120     1.7640 H     1 <1>   0.0800 
 22 H        1.8530    -3.1190    -1.6730 H     1 <1>   0.0800 
 23 H        1.5350    -4.2230     1.0420 H     1 <1>   0.4500 
 24 H        3.7680    -4.6280     0.1500 H     1 <1>   0.0800 
 25 H        4.2350    -3.7920    -1.3030 H     1 <1>   0.0800 
 26 H        3.1850    -5.1560    -1.4220 H     1 <1>   0.0800 
 27 H        0.2980    -5.0910    -1.5030 H     1 <1>   0.0800 
 28 H       -0.1490    -5.6890     0.0810 H     1 <1>   0.0800 
 29 H        1.4500    -6.0010    -0.5480 H     1 <1>   0.0800 
@<TRIPOS>BOND
  1   1   2  1   
  2   1  13  1   
  3   2   3  1   
  4   2   4  1   
  5   2   5  1   
  6   3   6  3   
  7   4   7  1   
  8   4   8  1   
  9   4  14  1   
 10   5   9  1   
 11   5  15  1   
 12   5  16  1   
 13   7  10  1   
 14   7  17  1   
 15   7  18  1   
 16   8  19  1   
 17   8  20  1   
 18   8  21  1   
 19   9  10  1   
 20   9  11  1   
 21   9  22  1   
 22  10  12  1   
 23  10  23  1   
 24  11  24  1   
 25  11  25  1   
 26  11  26  1   
 27  12  27  1   
 28  12  28  1   
 29  12  29  1   
@<TRIPOS>SUBSTRUCTURE
  1 ****   2 GROUP 4 **** **** 0

# MOE 2024.06 (io_trps.svl 2023.06)
