@<TRIPOS>MOLECULE
NONAME
58 62 1 0 0 
SMALL
USER_CHARGES


@<TRIPOS>ATOM
  1 N       -1.3440     3.9610    -0.1930 N.4   1 <1>  -0.9590 
  2 C       -0.2380     4.9270    -0.5640 C.3   1 <1>   0.4230 
  3 C       -1.4980     2.8700    -1.2070 C.3   1 <1>   0.3430 
  4 C       -2.6370     4.6660     0.0750 C.3   1 <1>   0.3430 
  5 C        1.1160     4.1870    -0.7600 C.3   1 <1>  -0.0800 
  6 C       -0.0400     6.0090     0.5350 C.3   1 <1>  -0.0800 
  7 C       -2.5610     1.8650    -0.7620 C.3   1 <1>  -0.1600 
  8 C       -3.7110     3.6760     0.5300 C.3   1 <1>  -0.1600 
  9 C        2.1930     5.1970    -1.2050 C.3   1 <1>  -0.1600 
 10 C        1.5740     3.5300     0.5640 C.3   1 <1>  -0.1600 
 11 C        1.0440     7.0080     0.0820 C.3   1 <1>  -0.1600 
 12 C        0.4140     5.3600     1.8640 C.3   1 <1>  -0.1600 
 13 C       -3.8950     2.5660    -0.5100 C.3   1 <1>   0.4230 
 14 C        2.3810     6.2800    -0.1310 C.3   1 <1>  -0.0800 
 15 C        1.7420     4.6080     1.6520 C.3   1 <1>  -0.0800 
 16 N       -4.9420     1.5740    -0.1170 N.4   1 <1>  -0.9590 
 17 C        2.8120     5.6150     1.1900 C.3   1 <1>  -0.1600 
 18 C       -6.3220     2.1450    -0.2360 C.3   1 <1>   0.3430 
 19 C       -4.7530     0.9210     1.2210 C.3   1 <1>   0.3430 
 20 C       -7.3580     1.0270    -0.1030 C.3   1 <1>  -0.1600 
 21 C       -5.7540    -0.2230     1.3840 C.3   1 <1>  -0.1600 
 22 C       -7.1990     0.2580     1.2140 C.3   1 <1>  -0.1600 
 23 H       -1.0040     3.5490     0.6870 H     1 <1>   0.4500 
 24 H       -0.4920     5.4220    -1.4880 H     1 <1>   0.0800 
 25 H       -0.5660     2.3440    -1.3330 H     1 <1>   0.0800 
 26 H       -1.7710     3.2960    -2.1600 H     1 <1>   0.0800 
 27 H       -2.9630     5.1770    -0.8180 H     1 <1>   0.0800 
 28 H       -2.5060     5.4030     0.8500 H     1 <1>   0.0800 
 29 H        1.0520     3.4490    -1.5370 H     1 <1>   0.0800 
 30 H       -0.9360     6.5810     0.6890 H     1 <1>   0.0800 
 31 H       -2.2070     1.3630     0.1200 H     1 <1>   0.0800 
 32 H       -2.6780     1.1330    -1.5420 H     1 <1>   0.0800 
 33 H       -4.6300     4.2190     0.6570 H     1 <1>   0.0800 
 34 H       -3.4200     3.2770     1.4840 H     1 <1>   0.0800 
 35 H        3.1280     4.6880    -1.3660 H     1 <1>   0.0800 
 36 H        1.9130     5.6550    -2.1380 H     1 <1>   0.0800 
 37 H        2.5190     3.0340     0.4100 H     1 <1>   0.0800 
 38 H        0.8780     2.7810     0.8920 H     1 <1>   0.0800 
 39 H        1.1690     7.7750     0.8280 H     1 <1>   0.0800 
 40 H        0.7460     7.4950    -0.8310 H     1 <1>   0.0800 
 41 H        0.5580     6.1270     2.6070 H     1 <1>   0.0800 
 42 H       -0.3320     4.6890     2.2480 H     1 <1>   0.0800 
 43 H       -4.2020     3.0250    -1.4370 H     1 <1>   0.0800 
 44 H        3.1350     6.9830    -0.4460 H     1 <1>   0.0800 
 45 H        2.0580     4.1520     2.5770 H     1 <1>   0.0800 
 46 H       -4.9170     0.8050    -0.8010 H     1 <1>   0.4500 
 47 H        2.9580     6.3680     1.9460 H     1 <1>   0.0800 
 48 H        3.7550     5.1120     1.0540 H     1 <1>   0.0800 
 49 H       -6.4460     2.6280    -1.1930 H     1 <1>   0.0800 
 50 H       -6.4870     2.8760     0.5390 H     1 <1>   0.0800 
 51 H       -4.9070     1.6420     2.0080 H     1 <1>   0.0800 
 52 H       -3.7540     0.5260     1.3110 H     1 <1>   0.0800 
 53 H       -7.2710     0.3520    -0.9370 H     1 <1>   0.0800 
 54 H       -8.3450     1.4560    -0.1450 H     1 <1>   0.0800 
 55 H       -5.6400    -0.6550     2.3650 H     1 <1>   0.0800 
 56 H       -5.5370    -0.9980     0.6690 H     1 <1>   0.0800 
 57 H       -7.8710    -0.5850     1.2280 H     1 <1>   0.0800 
 58 H       -7.4660     0.8990     2.0390 H     1 <1>   0.0800 
@<TRIPOS>BOND
  1   1   2  1   
  2   1   3  1   
  3   1   4  1   
  4   1  23  1   
  5   2   5  1   
  6   2   6  1   
  7   2  24  1   
  8   3   7  1   
  9   3  25  1   
 10   3  26  1   
 11   4   8  1   
 12   4  27  1   
 13   4  28  1   
 14   5   9  1   
 15   5  10  1   
 16   5  29  1   
 17   6  11  1   
 18   6  12  1   
 19   6  30  1   
 20   7  13  1   
 21   7  31  1   
 22   7  32  1   
 23   8  13  1   
 24   8  33  1   
 25   8  34  1   
 26   9  14  1   
 27   9  35  1   
 28   9  36  1   
 29  10  15  1   
 30  10  37  1   
 31  10  38  1   
 32  11  14  1   
 33  11  39  1   
 34  11  40  1   
 35  12  15  1   
 36  12  41  1   
 37  12  42  1   
 38  13  16  1   
 39  13  43  1   
 40  14  17  1   
 41  14  44  1   
 42  15  17  1   
 43  15  45  1   
 44  16  18  1   
 45  16  19  1   
 46  16  46  1   
 47  17  47  1   
 48  17  48  1   
 49  18  20  1   
 50  18  49  1   
 51  18  50  1   
 52  19  21  1   
 53  19  51  1   
 54  19  52  1   
 55  20  22  1   
 56  20  53  1   
 57  20  54  1   
 58  21  22  1   
 59  21  55  1   
 60  21  56  1   
 61  22  57  1   
 62  22  58  1   
@<TRIPOS>SUBSTRUCTURE
  1 ****   1 GROUP 4 **** **** 0

# MOE 2024.06 (io_trps.svl 2023.06)
