@<TRIPOS>MOLECULE
NONAME
51 53 1 0 0 
SMALL
USER_CHARGES


@<TRIPOS>ATOM
  1 N        0.3110     0.6880    -0.3330 N.4   1 <1>  -0.9590 
  2 C        0.1140    -0.7550    -0.0040 C.3   1 <1>   0.3430 
  3 C        1.3540     1.3500     0.5060 C.3   1 <1>   0.3430 
  4 C       -0.9900     1.4260    -0.2120 C.3   1 <1>   0.2630 
  5 C        1.4360    -1.5130    -0.1440 C.3   1 <1>  -0.1600 
  6 C        2.6860     0.6100     0.3680 C.3   1 <1>  -0.1600 
  7 C        2.5210    -0.8690     0.7290 C.3   1 <1>   0.4230 
  8 N        3.8320    -1.5770     0.6400 N.4   1 <1>  -0.9590 
  9 C        4.3980    -1.7480    -0.7300 C.3   1 <1>   0.4810 
 10 C        3.8220    -2.9010     1.3510 C.3   1 <1>   0.2630 
 11 C        5.8600    -2.0950    -0.5820 C.2   1 <1>  -0.2540 
 12 C        6.3620    -3.3990    -0.8530 C.2   1 <1>  -0.2880 
 13 C        6.8190    -0.7570    -0.0780 C.3   1 <1>   0.1160 
 14 C        8.0540    -3.5180    -0.6290 C.3   1 <1>  -0.0220 
 15 C        8.4860    -0.4590     0.2200 C.3   1 <1>   0.0000 
 16 C        7.6810    -1.7170    -0.2010 C.3   1 <1>   0.0000 
 17 C        8.9110    -2.0810    -0.1570 C.3   1 <1>   0.0000 
 18 C        8.8330    -0.0650     1.6800 C.3   1 <1>  -0.2400 
 19 C        9.0940     0.6040    -0.7310 C.3   1 <1>  -0.2400 
 20 H        0.5960     0.7610    -1.3230 H     1 <1>   0.4500 
 21 H       -0.6210    -1.1860    -0.6660 H     1 <1>   0.0800 
 22 H       -0.2540    -0.8500     1.0060 H     1 <1>   0.0800 
 23 H        1.0430     1.3500     1.5400 H     1 <1>   0.0800 
 24 H        1.4780     2.3770     0.1970 H     1 <1>   0.0800 
 25 H       -1.3530     1.3930     0.8030 H     1 <1>   0.0800 
 26 H       -1.7350     0.9840    -0.8560 H     1 <1>   0.0800 
 27 H       -0.8660     2.4580    -0.4980 H     1 <1>   0.0800 
 28 H        1.7180    -1.5160    -1.1820 H     1 <1>   0.0800 
 29 H        1.2710    -2.5300     0.1640 H     1 <1>   0.0800 
 30 H        3.3950     1.0680     1.0350 H     1 <1>   0.0800 
 31 H        3.0430     0.7320    -0.6380 H     1 <1>   0.0800 
 32 H        2.1890    -0.9150     1.7560 H     1 <1>   0.0800 
 33 H        4.5370    -1.0090     1.1300 H     1 <1>   0.4500 
 34 H        4.3060    -0.8430    -1.3070 H     1 <1>   0.0800 
 35 H        3.8860    -2.5430    -1.2480 H     1 <1>   0.0800 
 36 H        3.1660    -3.5960     0.8530 H     1 <1>   0.0800 
 37 H        3.4930    -2.7800     2.3710 H     1 <1>   0.0800 
 38 H        4.8150    -3.3240     1.3660 H     1 <1>   0.0800 
 39 H        5.8420    -4.2860    -1.1760 H     1 <1>   0.1500 
 40 H        6.3940    -0.5120     0.8840 H     1 <1>   0.0000 
 41 H        8.4880    -3.8780    -1.5480 H     1 <1>   0.0800 
 42 H        8.2470    -4.2810     0.1070 H     1 <1>   0.0800 
 43 H        7.7000    -1.5880    -1.3640 H     1 <1>   0.0000 
 44 H        7.4190    -2.1830     0.8320 H     1 <1>   0.0000 
 45 H        9.5810    -1.9310    -0.9900 H     1 <1>   0.0000 
 46 H        8.4430    -0.7790     2.3820 H     1 <1>   0.0800 
 47 H        8.4270     0.9030     1.9150 H     1 <1>   0.0800 
 48 H        9.9010    -0.0260     1.8050 H     1 <1>   0.0800 
 49 H        8.8790     0.3760    -1.7600 H     1 <1>   0.0800 
 50 H       10.1620     0.6400    -0.6110 H     1 <1>   0.0800 
 51 H        8.6920     1.5770    -0.5100 H     1 <1>   0.0800 
@<TRIPOS>BOND
  1   1   2  1   
  2   1   3  1   
  3   1   4  1   
  4   1  20  1   
  5   2   5  1   
  6   2  21  1   
  7   2  22  1   
  8   3   6  1   
  9   3  23  1   
 10   3  24  1   
 11   4  25  1   
 12   4  26  1   
 13   4  27  1   
 14   5   7  1   
 15   5  28  1   
 16   5  29  1   
 17   6   7  1   
 18   6  30  1   
 19   6  31  1   
 20   7   8  1   
 21   7  32  1   
 22   8   9  1   
 23   8  10  1   
 24   8  33  1   
 25   9  11  1   
 26   9  34  1   
 27   9  35  1   
 28  10  36  1   
 29  10  37  1   
 30  10  38  1   
 31  11  12  2   
 32  11  13  1   
 33  12  14  1   
 34  12  39  1   
 35  13  15  1   
 36  13  16  1   
 37  13  40  1   
 38  14  17  1   
 39  14  41  1   
 40  14  42  1   
 41  15  17  1   
 42  15  18  1   
 43  15  19  1   
 44  16  17  1   
 45  16  43  1   
 46  16  44  1   
 47  17  45  1   
 48  18  46  1   
 49  18  47  1   
 50  18  48  1   
 51  19  49  1   
 52  19  50  1   
 53  19  51  1   
@<TRIPOS>SUBSTRUCTURE
  1 ****   9 GROUP 4 **** **** 0

# MOE 2024.06 (io_trps.svl 2023.06)
