@<TRIPOS>MOLECULE
NONAME
36 37 1 0 0 
SMALL
USER_CHARGES


@<TRIPOS>ATOM
  1 S        0.5980    -1.5920    -3.5020 S.2   1 <1>  -0.3800 
  2 C        0.4130    -2.4030    -2.1120 C.2   1 <1>   0.5810 
  3 S        1.7100    -3.4770    -1.6190 S.3   1 <1>  -0.3710 
  4 N       -0.6050    -2.3700    -1.2430 N.am  1 <1>  -0.3510 
  5 C        0.9590    -3.8930     0.0020 C.3   1 <1>   0.2300 
  6 N       -1.8310    -1.5620    -1.3720 N.3   1 <1>  -0.7290 
  7 C       -0.4980    -3.3260    -0.0890 C.3   1 <1>   0.5200 
  8 C        1.1200    -5.4100     0.2000 C.3   1 <1>  -0.2400 
  9 C        1.7900    -3.1340     1.0470 C.3   1 <1>  -0.2400 
 10 N       -1.5550    -4.3670    -0.2630 N.am  1 <1>  -0.3250 
 11 O       -1.5960    -4.9880    -1.5390 O.3   1 <1>  -0.4360 
 12 C       -2.4890    -4.5910     0.7210 C.2   1 <1>   0.6900 
 13 O       -2.5070    -3.8750     1.7070 O.2   1 <1>  -0.5700 
 14 N       -3.4580    -5.5520     0.6610 N.am  1 <1>  -0.5470 
 15 C       -3.5270    -6.7820    -0.0020 C.ar  1 <1>   0.1170 
 16 C       -4.7590    -7.2470    -0.4430 C.ar  1 <1>  -0.1500 
 17 C       -2.4030    -7.5750    -0.2080 C.ar  1 <1>  -0.1500 
 18 C       -4.8680    -8.4700    -1.0810 C.ar  1 <1>  -0.1500 
 19 C       -2.5070    -8.7970    -0.8470 C.ar  1 <1>  -0.1500 
 20 C       -3.7410    -9.2460    -1.2850 C.ar  1 <1>  -0.1500 
 21 H       -1.7640    -0.7440    -0.7500 H     1 <1>   0.3600 
 22 H       -2.6380    -2.1160    -1.0540 H     1 <1>   0.3600 
 23 H       -0.6950    -2.7760     0.8140 H     1 <1>   0.0800 
 24 H        0.6450    -5.7200     1.1140 H     1 <1>   0.0800 
 25 H        2.1620    -5.6720     0.2490 H     1 <1>   0.0800 
 26 H        0.6810    -5.9490    -0.6190 H     1 <1>   0.0800 
 27 H        1.7500    -2.0740     0.8660 H     1 <1>   0.0800 
 28 H        2.8190    -3.4460     1.0070 H     1 <1>   0.0800 
 29 H        1.4130    -3.3280     2.0350 H     1 <1>   0.0800 
 30 H       -2.1030    -4.4470    -2.1810 H     1 <1>   0.4000 
 31 H       -4.1630    -5.4090     1.3820 H     1 <1>   0.3700 
 32 H       -5.6380    -6.6490    -0.2890 H     1 <1>   0.1500 
 33 H       -1.4430    -7.2340     0.1320 H     1 <1>   0.1500 
 34 H       -5.8280    -8.8180    -1.4210 H     1 <1>   0.1500 
 35 H       -1.6290    -9.3990    -1.0040 H     1 <1>   0.1500 
 36 H       -3.8230   -10.1970    -1.7830 H     1 <1>   0.1500 
@<TRIPOS>BOND
  1   1   2  2   
  2   2   3  1   
  3   2   4  am  
  4   3   5  1   
  5   4   6  1   
  6   4   7  1   
  7   5   7  1   
  8   5   8  1   
  9   5   9  1   
 10   6  21  1   
 11   6  22  1   
 12   7  10  1   
 13   7  23  1   
 14   8  24  1   
 15   8  25  1   
 16   8  26  1   
 17   9  27  1   
 18   9  28  1   
 19   9  29  1   
 20  10  11  1   
 21  10  12  am  
 22  11  30  1   
 23  12  13  2   
 24  12  14  am  
 25  14  15  1   
 26  14  31  1   
 27  15  16  ar  
 28  15  17  ar  
 29  16  18  ar  
 30  16  32  1   
 31  17  19  ar  
 32  17  33  1   
 33  18  20  ar  
 34  18  34  1   
 35  19  20  ar  
 36  19  35  1   
 37  20  36  1   
@<TRIPOS>SUBSTRUCTURE
  1 ****  10 GROUP 4 **** **** 0

# MOE 2024.06 (io_trps.svl 2023.06)
