@<TRIPOS>MOLECULE
NONAME
39 40 1 0 0 
SMALL
USER_CHARGES


@<TRIPOS>ATOM
  1 CL       0.2280     0.7160    -0.4800 Cl    1 <1>  -0.1770 
  2 C        1.9430     0.3940    -0.4380 C.ar  1 <1>   0.1770 
  3 C        2.3920    -0.9080    -0.5660 C.ar  1 <1>  -0.1500 
  4 C        2.8260     1.4460    -0.2800 C.ar  1 <1>  -0.1500 
  5 C        3.7530    -1.1630    -0.5340 C.ar  1 <1>  -0.1500 
  6 C        4.1860     1.1880    -0.2460 C.ar  1 <1>  -0.1500 
  7 C        4.6550    -0.1140    -0.3670 C.ar  1 <1>   0.0830 
  8 O        6.0020    -0.2930    -0.3330 O.3   1 <1>  -0.2320 
  9 C        6.6850    -1.3460     0.1140 C.2   1 <1>   0.6590 
 10 O        6.1700    -2.3030     0.6330 O.2   1 <1>  -0.5700 
 11 C        8.1990    -1.2490    -0.0560 C.3   1 <1>  -0.0190 
 12 C        8.8850    -2.6190    -0.2190 C.3   1 <1>  -0.1600 
 13 C        8.8520    -0.4840     1.1170 C.3   1 <1>  -0.1600 
 14 C       10.4010    -2.4840    -0.4420 C.3   1 <1>   0.1960 
 15 C       10.3460    -0.7970     1.2910 C.3   1 <1>   0.1960 
 16 N       10.9280    -1.1850     0.0060 N.am  1 <1>  -0.8490 
 17 S       12.6220    -1.1790     0.0140 S.o2  1 <1>   1.3330 
 18 O       13.0460    -1.5310     1.3510 O.2   1 <1>  -0.6500 
 19 O       13.0690    -1.9650    -1.1140 O.2   1 <1>  -0.6500 
 20 C       13.0170     0.5460    -0.3120 C.3   1 <1>  -0.0550 
 21 C       14.5240     0.8550    -0.3680 C.3   1 <1>  -0.2400 
 22 H        1.6840    -1.7080    -0.6900 H     1 <1>   0.1500 
 23 H        2.4500     2.4490    -0.1850 H     1 <1>   0.1500 
 24 H        4.0970    -2.1760    -0.6420 H     1 <1>   0.1500 
 25 H        4.8850     1.9960    -0.1260 H     1 <1>   0.1500 
 26 H        8.3850    -0.6950    -0.9600 H     1 <1>   0.0800 
 27 H        8.4520    -3.1580    -1.0430 H     1 <1>   0.0800 
 28 H        8.7180    -3.2080     0.6670 H     1 <1>   0.0800 
 29 H        8.3530    -0.7300     2.0380 H     1 <1>   0.0800 
 30 H        8.7270     0.5720     0.9590 H     1 <1>   0.0800 
 31 H       10.6120    -2.5900    -1.4940 H     1 <1>   0.0800 
 32 H       10.9080    -3.2850     0.0740 H     1 <1>   0.0800 
 33 H       10.4760    -1.6030     1.9970 H     1 <1>   0.0800 
 34 H       10.8470     0.0710     1.6870 H     1 <1>   0.0800 
 35 H       12.5720     1.1560     0.4500 H     1 <1>   0.0800 
 36 H       12.5760     0.8260    -1.2490 H     1 <1>   0.0800 
 37 H       14.9880     0.6050     0.5710 H     1 <1>   0.0800 
 38 H       14.6840     1.8990    -0.5680 H     1 <1>   0.0800 
 39 H       14.9910     0.2770    -1.1460 H     1 <1>   0.0800 
@<TRIPOS>BOND
  1   1   2  1   
  2   2   3  ar  
  3   2   4  ar  
  4   3   5  ar  
  5   3  22  1   
  6   4   6  ar  
  7   4  23  1   
  8   5   7  ar  
  9   5  24  1   
 10   6   7  ar  
 11   6  25  1   
 12   7   8  1   
 13   8   9  1   
 14   9  10  2   
 15   9  11  1   
 16  11  12  1   
 17  11  13  1   
 18  11  26  1   
 19  12  14  1   
 20  12  27  1   
 21  12  28  1   
 22  13  15  1   
 23  13  29  1   
 24  13  30  1   
 25  14  16  1   
 26  14  31  1   
 27  14  32  1   
 28  15  16  1   
 29  15  33  1   
 30  15  34  1   
 31  16  17  am  
 32  17  18  2   
 33  17  19  2   
 34  17  20  1   
 35  20  21  1   
 36  20  35  1   
 37  20  36  1   
 38  21  37  1   
 39  21  38  1   
 40  21  39  1   
@<TRIPOS>SUBSTRUCTURE
  1 ****  11 GROUP 4 **** **** 0

# MOE 2024.06 (io_trps.svl 2023.06)
