@<TRIPOS>MOLECULE
NONAME
42 43 1 0 0 
SMALL
USER_CHARGES


@<TRIPOS>ATOM
  1 O        0.1300     0.1950     1.0980 O.2   1 <1>  -0.5700 
  2 C       -0.7680     0.9300     0.7300 C.2   1 <1>   0.7060 
  3 O       -1.9960     0.3980     0.7240 O.3   1 <1>  -0.2320 
  4 C       -0.5970     2.3000     0.3100 C.2   1 <1>   0.0290 
  5 C       -3.1000     1.0700     0.3410 C.ar  1 <1>   0.0830 
  6 C        0.7190     2.9030     0.3080 C.2   1 <1>   0.6160 
  7 C       -1.7040     2.9950    -0.0820 C.2   1 <1>  -0.1780 
  8 C       -2.9950     2.3990    -0.0790 C.ar  1 <1>   0.0280 
  9 C       -4.3290     0.4280     0.3690 C.ar  1 <1>  -0.1500 
 10 O        0.8600     4.0360    -0.1090 O.2   1 <1>  -0.5700 
 11 N        1.8390     2.2600     0.7530 N.am  1 <1>  -0.7300 
 12 C       -4.1570     3.0650    -0.4690 C.ar  1 <1>  -0.1500 
 13 C       -5.4690     1.1040    -0.0220 C.ar  1 <1>  -0.1500 
 14 C        3.2120     2.8230     0.7890 C.3   1 <1>   0.1400 
 15 C       -5.3800     2.4240    -0.4410 C.ar  1 <1>  -0.1500 
 16 C        3.9460     2.5040    -0.5120 C.3   1 <1>   0.1200 
 17 O        5.2680     2.9920    -0.4210 O.3   1 <1>  -0.4300 
 18 C        6.1360     2.8110    -1.4070 C.2   1 <1>   0.6590 
 19 O        5.8510     2.2150    -2.4120 O.2   1 <1>  -0.5700 
 20 C        7.5150     3.4050    -1.1970 C.3   1 <1>  -0.0990 
 21 C        8.3230     2.6410    -0.1360 C.3   1 <1>  -0.1600 
 22 C        9.7190     3.2480     0.0460 C.3   1 <1>  -0.1600 
 23 C       10.5190     2.4820     1.1030 C.3   1 <1>  -0.2400 
 24 H       -1.6360     4.0200    -0.4070 H     1 <1>   0.1500 
 25 H       -4.3860    -0.5960     0.6960 H     1 <1>   0.1500 
 26 H        1.7350     1.2820     1.0610 H     1 <1>   0.3700 
 27 H       -4.0950     4.0880    -0.7950 H     1 <1>   0.1500 
 28 H       -6.4250     0.6100    -0.0020 H     1 <1>   0.1500 
 29 H        3.7440     2.3990     1.6230 H     1 <1>   0.0800 
 30 H        3.1590     3.8920     0.9160 H     1 <1>   0.0800 
 31 H       -6.2710     2.9470    -0.7450 H     1 <1>   0.1500 
 32 H        3.4640     2.9870    -1.3460 H     1 <1>   0.0800 
 33 H        3.9900     1.4410    -0.6760 H     1 <1>   0.0800 
 34 H        7.3990     4.4310    -0.9020 H     1 <1>   0.0800 
 35 H        8.0380     3.3830    -2.1360 H     1 <1>   0.0800 
 36 H        8.4160     1.6100    -0.4370 H     1 <1>   0.0800 
 37 H        7.7950     2.6670     0.8030 H     1 <1>   0.0800 
 38 H        9.6310     4.2780     0.3490 H     1 <1>   0.0800 
 39 H       10.2530     3.2190    -0.8890 H     1 <1>   0.0800 
 40 H       10.0170     2.5160     2.0540 H     1 <1>   0.0800 
 41 H       11.4950     2.9200     1.2160 H     1 <1>   0.0800 
 42 H       10.6390     1.4530     0.8110 H     1 <1>   0.0800 
@<TRIPOS>BOND
  1   1   2  2   
  2   2   3  1   
  3   2   4  1   
  4   3   5  1   
  5   4   6  1   
  6   4   7  2   
  7   5   8  ar  
  8   5   9  ar  
  9   6  10  2   
 10   6  11  am  
 11   7   8  1   
 12   7  24  1   
 13   8  12  ar  
 14   9  13  ar  
 15   9  25  1   
 16  11  14  1   
 17  11  26  1   
 18  12  15  ar  
 19  12  27  1   
 20  13  15  ar  
 21  13  28  1   
 22  14  16  1   
 23  14  29  1   
 24  14  30  1   
 25  15  31  1   
 26  16  17  1   
 27  16  32  1   
 28  16  33  1   
 29  17  18  1   
 30  18  19  2   
 31  18  20  1   
 32  20  21  1   
 33  20  34  1   
 34  20  35  1   
 35  21  22  1   
 36  21  36  1   
 37  21  37  1   
 38  22  23  1   
 39  22  38  1   
 40  22  39  1   
 41  23  40  1   
 42  23  41  1   
 43  23  42  1   
@<TRIPOS>SUBSTRUCTURE
  1 ****  11 GROUP 4 **** **** 0

# MOE 2024.06 (io_trps.svl 2023.06)
