@<TRIPOS>MOLECULE
NONAME
34 37 1 0 0 
SMALL
USER_CHARGES


@<TRIPOS>ATOM
  1 CL      -0.2110    -1.6860     0.1680 Cl    1 <1>  -0.1770 
  2 C       -1.8300    -1.1300    -0.1740 C.ar  1 <1>   0.1770 
  3 C       -2.2240    -0.9530    -1.4880 C.ar  1 <1>  -0.1500 
  4 C       -2.6940    -0.8750     0.8740 C.ar  1 <1>  -0.1500 
  5 C       -3.5070    -0.5080    -1.7540 C.ar  1 <1>  -0.1500 
  6 C       -3.9760    -0.4300     0.6010 C.ar  1 <1>  -0.1500 
  7 C       -4.3880    -0.2340    -0.7130 C.ar  1 <1>   0.1170 
  8 N       -5.6760     0.2190    -0.9890 N.am  1 <1>  -0.5470 
  9 C       -6.2300     1.4400    -1.2400 C.2   1 <1>   0.5690 
 10 O       -7.3940     1.4510    -1.5490 O.2   1 <1>  -0.5700 
 11 C       -5.5400     2.8120    -1.1580 C.3   1 <1>  -0.0190 
 12 C       -4.0000     2.9090    -0.9690 C.3   1 <1>  -0.0190 
 13 C       -6.0610     3.6140     0.0620 C.3   1 <1>  -0.0800 
 14 C       -3.4490     4.0050    -1.8440 C.2   1 <1>   0.6590 
 15 C       -3.8590     3.5480     0.4190 C.3   1 <1>  -0.0800 
 16 C       -5.6310     5.0930    -0.0630 C.3   1 <1>  -0.1600 
 17 C       -5.1240     3.1430     1.1560 C.3   1 <1>  -0.1600 
 18 O       -2.9990     3.8540    -2.9460 O.2   1 <1>  -0.5700 
 19 O       -3.5320     5.1650    -1.2270 O.3   1 <1>  -0.4300 
 20 C       -4.0950     5.0220     0.0540 C.3   1 <1>   0.2000 
 21 H       -1.5330    -1.1620    -2.2860 H     1 <1>   0.1500 
 22 H       -2.3640    -1.0280     1.8870 H     1 <1>   0.1500 
 23 H       -3.8280    -0.3670    -2.7720 H     1 <1>   0.1500 
 24 H       -4.6620    -0.2390     1.4070 H     1 <1>   0.1500 
 25 H       -6.3730    -0.5200    -1.1020 H     1 <1>   0.3700 
 26 H       -5.8250     3.3280    -2.0600 H     1 <1>   0.0800 
 27 H       -3.4300     2.0170    -1.0940 H     1 <1>   0.0800 
 28 H       -7.1110     3.4820     0.2670 H     1 <1>   0.0800 
 29 H       -2.9270     3.3600     0.9250 H     1 <1>   0.0800 
 30 H       -6.0310     5.6550     0.7630 H     1 <1>   0.0800 
 31 H       -5.9560     5.5460    -0.9850 H     1 <1>   0.0800 
 32 H       -5.1850     2.0840     1.3360 H     1 <1>   0.0800 
 33 H       -5.2560     3.6810     2.0810 H     1 <1>   0.0800 
 34 H       -3.6710     5.7390     0.7370 H     1 <1>   0.0800 
@<TRIPOS>BOND
  1   1   2  1   
  2   2   3  ar  
  3   2   4  ar  
  4   3   5  ar  
  5   3  21  1   
  6   4   6  ar  
  7   4  22  1   
  8   5   7  ar  
  9   5  23  1   
 10   6   7  ar  
 11   6  24  1   
 12   7   8  1   
 13   8   9  am  
 14   8  25  1   
 15   9  10  2   
 16   9  11  1   
 17  11  12  1   
 18  11  13  1   
 19  11  26  1   
 20  12  14  1   
 21  12  15  1   
 22  12  27  1   
 23  13  16  1   
 24  13  17  1   
 25  13  28  1   
 26  14  18  2   
 27  14  19  1   
 28  15  17  1   
 29  15  20  1   
 30  15  29  1   
 31  16  20  1   
 32  16  30  1   
 33  16  31  1   
 34  17  32  1   
 35  17  33  1   
 36  19  20  1   
 37  20  34  1   
@<TRIPOS>SUBSTRUCTURE
  1 ****  12 GROUP 4 **** **** 0

# MOE 2024.06 (io_trps.svl 2023.06)
