@<TRIPOS>MOLECULE
NONAME
51 52 1 0 0 
SMALL
USER_CHARGES


@<TRIPOS>ATOM
  1 O       -0.1700    -0.2890    -0.8940 O.2   1 <1>  -0.5700 
  2 C       -0.1220    -1.4270    -0.4730 C.2   1 <1>   0.5440 
  3 N        1.0620    -1.9390     0.0100 N.am  1 <1>  -0.5470 
  4 C       -1.3190    -2.2500    -0.4660 C.ar  1 <1>   0.0860 
  5 C        2.3490    -1.3770     0.0940 C.ar  1 <1>   0.1170 
  6 C       -2.5770    -1.6670    -0.3310 C.ar  1 <1>  -0.1500 
  7 C       -1.2670    -3.6400    -0.5920 C.ar  1 <1>  -0.1500 
  8 C        3.4460    -2.2260     0.0440 C.ar  1 <1>  -0.1500 
  9 C        2.5620    -0.0120     0.2440 C.ar  1 <1>  -0.1500 
 10 C       -3.7490    -2.4110    -0.3030 C.ar  1 <1>   0.1170 
 11 C       -2.4190    -4.4030    -0.5610 C.ar  1 <1>  -0.1500 
 12 C        4.7420    -1.7300     0.1390 C.ar  1 <1>   0.0830 
 13 C        3.8480     0.5100     0.3330 C.ar  1 <1>   0.0830 
 14 N       -4.9680    -1.7290    -0.1570 N.am  1 <1>  -0.5470 
 15 C       -3.6500    -3.7940    -0.4130 C.ar  1 <1>  -0.1500 
 16 O        5.8440    -2.5360     0.0870 O.3   1 <1>  -0.3630 
 17 C        4.9390    -0.3580     0.2850 C.ar  1 <1>   0.0830 
 18 O        4.0900     1.8480     0.4630 O.3   1 <1>  -0.3630 
 19 C       -6.2650    -2.1250    -0.3470 C.2   1 <1>   0.5690 
 20 C        5.7390    -3.9410     0.1110 C.3   1 <1>   0.0400 
 21 O        6.2050     0.1330     0.4000 O.3   1 <1>  -0.3630 
 22 C        3.0410     2.7910     0.4290 C.3   1 <1>   0.0400 
 23 O       -6.5780    -3.2300    -0.7190 O.2   1 <1>  -0.5700 
 24 C       -7.3650    -1.0910    -0.0820 C.3   1 <1>  -0.0190 
 25 C        6.7840     0.5610    -0.8080 C.3   1 <1>   0.0400 
 26 C       -8.4050    -1.6100     0.9250 C.3   1 <1>  -0.2400 
 27 C       -8.0610    -0.6710    -1.3870 C.3   1 <1>  -0.2400 
 28 H        0.9970    -2.8920     0.3590 H     1 <1>   0.3700 
 29 H       -2.6340    -0.5960    -0.2500 H     1 <1>   0.1500 
 30 H       -0.3230    -4.1370    -0.7280 H     1 <1>   0.1500 
 31 H        3.2710    -3.2760    -0.0770 H     1 <1>   0.1500 
 32 H        1.7090     0.6330     0.2950 H     1 <1>   0.1500 
 33 H       -2.3650    -5.4750    -0.6560 H     1 <1>   0.1500 
 34 H       -4.8660    -0.7470     0.0920 H     1 <1>   0.3700 
 35 H       -4.5320    -4.4060    -0.3850 H     1 <1>   0.1500 
 36 H        6.7340    -4.3470     0.1340 H     1 <1>   0.0800 
 37 H        5.2330    -4.2690    -0.7790 H     1 <1>   0.0800 
 38 H        5.2040    -4.2360     0.9960 H     1 <1>   0.0800 
 39 H        3.4730     3.7720     0.5020 H     1 <1>   0.0800 
 40 H        2.3870     2.6160     1.2640 H     1 <1>   0.0800 
 41 H        2.5120     2.6910    -0.5030 H     1 <1>   0.0800 
 42 H       -6.9110    -0.2150     0.3450 H     1 <1>   0.0800 
 43 H        7.7750     0.9180    -0.5970 H     1 <1>   0.0800 
 44 H        6.1840     1.3540    -1.2190 H     1 <1>   0.0800 
 45 H        6.8260    -0.2730    -1.4860 H     1 <1>   0.0800 
 46 H       -8.9050    -2.4780     0.5310 H     1 <1>   0.0800 
 47 H       -9.1410    -0.8530     1.1340 H     1 <1>   0.0800 
 48 H       -7.9240    -1.8860     1.8460 H     1 <1>   0.0800 
 49 H       -8.5430    -1.5200    -1.8410 H     1 <1>   0.0800 
 50 H       -7.3410    -0.2790    -2.0830 H     1 <1>   0.0800 
 51 H       -8.8010     0.0850    -1.1960 H     1 <1>   0.0800 
@<TRIPOS>BOND
  1   1   2  2   
  2   2   3  am  
  3   2   4  1   
  4   3   5  1   
  5   3  28  1   
  6   4   6  ar  
  7   4   7  ar  
  8   5   8  ar  
  9   5   9  ar  
 10   6  10  ar  
 11   6  29  1   
 12   7  11  ar  
 13   7  30  1   
 14   8  12  ar  
 15   8  31  1   
 16   9  13  ar  
 17   9  32  1   
 18  10  14  1   
 19  10  15  ar  
 20  11  15  ar  
 21  11  33  1   
 22  12  16  1   
 23  12  17  ar  
 24  13  17  ar  
 25  13  18  1   
 26  14  19  am  
 27  14  34  1   
 28  15  35  1   
 29  16  20  1   
 30  17  21  1   
 31  18  22  1   
 32  19  23  2   
 33  19  24  1   
 34  20  36  1   
 35  20  37  1   
 36  20  38  1   
 37  21  25  1   
 38  22  39  1   
 39  22  40  1   
 40  22  41  1   
 41  24  26  1   
 42  24  27  1   
 43  24  42  1   
 44  25  43  1   
 45  25  44  1   
 46  25  45  1   
 47  26  46  1   
 48  26  47  1   
 49  26  48  1   
 50  27  49  1   
 51  27  50  1   
 52  27  51  1   
@<TRIPOS>SUBSTRUCTURE
  1 ****   2 GROUP 4 **** **** 0

# MOE 2024.06 (io_trps.svl 2023.06)
