@<TRIPOS>MOLECULE
NONAME
27 27 1 0 0 
SMALL
USER_CHARGES


@<TRIPOS>ATOM
  1 S        0.0890     0.2970     0.7080 S.o2  1 <1>   1.4470 
  2 O       -0.0590     1.2730     1.7680 O.2   1 <1>  -0.6500 
  3 O       -0.4720    -1.0260     0.8800 O.2   1 <1>  -0.6500 
  4 N       -0.6350     0.9690    -0.6760 N.am  1 <1>  -0.8490 
  5 C        1.8350     0.1480     0.2360 C.ar  1 <1>  -0.0090 
  6 C       -2.0930     0.8320    -0.6520 C.3   1 <1>   0.1160 
  7 C       -0.2660     2.3720    -0.8920 C.3   1 <1>   0.1160 
  8 C        2.2030    -0.5130    -0.9320 C.ar  1 <1>  -0.1500 
  9 C        2.8460     0.6870     1.0280 C.ar  1 <1>  -0.1500 
 10 C        3.5310    -0.6280    -1.3040 C.ar  1 <1>  -0.1500 
 11 C        4.1790     0.5790     0.6690 C.ar  1 <1>  -0.1500 
 12 C        4.5140    -0.0800    -0.5020 C.ar  1 <1>   0.1020 
 13 S        6.2190    -0.2660    -1.0490 S.3   1 <1>  -0.3320 
 14 C        7.2810     0.5390     0.2300 C.3   1 <1>  -0.0100 
 15 H       -2.3630    -0.2100    -0.5940 H     1 <1>   0.0800 
 16 H       -2.5210     1.2410    -1.5510 H     1 <1>   0.0800 
 17 H       -2.5040     1.3430     0.2030 H     1 <1>   0.0800 
 18 H        0.8050     2.4680    -0.9540 H     1 <1>   0.0800 
 19 H       -0.6240     2.9870    -0.0820 H     1 <1>   0.0800 
 20 H       -0.6900     2.7260    -1.8160 H     1 <1>   0.0800 
 21 H        1.4350    -0.9400    -1.5560 H     1 <1>   0.1500 
 22 H        2.5830     1.1990     1.9390 H     1 <1>   0.1500 
 23 H        3.8070    -1.1390    -2.2090 H     1 <1>   0.1500 
 24 H        4.9310     1.0070     1.3030 H     1 <1>   0.1500 
 25 H        8.3040     0.4290    -0.0820 H     1 <1>   0.0800 
 26 H        7.1110     0.0380     1.1660 H     1 <1>   0.0800 
 27 H        7.0080     1.5780     0.2830 H     1 <1>   0.0800 
@<TRIPOS>BOND
  1   1   2  2   
  2   1   3  2   
  3   1   4  am  
  4   1   5  1   
  5   4   6  1   
  6   4   7  1   
  7   5   8  ar  
  8   5   9  ar  
  9   6  15  1   
 10   6  16  1   
 11   6  17  1   
 12   7  18  1   
 13   7  19  1   
 14   7  20  1   
 15   8  10  ar  
 16   8  21  1   
 17   9  11  ar  
 18   9  22  1   
 19  10  12  ar  
 20  10  23  1   
 21  11  12  ar  
 22  11  24  1   
 23  12  13  1   
 24  13  14  1   
 25  14  25  1   
 26  14  26  1   
 27  14  27  1   
@<TRIPOS>SUBSTRUCTURE
  1 ****   5 GROUP 4 **** **** 0

# MOE 2024.06 (io_trps.svl 2023.06)
