@<TRIPOS>MOLECULE
NONAME
44 45 1 0 0 
SMALL
USER_CHARGES


@<TRIPOS>ATOM
  1 S       -0.1900    -0.0640    -0.1010 S.3   1 <1>  -0.3320 
  2 C       -1.6840     0.8790     0.1430 C.ar  1 <1>   0.7220 
  3 C        1.1580     1.2220    -0.0670 C.3   1 <1>   0.1310 
  4 N       -2.7780     0.1880     0.1470 N.ar  1 <1>  -0.6200 
  5 N       -1.5260     2.1570     0.2890 N.ar  1 <1>  -0.6200 
  6 C        2.5370     0.6100    -0.2680 C.2   1 <1>   0.5690 
  7 C       -3.8470     0.9280     0.3250 C.ar  1 <1>   0.7200 
  8 C       -2.6600     2.7950     0.4590 C.ar  1 <1>   0.7200 
  9 O        3.4990     1.3330    -0.2980 O.2   1 <1>  -0.5700 
 10 N        2.6930    -0.7200    -0.4110 N.am  1 <1>  -0.8000 
 11 N       -3.8400     2.2260     0.4880 N.ar  1 <1>  -0.6200 
 12 N       -5.0660     0.2880     0.3440 N.pl3 1 <1>  -0.8380 
 13 N       -2.6010     4.1640     0.6140 N.pl3 1 <1>  -0.8380 
 14 C       -5.2290    -1.2000     0.2870 C.3   1 <1>   0.2090 
 15 C       -6.3750     1.0090     0.4480 C.3   1 <1>   0.2090 
 16 C       -1.3490     4.9390     0.3840 C.3   1 <1>   0.2090 
 17 C       -3.7350     4.9290     1.2030 C.3   1 <1>   0.2090 
 18 C       -6.2990    -1.5940    -0.7470 C.3   1 <1>   0.1200 
 19 C       -7.3760     0.4800    -0.5940 C.3   1 <1>   0.1200 
 20 C       -1.1350     5.1370    -1.1140 C.3   1 <1>  -0.2400 
 21 C       -4.5410     5.5870     0.0890 C.3   1 <1>  -0.2400 
 22 O       -7.5010    -0.9130    -0.5150 O.3   1 <1>  -0.5600 
 23 H        1.1080     1.7140     0.8860 H     1 <1>   0.0800 
 24 H        0.9490     1.9250    -0.8520 H     1 <1>   0.0800 
 25 H        3.6230    -1.1160    -0.5460 H     1 <1>   0.3700 
 26 H        1.9030    -1.3690    -0.3970 H     1 <1>   0.3700 
 27 H       -5.5280    -1.5580     1.2560 H     1 <1>   0.0800 
 28 H       -4.3060    -1.6890     0.0290 H     1 <1>   0.0800 
 29 H       -6.2540     2.0670     0.2980 H     1 <1>   0.0800 
 30 H       -6.7800     0.8620     1.4340 H     1 <1>   0.0800 
 31 H       -0.5090     4.4160     0.8110 H     1 <1>   0.0800 
 32 H       -1.4140     5.8990     0.8670 H     1 <1>   0.0800 
 33 H       -3.3600     5.6780     1.8800 H     1 <1>   0.0800 
 34 H       -4.3720     4.2740     1.7730 H     1 <1>   0.0800 
 35 H       -6.5020    -2.6480    -0.6850 H     1 <1>   0.0800 
 36 H       -5.9580    -1.3650    -1.7410 H     1 <1>   0.0800 
 37 H       -7.0530     0.7420    -1.5870 H     1 <1>   0.0800 
 38 H       -8.3480     0.9080    -0.4230 H     1 <1>   0.0800 
 39 H       -1.0320     4.1860    -1.6040 H     1 <1>   0.0800 
 40 H       -0.2370     5.7040    -1.2790 H     1 <1>   0.0800 
 41 H       -1.9620     5.6680    -1.5460 H     1 <1>   0.0800 
 42 H       -3.9460     6.3160    -0.4270 H     1 <1>   0.0800 
 43 H       -5.3980     6.0810     0.5080 H     1 <1>   0.0800 
 44 H       -4.8800     4.8410    -0.6070 H     1 <1>   0.0800 
@<TRIPOS>BOND
  1   1   2  1   
  2   1   3  1   
  3   2   4  ar  
  4   2   5  ar  
  5   3   6  1   
  6   3  23  1   
  7   3  24  1   
  8   4   7  ar  
  9   5   8  ar  
 10   6   9  2   
 11   6  10  am  
 12   7  11  ar  
 13   7  12  1   
 14   8  11  ar  
 15   8  13  1   
 16  10  25  1   
 17  10  26  1   
 18  12  14  1   
 19  12  15  1   
 20  13  16  1   
 21  13  17  1   
 22  14  18  1   
 23  14  27  1   
 24  14  28  1   
 25  15  19  1   
 26  15  29  1   
 27  15  30  1   
 28  16  20  1   
 29  16  31  1   
 30  16  32  1   
 31  17  21  1   
 32  17  33  1   
 33  17  34  1   
 34  18  22  1   
 35  18  35  1   
 36  18  36  1   
 37  19  22  1   
 38  19  37  1   
 39  19  38  1   
 40  20  39  1   
 41  20  40  1   
 42  20  41  1   
 43  21  42  1   
 44  21  43  1   
 45  21  44  1   
@<TRIPOS>SUBSTRUCTURE
  1 ****   2 GROUP 4 **** **** 0

# MOE 2024.06 (io_trps.svl 2023.06)
