@<TRIPOS>MOLECULE
NONAME
46 47 1 0 0 
SMALL
USER_CHARGES


@<TRIPOS>ATOM
  1 O        6.3730    -0.0740     0.8710 O.3   1 <1>  -0.3630 
  2 C        7.4810     0.5780     0.4270 C.ar  1 <1>   0.0820 
  3 C        6.4580    -1.4070     1.3370 C.3   1 <1>   0.1200 
  4 C        7.4710     1.9540     0.4210 C.ar  1 <1>  -0.1440 
  5 C        8.6090    -0.1190    -0.0390 C.ar  1 <1>  -0.1500 
  6 C        5.1350    -1.7590     2.0100 C.3   1 <1>  -0.2400 
  7 C        8.5830     2.6970    -0.0510 C.ar  1 <1>   0.0000 
  8 C        6.2300     2.6540     0.9270 C.3   1 <1>   0.4870 
  9 C        9.6900     0.5730    -0.5010 C.ar  1 <1>  -0.1500 
 10 C        9.7080     1.9800    -0.5250 C.ar  1 <1>   0.0000 
 11 C        8.6520     4.1130    -0.0860 C.ar  1 <1>  -0.1500 
 12 N        5.1500     2.3040    -0.0260 N.4   1 <1>  -0.9060 
 13 C       10.8250     2.6850    -1.0140 C.ar  1 <1>  -0.1500 
 14 C        9.7510     4.7700    -0.5660 C.ar  1 <1>  -0.1500 
 15 C        3.7850     2.7600     0.3950 C.3   1 <1>   0.3430 
 16 C       10.8500     4.0500    -1.0380 C.ar  1 <1>  -0.1500 
 17 C        2.6520     2.2670    -0.5530 C.3   1 <1>   0.3430 
 18 N        1.2540     2.6430    -0.1200 N.4   1 <1>  -0.9590 
 19 C        0.2410     1.9580    -0.9950 C.3   1 <1>   0.2630 
 20 C        0.9880     4.1230    -0.1480 C.3   1 <1>   0.2630 
 21 H        7.2710    -1.4760     2.0420 H     1 <1>   0.0800 
 22 H        6.6410    -2.0580     0.4990 H     1 <1>   0.0800 
 23 H        8.6350    -1.1930    -0.0450 H     1 <1>   0.1500 
 24 H        4.9510    -1.1050     2.8430 H     1 <1>   0.0800 
 25 H        5.1820    -2.7680     2.3810 H     1 <1>   0.0800 
 26 H        4.3250    -1.6990     1.3060 H     1 <1>   0.0800 
 27 H        6.3660     3.7190     0.9840 H     1 <1>   0.0800 
 28 H        5.9980     2.2800     1.9110 H     1 <1>   0.0800 
 29 H       10.5580     0.0460    -0.8600 H     1 <1>   0.1500 
 30 H        7.8400     4.7130     0.2720 H     1 <1>   0.1500 
 31 H        5.2280     1.2700    -0.0680 H     1 <1>   0.4500 
 32 H        5.4500     2.6460    -0.9500 H     1 <1>   0.4500 
 33 H       11.6710     2.1260    -1.3740 H     1 <1>   0.1500 
 34 H        9.7930     5.8460    -0.5870 H     1 <1>   0.1500 
 35 H        3.7700     3.8370     0.4300 H     1 <1>   0.0800 
 36 H        3.5880     2.3860     1.3870 H     1 <1>   0.0800 
 37 H       11.7070     4.5830    -1.4130 H     1 <1>   0.1500 
 38 H        2.7120     1.1920    -0.6140 H     1 <1>   0.0800 
 39 H        2.8280     2.6630    -1.5400 H     1 <1>   0.0800 
 40 H        1.0730     2.3040     0.8420 H     1 <1>   0.4500 
 41 H        0.3480     2.2760    -2.0200 H     1 <1>   0.0800 
 42 H       -0.7590     2.1950    -0.6680 H     1 <1>   0.0800 
 43 H        0.3650     0.8870    -0.9520 H     1 <1>   0.0800 
 44 H        1.1310     4.5150    -1.1430 H     1 <1>   0.0800 
 45 H        1.6440     4.6450     0.5290 H     1 <1>   0.0800 
 46 H       -0.0300     4.3240     0.1500 H     1 <1>   0.0800 
@<TRIPOS>BOND
  1   1   2  1   
  2   1   3  1   
  3   2   4  ar  
  4   2   5  ar  
  5   3   6  1   
  6   3  21  1   
  7   3  22  1   
  8   4   7  ar  
  9   4   8  1   
 10   5   9  ar  
 11   5  23  1   
 12   6  24  1   
 13   6  25  1   
 14   6  26  1   
 15   7  10  ar  
 16   7  11  ar  
 17   8  12  1   
 18   8  27  1   
 19   8  28  1   
 20   9  10  ar  
 21   9  29  1   
 22  10  13  ar  
 23  11  14  ar  
 24  11  30  1   
 25  12  15  1   
 26  12  31  1   
 27  12  32  1   
 28  13  16  ar  
 29  13  33  1   
 30  14  16  ar  
 31  14  34  1   
 32  15  17  1   
 33  15  35  1   
 34  15  36  1   
 35  16  37  1   
 36  17  18  1   
 37  17  38  1   
 38  17  39  1   
 39  18  19  1   
 40  18  20  1   
 41  18  40  1   
 42  19  41  1   
 43  19  42  1   
 44  19  43  1   
 45  20  44  1   
 46  20  45  1   
 47  20  46  1   
@<TRIPOS>SUBSTRUCTURE
  1 ****   4 GROUP 4 **** **** 0

# MOE 2024.06 (io_trps.svl 2023.06)
