@<TRIPOS>MOLECULE
NONAME
37 39 1 0 0 
SMALL
USER_CHARGES


@<TRIPOS>ATOM
  1 O        1.2570     0.2070    -2.0220 O.2   1 <1>  -0.5700 
  2 C        2.0550     0.9090    -1.4360 C.2   1 <1>   0.7060 
  3 O        3.3160     0.4850    -1.3260 O.3   1 <1>  -0.2320 
  4 C        1.7150     2.1670    -0.8580 C.2   1 <1>  -0.1360 
  5 C        4.2740     1.1990    -0.6920 C.ar  1 <1>   0.0830 
  6 C        2.6270     2.9280    -0.2120 C.2   1 <1>  -0.1670 
  7 C        3.9740     2.4420    -0.1130 C.ar  1 <1>   0.0280 
  8 C        5.5510     0.6680    -0.6340 C.ar  1 <1>  -0.1500 
  9 C        2.2480     4.2690     0.4010 C.3   1 <1>  -0.1020 
 10 C        5.0210     3.1170     0.5210 C.ar  1 <1>  -0.1500 
 11 C        6.5810     1.3440     0.0000 C.ar  1 <1>   0.1170 
 12 C        6.2910     2.5820     0.5740 C.ar  1 <1>  -0.1500 
 13 N        7.8520     0.7590     0.0220 N.am  1 <1>  -0.5470 
 14 C        8.9830     1.0370     0.7440 C.2   1 <1>   0.5690 
 15 O        9.0530     1.9130     1.5700 O.2   1 <1>  -0.5700 
 16 C       10.2190     0.1770     0.4900 C.3   1 <1>  -0.0190 
 17 C       10.7230     0.1970    -0.9560 C.3   1 <1>  -0.1600 
 18 C       10.0390    -1.3140     0.8220 C.3   1 <1>  -0.1600 
 19 C       11.5990    -1.0470    -1.0580 C.3   1 <1>  -0.1600 
 20 C       10.9170    -2.0900    -0.1690 C.3   1 <1>  -0.1600 
 21 H        0.6890     2.4610    -0.9740 H     1 <1>   0.1500 
 22 H        5.7320    -0.2880    -1.0890 H     1 <1>   0.1500 
 23 H        2.8280     5.0570    -0.0460 H     1 <1>   0.0800 
 24 H        2.4310     4.2570     1.4610 H     1 <1>   0.0800 
 25 H        1.2070     4.4840     0.2410 H     1 <1>   0.0800 
 26 H        4.8460     4.0730     0.9790 H     1 <1>   0.1500 
 27 H        7.0670     3.1380     1.0670 H     1 <1>   0.1500 
 28 H        7.9570    -0.0450    -0.5940 H     1 <1>   0.3700 
 29 H       11.0130     0.5530     1.1120 H     1 <1>   0.0800 
 30 H       11.2750     1.0960    -1.1730 H     1 <1>   0.0800 
 31 H        9.9040     0.1110    -1.6480 H     1 <1>   0.0800 
 32 H        9.0140    -1.6180     0.7050 H     1 <1>   0.0800 
 33 H       10.3360    -1.5070     1.8380 H     1 <1>   0.0800 
 34 H       12.5760    -0.8270    -0.6620 H     1 <1>   0.0800 
 35 H       11.7020    -1.3870    -2.0750 H     1 <1>   0.0800 
 36 H       10.3000    -2.7340    -0.7710 H     1 <1>   0.0800 
 37 H       11.6480    -2.6920     0.3420 H     1 <1>   0.0800 
@<TRIPOS>BOND
  1   1   2  2   
  2   2   3  1   
  3   2   4  1   
  4   3   5  1   
  5   4   6  2   
  6   4  21  1   
  7   5   7  ar  
  8   5   8  ar  
  9   6   7  1   
 10   6   9  1   
 11   7  10  ar  
 12   8  11  ar  
 13   8  22  1   
 14   9  23  1   
 15   9  24  1   
 16   9  25  1   
 17  10  12  ar  
 18  10  26  1   
 19  11  12  ar  
 20  11  13  1   
 21  12  27  1   
 22  13  14  am  
 23  13  28  1   
 24  14  15  2   
 25  14  16  1   
 26  16  17  1   
 27  16  18  1   
 28  16  29  1   
 29  17  19  1   
 30  17  30  1   
 31  17  31  1   
 32  18  20  1   
 33  18  32  1   
 34  18  33  1   
 35  19  20  1   
 36  19  34  1   
 37  19  35  1   
 38  20  36  1   
 39  20  37  1   
@<TRIPOS>SUBSTRUCTURE
  1 ****  11 GROUP 4 **** **** 0

# MOE 2024.06 (io_trps.svl 2023.06)
