@<TRIPOS>MOLECULE
NONAME
43 45 1 0 0 
SMALL
USER_CHARGES


@<TRIPOS>ATOM
  1 S        0.0130    -0.2710    -0.9340 S.o2  1 <1>   1.4470 
  2 O        0.1030    -0.3600    -2.3750 O.2   1 <1>  -0.6500 
  3 O       -0.1150     1.0250    -0.3070 O.2   1 <1>  -0.6500 
  4 N        1.4110    -0.9900    -0.3040 N.am  1 <1>  -0.8490 
  5 C       -1.3090    -1.3550    -0.3280 C.ar  1 <1>  -0.0090 
  6 C        2.5610    -0.0650    -0.3600 C.3   1 <1>   0.1960 
  7 C        1.7640    -2.2460    -0.9990 C.3   1 <1>   0.1960 
  8 C       -1.3530    -1.7470     1.0040 C.ar  1 <1>  -0.1500 
  9 C       -2.3140    -1.8170    -1.1760 C.ar  1 <1>  -0.1500 
 10 C        3.8350    -0.6760     0.2580 C.3   1 <1>   0.2090 
 11 C        3.0060    -2.9200    -0.3850 C.3   1 <1>   0.2090 
 12 C       -2.3640    -2.5760     1.4470 C.ar  1 <1>   0.1900 
 13 C       -3.3290    -2.6490    -0.7260 C.ar  1 <1>  -0.1500 
 14 N        4.1710    -1.9880    -0.3710 N.pl3 1 <1>  -0.8380 
 15 F       -2.3570    -2.9230     2.7100 F     1 <1>  -0.1900 
 16 C       -3.3680    -3.0450     0.6080 C.ar  1 <1>   0.0820 
 17 C        5.3930    -2.5440    -0.0140 C.ar  1 <1>   0.1000 
 18 O       -4.3300    -3.8600     1.1200 O.3   1 <1>  -0.3630 
 19 C        6.3980    -2.6530    -0.9660 C.ar  1 <1>  -0.1500 
 20 C        5.6430    -2.9980     1.2760 C.ar  1 <1>  -0.1500 
 21 C       -5.4070    -4.3210     0.3350 C.3   1 <1>   0.0400 
 22 C        7.6240    -3.2030    -0.6420 C.ar  1 <1>  -0.1500 
 23 C        6.8680    -3.5490     1.6060 C.ar  1 <1>  -0.1500 
 24 C        7.8610    -3.6520     0.6470 C.ar  1 <1>  -0.1500 
 25 H        2.3260     0.8370     0.1780 H     1 <1>   0.0800 
 26 H        2.7650     0.2040    -1.3830 H     1 <1>   0.0800 
 27 H        1.9650    -2.0490    -2.0400 H     1 <1>   0.0800 
 28 H        0.9390    -2.9340    -0.9460 H     1 <1>   0.0800 
 29 H       -0.6010    -1.4070     1.6950 H     1 <1>   0.1500 
 30 H       -2.3010    -1.5190    -2.2120 H     1 <1>   0.1500 
 31 H        3.6840    -0.8100     1.3150 H     1 <1>   0.0800 
 32 H        4.6590     0.0020     0.1210 H     1 <1>   0.0800 
 33 H        3.2610    -3.7940    -0.9600 H     1 <1>   0.0800 
 34 H        2.7800    -3.2330     0.6190 H     1 <1>   0.0800 
 35 H       -4.0760    -2.9740    -1.4260 H     1 <1>   0.1500 
 36 H        6.2030    -2.3010    -1.9620 H     1 <1>   0.1500 
 37 H        4.8730    -2.9180     2.0200 H     1 <1>   0.1500 
 38 H       -6.0410    -4.9230     0.9620 H     1 <1>   0.0800 
 39 H       -5.0220    -4.9160    -0.4730 H     1 <1>   0.0800 
 40 H       -5.9580    -3.4740    -0.0340 H     1 <1>   0.0800 
 41 H        8.3940    -3.2820    -1.3900 H     1 <1>   0.1500 
 42 H        7.0520    -3.8980     2.6080 H     1 <1>   0.1500 
 43 H        8.8150    -4.0800     0.9010 H     1 <1>   0.1500 
@<TRIPOS>BOND
  1   1   2  2   
  2   1   3  2   
  3   1   4  am  
  4   1   5  1   
  5   4   6  1   
  6   4   7  1   
  7   5   8  ar  
  8   5   9  ar  
  9   6  10  1   
 10   6  25  1   
 11   6  26  1   
 12   7  11  1   
 13   7  27  1   
 14   7  28  1   
 15   8  12  ar  
 16   8  29  1   
 17   9  13  ar  
 18   9  30  1   
 19  10  14  1   
 20  10  31  1   
 21  10  32  1   
 22  11  14  1   
 23  11  33  1   
 24  11  34  1   
 25  12  15  1   
 26  12  16  ar  
 27  13  16  ar  
 28  13  35  1   
 29  14  17  1   
 30  16  18  1   
 31  17  19  ar  
 32  17  20  ar  
 33  18  21  1   
 34  19  22  ar  
 35  19  36  1   
 36  20  23  ar  
 37  20  37  1   
 38  21  38  1   
 39  21  39  1   
 40  21  40  1   
 41  22  24  ar  
 42  22  41  1   
 43  23  24  ar  
 44  23  42  1   
 45  24  43  1   
@<TRIPOS>SUBSTRUCTURE
  1 ****   7 GROUP 4 **** **** 0

# MOE 2024.06 (io_trps.svl 2023.06)
