@<TRIPOS>MOLECULE
NONAME
31 31 1 0 0 
SMALL
USER_CHARGES


@<TRIPOS>ATOM
  1 CL       1.3050     0.2130     0.0900 Cl    1 <1>  -0.1770 
  2 C        0.7740     1.8420    -0.2630 C.ar  1 <1>   0.1770 
  3 C        1.6670     2.8260    -0.6950 C.ar  1 <1>   0.0860 
  4 C       -0.5770     2.0940    -0.1000 C.ar  1 <1>  -0.1500 
  5 C        3.0920     2.6170    -0.8690 C.2   1 <1>   0.5440 
  6 C        1.1190     4.0810    -0.9710 C.ar  1 <1>  -0.1500 
  7 C       -1.0890     3.3500    -0.3700 C.ar  1 <1>  -0.1430 
  8 O        3.6700     3.1700    -1.7840 O.2   1 <1>  -0.5700 
  9 N        3.8030     1.8390     0.0060 N.am  1 <1>  -0.7300 
 10 C       -0.2300     4.3420    -0.8110 C.ar  1 <1>  -0.1500 
 11 C       -2.5700     3.6410    -0.1980 C.3   1 <1>  -0.0970 
 12 C        5.2230     1.4770     0.0000 C.3   1 <1>   0.3000 
 13 C        6.0830     2.7320     0.1510 C.3   1 <1>  -0.2400 
 14 C        5.4370     0.5640     1.2060 C.3   1 <1>  -0.2400 
 15 C        5.5590     0.7150    -1.2820 C.3   1 <1>  -0.2400 
 16 H       -1.2220     1.3010     0.2360 H     1 <1>   0.1500 
 17 H        1.7710     4.8650    -1.3180 H     1 <1>   0.1500 
 18 H        3.2680     1.3080     0.6920 H     1 <1>   0.3700 
 19 H       -0.6110     5.3250    -1.0340 H     1 <1>   0.1500 
 20 H       -3.0280     2.9170     0.4520 H     1 <1>   0.0800 
 21 H       -3.0610     3.6090    -1.1530 H     1 <1>   0.0800 
 22 H       -2.7100     4.6170     0.2320 H     1 <1>   0.0800 
 23 H        5.7980     3.2790     1.0310 H     1 <1>   0.0800 
 24 H        5.9750     3.3710    -0.7060 H     1 <1>   0.0800 
 25 H        7.1200     2.4630     0.2350 H     1 <1>   0.0800 
 26 H        5.1900     1.0780     2.1180 H     1 <1>   0.0800 
 27 H        6.4670     0.2610     1.2610 H     1 <1>   0.0800 
 28 H        4.8320    -0.3210     1.1230 H     1 <1>   0.0800 
 29 H        5.4480     1.3520    -2.1410 H     1 <1>   0.0800 
 30 H        4.9140    -0.1370    -1.3940 H     1 <1>   0.0800 
 31 H        6.5770     0.3730    -1.2540 H     1 <1>   0.0800 
@<TRIPOS>BOND
  1   1   2  1   
  2   2   3  ar  
  3   2   4  ar  
  4   3   5  1   
  5   3   6  ar  
  6   4   7  ar  
  7   4  16  1   
  8   5   8  2   
  9   5   9  am  
 10   6  10  ar  
 11   6  17  1   
 12   7  10  ar  
 13   7  11  1   
 14   9  12  1   
 15   9  18  1   
 16  10  19  1   
 17  11  20  1   
 18  11  21  1   
 19  11  22  1   
 20  12  13  1   
 21  12  14  1   
 22  12  15  1   
 23  13  23  1   
 24  13  24  1   
 25  13  25  1   
 26  14  26  1   
 27  14  27  1   
 28  14  28  1   
 29  15  29  1   
 30  15  30  1   
 31  15  31  1   
@<TRIPOS>SUBSTRUCTURE
  1 ****   3 GROUP 4 **** **** 0

# MOE 2024.06 (io_trps.svl 2023.06)
