@<TRIPOS>MOLECULE
NONAME
41 42 1 0 0 
SMALL
USER_CHARGES


@<TRIPOS>ATOM
  1 O       -0.6490    -0.6050    -0.7880 O.3   1 <1>  -0.3630 
  2 C       -1.9330    -1.0340    -0.7420 C.ar  1 <1>   0.0830 
  3 C        0.3540    -1.1840     0.0160 C.3   1 <1>   0.0400 
  4 C       -2.3900    -2.0270     0.1190 C.ar  1 <1>  -0.1500 
  5 C       -2.8210    -0.4330    -1.6180 C.ar  1 <1>  -0.1500 
  6 C       -3.7220    -2.4010     0.1020 C.ar  1 <1>  -0.1500 
  7 C       -4.1530    -0.8070    -1.6360 C.ar  1 <1>  -0.1500 
  8 C       -4.6130    -1.7880    -0.7700 C.ar  1 <1>  -0.1430 
  9 C       -6.0780    -2.1780    -0.7770 C.3   1 <1>   0.4860 
 10 N       -6.7310    -1.6160     0.4390 N.4   1 <1>  -0.9590 
 11 C       -8.0840    -2.2220     0.6530 C.3   1 <1>   0.4860 
 12 C       -6.7500    -0.1280     0.3760 C.3   1 <1>   0.3430 
 13 C       -8.9770    -2.0140    -0.5620 C.ar  1 <1>  -0.1430 
 14 C       -7.0770     0.4480     1.7490 C.3   1 <1>  -0.2400 
 15 C       -9.7430    -0.8620    -0.6860 C.ar  1 <1>  -0.1500 
 16 C       -9.0450    -2.9830    -1.5540 C.ar  1 <1>  -0.1500 
 17 C      -10.5420    -0.6710    -1.7990 C.ar  1 <1>  -0.1500 
 18 C       -9.8450    -2.7900    -2.6670 C.ar  1 <1>  -0.1500 
 19 C      -10.5900    -1.6330    -2.7920 C.ar  1 <1>  -0.1500 
 20 H        1.2850    -0.6950    -0.2090 H     1 <1>   0.0800 
 21 H        0.4280    -2.2310    -0.2150 H     1 <1>   0.0800 
 22 H        0.1040    -1.0320     1.0510 H     1 <1>   0.0800 
 23 H       -1.7200    -2.5150     0.8020 H     1 <1>   0.1500 
 24 H       -2.4560     0.3280    -2.2850 H     1 <1>   0.1500 
 25 H       -4.0470    -3.1780     0.7730 H     1 <1>   0.1500 
 26 H       -4.8160    -0.3230    -2.3350 H     1 <1>   0.1500 
 27 H       -6.1550    -3.2530    -0.7780 H     1 <1>   0.0800 
 28 H       -6.5590    -1.8020    -1.6660 H     1 <1>   0.0800 
 29 H       -6.1260    -1.8670     1.2290 H     1 <1>   0.4500 
 30 H       -8.5540    -1.7870     1.5190 H     1 <1>   0.0800 
 31 H       -7.9840    -3.2800     0.8330 H     1 <1>   0.0800 
 32 H       -7.4670     0.2090    -0.3560 H     1 <1>   0.0800 
 33 H       -5.7780     0.2370     0.0800 H     1 <1>   0.0800 
 34 H       -7.0090     1.5200     1.7010 H     1 <1>   0.0800 
 35 H       -6.3710     0.1070     2.4850 H     1 <1>   0.0800 
 36 H       -8.0760     0.2010     2.0580 H     1 <1>   0.0800 
 37 H       -9.7360    -0.1030     0.0770 H     1 <1>   0.1500 
 38 H       -8.4870    -3.9010    -1.4780 H     1 <1>   0.1500 
 39 H      -11.1340     0.2240    -1.8960 H     1 <1>   0.1500 
 40 H       -9.8950    -3.5420    -3.4380 H     1 <1>   0.1500 
 41 H      -11.2140    -1.4830    -3.6570 H     1 <1>   0.1500 
@<TRIPOS>BOND
  1   1   2  1   
  2   1   3  1   
  3   2   4  ar  
  4   2   5  ar  
  5   3  20  1   
  6   3  21  1   
  7   3  22  1   
  8   4   6  ar  
  9   4  23  1   
 10   5   7  ar  
 11   5  24  1   
 12   6   8  ar  
 13   6  25  1   
 14   7   8  ar  
 15   7  26  1   
 16   8   9  1   
 17   9  10  1   
 18   9  27  1   
 19   9  28  1   
 20  10  11  1   
 21  10  12  1   
 22  10  29  1   
 23  11  13  1   
 24  11  30  1   
 25  11  31  1   
 26  12  14  1   
 27  12  32  1   
 28  12  33  1   
 29  13  15  ar  
 30  13  16  ar  
 31  14  34  1   
 32  14  35  1   
 33  14  36  1   
 34  15  17  ar  
 35  15  37  1   
 36  16  18  ar  
 37  16  38  1   
 38  17  19  ar  
 39  17  39  1   
 40  18  19  ar  
 41  18  40  1   
 42  19  41  1   
@<TRIPOS>SUBSTRUCTURE
  1 ****   9 GROUP 4 **** **** 0

# MOE 2024.06 (io_trps.svl 2023.06)
