@<TRIPOS>MOLECULE
NONAME
18 18 1 0 0 
SMALL
USER_CHARGES


@<TRIPOS>ATOM
  1 S        0.1870     0.1720     0.9190 S.o2  1 <1>   1.2570 
  2 O        0.6520     1.5040     1.2350 O.2   1 <1>  -0.6500 
  3 O        0.4460    -0.9100     1.8420 O.2   1 <1>  -0.6500 
  4 C       -1.5750     0.2470     0.5380 C.2   1 <1>  -0.0220 
  5 C        0.9200    -0.2770    -0.6430 C.3   1 <1>  -0.1350 
  6 S       -2.3050    -1.1090    -0.3190 S.3   1 <1>  -0.0800 
  7 C       -2.5230     1.1720     0.7930 C.2   1 <1>  -0.1500 
  8 C       -3.8880    -0.3540    -0.3040 C.2   1 <1>  -0.1400 
  9 C       -3.8300     0.8370     0.3170 C.2   1 <1>  -0.1500 
 10 C       -5.0270    -1.1120    -0.9530 C.3   1 <1>  -0.0600 
 11 H        0.5790    -1.2450    -0.9550 H     1 <1>   0.0800 
 12 H        1.9880    -0.3090    -0.5490 H     1 <1>   0.0800 
 13 H        0.6640     0.4420    -1.3960 H     1 <1>   0.0800 
 14 H       -2.3480     2.1000     1.3130 H     1 <1>   0.1500 
 15 H       -4.6600     1.5060     0.4660 H     1 <1>   0.1500 
 16 H       -4.8090    -1.2830    -1.9920 H     1 <1>   0.0800 
 17 H       -5.9390    -0.5490    -0.8760 H     1 <1>   0.0800 
 18 H       -5.1610    -2.0600    -0.4630 H     1 <1>   0.0800 
@<TRIPOS>BOND
  1   1   2  2   
  2   1   3  2   
  3   1   4  1   
  4   1   5  1   
  5   4   6  1   
  6   4   7  2   
  7   5  11  1   
  8   5  12  1   
  9   5  13  1   
 10   6   8  1   
 11   7   9  1   
 12   7  14  1   
 13   8   9  2   
 14   8  10  1   
 15   9  15  1   
 16  10  16  1   
 17  10  17  1   
 18  10  18  1   
@<TRIPOS>SUBSTRUCTURE
  1 ****   4 GROUP 4 **** **** 0

# MOE 2024.06 (io_trps.svl 2023.06)
