@<TRIPOS>MOLECULE
NONAME
51 53 1 0 0 
SMALL
USER_CHARGES


@<TRIPOS>ATOM
  1 S        0.1200     0.2350     0.7690 S.o2  1 <1>   1.4470 
  2 O       -0.6940     1.0810    -0.0780 O.2   1 <1>  -0.6500 
  3 O        0.5350     0.7200     2.0670 O.2   1 <1>  -0.6500 
  4 N        1.5310    -0.1170    -0.0990 N.am  1 <1>  -0.8490 
  5 C       -0.6640    -1.3900     0.9600 C.ar  1 <1>  -0.0090 
  6 C        2.4640     1.0190    -0.0820 C.3   1 <1>   0.1960 
  7 C        1.2630    -0.5030    -1.4960 C.3   1 <1>   0.1960 
  8 C       -1.7020    -1.7860     0.1300 C.ar  1 <1>  -0.1500 
  9 C       -0.2270    -2.2920     1.9210 C.ar  1 <1>  -0.1500 
 10 C        3.7440     0.7030    -0.8790 C.3   1 <1>   0.1200 
 11 C        2.5730    -0.7900    -2.2510 C.3   1 <1>   0.1200 
 12 C       -2.3090    -3.0350     0.2300 C.ar  1 <1>   0.0860 
 13 C       -0.8100    -3.5400     2.0460 C.ar  1 <1>  -0.1500 
 14 O        3.4290     0.3160    -2.1870 O.3   1 <1>  -0.5600 
 15 C       -1.8440    -3.9180     1.2080 C.ar  1 <1>  -0.1430 
 16 C       -3.3920    -3.3640    -0.6750 C.2   1 <1>   0.5440 
 17 C       -2.4690    -5.2990     1.3550 C.3   1 <1>  -0.0960 
 18 O       -3.1560    -4.0660    -1.6410 O.2   1 <1>  -0.5700 
 19 N       -4.6710    -2.8800    -0.4790 N.am  1 <1>  -0.6600 
 20 C       -5.0790    -2.1360     0.7480 C.3   1 <1>   0.1400 
 21 C       -5.7170    -3.0740    -1.5180 C.3   1 <1>   0.1400 
 22 C       -5.9110    -0.8780     0.4570 C.3   1 <1>  -0.1600 
 23 C       -5.6210    -1.9520    -2.5590 C.3   1 <1>  -0.1600 
 24 C       -5.4690    -0.0730    -0.7780 C.3   1 <1>  -0.1600 
 25 C       -6.1180    -0.5800    -2.0760 C.3   1 <1>  -0.1600 
 26 H        2.7370     1.2470     0.9350 H     1 <1>   0.0800 
 27 H        1.9920     1.8920    -0.5030 H     1 <1>   0.0800 
 28 H        0.7350     0.2850    -2.0080 H     1 <1>   0.0800 
 29 H        0.6500    -1.3870    -1.5180 H     1 <1>   0.0800 
 30 H       -2.0610    -1.1080    -0.6260 H     1 <1>   0.1500 
 31 H        0.5810    -2.0110     2.5770 H     1 <1>   0.1500 
 32 H        4.2940    -0.0930    -0.4060 H     1 <1>   0.0800 
 33 H        4.3720     1.5740    -0.9350 H     1 <1>   0.0800 
 34 H        2.3700    -0.9880    -3.2890 H     1 <1>   0.0800 
 35 H        3.0760    -1.6410    -1.8260 H     1 <1>   0.0800 
 36 H       -0.4460    -4.2160     2.8010 H     1 <1>   0.1500 
 37 H       -3.5220    -5.2100     1.5560 H     1 <1>   0.0800 
 38 H       -2.0140    -5.8490     2.1590 H     1 <1>   0.0800 
 39 H       -2.3390    -5.8570     0.4440 H     1 <1>   0.0800 
 40 H       -4.2080    -1.8350     1.3020 H     1 <1>   0.0800 
 41 H       -5.6460    -2.7970     1.3810 H     1 <1>   0.0800 
 42 H       -6.6940    -3.0940    -1.0680 H     1 <1>   0.0800 
 43 H       -5.5630    -4.0220    -2.0050 H     1 <1>   0.0800 
 44 H       -5.8400    -0.2430     1.3220 H     1 <1>   0.0800 
 45 H       -6.9480    -1.1490     0.3650 H     1 <1>   0.0800 
 46 H       -6.2080    -2.2390    -3.4120 H     1 <1>   0.0800 
 47 H       -4.6000    -1.8750    -2.8920 H     1 <1>   0.0800 
 48 H       -4.3960    -0.0750    -0.8680 H     1 <1>   0.0800 
 49 H       -5.7750     0.9490    -0.6370 H     1 <1>   0.0800 
 50 H       -7.1860    -0.6180    -1.9450 H     1 <1>   0.0800 
 51 H       -5.9230     0.1370    -2.8550 H     1 <1>   0.0800 
@<TRIPOS>BOND
  1   1   2  2   
  2   1   3  2   
  3   1   4  am  
  4   1   5  1   
  5   4   6  1   
  6   4   7  1   
  7   5   8  ar  
  8   5   9  ar  
  9   6  10  1   
 10   6  26  1   
 11   6  27  1   
 12   7  11  1   
 13   7  28  1   
 14   7  29  1   
 15   8  12  ar  
 16   8  30  1   
 17   9  13  ar  
 18   9  31  1   
 19  10  14  1   
 20  10  32  1   
 21  10  33  1   
 22  11  14  1   
 23  11  34  1   
 24  11  35  1   
 25  12  15  ar  
 26  12  16  1   
 27  13  15  ar  
 28  13  36  1   
 29  15  17  1   
 30  16  18  2   
 31  16  19  am  
 32  17  37  1   
 33  17  38  1   
 34  17  39  1   
 35  19  20  1   
 36  19  21  1   
 37  20  22  1   
 38  20  40  1   
 39  20  41  1   
 40  21  23  1   
 41  21  42  1   
 42  21  43  1   
 43  22  24  1   
 44  22  44  1   
 45  22  45  1   
 46  23  25  1   
 47  23  46  1   
 48  23  47  1   
 49  24  25  1   
 50  24  48  1   
 51  24  49  1   
 52  25  50  1   
 53  25  51  1   
@<TRIPOS>SUBSTRUCTURE
  1 ****   8 GROUP 4 **** **** 0

# MOE 2024.06 (io_trps.svl 2023.06)
