@<TRIPOS>MOLECULE
NONAME
42 42 1 0 0 
SMALL
USER_CHARGES


@<TRIPOS>ATOM
  1 O       -7.8170     0.9160    -0.3130 O.2   1 <1>  -0.5700 
  2 C       -8.8450     1.4020    -0.7290 C.2   1 <1>   0.5690 
  3 N       -9.8510     0.5980    -1.1270 N.am  1 <1>  -0.8000 
  4 C       -8.9930     2.9200    -0.7960 C.3   1 <1>   0.1810 
  5 O       -7.7080     3.5250    -0.7670 O.3   1 <1>  -0.3630 
  6 C       -7.4920     4.5020     0.1460 C.ar  1 <1>   0.0830 
  7 C       -8.1160     5.7430    -0.0060 C.ar  1 <1>   0.0830 
  8 C       -6.6200     4.2610     1.2070 C.ar  1 <1>  -0.1430 
  9 O       -8.9630     5.9120    -1.0610 O.3   1 <1>  -0.3630 
 10 C       -7.8500     6.7510     0.9140 C.ar  1 <1>  -0.1500 
 11 C       -6.3700     5.2870     2.1080 C.ar  1 <1>  -0.1500 
 12 C       -5.9420     2.9190     1.4540 C.3   1 <1>   0.4860 
 13 C       -9.4970     7.1800    -1.3800 C.3   1 <1>   0.0400 
 14 C       -6.9780     6.5200     1.9620 C.ar  1 <1>  -0.1500 
 15 N       -5.4410     2.3380     0.1940 N.4   1 <1>  -0.9060 
 16 C       -4.3640     1.3630     0.2440 C.3   1 <1>   0.5030 
 17 C       -4.7320     0.2210     1.1900 C.3   1 <1>  -0.2400 
 18 C       -3.0800     2.0580     0.6930 C.3   1 <1>  -0.2400 
 19 C       -4.2040     0.8330    -1.1760 C.3   1 <1>  -0.2400 
 20 H       -9.7400    -0.4170    -1.0790 H     1 <1>   0.3700 
 21 H      -10.7460     0.9230    -1.4980 H     1 <1>   0.3700 
 22 H       -9.5710     3.2690     0.0410 H     1 <1>   0.0800 
 23 H       -9.4730     3.2150    -1.7110 H     1 <1>   0.0800 
 24 H       -8.3090     7.7190     0.8350 H     1 <1>   0.1500 
 25 H       -5.7020     5.1410     2.9420 H     1 <1>   0.1500 
 26 H       -6.6440     2.2390     1.9100 H     1 <1>   0.0800 
 27 H       -5.1230     3.0660     2.1370 H     1 <1>   0.0800 
 28 H      -10.0740     7.0830    -2.2830 H     1 <1>   0.0800 
 29 H       -8.6890     7.8710    -1.5390 H     1 <1>   0.0800 
 30 H      -10.1330     7.5060    -0.5760 H     1 <1>   0.0800 
 31 H       -6.7760     7.3080     2.6700 H     1 <1>   0.1500 
 32 H       -5.2150     3.1020    -0.4450 H     1 <1>   0.4500 
 33 H       -6.2650     1.8740    -0.2320 H     1 <1>   0.4500 
 34 H       -5.6640    -0.2330     0.9000 H     1 <1>   0.0800 
 35 H       -4.8010     0.5530     2.2100 H     1 <1>   0.0800 
 36 H       -3.9720    -0.5400     1.1520 H     1 <1>   0.0800 
 37 H       -3.1530     2.4090     1.7060 H     1 <1>   0.0800 
 38 H       -2.8430     2.8840     0.0460 H     1 <1>   0.0800 
 39 H       -2.2600     1.3630     0.6510 H     1 <1>   0.0800 
 40 H       -5.1080     0.3520    -1.5090 H     1 <1>   0.0800 
 41 H       -3.4130     0.1050    -1.2100 H     1 <1>   0.0800 
 42 H       -3.9540     1.6240    -1.8600 H     1 <1>   0.0800 
@<TRIPOS>BOND
  1   1   2  2   
  2   2   3  am  
  3   2   4  1   
  4   3  20  1   
  5   3  21  1   
  6   4   5  1   
  7   4  22  1   
  8   4  23  1   
  9   5   6  1   
 10   6   7  ar  
 11   6   8  ar  
 12   7   9  1   
 13   7  10  ar  
 14   8  11  ar  
 15   8  12  1   
 16   9  13  1   
 17  10  14  ar  
 18  10  24  1   
 19  11  14  ar  
 20  11  25  1   
 21  12  15  1   
 22  12  26  1   
 23  12  27  1   
 24  13  28  1   
 25  13  29  1   
 26  13  30  1   
 27  14  31  1   
 28  15  16  1   
 29  15  32  1   
 30  15  33  1   
 31  16  17  1   
 32  16  18  1   
 33  16  19  1   
 34  17  34  1   
 35  17  35  1   
 36  17  36  1   
 37  18  37  1   
 38  18  38  1   
 39  18  39  1   
 40  19  40  1   
 41  19  41  1   
 42  19  42  1   
@<TRIPOS>SUBSTRUCTURE
  1 ****   5 GROUP 4 **** **** 0

# MOE 2024.06 (io_trps.svl 2023.06)
