@<TRIPOS>MOLECULE
NONAME
43 44 1 0 0 
SMALL
USER_CHARGES


@<TRIPOS>ATOM
  1 S       -0.1220    -0.1950     0.8120 S.o2  1 <1>   1.4470 
  2 O       -0.3000     1.2170     0.5500 O.2   1 <1>  -0.6500 
  3 O        0.7540    -0.6100     1.8870 O.2   1 <1>  -0.6500 
  4 N        0.4800    -0.8860    -0.6190 N.am  1 <1>  -0.8490 
  5 C       -1.7340    -1.0050     1.0210 C.ar  1 <1>  -0.0090 
  6 C        1.9200    -0.6600    -0.7700 C.3   1 <1>   0.1160 
  7 C       -0.2260    -0.4310    -1.8220 C.3   1 <1>   0.1160 
  8 C       -2.9040    -0.4060     0.5730 C.ar  1 <1>  -0.1500 
  9 C       -1.8330    -2.2600     1.6080 C.ar  1 <1>  -0.1500 
 10 C       -4.1540    -1.0120     0.6900 C.ar  1 <1>   0.0860 
 11 C       -3.0560    -2.8910     1.7420 C.ar  1 <1>  -0.1500 
 12 C       -5.3460    -0.3470     0.1980 C.2   1 <1>   0.5440 
 13 C       -4.2040    -2.2730     1.2840 C.ar  1 <1>  -0.1500 
 14 O       -5.2850     0.3430    -0.8000 O.2   1 <1>  -0.5700 
 15 N       -6.5340    -0.4860     0.8660 N.am  1 <1>  -0.7300 
 16 C       -7.8530     0.1030     0.5400 C.3   1 <1>   0.2200 
 17 C       -8.3570    -0.3800    -0.8260 C.3   1 <1>  -0.1600 
 18 C       -7.8090     1.6340     0.6220 C.3   1 <1>  -0.1600 
 19 C       -9.7310     0.2250    -1.1490 C.3   1 <1>  -0.1600 
 20 C       -9.1840     2.2400     0.2980 C.3   1 <1>  -0.1600 
 21 C       -9.6920     1.7580    -1.0680 C.3   1 <1>  -0.1600 
 22 H        2.4490    -1.0850     0.0670 H     1 <1>   0.0800 
 23 H        2.1310     0.3960    -0.8130 H     1 <1>   0.0800 
 24 H        2.2790    -1.1310    -1.6680 H     1 <1>   0.0800 
 25 H       -1.2760    -0.6520    -1.7440 H     1 <1>   0.0800 
 26 H        0.1590    -0.9390    -2.6900 H     1 <1>   0.0800 
 27 H       -0.1030     0.6310    -1.9560 H     1 <1>   0.0800 
 28 H       -2.8510     0.5670     0.1130 H     1 <1>   0.1500 
 29 H       -0.9380    -2.7470     1.9610 H     1 <1>   0.1500 
 30 H       -3.1100    -3.8660     2.1980 H     1 <1>   0.1500 
 31 H       -5.1480    -2.7790     1.3780 H     1 <1>   0.1500 
 32 H       -6.5140    -0.9700     1.7620 H     1 <1>   0.3700 
 33 H       -8.5530    -0.2420     1.2830 H     1 <1>   0.0800 
 34 H       -8.4280    -1.4530    -0.8260 H     1 <1>   0.0800 
 35 H       -7.6640    -0.0850    -1.5940 H     1 <1>   0.0800 
 36 H       -7.0920     2.0130    -0.0850 H     1 <1>   0.0800 
 37 H       -7.5070     1.9350     1.6080 H     1 <1>   0.0800 
 38 H      -10.4610    -0.1500    -0.4520 H     1 <1>   0.0800 
 39 H      -10.0320    -0.0750    -2.1370 H     1 <1>   0.0800 
 40 H       -9.1100     3.3140     0.2970 H     1 <1>   0.0800 
 41 H       -9.8890     1.9580     1.0610 H     1 <1>   0.0800 
 42 H      -10.6770     2.1550    -1.2480 H     1 <1>   0.0800 
 43 H       -9.0410     2.1350    -1.8390 H     1 <1>   0.0800 
@<TRIPOS>BOND
  1   1   2  2   
  2   1   3  2   
  3   1   4  am  
  4   1   5  1   
  5   4   6  1   
  6   4   7  1   
  7   5   8  ar  
  8   5   9  ar  
  9   6  22  1   
 10   6  23  1   
 11   6  24  1   
 12   7  25  1   
 13   7  26  1   
 14   7  27  1   
 15   8  10  ar  
 16   8  28  1   
 17   9  11  ar  
 18   9  29  1   
 19  10  12  1   
 20  10  13  ar  
 21  11  13  ar  
 22  11  30  1   
 23  12  14  2   
 24  12  15  am  
 25  13  31  1   
 26  15  16  1   
 27  15  32  1   
 28  16  17  1   
 29  16  18  1   
 30  16  33  1   
 31  17  19  1   
 32  17  34  1   
 33  17  35  1   
 34  18  20  1   
 35  18  36  1   
 36  18  37  1   
 37  19  21  1   
 38  19  38  1   
 39  19  39  1   
 40  20  21  1   
 41  20  40  1   
 42  20  41  1   
 43  21  42  1   
 44  21  43  1   
@<TRIPOS>SUBSTRUCTURE
  1 ****  10 GROUP 4 **** **** 0

# MOE 2024.06 (io_trps.svl 2023.06)
