@<TRIPOS>MOLECULE
NONAME
56 58 1 0 0 
SMALL
USER_CHARGES


@<TRIPOS>ATOM
  1 O       -0.7270    -0.8430     1.9480 O.2   1 <1>  -0.5700 
  2 C       -1.2820    -1.7700     1.3950 C.2   1 <1>   0.6900 
  3 N       -0.5800    -2.5630     0.4940 N.am  1 <1>  -0.4200 
  4 N       -2.6170    -2.0330     1.6640 N.am  1 <1>  -0.4360 
  5 C       -1.1890    -3.6330    -0.1490 C.2   1 <1>   0.7030 
  6 C        0.8660    -2.2650     0.2480 C.3   1 <1>   0.0600 
  7 C       -3.2270    -3.0660     0.9770 C.2   1 <1>   0.4260 
  8 C       -3.3640    -1.2200     2.6700 C.3   1 <1>   0.0600 
  9 O       -0.5490    -4.3600    -0.8890 O.2   1 <1>  -0.5700 
 10 C       -2.5860    -3.8620     0.0880 C.2   1 <1>   0.2770 
 11 N       -4.5210    -3.4690     1.0520 N.pl3 1 <1>  -0.7000 
 12 N       -3.5370    -4.7710    -0.3900 N.pl3 1 <1>  -0.7640 
 13 C       -4.6820    -4.5050     0.2340 C.cat 1 <1>   0.6560 
 14 C       -3.2360    -5.8800    -1.3520 C.3   1 <1>   0.3540 
 15 C       -6.0310    -5.2380     0.0790 C.3   1 <1>   0.2540 
 16 C       -3.0320    -7.2160    -0.6230 C.3   1 <1>   0.1200 
 17 N       -7.2140    -4.3260    -0.0320 N.3   1 <1>  -0.8100 
 18 O       -4.1630    -7.5140     0.1460 O.3   1 <1>  -0.5600 
 19 C       -7.2450    -3.6170    -1.3420 C.3   1 <1>   0.1100 
 20 C       -8.4770    -5.0920     0.1540 C.3   1 <1>   0.1100 
 21 C       -4.0650    -8.7240     0.8340 C.3   1 <1>   0.0400 
 22 C       -8.5270    -2.7690    -1.5550 C.3   1 <1>   0.3430 
 23 C       -9.7510    -4.2180     0.0210 C.3   1 <1>   0.3430 
 24 N       -9.4210    -2.8000    -0.3520 N.4   1 <1>  -0.9590 
 25 C      -10.6150    -1.9310    -0.5200 C.3   1 <1>   0.3430 
 26 C      -11.2850    -1.7060     0.8300 C.3   1 <1>  -0.2400 
 27 H        1.0220    -1.2010     0.1980 H     1 <1>   0.0800 
 28 H        1.2010    -2.6970    -0.6800 H     1 <1>   0.0800 
 29 H        1.4580    -2.6640     1.0530 H     1 <1>   0.0800 
 30 H       -2.6840    -0.7830     3.3820 H     1 <1>   0.0800 
 31 H       -4.0590    -1.8360     3.2120 H     1 <1>   0.0800 
 32 H       -3.8950    -0.4260     2.1730 H     1 <1>   0.0800 
 33 H       -5.2570    -3.0730     1.6370 H     1 <1>   0.4500 
 34 H       -2.3530    -5.6490    -1.9230 H     1 <1>   0.0800 
 35 H       -4.0450    -5.9860    -2.0530 H     1 <1>   0.0800 
 36 H       -6.1460    -5.8630     0.9470 H     1 <1>   0.0800 
 37 H       -5.9930    -5.8880    -0.7770 H     1 <1>   0.0800 
 38 H       -2.1730    -7.1560     0.0240 H     1 <1>   0.0800 
 39 H       -2.8820    -8.0060    -1.3390 H     1 <1>   0.0800 
 40 H       -7.1750    -4.3310    -2.1470 H     1 <1>   0.0800 
 41 H       -6.3910    -2.9660    -1.4190 H     1 <1>   0.0800 
 42 H       -8.4800    -5.5500     1.1300 H     1 <1>   0.0800 
 43 H       -8.5320    -5.8890    -0.5700 H     1 <1>   0.0800 
 44 H       -4.9700    -8.8700     1.3970 H     1 <1>   0.0800 
 45 H       -3.2240    -8.6870     1.5060 H     1 <1>   0.0800 
 46 H       -3.9470    -9.5290     0.1290 H     1 <1>   0.0800 
 47 H       -9.0590    -3.1490    -2.4120 H     1 <1>   0.0800 
 48 H       -8.2420    -1.7530    -1.7760 H     1 <1>   0.0800 
 49 H      -10.2810    -4.2360     0.9590 H     1 <1>   0.0800 
 50 H      -10.3990    -4.6530    -0.7230 H     1 <1>   0.0800 
 51 H       -8.8480    -2.4430     0.4250 H     1 <1>   0.4500 
 52 H      -11.3120    -2.3830    -1.2090 H     1 <1>   0.0800 
 53 H      -10.3140    -0.9760    -0.9220 H     1 <1>   0.0800 
 54 H      -11.6930    -2.6170     1.2260 H     1 <1>   0.0800 
 55 H      -12.1000    -1.0140     0.7050 H     1 <1>   0.0800 
 56 H      -10.5950    -1.2780     1.5350 H     1 <1>   0.0800 
@<TRIPOS>BOND
  1   1   2  2   
  2   2   3  am  
  3   2   4  am  
  4   3   5  am  
  5   3   6  1   
  6   4   7  1   
  7   4   8  1   
  8   5   9  2   
  9   5  10  1   
 10   6  27  1   
 11   6  28  1   
 12   6  29  1   
 13   7  10  2   
 14   7  11  1   
 15   8  30  1   
 16   8  31  1   
 17   8  32  1   
 18  10  12  1   
 19  11  13  ar  
 20  11  33  1   
 21  12  13  ar  
 22  12  14  1   
 23  13  15  1   
 24  14  16  1   
 25  14  34  1   
 26  14  35  1   
 27  15  17  1   
 28  15  36  1   
 29  15  37  1   
 30  16  18  1   
 31  16  38  1   
 32  16  39  1   
 33  17  19  1   
 34  17  20  1   
 35  18  21  1   
 36  19  22  1   
 37  19  40  1   
 38  19  41  1   
 39  20  23  1   
 40  20  42  1   
 41  20  43  1   
 42  21  44  1   
 43  21  45  1   
 44  21  46  1   
 45  22  24  1   
 46  22  47  1   
 47  22  48  1   
 48  23  24  1   
 49  23  49  1   
 50  23  50  1   
 51  24  25  1   
 52  24  51  1   
 53  25  26  1   
 54  25  52  1   
 55  25  53  1   
 56  26  54  1   
 57  26  55  1   
 58  26  56  1   
@<TRIPOS>SUBSTRUCTURE
  1 ****  13 GROUP 4 **** **** 0

# MOE 2024.06 (io_trps.svl 2023.06)
