@<TRIPOS>MOLECULE
NONAME
46 48 1 0 0 
SMALL
USER_CHARGES


@<TRIPOS>ATOM
  1 O       -0.4970    -0.8530    -0.9240 O.3   1 <1>  -0.3630 
  2 C       -1.6270    -1.2060    -0.2560 C.ar  1 <1>   0.0830 
  3 C        0.4350     0.0600    -0.3870 C.3   1 <1>   0.0400 
  4 C       -2.4260    -2.1960    -0.8190 C.ar  1 <1>  -0.1440 
  5 C       -2.0040    -0.6240     0.9510 C.ar  1 <1>  -0.1500 
  6 C       -3.5880    -2.5900    -0.1780 C.ar  1 <1>  -0.1500 
  7 C       -2.0230    -2.8530    -2.1340 C.3   1 <1>  -0.0960 
  8 C       -3.1680    -1.0200     1.5830 C.ar  1 <1>  -0.1500 
  9 C       -3.9700    -2.0010     1.0190 C.ar  1 <1>  -0.1440 
 10 C       -5.2590    -2.4190     1.6990 C.3   1 <1>   0.4860 
 11 N       -6.4010    -1.9060     0.8980 N.4   1 <1>  -0.9590 
 12 C       -6.3990    -0.3980     0.8130 C.3   1 <1>   0.3430 
 13 C       -7.7250    -2.4130     1.4050 C.3   1 <1>   0.3430 
 14 C       -7.5770     0.1450    -0.0200 C.3   1 <1>   0.2090 
 15 C       -8.9120    -1.8870     0.5730 C.3   1 <1>   0.2090 
 16 N       -8.8860    -0.3990     0.4540 N.pl3 1 <1>  -0.8380 
 17 C       -9.9740     0.1250    -0.2080 C.ar  1 <1>   0.4100 
 18 N      -10.0980    -0.2130    -1.4840 N.ar  1 <1>  -0.6200 
 19 C      -10.8640     0.9570     0.4630 C.ar  1 <1>  -0.1500 
 20 C      -11.1460     0.2980    -2.1110 C.ar  1 <1>   0.1600 
 21 C      -11.9480     1.4800    -0.2010 C.ar  1 <1>  -0.1500 
 22 C      -12.0840     1.1340    -1.5300 C.ar  1 <1>  -0.1500 
 23 H        1.2550     0.1420    -1.0770 H     1 <1>   0.0800 
 24 H        0.7890    -0.3160     0.5560 H     1 <1>   0.0800 
 25 H       -0.0400     1.0180    -0.2700 H     1 <1>   0.0800 
 26 H       -1.4010     0.1370     1.4090 H     1 <1>   0.1500 
 27 H       -4.1890    -3.3640    -0.6220 H     1 <1>   0.1500 
 28 H       -1.9600    -2.1090    -2.9080 H     1 <1>   0.0800 
 29 H       -2.7300    -3.6030    -2.4350 H     1 <1>   0.0800 
 30 H       -1.0580    -3.3160    -2.0270 H     1 <1>   0.0800 
 31 H       -3.4330    -0.5550     2.5180 H     1 <1>   0.1500 
 32 H       -5.2940    -2.0190     2.6990 H     1 <1>   0.0800 
 33 H       -5.2960    -3.4940     1.7570 H     1 <1>   0.0800 
 34 H       -6.2710    -2.2460    -0.0630 H     1 <1>   0.4500 
 35 H       -5.4760    -0.0560     0.3720 H     1 <1>   0.0800 
 36 H       -6.4670     0.0200     1.8030 H     1 <1>   0.0800 
 37 H       -7.8670    -2.0950     2.4250 H     1 <1>   0.0800 
 38 H       -7.7380    -3.4900     1.3880 H     1 <1>   0.0800 
 39 H       -7.4350    -0.1110    -1.0560 H     1 <1>   0.0800 
 40 H       -7.5960     1.2190     0.0490 H     1 <1>   0.0800 
 41 H       -9.8350    -2.1860     1.0400 H     1 <1>   0.0800 
 42 H       -8.8870    -2.3280    -0.4100 H     1 <1>   0.0800 
 43 H      -10.6890     1.1800     1.4980 H     1 <1>   0.1500 
 44 H      -11.2660     0.0370    -3.1490 H     1 <1>   0.1500 
 45 H      -12.6560     2.1280     0.2880 H     1 <1>   0.1500 
 46 H      -12.9090     1.5070    -2.1090 H     1 <1>   0.1500 
@<TRIPOS>BOND
  1   1   2  1   
  2   1   3  1   
  3   2   4  ar  
  4   2   5  ar  
  5   3  23  1   
  6   3  24  1   
  7   3  25  1   
  8   4   6  ar  
  9   4   7  1   
 10   5   8  ar  
 11   5  26  1   
 12   6   9  ar  
 13   6  27  1   
 14   7  28  1   
 15   7  29  1   
 16   7  30  1   
 17   8   9  ar  
 18   8  31  1   
 19   9  10  1   
 20  10  11  1   
 21  10  32  1   
 22  10  33  1   
 23  11  12  1   
 24  11  13  1   
 25  11  34  1   
 26  12  14  1   
 27  12  35  1   
 28  12  36  1   
 29  13  15  1   
 30  13  37  1   
 31  13  38  1   
 32  14  16  1   
 33  14  39  1   
 34  14  40  1   
 35  15  16  1   
 36  15  41  1   
 37  15  42  1   
 38  16  17  1   
 39  17  18  ar  
 40  17  19  ar  
 41  18  20  ar  
 42  19  21  ar  
 43  19  43  1   
 44  20  22  ar  
 45  20  44  1   
 46  21  22  ar  
 47  21  45  1   
 48  22  46  1   
@<TRIPOS>SUBSTRUCTURE
  1 ****  12 GROUP 4 **** **** 0

# MOE 2024.06 (io_trps.svl 2023.06)
