@<TRIPOS>MOLECULE
NONAME
51 54 1 0 0 
SMALL
USER_CHARGES


@<TRIPOS>ATOM
  1 F       -1.9450    -2.7410    -1.1610 F     1 <1>  -0.1900 
  2 C       -3.1920    -2.5390    -0.8420 C.ar  1 <1>   0.1900 
  3 C       -3.6560    -2.9990     0.3740 C.ar  1 <1>  -0.1500 
  4 C       -4.0120    -1.8720    -1.7310 C.ar  1 <1>  -0.1500 
  5 C       -4.9810    -2.7750     0.7060 C.ar  1 <1>  -0.1500 
  6 C       -5.3340    -1.6590    -1.3840 C.ar  1 <1>  -0.1500 
  7 C       -5.8500    -2.0950    -0.1560 C.ar  1 <1>   0.0860 
  8 C       -7.2330    -1.8680     0.2310 C.2   1 <1>   0.5440 
  9 O       -7.8250    -2.7100     0.8890 O.2   1 <1>  -0.5700 
 10 N       -7.9130    -0.7000    -0.1090 N.am  1 <1>  -0.2860 
 11 C       -7.2490     0.5330    -0.2760 C.ar  1 <1>   0.1170 
 12 C       -9.3170    -0.6960    -0.0640 C.2   1 <1>  -0.0290 
 13 C       -6.3550     1.0030     0.6810 C.ar  1 <1>  -0.1500 
 14 C       -7.4860     1.3070    -1.4060 C.ar  1 <1>  -0.1500 
 15 C      -10.1020    -1.3150    -0.9600 C.2   1 <1>  -0.2880 
 16 C       -9.9320     0.0020     1.1460 C.3   1 <1>  -0.0220 
 17 C       -5.7050     2.2120     0.5110 C.ar  1 <1>  -0.1500 
 18 C       -6.8390     2.5170    -1.5790 C.ar  1 <1>  -0.1500 
 19 C      -11.6100    -1.3800    -0.8080 C.3   1 <1>   0.5610 
 20 C      -11.4760    -0.1010     1.1300 C.3   1 <1>   0.4230 
 21 C       -5.9450     2.9780    -0.6270 C.ar  1 <1>   0.0830 
 22 N      -11.9080    -1.4420     0.6420 N.4   1 <1>  -0.9590 
 23 C      -12.2080    -0.0340    -1.2000 C.3   1 <1>  -0.1600 
 24 C      -12.0840     0.8260     0.0690 C.3   1 <1>  -0.1600 
 25 O       -5.3510     4.1730    -0.8770 O.3   1 <1>  -0.3630 
 26 C      -11.2920    -2.6230     1.3440 C.3   1 <1>   0.2630 
 27 C       -4.3910     4.7090     0.0070 C.3   1 <1>   0.0400 
 28 H       -2.9920    -3.5200     1.0410 H     1 <1>   0.1500 
 29 H       -3.6170    -1.5310    -2.6720 H     1 <1>   0.1500 
 30 H       -5.3560    -3.1340     1.6490 H     1 <1>   0.1500 
 31 H       -5.9760    -1.1460    -2.0790 H     1 <1>   0.1500 
 32 H       -6.1630     0.4210     1.5650 H     1 <1>   0.1500 
 33 H       -8.1750     0.9610    -2.1550 H     1 <1>   0.1500 
 34 H       -9.7260    -1.8210    -1.8320 H     1 <1>   0.1500 
 35 H       -9.6330     1.0350     1.1740 H     1 <1>   0.0800 
 36 H       -9.5580    -0.4590     2.0430 H     1 <1>   0.0800 
 37 H       -5.0190     2.5420     1.2680 H     1 <1>   0.1500 
 38 H       -7.0200     3.1150    -2.4540 H     1 <1>   0.1500 
 39 H      -12.0350    -2.2120    -1.3480 H     1 <1>   0.0800 
 40 H      -11.8750     0.1180     2.1080 H     1 <1>   0.0800 
 41 H      -12.9280    -1.4900     0.7330 H     1 <1>   0.4500 
 42 H      -13.2400    -0.1600    -1.4740 H     1 <1>   0.0800 
 43 H      -11.6820     0.3970    -2.0340 H     1 <1>   0.0800 
 44 H      -11.4730     1.6970    -0.0990 H     1 <1>   0.0800 
 45 H      -13.0560     1.1590     0.3910 H     1 <1>   0.0800 
 46 H      -10.2190    -2.6190     1.2360 H     1 <1>   0.0800 
 47 H      -11.6680    -3.5430     0.9270 H     1 <1>   0.0800 
 48 H      -11.5280    -2.5990     2.3950 H     1 <1>   0.0800 
 49 H       -4.0470     5.6430    -0.4010 H     1 <1>   0.0800 
 50 H       -3.5670     4.0210     0.0870 H     1 <1>   0.0800 
 51 H       -4.8510     4.8760     0.9640 H     1 <1>   0.0800 
@<TRIPOS>BOND
  1   1   2  1   
  2   2   3  ar  
  3   2   4  ar  
  4   3   5  ar  
  5   3  28  1   
  6   4   6  ar  
  7   4  29  1   
  8   5   7  ar  
  9   5  30  1   
 10   6   7  ar  
 11   6  31  1   
 12   7   8  1   
 13   8   9  2   
 14   8  10  am  
 15  10  11  1   
 16  10  12  1   
 17  11  13  ar  
 18  11  14  ar  
 19  12  15  2   
 20  12  16  1   
 21  13  17  ar  
 22  13  32  1   
 23  14  18  ar  
 24  14  33  1   
 25  15  19  1   
 26  15  34  1   
 27  16  20  1   
 28  16  35  1   
 29  16  36  1   
 30  17  21  ar  
 31  17  37  1   
 32  18  21  ar  
 33  18  38  1   
 34  19  22  1   
 35  19  23  1   
 36  19  39  1   
 37  20  22  1   
 38  20  24  1   
 39  20  40  1   
 40  21  25  1   
 41  22  26  1   
 42  22  41  1   
 43  23  24  1   
 44  23  42  1   
 45  23  43  1   
 46  24  44  1   
 47  24  45  1   
 48  25  27  1   
 49  26  46  1   
 50  26  47  1   
 51  26  48  1   
 52  27  49  1   
 53  27  50  1   
 54  27  51  1   
@<TRIPOS>SUBSTRUCTURE
  1 ****  10 GROUP 4 **** **** 0

# MOE 2024.06 (io_trps.svl 2023.06)
