@<TRIPOS>MOLECULE
NONAME
45 47 1 0 0 
SMALL
USER_CHARGES


@<TRIPOS>ATOM
  1 O       -0.1990    -0.0030    -1.1240 O.2   1 <1>  -0.5700 
  2 C       -0.2430    -1.1720    -0.7900 C.2   1 <1>   0.6900 
  3 N       -1.3890    -1.8980    -0.9590 N.am  1 <1>  -0.6600 
  4 N        0.8380    -1.7660    -0.2340 N.am  1 <1>  -0.7300 
  5 C       -2.6680    -1.2020    -1.3060 C.3   1 <1>   0.3200 
  6 C       -1.4500    -3.3880    -0.9150 C.3   1 <1>   0.0600 
  7 C        2.1260    -1.1120     0.0400 C.3   1 <1>   0.2200 
  8 C       -3.8210    -1.6440    -0.4150 C.2   1 <1>   0.2980 
  9 C        3.2510    -1.9830    -0.5270 C.3   1 <1>  -0.1600 
 10 C        2.2760    -0.9240     1.5530 C.3   1 <1>  -0.1600 
 11 O       -3.7870    -1.3280     0.8520 O.3   1 <1>  -0.0190 
 12 N       -4.8380    -2.3120    -0.7830 N.2   1 <1>  -0.5650 
 13 C        4.6300    -1.4050    -0.1780 C.3   1 <1>  -0.1600 
 14 C        3.6530    -0.3440     1.9070 C.3   1 <1>  -0.1600 
 15 N       -4.8750    -1.8410     1.3350 N.2   1 <1>  -0.4100 
 16 C       -5.5010    -2.4220     0.3730 C.2   1 <1>   0.4620 
 17 C        4.7840    -1.2120     1.3370 C.3   1 <1>  -0.1600 
 18 C       -6.7700    -3.1230     0.4890 C.ar  1 <1>   0.0540 
 19 C       -7.4240    -3.2370     1.7180 C.ar  1 <1>  -0.1500 
 20 C       -7.3900    -3.7100    -0.6170 C.ar  1 <1>  -0.1500 
 21 C       -8.6310    -3.9030     1.8380 C.ar  1 <1>  -0.1500 
 22 C       -8.5960    -4.3770    -0.5040 C.ar  1 <1>  -0.1500 
 23 C       -9.2200    -4.4740     0.7260 C.ar  1 <1>  -0.1500 
 24 H        0.7080    -2.6800     0.1850 H     1 <1>   0.3700 
 25 H       -2.9120    -1.4170    -2.3300 H     1 <1>   0.0800 
 26 H       -2.5610    -0.1360    -1.2090 H     1 <1>   0.0800 
 27 H       -0.4830    -3.8140    -1.1200 H     1 <1>   0.0800 
 28 H       -2.1410    -3.7500    -1.6570 H     1 <1>   0.0800 
 29 H       -1.7820    -3.7090     0.0570 H     1 <1>   0.0800 
 30 H        2.1540    -0.1470    -0.4400 H     1 <1>   0.0800 
 31 H        3.1500    -2.0390    -1.5970 H     1 <1>   0.0800 
 32 H        3.1770    -2.9770    -0.1230 H     1 <1>   0.0800 
 33 H        2.1570    -1.8710     2.0490 H     1 <1>   0.0800 
 34 H        1.5080    -0.2560     1.9030 H     1 <1>   0.0800 
 35 H        4.7530    -0.4550    -0.6710 H     1 <1>   0.0800 
 36 H        5.4010    -2.0640    -0.5380 H     1 <1>   0.0800 
 37 H        3.7530    -0.2760     2.9760 H     1 <1>   0.0800 
 38 H        3.7320     0.6520     1.5050 H     1 <1>   0.0800 
 39 H        5.7330    -0.7490     1.5470 H     1 <1>   0.0800 
 40 H        4.7730    -2.1740     1.8220 H     1 <1>   0.0800 
 41 H       -6.9800    -2.7980     2.5940 H     1 <1>   0.1500 
 42 H       -6.9190    -3.6440    -1.5820 H     1 <1>   0.1500 
 43 H       -9.1120    -3.9750     2.7990 H     1 <1>   0.1500 
 44 H       -9.0500    -4.8200    -1.3730 H     1 <1>   0.1500 
 45 H      -10.1600    -4.9930     0.8170 H     1 <1>   0.1500 
@<TRIPOS>BOND
  1   1   2  2   
  2   2   3  am  
  3   2   4  am  
  4   3   5  1   
  5   3   6  1   
  6   4   7  1   
  7   4  24  1   
  8   5   8  1   
  9   5  25  1   
 10   5  26  1   
 11   6  27  1   
 12   6  28  1   
 13   6  29  1   
 14   7   9  1   
 15   7  10  1   
 16   7  30  1   
 17   8  11  1   
 18   8  12  2   
 19   9  13  1   
 20   9  31  1   
 21   9  32  1   
 22  10  14  1   
 23  10  33  1   
 24  10  34  1   
 25  11  15  1   
 26  12  16  1   
 27  13  17  1   
 28  13  35  1   
 29  13  36  1   
 30  14  17  1   
 31  14  37  1   
 32  14  38  1   
 33  15  16  2   
 34  16  18  1   
 35  17  39  1   
 36  17  40  1   
 37  18  19  ar  
 38  18  20  ar  
 39  19  21  ar  
 40  19  41  1   
 41  20  22  ar  
 42  20  42  1   
 43  21  23  ar  
 44  21  43  1   
 45  22  23  ar  
 46  22  44  1   
 47  23  45  1   
@<TRIPOS>SUBSTRUCTURE
  1 ****   3 GROUP 4 **** **** 0

# MOE 2024.06 (io_trps.svl 2023.06)
