@<TRIPOS>MOLECULE
NONAME
29 30 1 0 0 
SMALL
USER_CHARGES


@<TRIPOS>ATOM
  1 O       -0.4930     0.1520     0.0530 O.3   1 <1>  -0.3630 
  2 C       -1.6660     0.8230     0.0160 C.ar  1 <1>   0.3920 
  3 C       -0.3850    -1.2320    -0.2070 C.3   1 <1>   0.2000 
  4 N       -2.7540     0.1890    -0.3230 N.ar  1 <1>  -0.6200 
  5 C       -1.6360     2.2080     0.3570 C.ar  1 <1>   0.1660 
  6 C       -0.7100    -1.9980     1.0760 C.3   1 <1>  -0.2400 
  7 C        1.0490    -1.4940    -0.6600 C.3   1 <1>  -0.2400 
  8 C       -3.8660     0.9650    -0.3230 C.ar  1 <1>   0.3100 
  9 N       -2.6840     2.9710     0.3640 N.ar  1 <1>  -0.6200 
 10 C       -0.3140     2.8520     0.7380 C.3   1 <1>  -0.0970 
 11 C       -3.8360     2.3410     0.0160 C.ar  1 <1>   0.3100 
 12 C       -5.0970     0.3870    -0.6710 C.ar  1 <1>  -0.1500 
 13 C       -5.0340     3.0700    -0.0090 C.ar  1 <1>  -0.1500 
 14 C       -6.2540     1.1230    -0.6880 C.ar  1 <1>  -0.1500 
 15 C       -6.2230     2.4790    -0.3540 C.ar  1 <1>  -0.1500 
 16 H       -1.0660    -1.4970    -1.0000 H     1 <1>   0.0800 
 17 H       -0.0460    -1.7040     1.8680 H     1 <1>   0.0800 
 18 H       -0.6030    -3.0540     0.9090 H     1 <1>   0.0800 
 19 H       -1.7260    -1.8080     1.3730 H     1 <1>   0.0800 
 20 H        1.7440    -1.2100     0.1090 H     1 <1>   0.0800 
 21 H        1.2570    -0.9350    -1.5550 H     1 <1>   0.0800 
 22 H        1.1800    -2.5390    -0.8750 H     1 <1>   0.0800 
 23 H        0.0950     2.3590     1.6010 H     1 <1>   0.0800 
 24 H       -0.4530     3.8930     0.9680 H     1 <1>   0.0800 
 25 H        0.3800     2.7670    -0.0770 H     1 <1>   0.0800 
 26 H       -5.1030    -0.6570    -0.9260 H     1 <1>   0.1500 
 27 H       -4.9880     4.1120     0.2510 H     1 <1>   0.1500 
 28 H       -7.1930     0.6680    -0.9570 H     1 <1>   0.1500 
 29 H       -7.1360     3.0490    -0.3700 H     1 <1>   0.1500 
@<TRIPOS>BOND
  1   1   2  1   
  2   1   3  1   
  3   2   4  ar  
  4   2   5  ar  
  5   3   6  1   
  6   3   7  1   
  7   3  16  1   
  8   4   8  ar  
  9   5   9  ar  
 10   5  10  1   
 11   6  17  1   
 12   6  18  1   
 13   6  19  1   
 14   7  20  1   
 15   7  21  1   
 16   7  22  1   
 17   8  11  ar  
 18   8  12  ar  
 19   9  11  ar  
 20  10  23  1   
 21  10  24  1   
 22  10  25  1   
 23  11  13  ar  
 24  12  14  ar  
 25  12  26  1   
 26  13  15  ar  
 27  13  27  1   
 28  14  15  ar  
 29  14  28  1   
 30  15  29  1   
@<TRIPOS>SUBSTRUCTURE
  1 ****   4 GROUP 4 **** **** 0

# MOE 2024.06 (io_trps.svl 2023.06)
