@<TRIPOS>MOLECULE
NONAME
33 34 1 0 0 
SMALL
USER_CHARGES


@<TRIPOS>ATOM
  1 S       -0.0100     0.3660    -0.0080 S.3   1 <1>  -0.0800 
  2 C       -0.6120    -1.2810    -0.0020 C.2   1 <1>   0.1040 
  3 C        1.6680    -0.1590    -0.0200 C.2   1 <1>  -0.1400 
  4 N       -1.9880    -1.5430     0.0080 N.am  1 <1>  -0.4940 
  5 C        0.4370    -2.1440    -0.0100 C.2   1 <1>   0.0190 
  6 C        1.7380    -1.5130    -0.0200 C.2   1 <1>  -0.1810 
  7 C        2.6310     1.0180    -0.0290 C.3   1 <1>  -0.0600 
  8 C       -3.1030    -0.7400     0.0160 C.2   1 <1>   0.7150 
  9 C        0.2470    -3.5620    -0.0070 C.1   1 <1>   0.5380 
 10 C        2.9620    -2.4420    -0.0280 C.3   1 <1>   0.0210 
 11 O       -3.0010     0.4690     0.0130 O.2   1 <1>  -0.5700 
 12 C       -4.3870    -1.3840     0.0260 C.2   1 <1>  -0.2370 
 13 N        0.0410    -4.6840    -0.0050 N.1   1 <1>  -0.5570 
 14 C        4.3400    -1.7820    -0.0390 C.3   1 <1>  -0.2400 
 15 N       -5.5890    -0.7390     0.0340 N.pl3 1 <1>   0.3140 
 16 C       -4.7010    -2.7130     0.0310 C.2   1 <1>  -0.1500 
 17 N       -6.6210    -1.5950     0.0430 N.2   1 <1>  -0.7070 
 18 C       -5.8500     0.7110     0.0330 C.3   1 <1>   0.0160 
 19 C       -6.0810    -2.7740     0.0420 C.2   1 <1>   0.1390 
 20 H       -2.2410    -2.5280     0.0110 H     1 <1>   0.3700 
 21 H        2.4500     1.6220    -0.8990 H     1 <1>   0.0800 
 22 H        3.6590     0.7260    -0.0360 H     1 <1>   0.0800 
 23 H        2.4630     1.6240     0.8440 H     1 <1>   0.0800 
 24 H        2.9000    -3.0780    -0.8950 H     1 <1>   0.0800 
 25 H        2.9130    -3.0770     0.8400 H     1 <1>   0.0800 
 26 H        4.4600    -1.1800    -0.9220 H     1 <1>   0.0800 
 27 H        5.1040    -2.5390    -0.0440 H     1 <1>   0.0800 
 28 H        4.4730    -1.1790     0.8410 H     1 <1>   0.0800 
 29 H       -4.0530    -3.5710     0.0280 H     1 <1>   0.1500 
 30 H       -5.4080     1.1510     0.9070 H     1 <1>   0.0800 
 31 H       -6.9100     0.8820     0.0400 H     1 <1>   0.0800 
 32 H       -5.4210     1.1480    -0.8490 H     1 <1>   0.0800 
 33 H       -6.6590    -3.6840     0.0480 H     1 <1>   0.1500 
@<TRIPOS>BOND
  1   1   2  1   
  2   1   3  1   
  3   2   4  1   
  4   2   5  2   
  5   3   6  2   
  6   3   7  1   
  7   4   8  am  
  8   4  20  1   
  9   5   6  1   
 10   5   9  1   
 11   6  10  1   
 12   7  21  1   
 13   7  22  1   
 14   7  23  1   
 15   8  11  2   
 16   8  12  1   
 17   9  13  3   
 18  10  14  1   
 19  10  24  1   
 20  10  25  1   
 21  12  15  1   
 22  12  16  2   
 23  14  26  1   
 24  14  27  1   
 25  14  28  1   
 26  15  17  1   
 27  15  18  1   
 28  16  19  1   
 29  16  29  1   
 30  17  19  2   
 31  18  30  1   
 32  18  31  1   
 33  18  32  1   
 34  19  33  1   
@<TRIPOS>SUBSTRUCTURE
  1 ****   4 GROUP 4 **** **** 0

# MOE 2024.06 (io_trps.svl 2023.06)
