@<TRIPOS>MOLECULE
NONAME
37 38 1 0 0 
SMALL
USER_CHARGES


@<TRIPOS>ATOM
  1 S        0.6720     0.1110    -0.8360 S.o2  1 <1>   1.2950 
  2 O       -0.2840     0.7490    -1.7210 O.2   1 <1>  -0.6500 
  3 O        2.0240    -0.0840    -1.3210 O.2   1 <1>  -0.6500 
  4 N        0.6950     1.0050     0.6960 N.pl3 1 <1>   0.3170 
  5 C       -0.0030    -1.4970    -0.3130 C.ar  1 <1>  -0.0090 
  6 C        1.3190     2.1760     1.0410 C.2   1 <1>   0.0060 
  7 C       -0.0020     0.6820     1.8200 C.2   1 <1>  -0.3020 
  8 C        0.7190    -2.4220     0.4480 C.ar  1 <1>  -0.1440 
  9 C       -1.3150    -1.8170    -0.6540 C.ar  1 <1>  -0.1500 
 10 N        1.0710     2.5610     2.2540 N.2   1 <1>  -0.5650 
 11 C        2.2390     3.0260     0.1590 C.3   1 <1>   0.1000 
 12 C        0.2430     1.6290     2.7440 C.2   1 <1>   0.0770 
 13 C        0.1250    -3.6120     0.8410 C.ar  1 <1>  -0.1500 
 14 C        2.1660    -2.1830     0.8700 C.3   1 <1>  -0.0960 
 15 C       -1.9090    -3.0020    -0.2590 C.ar  1 <1>  -0.1430 
 16 C        1.6890     3.3240    -1.2420 C.3   1 <1>  -0.2400 
 17 C        3.6600     2.4540     0.0990 C.3   1 <1>  -0.2400 
 18 C       -1.1800    -3.9020     0.4930 C.ar  1 <1>  -0.1500 
 19 C       -3.3420    -3.3120    -0.6540 C.3   1 <1>  -0.0970 
 20 H       -0.6280    -0.1880     1.9030 H     1 <1>   0.1500 
 21 H       -1.8900    -1.1240    -1.2450 H     1 <1>   0.1500 
 22 H        2.3190     3.9810     0.6530 H     1 <1>   0.0800 
 23 H       -0.1400     1.6950     3.7500 H     1 <1>   0.1500 
 24 H        0.6750    -4.3310     1.4240 H     1 <1>   0.1500 
 25 H        2.5060    -2.9560     1.5350 H     1 <1>   0.0800 
 26 H        2.8080    -2.1890     0.0060 H     1 <1>   0.0800 
 27 H        2.2730    -1.2440     1.3800 H     1 <1>   0.0800 
 28 H        1.8000     2.4850    -1.9020 H     1 <1>   0.0800 
 29 H        2.2280     4.1480    -1.6730 H     1 <1>   0.0800 
 30 H        0.6490     3.5940    -1.1850 H     1 <1>   0.0800 
 31 H        3.6880     1.5140    -0.4160 H     1 <1>   0.0800 
 32 H        4.0350     2.3100     1.0970 H     1 <1>   0.0800 
 33 H        4.3120     3.1400    -0.4120 H     1 <1>   0.0800 
 34 H       -1.6210    -4.8320     0.8070 H     1 <1>   0.1500 
 35 H       -3.9220    -2.4080    -0.7080 H     1 <1>   0.0800 
 36 H       -3.8000    -3.9650     0.0670 H     1 <1>   0.0800 
 37 H       -3.3570    -3.7920    -1.6160 H     1 <1>   0.0800 
@<TRIPOS>BOND
  1   1   2  2   
  2   1   3  2   
  3   1   4  1   
  4   1   5  1   
  5   4   6  1   
  6   4   7  1   
  7   5   8  ar  
  8   5   9  ar  
  9   6  10  2   
 10   6  11  1   
 11   7  12  2   
 12   7  20  1   
 13   8  13  ar  
 14   8  14  1   
 15   9  15  ar  
 16   9  21  1   
 17  10  12  1   
 18  11  16  1   
 19  11  17  1   
 20  11  22  1   
 21  12  23  1   
 22  13  18  ar  
 23  13  24  1   
 24  14  25  1   
 25  14  26  1   
 26  14  27  1   
 27  15  18  ar  
 28  15  19  1   
 29  16  28  1   
 30  16  29  1   
 31  16  30  1   
 32  17  31  1   
 33  17  32  1   
 34  17  33  1   
 35  18  34  1   
 36  19  35  1   
 37  19  36  1   
 38  19  37  1   
@<TRIPOS>SUBSTRUCTURE
  1 ****   1 GROUP 4 **** **** 0

# MOE 2024.06 (io_trps.svl 2023.06)
