@<TRIPOS>MOLECULE
NONAME
40 42 1 0 0 
SMALL
USER_CHARGES


@<TRIPOS>ATOM
  1 O        0.0440    -1.6780    -1.6780 O.3   1 <1>  -0.0190 
  2 N       -1.2540    -1.6520    -1.6980 N.2   1 <1>  -0.4100 
  3 C        0.3400    -1.9880    -0.4390 C.2   1 <1>   0.2980 
  4 C       -1.6520    -1.9410    -0.5230 C.2   1 <1>   0.3350 
  5 N       -0.6610    -2.1580     0.3320 N.2   1 <1>  -0.5650 
  6 C        1.8170    -2.1090    -0.0680 C.3   1 <1>   0.1000 
  7 C       -3.1060    -2.0280    -0.0950 C.3   1 <1>   0.1640 
  8 C        2.0290    -2.8030     1.2930 C.3   1 <1>  -0.1600 
  9 C        2.4920    -0.7250    -0.0750 C.3   1 <1>  -0.1600 
 10 C       -3.5820    -3.4730     0.0000 C.ar  1 <1>  -0.1440 
 11 C        3.5180    -2.8980     1.6570 C.3   1 <1>  -0.1600 
 12 C        3.9810    -0.8150     0.2930 C.3   1 <1>  -0.1600 
 13 C       -4.2640    -4.0620    -1.0550 C.ar  1 <1>  -0.1500 
 14 C       -3.3340    -4.2150     1.1450 C.ar  1 <1>  -0.1500 
 15 C        4.1790    -1.5140     1.6440 C.3   1 <1>  -0.1600 
 16 C       -4.7000    -5.3730    -0.9670 C.ar  1 <1>  -0.1500 
 17 C       -3.7690    -5.5250     1.2360 C.ar  1 <1>  -0.1500 
 18 C       -4.4540    -6.1130     0.1860 C.ar  1 <1>   0.0820 
 19 O       -4.8460    -7.4010     0.3550 O.3   1 <1>  -0.3630 
 20 C       -5.5200    -8.1010    -0.6660 C.3   1 <1>   0.0400 
 21 H        2.2840    -2.7170    -0.8230 H     1 <1>   0.0800 
 22 H       -3.7100    -1.4910    -0.8020 H     1 <1>   0.0800 
 23 H       -3.2150    -1.5460     0.8590 H     1 <1>   0.0800 
 24 H        1.6020    -3.7900     1.2620 H     1 <1>   0.0800 
 25 H        1.5140    -2.2480     2.0590 H     1 <1>   0.0800 
 26 H        1.9900    -0.0860     0.6310 H     1 <1>   0.0800 
 27 H        2.3930    -0.2790    -1.0490 H     1 <1>   0.0800 
 28 H        4.0190    -3.5410     0.9530 H     1 <1>   0.0800 
 29 H        3.6210    -3.3370     2.6350 H     1 <1>   0.0800 
 30 H        4.4020     0.1750     0.3350 H     1 <1>   0.0800 
 31 H        4.5060    -1.3620    -0.4720 H     1 <1>   0.0800 
 32 H       -4.4540    -3.5020    -1.9550 H     1 <1>   0.1500 
 33 H       -2.7940    -3.7770     1.9670 H     1 <1>   0.1500 
 34 H        5.2310    -1.6150     1.8470 H     1 <1>   0.0800 
 35 H        3.7510    -0.9080     2.4240 H     1 <1>   0.0800 
 36 H       -5.2240    -5.7970    -1.8010 H     1 <1>   0.1500 
 37 H       -3.5770    -6.1020     2.1220 H     1 <1>   0.1500 
 38 H       -5.7170    -9.0970    -0.3140 H     1 <1>   0.0800 
 39 H       -4.8910    -8.1380    -1.5370 H     1 <1>   0.0800 
 40 H       -6.4470    -7.5990    -0.8800 H     1 <1>   0.0800 
@<TRIPOS>BOND
  1   1   2  1   
  2   1   3  1   
  3   2   4  2   
  4   3   5  2   
  5   3   6  1   
  6   4   5  1   
  7   4   7  1   
  8   6   8  1   
  9   6   9  1   
 10   6  21  1   
 11   7  10  1   
 12   7  22  1   
 13   7  23  1   
 14   8  11  1   
 15   8  24  1   
 16   8  25  1   
 17   9  12  1   
 18   9  26  1   
 19   9  27  1   
 20  10  13  ar  
 21  10  14  ar  
 22  11  15  1   
 23  11  28  1   
 24  11  29  1   
 25  12  15  1   
 26  12  30  1   
 27  12  31  1   
 28  13  16  ar  
 29  13  32  1   
 30  14  17  ar  
 31  14  33  1   
 32  15  34  1   
 33  15  35  1   
 34  16  18  ar  
 35  16  36  1   
 36  17  18  ar  
 37  17  37  1   
 38  18  19  1   
 39  19  20  1   
 40  20  38  1   
 41  20  39  1   
 42  20  40  1   
@<TRIPOS>SUBSTRUCTURE
  1 ****   5 GROUP 4 **** **** 0

# MOE 2024.06 (io_trps.svl 2023.06)
