@<TRIPOS>MOLECULE
NONAME
46 48 1 0 0 
SMALL
USER_CHARGES


@<TRIPOS>ATOM
  1 CL       0.1170    -0.4880    -0.1970 Cl    1 <1>  -0.1770 
  2 C        1.6670    -1.2390     0.0990 C.ar  1 <1>   0.1770 
  3 C        2.7520    -0.8890    -0.6840 C.ar  1 <1>  -0.1500 
  4 C        1.7880    -2.1720     1.1110 C.ar  1 <1>  -0.1500 
  5 C        3.9780    -1.4860    -0.4480 C.ar  1 <1>  -0.1500 
  6 C        3.0180    -2.7620     1.3410 C.ar  1 <1>  -0.1500 
  7 C        4.1260    -2.4300     0.5670 C.ar  1 <1>   0.1000 
  8 N        5.3500    -3.0460     0.8150 N.pl3 1 <1>  -0.8380 
  9 C        5.4790    -4.5210     0.6220 C.3   1 <1>   0.2090 
 10 C        6.6100    -2.2510     0.9240 C.3   1 <1>   0.2090 
 11 C        6.5160    -4.8540    -0.4720 C.3   1 <1>   0.3430 
 12 C        7.6190    -2.6460    -0.1750 C.3   1 <1>   0.3430 
 13 N        7.8290    -4.1400    -0.2640 N.4   1 <1>  -0.9590 
 14 C        8.8300    -4.5000    -1.3040 C.3   1 <1>   0.4860 
 15 C       10.1590    -3.8710    -0.9280 C.ar  1 <1>  -0.1430 
 16 C       10.9210    -4.3930     0.1070 C.ar  1 <1>  -0.1500 
 17 C       10.6240    -2.7570    -1.6100 C.ar  1 <1>  -0.1500 
 18 C       12.1170    -3.7960     0.4620 C.ar  1 <1>  -0.1500 
 19 C       11.8200    -2.1680    -1.2470 C.ar  1 <1>  -0.1500 
 20 C       12.5980    -2.6630    -0.1980 C.ar  1 <1>   0.0860 
 21 C       13.8440    -2.0180     0.1760 C.2   1 <1>   0.6340 
 22 O       14.2540    -1.0110    -0.3620 O.2   1 <1>  -0.5700 
 23 O       14.5600    -2.5600     1.1660 O.3   1 <1>  -0.4300 
 24 C       15.7850    -1.9970     1.5940 C.3   1 <1>   0.0400 
 25 H        2.6280    -0.1590    -1.4640 H     1 <1>   0.1500 
 26 H        0.9300    -2.4250     1.7090 H     1 <1>   0.1500 
 27 H        4.8180    -1.2180    -1.0590 H     1 <1>   0.1500 
 28 H        3.1270    -3.4810     2.1320 H     1 <1>   0.1500 
 29 H        4.5240    -4.9340     0.3410 H     1 <1>   0.0800 
 30 H        5.7690    -4.9750     1.5540 H     1 <1>   0.0800 
 31 H        7.0470    -2.4200     1.8930 H     1 <1>   0.0800 
 32 H        6.3870    -1.2000     0.8510 H     1 <1>   0.0800 
 33 H        6.0980    -4.5680    -1.4230 H     1 <1>   0.0800 
 34 H        6.6730    -5.9200    -0.4880 H     1 <1>   0.0800 
 35 H        8.5560    -2.1530     0.0260 H     1 <1>   0.0800 
 36 H        7.2490    -2.2770    -1.1170 H     1 <1>   0.0800 
 37 H        8.2140    -4.4340     0.6420 H     1 <1>   0.4500 
 38 H        8.5130    -4.1420    -2.2690 H     1 <1>   0.0800 
 39 H        8.9460    -5.5710    -1.3570 H     1 <1>   0.0800 
 40 H       10.6010    -5.2690     0.6460 H     1 <1>   0.1500 
 41 H       10.0680    -2.3350    -2.4310 H     1 <1>   0.1500 
 42 H       12.6940    -4.2170     1.2690 H     1 <1>   0.1500 
 43 H       12.1700    -1.3010    -1.7850 H     1 <1>   0.1500 
 44 H       16.1770    -2.6000     2.3930 H     1 <1>   0.0800 
 45 H       15.6050    -0.9930     1.9390 H     1 <1>   0.0800 
 46 H       16.4720    -1.9860     0.7650 H     1 <1>   0.0800 
@<TRIPOS>BOND
  1   1   2  1   
  2   2   3  ar  
  3   2   4  ar  
  4   3   5  ar  
  5   3  25  1   
  6   4   6  ar  
  7   4  26  1   
  8   5   7  ar  
  9   5  27  1   
 10   6   7  ar  
 11   6  28  1   
 12   7   8  1   
 13   8   9  1   
 14   8  10  1   
 15   9  11  1   
 16   9  29  1   
 17   9  30  1   
 18  10  12  1   
 19  10  31  1   
 20  10  32  1   
 21  11  13  1   
 22  11  33  1   
 23  11  34  1   
 24  12  13  1   
 25  12  35  1   
 26  12  36  1   
 27  13  14  1   
 28  13  37  1   
 29  14  15  1   
 30  14  38  1   
 31  14  39  1   
 32  15  16  ar  
 33  15  17  ar  
 34  16  18  ar  
 35  16  40  1   
 36  17  19  ar  
 37  17  41  1   
 38  18  20  ar  
 39  18  42  1   
 40  19  20  ar  
 41  19  43  1   
 42  20  21  1   
 43  21  22  2   
 44  21  23  1   
 45  23  24  1   
 46  24  44  1   
 47  24  45  1   
 48  24  46  1   
@<TRIPOS>SUBSTRUCTURE
  1 ****  12 GROUP 4 **** **** 0

# MOE 2024.06 (io_trps.svl 2023.06)
