@<TRIPOS>MOLECULE
NONAME
24 24 1 0 0 
SMALL
USER_CHARGES


@<TRIPOS>ATOM
  1 I       -0.0870    -0.4060    -1.8970 I     1 <1>  -0.0810 
  2 C        1.5030     0.7380    -1.0380 C.ar  1 <1>   0.0810 
  3 C        1.3020     2.0630    -0.6660 C.ar  1 <1>   0.0820 
  4 C        2.7220     0.1020    -0.8890 C.ar  1 <1>  -0.1500 
  5 O        0.1070     2.6760    -0.8150 O.3   1 <1>  -0.3630 
  6 C        2.4140     2.7290    -0.1610 C.ar  1 <1>   0.0810 
  7 C        3.8300     0.7750    -0.3610 C.ar  1 <1>   0.0860 
  8 C       -0.7950     2.6020     0.2660 C.3   1 <1>   0.1200 
  9 I        2.2850     4.7910     0.3930 I     1 <1>  -0.0810 
 10 C        3.6440     2.1170    -0.0030 C.ar  1 <1>  -0.1500 
 11 C        5.0950     0.0850    -0.2120 C.2   1 <1>   0.4230 
 12 C       -2.0620     3.3560    -0.1260 C.3   1 <1>  -0.2400 
 13 O        5.2430    -1.0770    -0.4880 O.2   1 <1>  -0.5700 
 14 C        6.3160     0.8160     0.3120 C.3   1 <1>  -0.1790 
 15 H        2.8250    -0.9280    -1.1870 H     1 <1>   0.1500 
 16 H       -0.3370     3.0480     1.1310 H     1 <1>   0.0800 
 17 H       -1.0120     1.5670     0.4650 H     1 <1>   0.0800 
 18 H        4.4570     2.6940     0.3990 H     1 <1>   0.1500 
 19 H       -1.8290     4.3850    -0.3320 H     1 <1>   0.0800 
 20 H       -2.7730     3.3180     0.6790 H     1 <1>   0.0800 
 21 H       -2.5040     2.9060    -0.9970 H     1 <1>   0.0800 
 22 H        6.5500     1.6490    -0.3240 H     1 <1>   0.0800 
 23 H        7.1610     0.1510     0.3260 H     1 <1>   0.0800 
 24 H        6.1390     1.1600     1.3140 H     1 <1>   0.0800 
@<TRIPOS>BOND
  1   1   2  1   
  2   2   3  ar  
  3   2   4  ar  
  4   3   5  1   
  5   3   6  ar  
  6   4   7  ar  
  7   4  15  1   
  8   5   8  1   
  9   6   9  1   
 10   6  10  ar  
 11   7  10  ar  
 12   7  11  1   
 13   8  12  1   
 14   8  16  1   
 15   8  17  1   
 16  10  18  1   
 17  11  13  2   
 18  11  14  1   
 19  12  19  1   
 20  12  20  1   
 21  12  21  1   
 22  14  22  1   
 23  14  23  1   
 24  14  24  1   
@<TRIPOS>SUBSTRUCTURE
  1 ****   3 GROUP 4 **** **** 0

# MOE 2024.06 (io_trps.svl 2023.06)
