@<TRIPOS>MOLECULE
NONAME
40 40 1 0 0 
SMALL
USER_CHARGES


@<TRIPOS>ATOM
  1 O       -0.6190     0.7120    -1.1590 O.2   1 <1>  -0.5700 
  2 C       -1.4020     1.2430    -0.4060 C.2   1 <1>   0.4950 
  3 C       -1.5080     2.6600    -0.1930 C.2   1 <1>   0.0290 
  4 C       -2.3370     0.2900     0.3180 C.3   1 <1>  -0.0990 
  5 C       -2.8270     3.1290     0.1550 C.2   1 <1>   0.4950 
  6 C       -0.4310     3.5320    -0.3270 C.2   1 <1>  -0.0380 
  7 C       -3.7920     0.7650     0.2600 C.3   1 <1>   0.0000 
  8 O       -3.2310     4.2610    -0.0020 O.2   1 <1>  -0.5700 
  9 C       -3.8380     2.1960     0.8080 C.3   1 <1>  -0.0990 
 10 N       -0.5970     4.8830    -0.2820 N.pl3 1 <1>  -0.8690 
 11 C        0.9950     3.0210    -0.5140 C.3   1 <1>  -0.1020 
 12 C       -4.6720    -0.1510     1.1240 C.3   1 <1>  -0.2400 
 13 C       -4.3170     0.7270    -1.1870 C.3   1 <1>  -0.2400 
 14 C        0.2250     6.0930    -0.4380 C.3   1 <1>   0.3690 
 15 C        1.1300     6.0030    -1.6670 C.3   1 <1>  -0.2400 
 16 C        1.0100     6.3440     0.8470 C.3   1 <1>  -0.2400 
 17 C       -0.7760     7.2270    -0.6450 C.3   1 <1>  -0.2400 
 18 H       -2.2580    -0.6890    -0.1220 H     1 <1>   0.0800 
 19 H       -2.0080     0.2120     1.3390 H     1 <1>   0.0800 
 20 H       -3.6360     2.1930     1.8640 H     1 <1>   0.0800 
 21 H       -4.8260     2.6000     0.6740 H     1 <1>   0.0800 
 22 H       -1.5810     5.1820    -0.1610 H     1 <1>   0.4000 
 23 H        1.7020     3.6520    -0.0160 H     1 <1>   0.0800 
 24 H        1.2310     2.9830    -1.5620 H     1 <1>   0.0800 
 25 H        1.1290     2.0430    -0.0950 H     1 <1>   0.0800 
 26 H       -4.3360    -0.1560     2.1460 H     1 <1>   0.0800 
 27 H       -4.6420    -1.1610     0.7540 H     1 <1>   0.0800 
 28 H       -5.6950     0.1830     1.1070 H     1 <1>   0.0800 
 29 H       -4.2680    -0.2740    -1.5790 H     1 <1>   0.0800 
 30 H       -3.7460     1.3660    -1.8380 H     1 <1>   0.0800 
 31 H       -5.3430     1.0500    -1.2240 H     1 <1>   0.0800 
 32 H        1.5480     6.9680    -1.8860 H     1 <1>   0.0800 
 33 H        0.5620     5.6750    -2.5190 H     1 <1>   0.0800 
 34 H        1.9480     5.3310    -1.5050 H     1 <1>   0.0800 
 35 H        0.3400     6.3830     1.6870 H     1 <1>   0.0800 
 36 H        1.5330     7.2800     0.7820 H     1 <1>   0.0800 
 37 H        1.7320     5.5710     1.0180 H     1 <1>   0.0800 
 38 H       -0.2610     8.1640    -0.7560 H     1 <1>   0.0800 
 39 H       -1.4380     7.3050     0.1990 H     1 <1>   0.0800 
 40 H       -1.3580     7.0530    -1.5320 H     1 <1>   0.0800 
@<TRIPOS>BOND
  1   1   2  2   
  2   2   3  1   
  3   2   4  1   
  4   3   5  1   
  5   3   6  2   
  6   4   7  1   
  7   4  18  1   
  8   4  19  1   
  9   5   8  2   
 10   5   9  1   
 11   6  10  1   
 12   6  11  1   
 13   7   9  1   
 14   7  12  1   
 15   7  13  1   
 16   9  20  1   
 17   9  21  1   
 18  10  14  1   
 19  10  22  1   
 20  11  23  1   
 21  11  24  1   
 22  11  25  1   
 23  12  26  1   
 24  12  27  1   
 25  12  28  1   
 26  13  29  1   
 27  13  30  1   
 28  13  31  1   
 29  14  15  1   
 30  14  16  1   
 31  14  17  1   
 32  15  32  1   
 33  15  33  1   
 34  15  34  1   
 35  16  35  1   
 36  16  36  1   
 37  16  37  1   
 38  17  38  1   
 39  17  39  1   
 40  17  40  1   
@<TRIPOS>SUBSTRUCTURE
  1 ****   3 GROUP 4 **** **** 0

# MOE 2024.06 (io_trps.svl 2023.06)
