@<TRIPOS>MOLECULE
NONAME
36 37 1 0 0 
SMALL
USER_CHARGES


@<TRIPOS>ATOM
  1 O       -0.6550     0.0640     0.0030 O.2   1 <1>  -0.5700 
  2 C       -1.6040    -0.6970     0.0080 C.2   1 <1>   0.7060 
  3 O       -2.8170    -0.1510     0.0450 O.3   1 <1>  -0.2330 
  4 C       -1.4900    -2.1320    -0.0130 C.2   1 <1>  -0.1240 
  5 C       -3.9620    -0.8670     0.0540 C.ar  1 <1>   0.0820 
  6 C       -2.6070    -2.9080     0.0280 C.2   1 <1>  -0.1670 
  7 C       -0.0640    -2.6900    -0.0740 C.3   1 <1>  -0.1020 
  8 C       -3.9000    -2.2700     0.0340 C.ar  1 <1>   0.0280 
  9 C       -5.1760    -0.1810     0.0740 C.ar  1 <1>  -0.1440 
 10 C       -2.5760    -4.4380     0.0820 C.3   1 <1>  -0.1020 
 11 C       -5.1180    -2.9580     0.0110 C.ar  1 <1>  -0.1500 
 12 C       -6.3650    -0.8980     0.0500 C.ar  1 <1>   0.0830 
 13 C       -5.2000     1.3490     0.1080 C.3   1 <1>  -0.0960 
 14 C       -6.3240    -2.2920     0.0190 C.ar  1 <1>  -0.1500 
 15 O       -7.5330    -0.2080     0.0500 O.3   1 <1>  -0.3620 
 16 C       -8.7900    -0.8430     0.0180 C.3   1 <1>   0.1200 
 17 C       -9.8710     0.2380     0.0260 C.3   1 <1>  -0.1600 
 18 C      -11.2750    -0.3750    -0.0090 C.3   1 <1>  -0.2400 
 19 H        0.5790    -2.0260    -0.6260 H     1 <1>   0.0800 
 20 H       -0.0210    -3.6390    -0.5720 H     1 <1>   0.0800 
 21 H        0.3310    -2.7900     0.9210 H     1 <1>   0.0800 
 22 H       -3.1850    -4.7870     0.8970 H     1 <1>   0.0800 
 23 H       -1.5940    -4.8350     0.2440 H     1 <1>   0.0800 
 24 H       -2.9580    -4.8450    -0.8380 H     1 <1>   0.0800 
 25 H       -5.1360    -4.0300    -0.0180 H     1 <1>   0.1500 
 26 H       -4.3290     1.7450     0.5970 H     1 <1>   0.0800 
 27 H       -6.0590     1.7080     0.6440 H     1 <1>   0.0800 
 28 H       -5.2370     1.7300    -0.8960 H     1 <1>   0.0800 
 29 H       -7.2270    -2.8710     0.0000 H     1 <1>   0.1500 
 30 H       -8.8750    -1.4720     0.8870 H     1 <1>   0.0800 
 31 H       -8.8490    -1.4320    -0.8810 H     1 <1>   0.0800 
 32 H       -9.7400     0.8750    -0.8320 H     1 <1>   0.0800 
 33 H       -9.7660     0.8350     0.9160 H     1 <1>   0.0800 
 34 H      -11.4070    -0.9630    -0.9000 H     1 <1>   0.0800 
 35 H      -12.0160     0.4050    -0.0020 H     1 <1>   0.0800 
 36 H      -11.4340    -1.0030     0.8500 H     1 <1>   0.0800 
@<TRIPOS>BOND
  1   1   2  2   
  2   2   3  1   
  3   2   4  1   
  4   3   5  1   
  5   4   6  2   
  6   4   7  1   
  7   5   8  ar  
  8   5   9  ar  
  9   6   8  1   
 10   6  10  1   
 11   7  19  1   
 12   7  20  1   
 13   7  21  1   
 14   8  11  ar  
 15   9  12  ar  
 16   9  13  1   
 17  10  22  1   
 18  10  23  1   
 19  10  24  1   
 20  11  14  ar  
 21  11  25  1   
 22  12  14  ar  
 23  12  15  1   
 24  13  26  1   
 25  13  27  1   
 26  13  28  1   
 27  14  29  1   
 28  15  16  1   
 29  16  17  1   
 30  16  30  1   
 31  16  31  1   
 32  17  18  1   
 33  17  32  1   
 34  17  33  1   
 35  18  34  1   
 36  18  35  1   
 37  18  36  1   
@<TRIPOS>SUBSTRUCTURE
  1 ****   5 GROUP 4 **** **** 0

# MOE 2024.06 (io_trps.svl 2023.06)
