@<TRIPOS>MOLECULE
NONAME
40 41 1 0 0 
SMALL
USER_CHARGES


@<TRIPOS>ATOM
  1 CL       0.4240    -0.2070    -1.1660 Cl    1 <1>  -0.1770 
  2 C        1.9660     0.5440    -0.8350 C.ar  1 <1>   0.1770 
  3 C        2.1650     1.1880     0.3710 C.ar  1 <1>  -0.1500 
  4 C        2.9680     0.4850    -1.7860 C.ar  1 <1>  -0.1500 
  5 C        3.3890     1.7810     0.6280 C.ar  1 <1>  -0.1500 
  6 C        4.1890     1.0810    -1.5200 C.ar  1 <1>  -0.1500 
  7 C        4.4190     1.7330    -0.3110 C.ar  1 <1>   0.1170 
  8 N        5.6740     2.3250    -0.1000 N.am  1 <1>  -0.5470 
  9 C        6.3050     2.7270     1.0460 C.2   1 <1>   0.5690 
 10 O        5.8600     2.5690     2.1560 O.2   1 <1>  -0.5700 
 11 C        7.6870     3.3700     0.9040 C.3   1 <1>   0.1710 
 12 N        8.7250     2.4670     0.3190 N.3   1 <1>  -0.8100 
 13 C       10.0160     3.1800     0.1700 C.3   1 <1>   0.1100 
 14 C        8.9040     1.2610     1.1770 C.3   1 <1>   0.1100 
 15 C       11.1380     2.2760    -0.4030 C.3   1 <1>   0.3430 
 16 C       10.0810     0.3600     0.7290 C.3   1 <1>   0.3430 
 17 N       10.6870     0.8520    -0.5530 N.4   1 <1>  -0.9590 
 18 C       11.7460    -0.0240    -1.1110 C.3   1 <1>   0.3430 
 19 C       11.1300    -1.3280    -1.6040 C.3   1 <1>  -0.2400 
 20 H        1.3720     1.2230     1.0960 H     1 <1>   0.1500 
 21 H        2.7880    -0.0210    -2.7180 H     1 <1>   0.1500 
 22 H        3.5330     2.2860     1.5660 H     1 <1>   0.1500 
 23 H        4.9660     1.0350    -2.2600 H     1 <1>   0.1500 
 24 H        6.2480     2.4210    -0.9360 H     1 <1>   0.3700 
 25 H        8.0020     3.7030     1.8790 H     1 <1>   0.0800 
 26 H        7.5810     4.2410     0.2820 H     1 <1>   0.0800 
 27 H       10.3330     3.5620     1.1260 H     1 <1>   0.0800 
 28 H        9.8860     4.0260    -0.4850 H     1 <1>   0.0800 
 29 H        8.0020     0.6720     1.1590 H     1 <1>   0.0800 
 30 H        9.0660     1.5580     2.2000 H     1 <1>   0.0800 
 31 H       11.9940     2.3260     0.2500 H     1 <1>   0.0800 
 32 H       11.4380     2.6640    -1.3630 H     1 <1>   0.0800 
 33 H        9.7180    -0.6460     0.6090 H     1 <1>   0.0800 
 34 H       10.8280     0.3460     1.5050 H     1 <1>   0.0800 
 35 H        9.8940     0.9020    -1.2100 H     1 <1>   0.4500 
 36 H       12.4960    -0.2280    -0.3630 H     1 <1>   0.0800 
 37 H       12.2240     0.4700    -1.9420 H     1 <1>   0.0800 
 38 H       10.7280    -1.9070    -0.7930 H     1 <1>   0.0800 
 39 H       11.8930    -1.9190    -2.0790 H     1 <1>   0.0800 
 40 H       10.3610    -1.1370    -2.3320 H     1 <1>   0.0800 
@<TRIPOS>BOND
  1   1   2  1   
  2   2   3  ar  
  3   2   4  ar  
  4   3   5  ar  
  5   3  20  1   
  6   4   6  ar  
  7   4  21  1   
  8   5   7  ar  
  9   5  22  1   
 10   6   7  ar  
 11   6  23  1   
 12   7   8  1   
 13   8   9  am  
 14   8  24  1   
 15   9  10  2   
 16   9  11  1   
 17  11  12  1   
 18  11  25  1   
 19  11  26  1   
 20  12  13  1   
 21  12  14  1   
 22  13  15  1   
 23  13  27  1   
 24  13  28  1   
 25  14  16  1   
 26  14  29  1   
 27  14  30  1   
 28  15  17  1   
 29  15  31  1   
 30  15  32  1   
 31  16  17  1   
 32  16  33  1   
 33  16  34  1   
 34  17  18  1   
 35  17  35  1   
 36  18  19  1   
 37  18  36  1   
 38  18  37  1   
 39  19  38  1   
 40  19  39  1   
 41  19  40  1   
@<TRIPOS>SUBSTRUCTURE
  1 ****   8 GROUP 4 **** **** 0

# MOE 2024.06 (io_trps.svl 2023.06)
