@<TRIPOS>MOLECULE
NONAME
53 56 1 0 0 
SMALL
USER_CHARGES


@<TRIPOS>ATOM
  1 O       -0.6610     1.3730    -1.3070 O.3   1 <1>  -0.5600 
  2 C       -0.9760     1.9750    -0.0820 C.3   1 <1>   0.1200 
  3 C       -1.3440     1.9110    -2.4080 C.3   1 <1>   0.1200 
  4 C       -2.4750     1.8030     0.2580 C.3   1 <1>   0.3430 
  5 C       -2.8760     1.9110    -2.1960 C.3   1 <1>   0.3430 
  6 N       -3.2550     1.2600    -0.9020 N.4   1 <1>  -0.9590 
  7 C       -4.7270     1.1520    -0.6670 C.3   1 <1>   0.3430 
  8 C       -5.0590    -0.0610     0.2350 C.3   1 <1>   0.2000 
  9 O       -4.1630    -1.0910    -0.0710 O.3   1 <1>  -0.6800 
 10 C       -6.5250    -0.5620     0.1150 C.3   1 <1>   0.0000 
 11 C       -7.5100     0.5900     0.4430 C.3   1 <1>  -0.1600 
 12 C       -6.7760    -1.7050     1.1330 C.3   1 <1>  -0.1600 
 13 C       -6.8540    -1.0940    -1.3050 C.3   1 <1>  -0.1600 
 14 C       -8.9750     0.1160     0.3730 C.3   1 <1>   0.0000 
 15 C       -8.2330    -2.2050     1.0710 C.3   1 <1>   0.0000 
 16 C       -8.3110    -1.5840    -1.3780 C.3   1 <1>  -0.0800 
 17 C       -9.1770    -1.0290     1.3850 C.3   1 <1>  -0.1600 
 18 C       -9.2580    -0.4170    -1.0460 C.3   1 <1>  -0.1600 
 19 C       -9.9240     1.2770     0.6970 C.3   1 <1>  -0.2400 
 20 C       -8.5220    -2.7130    -0.3550 C.3   1 <1>  -0.1600 
 21 C       -8.4470    -3.3360     2.0860 C.3   1 <1>  -0.2400 
 22 H       -0.7150     3.0180    -0.1360 H     1 <1>   0.0800 
 23 H       -0.3690     1.5150     0.6780 H     1 <1>   0.0800 
 24 H       -1.0920     1.3140    -3.2680 H     1 <1>   0.0800 
 25 H       -0.9850     2.9110    -2.5790 H     1 <1>   0.0800 
 26 H       -2.8740     2.7560     0.5610 H     1 <1>   0.0800 
 27 H       -2.5640     1.1310     1.0960 H     1 <1>   0.0800 
 28 H       -3.3430     1.3950    -3.0190 H     1 <1>   0.0800 
 29 H       -3.2290     2.9290    -2.2090 H     1 <1>   0.0800 
 30 H       -2.9450     0.2690    -0.9750 H     1 <1>   0.4500 
 31 H       -5.2230     1.0090    -1.6110 H     1 <1>   0.0800 
 32 H       -5.1130     2.0570    -0.2290 H     1 <1>   0.0800 
 33 H       -4.8780     0.2170     1.2600 H     1 <1>   0.0800 
 34 H       -4.4560    -1.9240     0.3570 H     1 <1>   0.4000 
 35 H       -7.3870     1.4030    -0.2500 H     1 <1>   0.0800 
 36 H       -7.3120     0.9690     1.4310 H     1 <1>   0.0800 
 37 H       -6.5640    -1.3600     2.1300 H     1 <1>   0.0800 
 38 H       -6.1250    -2.5370     0.9310 H     1 <1>   0.0800 
 39 H       -6.2010    -1.9110    -1.5590 H     1 <1>   0.0800 
 40 H       -6.7170    -0.3270    -2.0450 H     1 <1>   0.0800 
 41 H       -8.5230    -1.9510    -2.3680 H     1 <1>   0.0800 
 42 H       -8.9930    -0.6700     2.3820 H     1 <1>   0.0800 
 43 H      -10.1980    -1.3670     1.3460 H     1 <1>   0.0800 
 44 H       -9.1330     0.3690    -1.7700 H     1 <1>   0.0800 
 45 H      -10.2780    -0.7560    -1.1110 H     1 <1>   0.0800 
 46 H       -9.7360     1.6550     1.6860 H     1 <1>   0.0800 
 47 H      -10.9470     0.9480     0.6510 H     1 <1>   0.0800 
 48 H       -9.7970     2.0800    -0.0070 H     1 <1>   0.0800 
 49 H       -9.5370    -3.0670    -0.4170 H     1 <1>   0.0800 
 50 H       -7.8760    -3.5400    -0.5910 H     1 <1>   0.0800 
 51 H       -8.2460    -2.9910     3.0850 H     1 <1>   0.0800 
 52 H       -7.7950    -4.1640     1.8730 H     1 <1>   0.0800 
 53 H       -9.4630    -3.6870     2.0460 H     1 <1>   0.0800 
@<TRIPOS>BOND
  1   1   2  1   
  2   1   3  1   
  3   2   4  1   
  4   2  22  1   
  5   2  23  1   
  6   3   5  1   
  7   3  24  1   
  8   3  25  1   
  9   4   6  1   
 10   4  26  1   
 11   4  27  1   
 12   5   6  1   
 13   5  28  1   
 14   5  29  1   
 15   6   7  1   
 16   6  30  1   
 17   7   8  1   
 18   7  31  1   
 19   7  32  1   
 20   8   9  1   
 21   8  10  1   
 22   8  33  1   
 23   9  34  1   
 24  10  11  1   
 25  10  12  1   
 26  10  13  1   
 27  11  14  1   
 28  11  35  1   
 29  11  36  1   
 30  12  15  1   
 31  12  37  1   
 32  12  38  1   
 33  13  16  1   
 34  13  39  1   
 35  13  40  1   
 36  14  17  1   
 37  14  18  1   
 38  14  19  1   
 39  15  17  1   
 40  15  20  1   
 41  15  21  1   
 42  16  18  1   
 43  16  20  1   
 44  16  41  1   
 45  17  42  1   
 46  17  43  1   
 47  18  44  1   
 48  18  45  1   
 49  19  46  1   
 50  19  47  1   
 51  19  48  1   
 52  20  49  1   
 53  20  50  1   
 54  21  51  1   
 55  21  52  1   
 56  21  53  1   
@<TRIPOS>SUBSTRUCTURE
  1 ****  10 GROUP 4 **** **** 0

# MOE 2024.06 (io_trps.svl 2023.06)
