@<TRIPOS>MOLECULE
NONAME
44 47 1 0 0 
SMALL
USER_CHARGES


@<TRIPOS>ATOM
  1 S        2.1910     4.1250     1.0660 S.3   1 <1>  -0.2030 
  2 C        3.9000     4.6690     1.2150 C.ar  1 <1>   0.1020 
  3 C        2.1520     3.5230    -0.6290 C.ar  1 <1>   0.1020 
  4 C        4.8680     4.1250     0.3740 C.ar  1 <1>   0.1170 
  5 C        4.1980     5.6480     2.1410 C.ar  1 <1>  -0.1500 
  6 C        3.3450     3.1360    -1.2380 C.ar  1 <1>   0.1170 
  7 C        0.9440     3.5000    -1.2970 C.ar  1 <1>  -0.1500 
  8 N        4.5550     3.0600    -0.5070 N.am  1 <1>  -0.2940 
  9 C        6.1550     4.6470     0.4590 C.ar  1 <1>  -0.1500 
 10 C        5.4920     6.1340     2.2190 C.ar  1 <1>  -0.1500 
 11 C        3.2980     2.7860    -2.5840 C.ar  1 <1>  -0.1500 
 12 C        0.9170     3.1200    -2.6290 C.ar  1 <1>  -0.1500 
 13 C        5.2080     1.8420    -0.3620 C.2   1 <1>   0.5690 
 14 C        6.4850     5.6480     1.3710 C.ar  1 <1>  -0.1430 
 15 C        2.0950     2.7740    -3.2720 C.ar  1 <1>  -0.1500 
 16 O        6.3700     1.7640    -0.0300 O.2   1 <1>  -0.5700 
 17 C        4.4690     0.5140    -0.6070 C.3   1 <1>   0.1710 
 18 C        7.9210     6.1930     1.4500 C.3   1 <1>   1.1640 
 19 N        3.1460     0.3880     0.0610 N.3   1 <1>  -0.8100 
 20 F        8.5630     6.1350     0.2890 F     1 <1>  -0.3400 
 21 F        7.9640     7.4650     1.8300 F     1 <1>  -0.3400 
 22 F        8.6600     5.5200     2.3210 F     1 <1>  -0.3400 
 23 C        2.4370    -0.8350    -0.3500 C.3   1 <1>   0.1100 
 24 C        3.2540     0.4370     1.5330 C.3   1 <1>   0.1100 
 25 C        1.0770    -0.9410     0.3620 C.3   1 <1>   0.1200 
 26 C        1.8700     0.2830     2.1880 C.3   1 <1>   0.1200 
 27 O        1.2450    -0.8920     1.7500 O.3   1 <1>  -0.5600 
 28 H        3.4260     6.0320     2.7840 H     1 <1>   0.1500 
 29 H        0.0410     3.7860    -0.7890 H     1 <1>   0.1500 
 30 H        6.9110     4.2470    -0.1970 H     1 <1>   0.1500 
 31 H        5.7180     6.8990     2.9450 H     1 <1>   0.1500 
 32 H        4.2060     2.5160    -3.0930 H     1 <1>   0.1500 
 33 H       -0.0160     3.1010    -3.1640 H     1 <1>   0.1500 
 34 H        2.0740     2.4940    -4.3110 H     1 <1>   0.1500 
 35 H        5.1050    -0.2890    -0.2770 H     1 <1>   0.0800 
 36 H        4.3370     0.4040    -1.6670 H     1 <1>   0.0800 
 37 H        3.0270    -1.7040    -0.1120 H     1 <1>   0.0800 
 38 H        2.2750    -0.8140    -1.4140 H     1 <1>   0.0800 
 39 H        3.6760     1.3800     1.8360 H     1 <1>   0.0800 
 40 H        3.8990    -0.3500     1.8840 H     1 <1>   0.0800 
 41 H        0.5990    -1.8730     0.1210 H     1 <1>   0.0800 
 42 H        0.4340    -0.1310     0.0630 H     1 <1>   0.0800 
 43 H        1.2420     1.1210     1.9380 H     1 <1>   0.0800 
 44 H        1.9660     0.2260     3.2570 H     1 <1>   0.0800 
@<TRIPOS>BOND
  1   1   2  1   
  2   1   3  1   
  3   2   4  ar  
  4   2   5  ar  
  5   3   6  ar  
  6   3   7  ar  
  7   4   8  1   
  8   4   9  ar  
  9   5  10  ar  
 10   5  28  1   
 11   6   8  1   
 12   6  11  ar  
 13   7  12  ar  
 14   7  29  1   
 15   8  13  am  
 16   9  14  ar  
 17   9  30  1   
 18  10  14  ar  
 19  10  31  1   
 20  11  15  ar  
 21  11  32  1   
 22  12  15  ar  
 23  12  33  1   
 24  13  16  2   
 25  13  17  1   
 26  14  18  1   
 27  15  34  1   
 28  17  19  1   
 29  17  35  1   
 30  17  36  1   
 31  18  20  1   
 32  18  21  1   
 33  18  22  1   
 34  19  23  1   
 35  19  24  1   
 36  23  25  1   
 37  23  37  1   
 38  23  38  1   
 39  24  26  1   
 40  24  39  1   
 41  24  40  1   
 42  25  27  1   
 43  25  41  1   
 44  25  42  1   
 45  26  27  1   
 46  26  43  1   
 47  26  44  1   
@<TRIPOS>SUBSTRUCTURE
  1 ****   8 GROUP 4 **** **** 0

# MOE 2024.06 (io_trps.svl 2023.06)
