@<TRIPOS>MOLECULE
NONAME
41 43 1 0 0 
SMALL
USER_CHARGES


@<TRIPOS>ATOM
  1 O       -3.4820    -0.4480     1.4230 O.2   1 <1>  -0.5700 
  2 C       -4.1360    -1.2430     0.7900 C.2   1 <1>   0.5690 
  3 N       -5.4120    -1.0060     0.3530 N.am  1 <1>  -0.5470 
  4 C       -3.4530    -2.5800     0.4540 C.3   1 <1>   0.4040 
  5 C       -6.2500     0.1170     0.4830 C.ar  1 <1>   0.1170 
  6 N       -1.9430    -2.4860     0.4500 N.4   1 <1>  -0.9590 
  7 C       -7.4800     0.0890    -0.1630 C.ar  1 <1>   0.0830 
  8 C       -5.9570     1.2710     1.2130 C.ar  1 <1>  -0.1500 
  9 C       -1.4580    -1.6790    -0.7080 C.3   1 <1>   0.3430 
 10 C       -1.3060    -3.8220     0.6030 C.3   1 <1>   0.3430 
 11 O       -7.9880    -0.9020    -0.9180 O.3   1 <1>  -0.3630 
 12 C       -8.3600     1.1260    -0.0970 C.ar  1 <1>   0.0830 
 13 C       -6.8560     2.3320     1.2800 C.ar  1 <1>  -0.1500 
 14 C       -0.1690    -0.9540    -0.3260 C.3   1 <1>  -0.1600 
 15 C        0.1950    -3.7220     0.8840 C.3   1 <1>  -0.1600 
 16 C       -9.2750    -0.4570    -1.3530 C.3   1 <1>   0.4000 
 17 O       -9.4600     0.8450    -0.8030 O.3   1 <1>  -0.3620 
 18 C       -8.0760     2.2710     0.6200 C.ar  1 <1>  -0.1500 
 19 C        1.1240    -1.7650    -0.5190 C.3   1 <1>  -0.1600 
 20 C        1.0120    -3.2860    -0.3410 C.3   1 <1>  -0.1600 
 21 H       -5.8840    -1.7410    -0.1790 H     1 <1>   0.3700 
 22 H       -3.7990    -2.9230    -0.5050 H     1 <1>   0.0800 
 23 H       -3.7620    -3.2930     1.1990 H     1 <1>   0.0800 
 24 H       -1.7170    -1.9180     1.2850 H     1 <1>   0.4500 
 25 H       -5.0260     1.3600     1.7410 H     1 <1>   0.1500 
 26 H       -2.1940    -0.9290    -0.9510 H     1 <1>   0.0800 
 27 H       -1.3040    -2.2980    -1.5770 H     1 <1>   0.0800 
 28 H       -1.4640    -4.4090    -0.2880 H     1 <1>   0.0800 
 29 H       -1.7680    -4.3410     1.4280 H     1 <1>   0.0800 
 30 H       -6.6040     3.2100     1.8500 H     1 <1>   0.1500 
 31 H       -0.2380    -0.6060     0.6900 H     1 <1>   0.0800 
 32 H       -0.0900    -0.0730    -0.9400 H     1 <1>   0.0800 
 33 H        0.5270    -4.7090     1.1570 H     1 <1>   0.0800 
 34 H        0.3880    -3.0840     1.7290 H     1 <1>   0.0800 
 35 H      -10.0350    -1.1180    -0.9760 H     1 <1>   0.0800 
 36 H       -9.2950    -0.3990    -2.4270 H     1 <1>   0.0800 
 37 H       -8.7840     3.0800     0.6600 H     1 <1>   0.1500 
 38 H        1.8630    -1.3860     0.1680 H     1 <1>   0.0800 
 39 H        1.5060    -1.5800    -1.5090 H     1 <1>   0.0800 
 40 H        0.6020    -3.7310    -1.2320 H     1 <1>   0.0800 
 41 H        2.0130    -3.6730    -0.2390 H     1 <1>   0.0800 
@<TRIPOS>BOND
  1   1   2  2   
  2   2   3  am  
  3   2   4  1   
  4   3   5  1   
  5   3  21  1   
  6   4   6  1   
  7   4  22  1   
  8   4  23  1   
  9   5   7  ar  
 10   5   8  ar  
 11   6   9  1   
 12   6  10  1   
 13   6  24  1   
 14   7  11  1   
 15   7  12  ar  
 16   8  13  ar  
 17   8  25  1   
 18   9  14  1   
 19   9  26  1   
 20   9  27  1   
 21  10  15  1   
 22  10  28  1   
 23  10  29  1   
 24  11  16  1   
 25  12  17  1   
 26  12  18  ar  
 27  13  18  ar  
 28  13  30  1   
 29  14  19  1   
 30  14  31  1   
 31  14  32  1   
 32  15  20  1   
 33  15  33  1   
 34  15  34  1   
 35  16  17  1   
 36  16  35  1   
 37  16  36  1   
 38  18  37  1   
 39  19  20  1   
 40  19  38  1   
 41  19  39  1   
 42  20  40  1   
 43  20  41  1   
@<TRIPOS>SUBSTRUCTURE
  1 ****   2 GROUP 4 **** **** 0

# MOE 2024.06 (io_trps.svl 2023.06)
