@<TRIPOS>MOLECULE
NONAME
45 46 1 0 0 
SMALL
USER_CHARGES


@<TRIPOS>ATOM
  1 O       -2.2060    -0.2470     1.4960 O.3   1 <1>  -0.3630 
  2 C       -2.5140     0.7230     0.6020 C.ar  1 <1>   0.0830 
  3 C       -1.0500    -0.1650     2.3020 C.3   1 <1>   0.0400 
  4 C       -1.8140     1.9170     0.4740 C.ar  1 <1>  -0.1500 
  5 C       -3.6060     0.4720    -0.2100 C.ar  1 <1>  -0.1500 
  6 C       -2.2190     2.8530    -0.4720 C.ar  1 <1>   0.0830 
  7 C       -4.0240     1.4090    -1.1420 C.ar  1 <1>  -0.1430 
  8 O       -1.6050     4.0440    -0.6710 O.3   1 <1>  -0.3630 
  9 C       -3.3170     2.5930    -1.2750 C.ar  1 <1>  -0.1500 
 10 C       -5.2550     1.1480    -1.9800 C.3   1 <1>   0.4860 
 11 C       -0.4040     4.3760    -0.0080 C.3   1 <1>   0.0400 
 12 N       -6.4300     1.3060    -1.0650 N.4   1 <1>  -0.9590 
 13 C       -7.6600     0.6490    -1.6350 C.3   1 <1>   0.3430 
 14 C       -6.5730     2.7540    -0.7090 C.3   1 <1>   0.3430 
 15 C       -8.6200     0.0740    -0.5520 C.3   1 <1>   0.3430 
 16 C       -7.8740     3.0930     0.0230 C.3   1 <1>  -0.1600 
 17 N       -9.2570     1.0680     0.3960 N.4   1 <1>  -0.9590 
 18 C       -8.3400     2.0560     1.0440 C.3   1 <1>   0.3430 
 19 C      -10.0180     0.3280     1.4600 C.3   1 <1>   0.2630 
 20 H       -0.9890    -1.0630     2.8920 H     1 <1>   0.0800 
 21 H       -1.1320     0.6900     2.9490 H     1 <1>   0.0800 
 22 H       -0.1840    -0.0880     1.6670 H     1 <1>   0.0800 
 23 H       -0.9700     2.1170     1.1010 H     1 <1>   0.1500 
 24 H       -4.1060    -0.4730    -0.0900 H     1 <1>   0.1500 
 25 H       -3.5950     3.3400    -1.9990 H     1 <1>   0.1500 
 26 H       -5.2070     0.1440    -2.3720 H     1 <1>   0.0800 
 27 H       -5.3080     1.8420    -2.8040 H     1 <1>   0.0800 
 28 H       -0.0810     5.3380    -0.3620 H     1 <1>   0.0800 
 29 H        0.3410     3.6340    -0.2390 H     1 <1>   0.0800 
 30 H       -0.5880     4.4210     1.0510 H     1 <1>   0.0800 
 31 H       -6.1200     0.8110    -0.2160 H     1 <1>   0.4500 
 32 H       -7.3550    -0.1770    -2.2590 H     1 <1>   0.0800 
 33 H       -8.1930     1.3420    -2.2650 H     1 <1>   0.0800 
 34 H       -6.5160     3.3570    -1.6020 H     1 <1>   0.0800 
 35 H       -5.7400     3.0390    -0.0830 H     1 <1>   0.0800 
 36 H       -8.0730    -0.6560     0.0210 H     1 <1>   0.0800 
 37 H       -9.4070    -0.4600    -1.0610 H     1 <1>   0.0800 
 38 H       -8.6540     3.3120    -0.6850 H     1 <1>   0.0800 
 39 H       -7.6910     4.0120     0.5530 H     1 <1>   0.0800 
 40 H       -9.9640     1.6130    -0.1250 H     1 <1>   0.4500 
 41 H       -8.8830     2.5730     1.8210 H     1 <1>   0.0800 
 42 H       -7.5000     1.5620     1.5060 H     1 <1>   0.0800 
 43 H       -9.3480    -0.2580     2.0690 H     1 <1>   0.0800 
 44 H      -10.7450    -0.3330     1.0160 H     1 <1>   0.0800 
 45 H      -10.5410     1.0220     2.1000 H     1 <1>   0.0800 
@<TRIPOS>BOND
  1   1   2  1   
  2   1   3  1   
  3   2   4  ar  
  4   2   5  ar  
  5   3  20  1   
  6   3  21  1   
  7   3  22  1   
  8   4   6  ar  
  9   4  23  1   
 10   5   7  ar  
 11   5  24  1   
 12   6   8  1   
 13   6   9  ar  
 14   7   9  ar  
 15   7  10  1   
 16   8  11  1   
 17   9  25  1   
 18  10  12  1   
 19  10  26  1   
 20  10  27  1   
 21  11  28  1   
 22  11  29  1   
 23  11  30  1   
 24  12  13  1   
 25  12  14  1   
 26  12  31  1   
 27  13  15  1   
 28  13  32  1   
 29  13  33  1   
 30  14  16  1   
 31  14  34  1   
 32  14  35  1   
 33  15  17  1   
 34  15  36  1   
 35  15  37  1   
 36  16  18  1   
 37  16  38  1   
 38  16  39  1   
 39  17  18  1   
 40  17  19  1   
 41  17  40  1   
 42  18  41  1   
 43  18  42  1   
 44  19  43  1   
 45  19  44  1   
 46  19  45  1   
@<TRIPOS>SUBSTRUCTURE
  1 ****   7 GROUP 4 **** **** 0

# MOE 2024.06 (io_trps.svl 2023.06)
