@<TRIPOS>MOLECULE
NONAME
48 49 1 0 0 
SMALL
USER_CHARGES


@<TRIPOS>ATOM
  1 S       -0.2470    -0.1730    -1.1640 S.o2  1 <1>   1.4470 
  2 O       -0.0020    -0.5910    -2.5280 O.2   1 <1>  -0.6500 
  3 O        0.3120     1.0730    -0.6860 O.2   1 <1>  -0.6500 
  4 N        0.3530    -1.3960    -0.1570 N.am  1 <1>  -0.8490 
  5 C       -2.0230    -0.1950    -0.8080 C.ar  1 <1>  -0.0090 
  6 C        1.8140    -1.2990    -0.0100 C.3   1 <1>   0.1960 
  7 C        0.0040    -2.7460    -0.6310 C.3   1 <1>   0.1960 
  8 C       -2.9570    -0.4980    -1.7930 C.ar  1 <1>  -0.1500 
  9 C       -2.4920     0.0830     0.4710 C.ar  1 <1>  -0.1500 
 10 C        2.3590    -2.4180     0.8960 C.3   1 <1>   0.1200 
 11 C        0.5850    -3.8260     0.3000 C.3   1 <1>   0.1200 
 12 C       -4.3100    -0.5220    -1.5100 C.ar  1 <1>  -0.1500 
 13 C       -3.8440     0.0630     0.7650 C.ar  1 <1>  -0.1500 
 14 O        1.9720    -3.6760     0.4190 O.3   1 <1>  -0.5600 
 15 C       -4.7640    -0.2410    -0.2330 C.ar  1 <1>   0.0830 
 16 O       -6.1020    -0.2810    -0.0390 O.3   1 <1>  -0.3630 
 17 C       -6.6790     0.0680     1.2150 C.3   1 <1>   0.1810 
 18 C       -8.1990    -0.0010     1.1640 C.2   1 <1>   0.5690 
 19 O       -8.8110     0.2420     2.1770 O.2   1 <1>  -0.5700 
 20 N       -8.7990    -0.3300    -0.0130 N.am  1 <1>  -0.7300 
 21 C      -10.2210    -0.4660    -0.3330 C.3   1 <1>   0.3000 
 22 C      -10.9280     0.8720    -0.1120 C.3   1 <1>  -0.2400 
 23 C      -10.3010    -0.8530    -1.8080 C.3   1 <1>  -0.2400 
 24 C      -10.8370    -1.5700     0.5250 C.3   1 <1>  -0.2400 
 25 H        2.0720    -0.3470     0.4230 H     1 <1>   0.0800 
 26 H        2.2880    -1.3630    -0.9760 H     1 <1>   0.0800 
 27 H        0.3900    -2.9060    -1.6250 H     1 <1>   0.0800 
 28 H       -1.0660    -2.8530    -0.6660 H     1 <1>   0.0800 
 29 H       -2.6210    -0.7150    -2.7940 H     1 <1>   0.1500 
 30 H       -1.7810     0.3200     1.2460 H     1 <1>   0.1500 
 31 H        1.9900    -2.3020     1.9010 H     1 <1>   0.0800 
 32 H        3.4340    -2.3910     0.9160 H     1 <1>   0.0800 
 33 H        0.3940    -4.8050    -0.0990 H     1 <1>   0.0800 
 34 H        0.1460    -3.7570     1.2800 H     1 <1>   0.0800 
 35 H       -5.0220    -0.7560    -2.2820 H     1 <1>   0.1500 
 36 H       -4.1540     0.2850     1.7690 H     1 <1>   0.1500 
 37 H       -6.3810     1.0700     1.4610 H     1 <1>   0.0800 
 38 H       -6.3200    -0.6190     1.9590 H     1 <1>   0.0800 
 39 H       -8.1750    -0.5170    -0.7990 H     1 <1>   0.3700 
 40 H      -10.9030     1.1450     0.9280 H     1 <1>   0.0800 
 41 H      -11.9570     0.8010    -0.4110 H     1 <1>   0.0800 
 42 H      -10.4560     1.6470    -0.6880 H     1 <1>   0.0800 
 43 H       -9.8590    -0.0900    -2.4240 H     1 <1>   0.0800 
 44 H      -11.3280    -0.9670    -2.1030 H     1 <1>   0.0800 
 45 H       -9.7970    -1.7860    -1.9820 H     1 <1>   0.0800 
 46 H      -10.8130    -1.3000     1.5650 H     1 <1>   0.0800 
 47 H      -10.3030    -2.4930     0.3910 H     1 <1>   0.0800 
 48 H      -11.8640    -1.7260     0.2470 H     1 <1>   0.0800 
@<TRIPOS>BOND
  1   1   2  2   
  2   1   3  2   
  3   1   4  am  
  4   1   5  1   
  5   4   6  1   
  6   4   7  1   
  7   5   8  ar  
  8   5   9  ar  
  9   6  10  1   
 10   6  25  1   
 11   6  26  1   
 12   7  11  1   
 13   7  27  1   
 14   7  28  1   
 15   8  12  ar  
 16   8  29  1   
 17   9  13  ar  
 18   9  30  1   
 19  10  14  1   
 20  10  31  1   
 21  10  32  1   
 22  11  14  1   
 23  11  33  1   
 24  11  34  1   
 25  12  15  ar  
 26  12  35  1   
 27  13  15  ar  
 28  13  36  1   
 29  15  16  1   
 30  16  17  1   
 31  17  18  1   
 32  17  37  1   
 33  17  38  1   
 34  18  19  2   
 35  18  20  am  
 36  20  21  1   
 37  20  39  1   
 38  21  22  1   
 39  21  23  1   
 40  21  24  1   
 41  22  40  1   
 42  22  41  1   
 43  22  42  1   
 44  23  43  1   
 45  23  44  1   
 46  23  45  1   
 47  24  46  1   
 48  24  47  1   
 49  24  48  1   
@<TRIPOS>SUBSTRUCTURE
  1 ****  15 GROUP 4 **** **** 0

# MOE 2024.06 (io_trps.svl 2023.06)
