@<TRIPOS>MOLECULE
NONAME
41 42 1 0 0 
SMALL
USER_CHARGES


@<TRIPOS>ATOM
  1 BR      -0.8350    -1.5300    -4.2330 Br    1 <1>  -0.1110 
  2 C       -0.8520    -2.4770    -2.5580 C.ar  1 <1>   0.1110 
  3 C       -1.9710    -3.2170    -2.2280 C.ar  1 <1>  -0.1500 
  4 C        0.2510    -2.3910    -1.7320 C.ar  1 <1>  -0.1500 
  5 C       -1.9880    -3.8950    -1.0180 C.ar  1 <1>  -0.1440 
  6 C        0.2320    -3.0730    -0.5270 C.ar  1 <1>  -0.1500 
  7 C       -0.8870    -3.8260    -0.1670 C.ar  1 <1>   0.0830 
  8 C       -3.1990    -4.7130    -0.6170 C.3   1 <1>   0.4870 
  9 O       -0.9730    -4.5080     1.0050 O.3   1 <1>  -0.3620 
 10 N       -4.2580    -3.7880    -0.1270 N.4   1 <1>  -0.9590 
 11 C        0.1530    -4.6610     1.8470 C.3   1 <1>   0.0400 
 12 C       -3.8620    -3.1810     1.1690 C.3   1 <1>   0.4380 
 13 C       -5.5990    -4.4250    -0.0500 C.3   1 <1>   0.3430 
 14 C       -4.6160    -1.8620     1.3150 C.3   1 <1>  -0.1950 
 15 C       -6.1720    -4.6290    -1.4540 C.3   1 <1>  -0.1600 
 16 C       -4.2690    -0.6790     0.4630 C.3   1 <1>  -0.2000 
 17 C       -3.9400    -0.6760     1.9280 C.3   1 <1>  -0.2000 
 18 C       -7.5990    -5.1840    -1.3850 C.3   1 <1>  -0.2400 
 19 H       -2.7960    -3.2520    -2.9180 H     1 <1>   0.1500 
 20 H        1.1040    -1.8050    -2.0270 H     1 <1>   0.1500 
 21 H        1.0930    -3.0020     0.1110 H     1 <1>   0.1500 
 22 H       -2.9360    -5.4230     0.1490 H     1 <1>   0.0800 
 23 H       -3.5470    -5.2590    -1.4780 H     1 <1>   0.0800 
 24 H       -4.3030    -3.0010    -0.7860 H     1 <1>   0.4500 
 25 H       -0.1220    -5.2990     2.6680 H     1 <1>   0.0800 
 26 H        0.4490    -3.6970     2.2210 H     1 <1>   0.0800 
 27 H        0.9520    -5.1160     1.2870 H     1 <1>   0.0800 
 28 H       -2.8070    -2.9660     1.1690 H     1 <1>   0.0800 
 29 H       -4.0740    -3.8430     1.9930 H     1 <1>   0.0800 
 30 H       -6.2710    -3.7890     0.5020 H     1 <1>   0.0800 
 31 H       -5.5350    -5.3710     0.4650 H     1 <1>   0.0800 
 32 H       -5.6460    -2.0000     1.5980 H     1 <1>   0.1000 
 33 H       -5.5690    -5.3210    -2.0140 H     1 <1>   0.0800 
 34 H       -6.1980    -3.6880    -1.9760 H     1 <1>   0.0800 
 35 H       -5.0550    -0.0240     0.1210 H     1 <1>   0.1000 
 36 H       -3.4420    -0.7170    -0.2270 H     1 <1>   0.1000 
 37 H       -2.9030    -0.7310     2.2140 H     1 <1>   0.1000 
 38 H       -4.5050    -0.0250     2.5750 H     1 <1>   0.1000 
 39 H       -7.6170    -6.1380    -0.8870 H     1 <1>   0.0800 
 40 H       -7.9910    -5.3170    -2.3790 H     1 <1>   0.0800 
 41 H       -8.2490    -4.5060    -0.8570 H     1 <1>   0.0800 
@<TRIPOS>BOND
  1   1   2  1   
  2   2   3  ar  
  3   2   4  ar  
  4   3   5  ar  
  5   3  19  1   
  6   4   6  ar  
  7   4  20  1   
  8   5   7  ar  
  9   5   8  1   
 10   6   7  ar  
 11   6  21  1   
 12   7   9  1   
 13   8  10  1   
 14   8  22  1   
 15   8  23  1   
 16   9  11  1   
 17  10  12  1   
 18  10  13  1   
 19  10  24  1   
 20  11  25  1   
 21  11  26  1   
 22  11  27  1   
 23  12  14  1   
 24  12  28  1   
 25  12  29  1   
 26  13  15  1   
 27  13  30  1   
 28  13  31  1   
 29  14  16  1   
 30  14  17  1   
 31  14  32  1   
 32  15  18  1   
 33  15  33  1   
 34  15  34  1   
 35  16  17  1   
 36  16  35  1   
 37  16  36  1   
 38  17  37  1   
 39  17  38  1   
 40  18  39  1   
 41  18  40  1   
 42  18  41  1   
@<TRIPOS>SUBSTRUCTURE
  1 ****   5 GROUP 4 **** **** 0

# MOE 2024.06 (io_trps.svl 2023.06)
