@<TRIPOS>MOLECULE
NONAME
41 41 1 0 0 
SMALL
USER_CHARGES


@<TRIPOS>ATOM
  1 I        2.0550    -1.7540    -3.5780 I     1 <1>  -0.0810 
  2 C        3.2830    -0.9910    -2.0190 C.ar  1 <1>   0.0810 
  3 C        3.0570    -1.4160    -0.7240 C.ar  1 <1>  -0.1500 
  4 C        4.2780    -0.0870    -2.3370 C.ar  1 <1>  -0.1500 
  5 C        3.8640    -0.9140     0.2830 C.ar  1 <1>  -0.1500 
  6 C        5.0720     0.4010    -1.3120 C.ar  1 <1>  -0.1500 
  7 C        4.8830    -0.0030     0.0080 C.ar  1 <1>  -0.0090 
  8 S        5.9400     0.6490     1.3320 S.o2  1 <1>   1.4470 
  9 O        5.8310    -0.1830     2.5120 O.2   1 <1>  -0.6500 
 10 O        5.7190     2.0740     1.4470 O.2   1 <1>  -0.6500 
 11 N        7.5040     0.4130     0.7160 N.am  1 <1>  -0.8490 
 12 C        8.4930     1.2740     1.3740 C.3   1 <1>   0.1960 
 13 C        7.8990    -0.9980     0.7350 C.3   1 <1>   0.1960 
 14 C        8.8090     2.4570     0.4570 C.3   1 <1>  -0.1600 
 15 C        8.9710    -1.2600    -0.3280 C.3   1 <1>  -0.1600 
 16 C        9.8700     3.3750     1.0770 C.3   1 <1>  -0.1600 
 17 C        9.3330    -2.7490    -0.3950 C.3   1 <1>  -0.1600 
 18 C       10.1860     4.5530     0.1500 C.3   1 <1>  -0.2400 
 19 C       10.4000    -3.0080    -1.4610 C.3   1 <1>  -0.2400 
 20 H        2.2730    -2.1200    -0.5060 H     1 <1>   0.1500 
 21 H        4.4300     0.2290    -3.3540 H     1 <1>   0.1500 
 22 H        3.7020    -1.2330     1.3000 H     1 <1>   0.1500 
 23 H        5.8540     1.1080    -1.5350 H     1 <1>   0.1500 
 24 H        9.4050     0.7350     1.5660 H     1 <1>   0.0800 
 25 H        8.1230     1.6270     2.3230 H     1 <1>   0.0800 
 26 H        7.0460    -1.6150     0.5040 H     1 <1>   0.0800 
 27 H        8.2490    -1.2770     1.7160 H     1 <1>   0.0800 
 28 H        7.9110     3.0220     0.2830 H     1 <1>   0.0800 
 29 H        9.1670     2.0830    -0.4860 H     1 <1>   0.0800 
 30 H        9.8580    -0.6940    -0.1070 H     1 <1>   0.0800 
 31 H        8.5950    -0.9430    -1.2850 H     1 <1>   0.0800 
 32 H       10.7730     2.8180     1.2600 H     1 <1>   0.0800 
 33 H        9.5120     3.7550     2.0190 H     1 <1>   0.0800 
 34 H        8.4540    -3.3270    -0.6290 H     1 <1>   0.0800 
 35 H        9.7030    -3.0770     0.5620 H     1 <1>   0.0800 
 36 H       10.5640     4.1990    -0.7930 H     1 <1>   0.0800 
 37 H       10.9290     5.1870     0.6010 H     1 <1>   0.0800 
 38 H        9.3000     5.1370    -0.0280 H     1 <1>   0.0800 
 39 H       10.0440    -2.7090    -2.4320 H     1 <1>   0.0800 
 40 H       10.6400    -4.0560    -1.4950 H     1 <1>   0.0800 
 41 H       11.2980    -2.4600    -1.2380 H     1 <1>   0.0800 
@<TRIPOS>BOND
  1   1   2  1   
  2   2   3  ar  
  3   2   4  ar  
  4   3   5  ar  
  5   3  20  1   
  6   4   6  ar  
  7   4  21  1   
  8   5   7  ar  
  9   5  22  1   
 10   6   7  ar  
 11   6  23  1   
 12   7   8  1   
 13   8   9  2   
 14   8  10  2   
 15   8  11  am  
 16  11  12  1   
 17  11  13  1   
 18  12  14  1   
 19  12  24  1   
 20  12  25  1   
 21  13  15  1   
 22  13  26  1   
 23  13  27  1   
 24  14  16  1   
 25  14  28  1   
 26  14  29  1   
 27  15  17  1   
 28  15  30  1   
 29  15  31  1   
 30  16  18  1   
 31  16  32  1   
 32  16  33  1   
 33  17  19  1   
 34  17  34  1   
 35  17  35  1   
 36  18  36  1   
 37  18  37  1   
 38  18  38  1   
 39  19  39  1   
 40  19  40  1   
 41  19  41  1   
@<TRIPOS>SUBSTRUCTURE
  1 ****  11 GROUP 4 **** **** 0

# MOE 2024.06 (io_trps.svl 2023.06)
