@<TRIPOS>MOLECULE
NONAME
40 41 1 0 0 
SMALL
USER_CHARGES


@<TRIPOS>ATOM
  1 O        0.1450    -0.4180     0.5880 O.2   1 <1>  -0.5700 
  2 C       -0.3540    -1.4260     0.1250 C.2   1 <1>   0.8060 
  3 O       -1.5460    -1.3390    -0.4780 O.3   1 <1>  -0.4300 
  4 C        0.2660    -2.7280     0.2120 C.2   1 <1>  -0.0860 
  5 C       -2.2050    -0.1000    -0.6420 C.3   1 <1>   0.0400 
  6 C        1.6320    -2.9760    -0.0800 C.2   1 <1>  -0.0860 
  7 C       -0.2700    -3.9350     0.5920 C.2   1 <1>  -0.3320 
  8 C        1.8400    -4.3130     0.1580 C.2   1 <1>  -0.3320 
  9 C        2.5500    -1.9670    -0.5580 C.2   1 <1>   0.8060 
 10 N        0.6860    -4.8980     0.5700 N.pl3 1 <1>   0.0480 
 11 C       -1.7110    -4.2190     0.9970 C.3   1 <1>  -0.0600 
 12 C        3.1420    -5.0850    -0.0230 C.3   1 <1>  -0.0600 
 13 O        2.2760    -1.1820    -1.4450 O.2   1 <1>  -0.5700 
 14 O        3.7670    -1.9150    -0.0030 O.3   1 <1>  -0.4300 
 15 C        0.4950    -6.3290     0.9290 C.3   1 <1>   0.2390 
 16 C        4.7130    -0.9360    -0.3830 C.3   1 <1>   0.0400 
 17 C       -0.2720    -7.1080    -0.1350 C.ar  1 <1>  -0.1440 
 18 C       -0.2030    -6.7750    -1.4830 C.ar  1 <1>   0.1600 
 19 C       -1.0530    -8.1840     0.2400 C.ar  1 <1>  -0.1500 
 20 N       -0.8320    -7.4170    -2.4550 N.ar  1 <1>  -0.6200 
 21 C       -1.7170    -8.8600    -0.7610 C.ar  1 <1>  -0.1500 
 22 C       -1.5740    -8.4420    -2.0720 C.ar  1 <1>   0.1600 
 23 H       -1.5730     0.5550    -1.2180 H     1 <1>   0.0800 
 24 H       -2.3950     0.3250     0.3280 H     1 <1>   0.0800 
 25 H       -3.1300    -0.2720    -1.1610 H     1 <1>   0.0800 
 26 H       -1.7470    -4.6490     1.9820 H     1 <1>   0.0800 
 27 H       -2.2960    -3.3180     1.0090 H     1 <1>   0.0800 
 28 H       -2.1630    -4.9020     0.3000 H     1 <1>   0.0800 
 29 H        2.9880    -5.9300    -0.6710 H     1 <1>   0.0800 
 30 H        3.9000    -4.4650    -0.4650 H     1 <1>   0.0800 
 31 H        3.5030    -5.4300     0.9290 H     1 <1>   0.0800 
 32 H       -0.0360    -6.3690     1.8620 H     1 <1>   0.0800 
 33 H        1.4530    -6.7880     1.0820 H     1 <1>   0.0800 
 34 H        4.2980     0.0390    -0.1920 H     1 <1>   0.0800 
 35 H        4.9290    -1.0490    -1.4310 H     1 <1>   0.0800 
 36 H        5.6050    -1.0790     0.1990 H     1 <1>   0.0800 
 37 H        0.3990    -5.9340    -1.7860 H     1 <1>   0.1500 
 38 H       -1.1470    -8.4910     1.2670 H     1 <1>   0.1500 
 39 H       -2.3410    -9.7060    -0.5320 H     1 <1>   0.1500 
 40 H       -2.0960    -8.9790    -2.8460 H     1 <1>   0.1500 
@<TRIPOS>BOND
  1   1   2  2   
  2   2   3  1   
  3   2   4  1   
  4   3   5  1   
  5   4   6  1   
  6   4   7  2   
  7   5  23  1   
  8   5  24  1   
  9   5  25  1   
 10   6   8  2   
 11   6   9  1   
 12   7  10  1   
 13   7  11  1   
 14   8  10  1   
 15   8  12  1   
 16   9  13  2   
 17   9  14  1   
 18  10  15  1   
 19  11  26  1   
 20  11  27  1   
 21  11  28  1   
 22  12  29  1   
 23  12  30  1   
 24  12  31  1   
 25  14  16  1   
 26  15  17  1   
 27  15  32  1   
 28  15  33  1   
 29  16  34  1   
 30  16  35  1   
 31  16  36  1   
 32  17  18  ar  
 33  17  19  ar  
 34  18  20  ar  
 35  18  37  1   
 36  19  21  ar  
 37  19  38  1   
 38  20  22  ar  
 39  21  22  ar  
 40  21  39  1   
 41  22  40  1   
@<TRIPOS>SUBSTRUCTURE
  1 ****   7 GROUP 4 **** **** 0

# MOE 2024.06 (io_trps.svl 2023.06)
