@<TRIPOS>MOLECULE
Structure508
19 20 1 0 0 
SMALL
USER_CHARGES


@<TRIPOS>ATOM
  1 N       -0.0910     0.1460    -0.0140 N.ar  1 <1>  -0.6200 
  2 C        1.0120     0.8760     0.0800 C.ar  1 <1>   0.4760 
  3 C       -1.1980     0.8530    -0.0450 C.ar  1 <1>   0.1660 
  4 N        1.1150     2.1990     0.1420 N.ar  1 <1>  -0.6200 
  5 C        2.3110     0.1080     0.1140 C.3   1 <1>  -0.0960 
  6 C       -1.2220     2.2080     0.0120 C.ar  1 <1>  -0.1430 
  7 C       -2.6090     0.3310    -0.1410 C.3   1 <1>   0.2540 
  8 C       -0.0220     2.8660     0.1070 C.ar  1 <1>   0.1600 
  9 C       -2.6400     2.7050    -0.0520 C.3   1 <1>   0.2540 
 10 N       -3.4620     1.5020     0.1740 N.3   1 <1>  -0.9000 
 11 H        2.1730    -0.8250     0.6280 H     1 <1>   0.0800 
 12 H        3.0660     0.6780     0.6230 H     1 <1>   0.0800 
 13 H        2.6330    -0.0860    -0.8910 H     1 <1>   0.0800 
 14 H       -2.7770    -0.4680     0.5600 H     1 <1>   0.0800 
 15 H       -2.8010    -0.0130    -1.1430 H     1 <1>   0.0800 
 16 H        0.0140     3.9400     0.1540 H     1 <1>   0.1500 
 17 H       -2.8460     3.1090    -1.0290 H     1 <1>   0.0800 
 18 H       -2.8400     3.4500     0.7010 H     1 <1>   0.0800 
 19 H       -3.6320     1.4580     1.1860 H     1 <1>   0.3600 
@<TRIPOS>BOND
  1   1   2  ar  
  2   1   3  ar  
  3   2   4  ar  
  4   2   5  1   
  5   3   6  ar  
  6   3   7  1   
  7   4   8  ar  
  8   5  11  1   
  9   5  12  1   
 10   5  13  1   
 11   6   8  ar  
 12   6   9  1   
 13   7  10  1   
 14   7  14  1   
 15   7  15  1   
 16   8  16  1   
 17   9  10  1   
 18   9  17  1   
 19   9  18  1   
 20  10  19  1   
@<TRIPOS>SUBSTRUCTURE
  1 ****   3 GROUP 4 **** **** 0

# MOE 2024.06 (io_trps.svl 2023.06)
