@<TRIPOS>MOLECULE
NONAME
64 66 1 0 0 
SMALL
USER_CHARGES


@<TRIPOS>ATOM
  1 O        4.0570    -1.8050     1.4440 O.3   1 <1>  -0.3630 
  2 C        3.1870    -2.4040     0.5830 C.ar  1 <1>   0.0820 
  3 C        3.9480    -1.9700     2.8470 C.3   1 <1>   0.0400 
  4 C        3.2600    -2.0800    -0.7750 C.ar  1 <1>  -0.1440 
  5 C        2.2470    -3.3340     1.0240 C.ar  1 <1>  -0.1500 
  6 C        2.3980    -2.7170    -1.6580 C.ar  1 <1>  -0.1500 
  7 C        4.2390    -1.0720    -1.3790 C.3   1 <1>   0.5660 
  8 C        1.3910    -3.9490     0.1290 C.ar  1 <1>  -0.1500 
  9 C        1.4680    -3.6420    -1.2230 C.ar  1 <1>   0.0820 
 10 N        5.5570    -1.3120    -0.7870 N.4   1 <1>  -0.9060 
 11 C        3.8030     0.4150    -1.3390 C.3   1 <1>  -0.0800 
 12 O        0.6760    -4.1950    -2.1750 O.3   1 <1>  -0.3620 
 13 C        6.4000    -0.1350    -0.5980 C.3   1 <1>   0.5660 
 14 C        4.2580     1.1870    -0.0620 C.3   1 <1>   0.2800 
 15 C        2.3020     0.5710    -1.6990 C.3   1 <1>  -0.2400 
 16 C       -0.3410    -5.1140    -1.8370 C.3   1 <1>   0.0400 
 17 C        7.7420    -0.6640    -0.1220 C.ar  1 <1>  -0.1440 
 18 C        5.7290     0.8530     0.3770 C.3   1 <1>  -0.0800 
 19 O        3.4300     0.8210     0.9770 O.3   1 <1>  -0.6800 
 20 C        3.9880     2.6940    -0.2230 C.3   1 <1>  -0.2400 
 21 C        8.8570    -0.4910    -0.9330 C.ar  1 <1>   0.0820 
 22 C        7.8760    -1.3230     1.0930 C.ar  1 <1>  -0.1500 
 23 C        6.6580     2.0710     0.6100 C.3   1 <1>  -0.2400 
 24 O        8.6660     0.1500    -2.1180 O.3   1 <1>  -0.3630 
 25 C       10.0950    -0.9740    -0.5190 C.ar  1 <1>  -0.1500 
 26 C        9.1050    -1.8070     1.5060 C.ar  1 <1>   0.0820 
 27 C        9.7610     0.4960    -2.9440 C.3   1 <1>   0.0400 
 28 C       10.2200    -1.6280     0.6940 C.ar  1 <1>  -0.1500 
 29 O        9.1290    -2.4390     2.7060 O.3   1 <1>  -0.3620 
 30 C       10.3390    -2.9200     3.2510 C.3   1 <1>   0.0400 
 31 H        4.6890    -1.3510     3.3220 H     1 <1>   0.0800 
 32 H        4.1260    -3.0020     3.0980 H     1 <1>   0.0800 
 33 H        2.9660    -1.6630     3.1640 H     1 <1>   0.0800 
 34 H        2.1610    -3.6040     2.0600 H     1 <1>   0.1500 
 35 H        2.4240    -2.5060    -2.7140 H     1 <1>   0.1500 
 36 H        4.3090    -1.3200    -2.4260 H     1 <1>   0.0800 
 37 H        0.6770    -4.6610     0.4990 H     1 <1>   0.1500 
 38 H        6.0770    -2.0220    -1.3090 H     1 <1>   0.4500 
 39 H        5.3730    -1.7120     0.1420 H     1 <1>   0.4500 
 40 H        4.3280     0.8750    -2.1570 H     1 <1>   0.0800 
 41 H        6.5330     0.3610    -1.5450 H     1 <1>   0.0800 
 42 H        1.6700     0.2320    -0.8950 H     1 <1>   0.0800 
 43 H        2.0600     0.0030    -2.5810 H     1 <1>   0.0800 
 44 H        2.0520     1.5940    -1.9110 H     1 <1>   0.0800 
 45 H       -0.8460    -5.4010    -2.7420 H     1 <1>   0.0800 
 46 H       -1.0360    -4.6380    -1.1680 H     1 <1>   0.0800 
 47 H        0.1050    -5.9790    -1.3790 H     1 <1>   0.0800 
 48 H        5.6820     0.3630     1.3330 H     1 <1>   0.0800 
 49 H        3.4670    -0.1450     1.1500 H     1 <1>   0.4000 
 50 H        4.5570     3.1030    -1.0370 H     1 <1>   0.0800 
 51 H        4.2350     3.2290     0.6760 H     1 <1>   0.0800 
 52 H        2.9490     2.8880    -0.4110 H     1 <1>   0.0800 
 53 H        7.0400    -1.4760     1.7520 H     1 <1>   0.1500 
 54 H        6.7910     2.6440    -0.2910 H     1 <1>   0.0800 
 55 H        7.6310     1.7570     0.9470 H     1 <1>   0.0800 
 56 H        6.2620     2.7110     1.3790 H     1 <1>   0.0800 
 57 H       10.9760    -0.8540    -1.1230 H     1 <1>   0.1500 
 58 H        9.3860     1.0430    -3.7900 H     1 <1>   0.0800 
 59 H       10.2470    -0.4020    -3.2800 H     1 <1>   0.0800 
 60 H       10.4410     1.1150    -2.3850 H     1 <1>   0.0800 
 61 H       11.1870    -1.9910     0.9890 H     1 <1>   0.1500 
 62 H       11.0210    -2.0970     3.3730 H     1 <1>   0.0800 
 63 H       10.7490    -3.6660     2.5920 H     1 <1>   0.0800 
 64 H       10.1240    -3.3600     4.2080 H     1 <1>   0.0800 
@<TRIPOS>BOND
  1   1   2  1   
  2   1   3  1   
  3   2   4  ar  
  4   2   5  ar  
  5   3  31  1   
  6   3  32  1   
  7   3  33  1   
  8   4   6  ar  
  9   4   7  1   
 10   5   8  ar  
 11   5  34  1   
 12   6   9  ar  
 13   6  35  1   
 14   7  10  1   
 15   7  11  1   
 16   7  36  1   
 17   8   9  ar  
 18   8  37  1   
 19   9  12  1   
 20  10  13  1   
 21  10  38  1   
 22  10  39  1   
 23  11  14  1   
 24  11  15  1   
 25  11  40  1   
 26  12  16  1   
 27  13  17  1   
 28  13  18  1   
 29  13  41  1   
 30  14  18  1   
 31  14  19  1   
 32  14  20  1   
 33  15  42  1   
 34  15  43  1   
 35  15  44  1   
 36  16  45  1   
 37  16  46  1   
 38  16  47  1   
 39  17  21  ar  
 40  17  22  ar  
 41  18  23  1   
 42  18  48  1   
 43  19  49  1   
 44  20  50  1   
 45  20  51  1   
 46  20  52  1   
 47  21  24  1   
 48  21  25  ar  
 49  22  26  ar  
 50  22  53  1   
 51  23  54  1   
 52  23  55  1   
 53  23  56  1   
 54  24  27  1   
 55  25  28  ar  
 56  25  57  1   
 57  26  28  ar  
 58  26  29  1   
 59  27  58  1   
 60  27  59  1   
 61  27  60  1   
 62  28  61  1   
 63  29  30  1   
 64  30  62  1   
 65  30  63  1   
 66  30  64  1   
@<TRIPOS>SUBSTRUCTURE
  1 ****  10 GROUP 4 **** **** 0

# MOE 2024.06 (io_trps.svl 2023.06)
