@<TRIPOS>MOLECULE
NONAME
57 59 1 0 0 
SMALL
USER_CHARGES


@<TRIPOS>ATOM
  1 O        6.4260    -0.6770     1.7640 O.co2 1 <1>  -0.9000 
  2 C        5.9350    -1.7630     2.1060 C.2   1 <1>   0.9060 
  3 O        6.5460    -2.5040     2.8820 O.co2 1 <1>  -0.9000 
  4 C        4.6590    -2.2910     1.4860 C.3   1 <1>  -0.1860 
  5 C        4.9520    -3.3760     0.4240 C.3   1 <1>  -0.0190 
  6 C        3.7650    -1.1790     0.9160 C.3   1 <1>  -0.0220 
  7 C        5.7850    -2.8500    -0.7630 C.2   1 <1>   0.5690 
  8 C        3.6180    -4.0160    -0.0170 C.3   1 <1>  -0.0220 
  9 C        2.5370    -1.7470     0.2070 C.2   1 <1>  -0.2760 
 10 O        5.1990    -2.4620    -1.7490 O.2   1 <1>  -0.5700 
 11 N        7.1660    -2.7980    -0.7480 N.am  1 <1>  -0.6600 
 12 C        2.4650    -3.0260    -0.1960 C.2   1 <1>  -0.2760 
 13 C        1.4730    -0.6710     0.0240 C.3   1 <1>  -0.1020 
 14 C        7.8470    -1.7910    -1.6010 C.3   1 <1>   0.1400 
 15 C        8.0960    -3.3710     0.2790 C.3   1 <1>   0.1400 
 16 C        1.2780    -3.6940    -0.8820 C.3   1 <1>  -0.1020 
 17 C        8.2790    -0.6320    -0.7000 C.3   1 <1>   0.3430 
 18 C        8.8840    -2.2980     1.0750 C.3   1 <1>   0.3430 
 19 N        9.2960    -1.0550     0.3260 N.4   1 <1>  -0.9590 
 20 C        9.4220     0.0270     1.3450 C.3   1 <1>   0.3430 
 21 C       10.1970     1.2270     0.7890 C.3   1 <1>  -0.0170 
 22 C       11.4270     0.7700     0.0140 C.ar  1 <1>  -0.1440 
 23 C       12.4770     0.1520     0.6770 C.ar  1 <1>  -0.1500 
 24 C       11.4990     0.9490    -1.3590 C.ar  1 <1>  -0.1500 
 25 C       13.5800    -0.2960    -0.0290 C.ar  1 <1>  -0.1500 
 26 C       12.6030     0.5010    -2.0640 C.ar  1 <1>  -0.1500 
 27 C       13.6420    -0.1240    -1.4000 C.ar  1 <1>  -0.1500 
 28 H        4.1160    -2.7560     2.2880 H     1 <1>   0.0800 
 29 H        5.5080    -4.1610     0.8960 H     1 <1>   0.0800 
 30 H        4.3210    -0.5770     0.2190 H     1 <1>   0.0800 
 31 H        3.4630    -0.5440     1.7300 H     1 <1>   0.0800 
 32 H        3.3210    -4.7320     0.7290 H     1 <1>   0.0800 
 33 H        3.7810    -4.5550    -0.9340 H     1 <1>   0.0800 
 34 H        1.0990    -0.3620     0.9830 H     1 <1>   0.0800 
 35 H        0.6460    -1.0000    -0.5710 H     1 <1>   0.0800 
 36 H        1.9060     0.1820    -0.4670 H     1 <1>   0.0800 
 37 H        7.1850    -1.4140    -2.3620 H     1 <1>   0.0800 
 38 H        8.6970    -2.2310    -2.0910 H     1 <1>   0.0800 
 39 H        8.8020    -4.0060    -0.2250 H     1 <1>   0.0800 
 40 H        7.5700    -3.9890     0.9820 H     1 <1>   0.0800 
 41 H        1.5490    -3.9620    -1.8870 H     1 <1>   0.0800 
 42 H        0.4140    -3.0630    -0.9250 H     1 <1>   0.0800 
 43 H        1.0040    -4.5850    -0.3480 H     1 <1>   0.0800 
 44 H        7.3990    -0.2530    -0.2040 H     1 <1>   0.0800 
 45 H        8.6840     0.1590    -1.3070 H     1 <1>   0.0800 
 46 H        9.7540    -2.7630     1.5060 H     1 <1>   0.0800 
 47 H        8.2870    -1.9890     1.9070 H     1 <1>   0.0800 
 48 H       10.2100    -1.1900    -0.1250 H     1 <1>   0.4500 
 49 H        9.9560    -0.3580     2.1980 H     1 <1>   0.0800 
 50 H        8.4440     0.3330     1.6850 H     1 <1>   0.0800 
 51 H       10.4970     1.8570     1.6070 H     1 <1>   0.0800 
 52 H        9.5480     1.8110     0.1630 H     1 <1>   0.0800 
 53 H       12.4500     0.0180     1.7450 H     1 <1>   0.1500 
 54 H       10.7050     1.4420    -1.8920 H     1 <1>   0.1500 
 55 H       14.3960    -0.7730     0.4890 H     1 <1>   0.1500 
 56 H       12.6580     0.6430    -3.1310 H     1 <1>   0.1500 
 57 H       14.5020    -0.4700    -1.9480 H     1 <1>   0.1500 
@<TRIPOS>BOND
  1   1   2  ar  
  2   2   3  ar  
  3   2   4  1   
  4   4   5  1   
  5   4   6  1   
  6   4  28  1   
  7   5   7  1   
  8   5   8  1   
  9   5  29  1   
 10   6   9  1   
 11   6  30  1   
 12   6  31  1   
 13   7  10  2   
 14   7  11  am  
 15   8  12  1   
 16   8  32  1   
 17   8  33  1   
 18   9  12  2   
 19   9  13  1   
 20  11  14  1   
 21  11  15  1   
 22  12  16  1   
 23  13  34  1   
 24  13  35  1   
 25  13  36  1   
 26  14  17  1   
 27  14  37  1   
 28  14  38  1   
 29  15  18  1   
 30  15  39  1   
 31  15  40  1   
 32  16  41  1   
 33  16  42  1   
 34  16  43  1   
 35  17  19  1   
 36  17  44  1   
 37  17  45  1   
 38  18  19  1   
 39  18  46  1   
 40  18  47  1   
 41  19  20  1   
 42  19  48  1   
 43  20  21  1   
 44  20  49  1   
 45  20  50  1   
 46  21  22  1   
 47  21  51  1   
 48  21  52  1   
 49  22  23  ar  
 50  22  24  ar  
 51  23  25  ar  
 52  23  53  1   
 53  24  26  ar  
 54  24  54  1   
 55  25  27  ar  
 56  25  55  1   
 57  26  27  ar  
 58  26  56  1   
 59  27  57  1   
@<TRIPOS>SUBSTRUCTURE
  1 ****  17 GROUP 4 **** **** 0

# MOE 2024.06 (io_trps.svl 2023.06)
