@<TRIPOS>MOLECULE
22469
31 31 1 0 0 
SMALL
USER_CHARGES


@<TRIPOS>ATOM
  1 S       -0.2460    -0.3290     0.0010 S.3   1 <1>  -0.0800 
  2 C        1.0150     0.8480     0.0040 C.2   1 <1>   0.4340 
  3 C       -1.3400     1.0200     0.0100 C.2   1 <1>   0.4620 
  4 S        2.6930     0.2310    -0.0030 S.3   1 <1>  -0.2860 
  5 N        0.6210     2.0570     0.0100 N.2   1 <1>  -0.3380 
  6 N       -0.7450     2.1600     0.0130 N.2   1 <1>  -0.3380 
  7 N       -2.6790     0.7740     0.0120 N.pl3 1 <1>  -0.8840 
  8 C        3.7010     1.7760     0.0010 C.3   1 <1>   0.0700 
  9 C        5.1790     1.3820    -0.0030 C.3   1 <1>  -0.1600 
 10 C        6.0800     2.6240     0.0000 C.3   1 <1>  -0.1600 
 11 C        7.5620     2.2300    -0.0040 C.3   1 <1>  -0.1600 
 12 C        8.4640     3.4710    -0.0010 C.3   1 <1>  -0.1600 
 13 C        9.9460     3.0770    -0.0050 C.3   1 <1>  -0.1600 
 14 C       10.8450     4.3160    -0.0020 C.3   1 <1>  -0.2400 
 15 H       -3.3410     1.5520     0.0170 H     1 <1>   0.4000 
 16 H       -3.0660    -0.1700     0.0090 H     1 <1>   0.4000 
 17 H        3.4360     2.3280     0.8860 H     1 <1>   0.0800 
 18 H        3.4330     2.3360    -0.8780 H     1 <1>   0.0800 
 19 H        5.3830     0.7910    -0.8790 H     1 <1>   0.0800 
 20 H        5.3870     0.7840     0.8670 H     1 <1>   0.0800 
 21 H        5.8710     3.2160     0.8750 H     1 <1>   0.0800 
 22 H        5.8670     3.2230    -0.8690 H     1 <1>   0.0800 
 23 H        7.7730     1.6380    -0.8790 H     1 <1>   0.0800 
 24 H        7.7760     1.6310     0.8640 H     1 <1>   0.0800 
 25 H        8.2550     4.0630     0.8740 H     1 <1>   0.0800 
 26 H        8.2510     4.0700    -0.8690 H     1 <1>   0.0800 
 27 H       10.1600     2.4870    -0.8800 H     1 <1>   0.0800 
 28 H       10.1640     2.4790     0.8630 H     1 <1>   0.0800 
 29 H       10.6590     4.9190    -0.8730 H     1 <1>   0.0800 
 30 H       11.8790     4.0200    -0.0050 H     1 <1>   0.0800 
 31 H       10.6620     4.9110     0.8760 H     1 <1>   0.0800 
@<TRIPOS>BOND
  1   1   2  1   
  2   1   3  1   
  3   2   4  1   
  4   2   5  2   
  5   3   6  2   
  6   3   7  1   
  7   4   8  1   
  8   5   6  1   
  9   7  15  1   
 10   7  16  1   
 11   8   9  1   
 12   8  17  1   
 13   8  18  1   
 14   9  10  1   
 15   9  19  1   
 16   9  20  1   
 17  10  11  1   
 18  10  21  1   
 19  10  22  1   
 20  11  12  1   
 21  11  23  1   
 22  11  24  1   
 23  12  13  1   
 24  12  25  1   
 25  12  26  1   
 26  13  14  1   
 27  13  27  1   
 28  13  28  1   
 29  14  29  1   
 30  14  30  1   
 31  14  31  1   
@<TRIPOS>SUBSTRUCTURE
  1 ****   8 GROUP 4 **** **** 0

# MOE 2024.06 (io_trps.svl 2023.06)
