@<TRIPOS>MOLECULE
NONAME
36 37 1 0 0 
SMALL
USER_CHARGES


@<TRIPOS>ATOM
  1 O        0.5510     1.0610    -2.4850 O.2   1 <1>  -0.5700 
  2 C        0.1570     1.7570    -1.5840 C.2   1 <1>   0.5690 
  3 N        0.8870     2.0360    -0.4600 N.am  1 <1>  -0.5470 
  4 C       -1.2180     2.3870    -1.7010 C.3   1 <1>  -0.0990 
  5 C        2.1720     1.6170    -0.0520 C.ar  1 <1>   0.1170 
  6 C       -2.1950     1.9520    -0.5900 C.3   1 <1>  -0.0800 
  7 C        2.8910     2.3710     0.8860 C.ar  1 <1>   0.0730 
  8 C        2.7500     0.4510    -0.5480 C.ar  1 <1>  -0.1500 
  9 C       -2.4160     0.4270    -0.6000 C.3   1 <1>  -0.1600 
 10 C       -3.5370     2.6890    -0.7490 C.3   1 <1>  -0.1600 
 11 C        2.3320     3.5680     1.4370 C.1   1 <1>   0.4840 
 12 C        4.1550     1.9500     1.2860 C.ar  1 <1>  -0.1500 
 13 C        4.0060     0.0430    -0.1430 C.ar  1 <1>  -0.1500 
 14 C       -3.4260    -0.0010     0.4740 C.3   1 <1>  -0.1600 
 15 C       -4.5440     2.2630     0.3280 C.3   1 <1>  -0.1600 
 16 N        1.8260     4.5020     1.8530 N.1   1 <1>  -0.5570 
 17 C        4.7140     0.7940     0.7760 C.ar  1 <1>  -0.1500 
 18 C       -4.7560     0.7440     0.3160 C.3   1 <1>  -0.1600 
 19 H        0.4280     2.7020     0.1630 H     1 <1>   0.3700 
 20 H       -1.6300     2.1260    -2.6600 H     1 <1>   0.0800 
 21 H       -1.0990     3.4550    -1.6820 H     1 <1>   0.0800 
 22 H       -1.7810     2.2260     0.3650 H     1 <1>   0.0800 
 23 H        2.2180    -0.1560    -1.2590 H     1 <1>   0.1500 
 24 H       -1.4860    -0.0850    -0.4250 H     1 <1>   0.0800 
 25 H       -2.7800     0.1220    -1.5660 H     1 <1>   0.0800 
 26 H       -3.9530     2.4760    -1.7190 H     1 <1>   0.0800 
 27 H       -3.3810     3.7520    -0.6820 H     1 <1>   0.0800 
 28 H        4.7100     2.5310     2.0040 H     1 <1>   0.1500 
 29 H        4.4330    -0.8610    -0.5450 H     1 <1>   0.1500 
 30 H       -3.0170     0.2020     1.4490 H     1 <1>   0.0800 
 31 H       -3.5970    -1.0620     0.4030 H     1 <1>   0.0800 
 32 H       -5.4850     2.7580     0.1590 H     1 <1>   0.0800 
 33 H       -4.1820     2.5640     1.2960 H     1 <1>   0.0800 
 34 H        5.6940     0.4770     1.0910 H     1 <1>   0.1500 
 35 H       -5.4230     0.4660     1.1150 H     1 <1>   0.0800 
 36 H       -5.2170     0.4560    -0.6130 H     1 <1>   0.0800 
@<TRIPOS>BOND
  1   1   2  2   
  2   2   3  am  
  3   2   4  1   
  4   3   5  1   
  5   3  19  1   
  6   4   6  1   
  7   4  20  1   
  8   4  21  1   
  9   5   7  ar  
 10   5   8  ar  
 11   6   9  1   
 12   6  10  1   
 13   6  22  1   
 14   7  11  1   
 15   7  12  ar  
 16   8  13  ar  
 17   8  23  1   
 18   9  14  1   
 19   9  24  1   
 20   9  25  1   
 21  10  15  1   
 22  10  26  1   
 23  10  27  1   
 24  11  16  3   
 25  12  17  ar  
 26  12  28  1   
 27  13  17  ar  
 28  13  29  1   
 29  14  18  1   
 30  14  30  1   
 31  14  31  1   
 32  15  18  1   
 33  15  32  1   
 34  15  33  1   
 35  17  34  1   
 36  18  35  1   
 37  18  36  1   
@<TRIPOS>SUBSTRUCTURE
  1 ****   3 GROUP 4 **** **** 0

# MOE 2024.06 (io_trps.svl 2023.06)
