@<TRIPOS>MOLECULE
NONAME
39 38 1 0 0 
SMALL
USER_CHARGES


@<TRIPOS>ATOM
  1 O       -0.8560     0.4610    -1.5130 O.2   1 <1>  -0.5700 
  2 C       -1.5020     0.8190    -0.5550 C.2   1 <1>   0.7800 
  3 O       -1.5520     0.1200     0.5800 O.3   1 <1>  -0.4300 
  4 N       -2.2020     1.9710    -0.5990 N.am  1 <1>  -0.7300 
  5 C       -0.8820    -1.0890     0.8600 C.3   1 <1>   0.2800 
  6 C       -3.1980     2.4500     0.3840 C.3   1 <1>   0.2200 
  7 C       -1.2820    -1.4420     2.2940 C.3   1 <1>  -0.2400 
  8 C        0.6350    -0.8800     0.7950 C.3   1 <1>  -0.2400 
  9 C       -1.3640    -2.1940    -0.0860 C.3   1 <1>  -0.2400 
 10 C       -4.5690     2.7190    -0.3160 C.3   1 <1>   0.0000 
 11 C       -2.5990     3.6500     1.1340 C.3   1 <1>  -0.0990 
 12 C       -4.4760     3.7970    -1.4140 C.3   1 <1>  -0.2400 
 13 C       -5.0860     1.4190    -0.9620 C.3   1 <1>  -0.2400 
 14 C       -5.6290     3.1690     0.7080 C.3   1 <1>  -0.2400 
 15 C       -1.2940     3.3000     1.8150 C.2   1 <1>   0.4490 
 16 O       -0.4400     4.1110     2.0100 O.2   1 <1>  -0.5700 
 17 H       -2.1560     2.4760    -1.4830 H     1 <1>   0.3700 
 18 H       -3.3640     1.6700     1.1090 H     1 <1>   0.0800 
 19 H       -0.9710    -0.6660     2.9700 H     1 <1>   0.0800 
 20 H       -0.8140    -2.3610     2.5960 H     1 <1>   0.0800 
 21 H       -2.3470    -1.5650     2.3650 H     1 <1>   0.0800 
 22 H        0.9270    -0.0520     1.4150 H     1 <1>   0.0800 
 23 H        0.9590    -0.6980    -0.2130 H     1 <1>   0.0800 
 24 H        1.1420    -1.7620     1.1430 H     1 <1>   0.0800 
 25 H       -2.4370    -2.2620    -0.0670 H     1 <1>   0.0800 
 26 H       -0.9570    -3.1410     0.2170 H     1 <1>   0.0800 
 27 H       -1.0390    -2.0110    -1.0940 H     1 <1>   0.0800 
 28 H       -3.2750     3.9820     1.8980 H     1 <1>   0.0800 
 29 H       -2.4260     4.4700     0.4630 H     1 <1>   0.0800 
 30 H       -3.7760     3.5140    -2.1790 H     1 <1>   0.0800 
 31 H       -4.1740     4.7450    -1.0070 H     1 <1>   0.0800 
 32 H       -5.4350     3.9340    -1.8830 H     1 <1>   0.0800 
 33 H       -4.4270     1.0850    -1.7440 H     1 <1>   0.0800 
 34 H       -6.0590     1.5670    -1.3960 H     1 <1>   0.0800 
 35 H       -5.1600     0.6350    -0.2290 H     1 <1>   0.0800 
 36 H       -5.3970     4.1370     1.1140 H     1 <1>   0.0800 
 37 H       -5.6990     2.4630     1.5170 H     1 <1>   0.0800 
 38 H       -6.5960     3.2400     0.2420 H     1 <1>   0.0800 
 39 H       -1.1790     2.2780     2.1330 H     1 <1>   0.0600 
@<TRIPOS>BOND
  1   1   2  2   
  2   2   3  1   
  3   2   4  am  
  4   3   5  1   
  5   4   6  1   
  6   4  17  1   
  7   5   7  1   
  8   5   8  1   
  9   5   9  1   
 10   6  10  1   
 11   6  11  1   
 12   6  18  1   
 13   7  19  1   
 14   7  20  1   
 15   7  21  1   
 16   8  22  1   
 17   8  23  1   
 18   8  24  1   
 19   9  25  1   
 20   9  26  1   
 21   9  27  1   
 22  10  12  1   
 23  10  13  1   
 24  10  14  1   
 25  11  15  1   
 26  11  28  1   
 27  11  29  1   
 28  12  30  1   
 29  12  31  1   
 30  12  32  1   
 31  13  33  1   
 32  13  34  1   
 33  13  35  1   
 34  14  36  1   
 35  14  37  1   
 36  14  38  1   
 37  15  16  2   
 38  15  39  1   
@<TRIPOS>SUBSTRUCTURE
  1 ****   4 GROUP 4 **** **** 0

# MOE 2024.06 (io_trps.svl 2023.06)
