@<TRIPOS>MOLECULE
NONAME
38 39 1 0 0 
SMALL
USER_CHARGES


@<TRIPOS>ATOM
  1 CL      -2.7280     2.6060    -2.0620 Cl    1 <1>  -0.1770 
  2 C       -1.3340     2.8010    -1.0260 C.ar  1 <1>   0.1770 
  3 C       -1.4250     2.4800     0.3310 C.ar  1 <1>   0.0860 
  4 C       -0.1710     3.2850    -1.5930 C.ar  1 <1>  -0.1500 
  5 C       -2.6430     1.9600     0.9090 C.2   1 <1>   0.5440 
  6 C       -0.2840     2.6590     1.1180 C.ar  1 <1>  -0.1500 
  7 C        0.9280     3.4510    -0.7740 C.ar  1 <1>   0.1900 
  8 O       -2.6990     0.7790     1.1810 O.2   1 <1>  -0.5700 
  9 N       -3.7480     2.7490     1.1740 N.am  1 <1>  -0.6600 
 10 C        0.8920     3.1460     0.5740 C.ar  1 <1>  -0.1500 
 11 F        2.0320     3.9110    -1.2880 F     1 <1>  -0.1900 
 12 C       -3.9060     4.1690     0.7410 C.3   1 <1>   0.1400 
 13 C       -4.9940     2.1610     1.7580 C.3   1 <1>   0.1400 
 14 C       -5.0950     4.3050    -0.2360 C.3   1 <1>   0.3430 
 15 C       -6.1560     2.2840     0.7580 C.3   1 <1>   0.3430 
 16 N       -6.3700     3.7110     0.3090 N.4   1 <1>  -0.9590 
 17 C       -7.4590     3.8170    -0.7000 C.3   1 <1>   0.3430 
 18 C       -8.8220     3.5710    -0.0480 C.3   1 <1>  -0.1600 
 19 C       -9.9560     3.7940    -1.0550 C.3   1 <1>  -0.2400 
 20 H       -0.1160     3.5250    -2.6390 H     1 <1>   0.1500 
 21 H       -0.3250     2.4030     2.1640 H     1 <1>   0.1500 
 22 H        1.7720     3.2840     1.1790 H     1 <1>   0.1500 
 23 H       -3.0120     4.5270     0.2630 H     1 <1>   0.0800 
 24 H       -4.0760     4.7860     1.6070 H     1 <1>   0.0800 
 25 H       -5.2380     2.6750     2.6710 H     1 <1>   0.0800 
 26 H       -4.8560     1.1220     2.0050 H     1 <1>   0.0800 
 27 H       -4.8350     3.8070    -1.1550 H     1 <1>   0.0800 
 28 H       -5.2450     5.3480    -0.4620 H     1 <1>   0.0800 
 29 H       -7.0520     1.9020     1.2180 H     1 <1>   0.0800 
 30 H       -5.9320     1.6630    -0.0950 H     1 <1>   0.0800 
 31 H       -6.6460     4.2610     1.1330 H     1 <1>   0.4500 
 32 H       -7.2990     3.1080    -1.4970 H     1 <1>   0.0800 
 33 H       -7.4590     4.8070    -1.1290 H     1 <1>   0.0800 
 34 H       -8.9610     4.2480     0.7770 H     1 <1>   0.0800 
 35 H       -8.8890     2.5610     0.3150 H     1 <1>   0.0800 
 36 H       -9.9490     4.8050    -1.4250 H     1 <1>   0.0800 
 37 H      -10.9080     3.6190    -0.5810 H     1 <1>   0.0800 
 38 H       -9.8680     3.1180    -1.8890 H     1 <1>   0.0800 
@<TRIPOS>BOND
  1   1   2  1   
  2   2   3  ar  
  3   2   4  ar  
  4   3   5  1   
  5   3   6  ar  
  6   4   7  ar  
  7   4  20  1   
  8   5   8  2   
  9   5   9  am  
 10   6  10  ar  
 11   6  21  1   
 12   7  10  ar  
 13   7  11  1   
 14   9  12  1   
 15   9  13  1   
 16  10  22  1   
 17  12  14  1   
 18  12  23  1   
 19  12  24  1   
 20  13  15  1   
 21  13  25  1   
 22  13  26  1   
 23  14  16  1   
 24  14  27  1   
 25  14  28  1   
 26  15  16  1   
 27  15  29  1   
 28  15  30  1   
 29  16  17  1   
 30  16  31  1   
 31  17  18  1   
 32  17  32  1   
 33  17  33  1   
 34  18  19  1   
 35  18  34  1   
 36  18  35  1   
 37  19  36  1   
 38  19  37  1   
 39  19  38  1   
@<TRIPOS>SUBSTRUCTURE
  1 ****   9 GROUP 4 **** **** 0

# MOE 2024.06 (io_trps.svl 2023.06)
