@<TRIPOS>MOLECULE
NONAME
43 44 1 0 0 
SMALL
USER_CHARGES


@<TRIPOS>ATOM
  1 O       -0.2210    -0.6150    -1.2810 O.2   1 <1>  -0.5700 
  2 C       -0.0960    -1.4500    -0.4090 C.2   1 <1>   0.7800 
  3 O       -1.1220    -2.2320    -0.0770 O.3   1 <1>  -0.4300 
  4 N        1.0930    -1.6490     0.2430 N.am  1 <1>  -0.6600 
  5 C       -2.3790    -2.0760    -0.6980 C.3   1 <1>   0.1200 
  6 C        1.3340    -2.7880     1.1770 C.3   1 <1>   0.1400 
  7 C        2.3030    -0.8440    -0.0890 C.3   1 <1>   0.1400 
  8 C       -3.3310    -3.1100    -0.1060 C.3   1 <1>  -0.2400 
  9 C        2.4650    -3.6860     0.6390 C.3   1 <1>   0.3430 
 10 C        3.4200    -1.7580    -0.6240 C.3   1 <1>   0.3430 
 11 N        3.7160    -2.9060     0.3140 N.4   1 <1>  -0.9590 
 12 C        4.7720    -3.8150    -0.2250 C.3   1 <1>   0.3430 
 13 C        6.1470    -3.1330    -0.3060 C.3   1 <1>  -0.0800 
 14 C        7.1670    -4.1320    -0.8880 C.3   1 <1>  -0.0220 
 15 C        6.6390    -2.5940     1.0570 C.3   1 <1>  -0.1600 
 16 C        8.5810    -3.5940    -0.7840 C.2   1 <1>  -0.2880 
 17 C        7.9710    -1.8380     0.9170 C.3   1 <1>  -0.0220 
 18 C        8.9320    -2.5770     0.0050 C.2   1 <1>  -0.2880 
 19 H       -2.2590    -2.2230    -1.7580 H     1 <1>   0.0800 
 20 H       -2.7310    -1.0750    -0.5090 H     1 <1>   0.0800 
 21 H        0.4430    -3.3800     1.2980 H     1 <1>   0.0800 
 22 H        1.5990    -2.4020     2.1460 H     1 <1>   0.0800 
 23 H        2.6400    -0.3260     0.7920 H     1 <1>   0.0800 
 24 H        2.0720    -0.0990    -0.8320 H     1 <1>   0.0800 
 25 H       -2.9660    -4.1040    -0.2940 H     1 <1>   0.0800 
 26 H       -4.3000    -3.0110    -0.5610 H     1 <1>   0.0800 
 27 H       -3.4350    -2.9570     0.9530 H     1 <1>   0.0800 
 28 H        2.1070    -4.1790    -0.2500 H     1 <1>   0.0800 
 29 H        2.6860    -4.4460     1.3710 H     1 <1>   0.0800 
 30 H        4.3070    -1.1670    -0.7760 H     1 <1>   0.0800 
 31 H        3.1110    -2.1420    -1.5820 H     1 <1>   0.0800 
 32 H        4.0690    -2.5060     1.1930 H     1 <1>   0.4500 
 33 H        4.4870    -4.1600    -1.2060 H     1 <1>   0.0800 
 34 H        4.8610    -4.6780     0.4160 H     1 <1>   0.0800 
 35 H        6.0940    -2.3100    -0.9980 H     1 <1>   0.0800 
 36 H        6.9390    -4.3150    -1.9250 H     1 <1>   0.0800 
 37 H        7.1260    -5.0710    -0.3640 H     1 <1>   0.0800 
 38 H        6.7880    -3.4210     1.7310 H     1 <1>   0.0800 
 39 H        5.9250    -1.9260     1.5020 H     1 <1>   0.0800 
 40 H        9.2870    -4.1180    -1.4090 H     1 <1>   0.1500 
 41 H        8.4180    -1.7230     1.8900 H     1 <1>   0.0800 
 42 H        7.8000    -0.8550     0.5120 H     1 <1>   0.0800 
 43 H        9.9400    -2.1980     0.0540 H     1 <1>   0.1500 
@<TRIPOS>BOND
  1   1   2  2   
  2   2   3  1   
  3   2   4  am  
  4   3   5  1   
  5   4   6  1   
  6   4   7  1   
  7   5   8  1   
  8   5  19  1   
  9   5  20  1   
 10   6   9  1   
 11   6  21  1   
 12   6  22  1   
 13   7  10  1   
 14   7  23  1   
 15   7  24  1   
 16   8  25  1   
 17   8  26  1   
 18   8  27  1   
 19   9  11  1   
 20   9  28  1   
 21   9  29  1   
 22  10  11  1   
 23  10  30  1   
 24  10  31  1   
 25  11  12  1   
 26  11  32  1   
 27  12  13  1   
 28  12  33  1   
 29  12  34  1   
 30  13  14  1   
 31  13  15  1   
 32  13  35  1   
 33  14  16  1   
 34  14  36  1   
 35  14  37  1   
 36  15  17  1   
 37  15  38  1   
 38  15  39  1   
 39  16  18  2   
 40  16  40  1   
 41  17  18  1   
 42  17  41  1   
 43  17  42  1   
 44  18  43  1   
@<TRIPOS>SUBSTRUCTURE
  1 ****  11 GROUP 4 **** **** 0

# MOE 2024.06 (io_trps.svl 2023.06)
