@<TRIPOS>MOLECULE
NONAME
40 43 1 0 0 
SMALL
USER_CHARGES


@<TRIPOS>ATOM
  1 S       -1.7830     1.8660     1.9500 S.3   1 <1>  -0.2420 
  2 C       -0.4350     2.3230     0.9030 C.2   1 <1>   0.6510 
  3 C       -2.8040     1.4610     0.5590 C.2   1 <1>  -0.0490 
  4 N        0.7000     2.7430     1.3530 N.2   1 <1>  -0.6210 
  5 N       -0.8070     2.1530    -0.4050 N.am  1 <1>  -0.2290 
  6 C       -2.1250     1.6750    -0.5760 C.2   1 <1>  -0.0410 
  7 C        1.6370     3.0520     0.4070 C.2   1 <1>   0.0330 
  8 C        0.1180     2.4590    -1.3720 C.2   1 <1>   0.6160 
  9 C        1.3750     2.9280    -0.9230 C.2   1 <1>  -0.1360 
 10 C        2.9760     3.5510     0.9470 C.3   1 <1>   0.2480 
 11 O       -0.1510     2.3220    -2.5570 O.2   1 <1>  -0.5700 
 12 N        4.0920     3.2990     0.0120 N.3   1 <1>  -0.8100 
 13 C        5.2770     4.0950     0.3880 C.3   1 <1>   0.1100 
 14 C        4.4390     1.8590    -0.0170 C.3   1 <1>   0.1100 
 15 C        6.4510     3.8670    -0.5830 C.3   1 <1>   0.1400 
 16 C        5.5780     1.5750    -1.0080 C.3   1 <1>   0.1400 
 17 N        6.7740     2.4130    -0.6880 N.am  1 <1>  -0.6600 
 18 C        7.9360     1.8610    -0.1860 C.2   1 <1>   0.7150 
 19 O        7.9040     0.7070     0.2090 O.2   1 <1>  -0.5700 
 20 C        9.1680     2.6210    -0.1320 C.2   1 <1>   0.0550 
 21 O       10.0100     2.4980     0.8920 O.3   1 <1>  -0.2800 
 22 C        9.6920     3.5280    -1.0050 C.2   1 <1>  -0.1500 
 23 C       11.0390     3.2900     0.6970 C.2   1 <1>  -0.0100 
 24 C       10.9030     3.9610    -0.4660 C.2   1 <1>  -0.1500 
 25 H       -3.8000     1.1090     0.7650 H     1 <1>   0.1500 
 26 H       -2.4820     1.5190    -1.5820 H     1 <1>   0.1500 
 27 H        2.0970     3.1740    -1.6780 H     1 <1>   0.1500 
 28 H        3.1820     3.0730     1.8900 H     1 <1>   0.0800 
 29 H        2.8830     4.6080     1.1270 H     1 <1>   0.0800 
 30 H        5.5920     3.8360     1.3850 H     1 <1>   0.0800 
 31 H        5.0220     5.1410     0.3790 H     1 <1>   0.0800 
 32 H        3.5800     1.2810    -0.3080 H     1 <1>   0.0800 
 33 H        4.7420     1.5300     0.9630 H     1 <1>   0.0800 
 34 H        7.3000     4.4250    -0.2310 H     1 <1>   0.0800 
 35 H        6.1830     4.2410    -1.5560 H     1 <1>   0.0800 
 36 H        5.2440     1.8040    -2.0050 H     1 <1>   0.0800 
 37 H        5.8270     0.5290    -0.9780 H     1 <1>   0.0800 
 38 H        9.2730     3.8540    -1.9410 H     1 <1>   0.1500 
 39 H       11.8240     3.3150     1.4320 H     1 <1>   0.1500 
 40 H       11.5710     4.6790    -0.9080 H     1 <1>   0.1500 
@<TRIPOS>BOND
  1   1   2  1   
  2   1   3  1   
  3   2   4  2   
  4   2   5  1   
  5   3   6  2   
  6   3  25  1   
  7   4   7  1   
  8   5   6  1   
  9   5   8  am  
 10   6  26  1   
 11   7   9  2   
 12   7  10  1   
 13   8   9  1   
 14   8  11  2   
 15   9  27  1   
 16  10  12  1   
 17  10  28  1   
 18  10  29  1   
 19  12  13  1   
 20  12  14  1   
 21  13  15  1   
 22  13  30  1   
 23  13  31  1   
 24  14  16  1   
 25  14  32  1   
 26  14  33  1   
 27  15  17  1   
 28  15  34  1   
 29  15  35  1   
 30  16  17  1   
 31  16  36  1   
 32  16  37  1   
 33  17  18  am  
 34  18  19  2   
 35  18  20  1   
 36  20  21  1   
 37  20  22  2   
 38  21  23  1   
 39  22  24  1   
 40  22  38  1   
 41  23  24  2   
 42  23  39  1   
 43  24  40  1   
@<TRIPOS>SUBSTRUCTURE
  1 ****  12 GROUP 4 **** **** 0

# MOE 2024.06 (io_trps.svl 2023.06)
