@<TRIPOS>MOLECULE
NONAME
33 34 1 0 0 
SMALL
USER_CHARGES


@<TRIPOS>ATOM
  1 S       -0.4070     2.9230    -0.5470 S.3   1 <1>  -0.4600 
  2 C       -1.9400     2.4860     0.3260 C.3   1 <1>   0.2140 
  3 C        0.9010     2.6300     0.7010 C.3   1 <1>   0.1310 
  4 C       -2.2040     1.0030     0.1400 C.ar  1 <1>  -0.1440 
  5 C        1.2340     1.1540     0.8680 C.2   1 <1>   0.5690 
  6 C       -1.9500     0.1040     1.1650 C.ar  1 <1>  -0.1500 
  7 C       -2.7150     0.5340    -1.0600 C.ar  1 <1>  -0.1500 
  8 O        1.6300     0.7780     1.9470 O.2   1 <1>  -0.5700 
  9 N        1.0930     0.3200    -0.1950 N.am  1 <1>  -0.5790 
 10 C       -2.2080    -1.2440     0.9910 C.ar  1 <1>  -0.1500 
 11 C       -2.9760    -0.8140    -1.2320 C.ar  1 <1>  -0.1500 
 12 C        1.3950    -1.1160    -0.2160 C.3   1 <1>   0.0490 
 13 C       -2.7230    -1.7110    -0.2070 C.ar  1 <1>  -0.1430 
 14 C        2.0410    -1.6770    -1.4390 C.3   1 <1>  -0.2000 
 15 C        0.6050    -1.9820    -1.1380 C.3   1 <1>  -0.2000 
 16 C       -3.0060    -3.1900    -0.3960 C.3   1 <1>  -0.0970 
 17 H       -2.7290     3.0730    -0.1100 H     1 <1>   0.0800 
 18 H       -1.8200     2.7500     1.3610 H     1 <1>   0.0800 
 19 H        0.5610     3.0440     1.6320 H     1 <1>   0.0800 
 20 H        1.7740     3.1600     0.3700 H     1 <1>   0.0800 
 21 H       -1.5460     0.4430     2.1030 H     1 <1>   0.1500 
 22 H       -2.9120     1.2190    -1.8660 H     1 <1>   0.1500 
 23 H        0.5900     0.6750    -1.0130 H     1 <1>   0.3700 
 24 H       -2.0030    -1.9280     1.7950 H     1 <1>   0.1500 
 25 H       -3.3770    -1.1620    -2.1670 H     1 <1>   0.1500 
 26 H        1.6800    -1.5060     0.7490 H     1 <1>   0.1000 
 27 H        2.7640    -2.4650    -1.3230 H     1 <1>   0.1000 
 28 H        2.2760    -1.0120    -2.2500 H     1 <1>   0.1000 
 29 H       -0.1690    -1.5280    -1.7310 H     1 <1>   0.1000 
 30 H        0.3460    -2.9720    -0.8080 H     1 <1>   0.1000 
 31 H       -2.8480    -3.4740    -1.4210 H     1 <1>   0.0800 
 32 H       -4.0260    -3.4010    -0.1290 H     1 <1>   0.0800 
 33 H       -2.3550    -3.7800     0.2240 H     1 <1>   0.0800 
@<TRIPOS>BOND
  1   1   2  1   
  2   1   3  1   
  3   2   4  1   
  4   2  17  1   
  5   2  18  1   
  6   3   5  1   
  7   3  19  1   
  8   3  20  1   
  9   4   6  ar  
 10   4   7  ar  
 11   5   8  2   
 12   5   9  am  
 13   6  10  ar  
 14   6  21  1   
 15   7  11  ar  
 16   7  22  1   
 17   9  12  1   
 18   9  23  1   
 19  10  13  ar  
 20  10  24  1   
 21  11  13  ar  
 22  11  25  1   
 23  12  14  1   
 24  12  15  1   
 25  12  26  1   
 26  13  16  1   
 27  14  15  1   
 28  14  27  1   
 29  14  28  1   
 30  15  29  1   
 31  15  30  1   
 32  16  31  1   
 33  16  32  1   
 34  16  33  1   
@<TRIPOS>SUBSTRUCTURE
  1 ****   6 GROUP 4 **** **** 0

# MOE 2024.06 (io_trps.svl 2023.06)
