@<TRIPOS>MOLECULE
NONAME
47 48 1 0 0 
SMALL
USER_CHARGES


@<TRIPOS>ATOM
  1 S       -0.1750    -1.7980     0.6440 S.3   1 <1>  -0.2860 
  2 C        1.5140    -1.2880     0.9840 C.2   1 <1>   0.2420 
  3 C       -1.1650    -0.6250     1.6990 C.3   1 <1>   0.1310 
  4 N        1.8140    -0.3090     1.7600 N.2   1 <1>  -0.3380 
  5 N        2.5740    -1.8920     0.4490 N.pl3 1 <1>   0.0480 
  6 C       -2.6620    -0.8430     1.5420 C.2   1 <1>   0.5690 
  7 N        3.1480    -0.2400     1.7530 N.2   1 <1>  -0.3380 
  8 C        3.5820    -1.1760     0.9730 C.2   1 <1>   0.0060 
  9 C        2.5980    -3.0450    -0.4730 C.3   1 <1>   0.0160 
 10 O       -3.3850    -0.3960     2.3980 O.2   1 <1>  -0.5700 
 11 N       -3.1160    -1.5280     0.4450 N.am  1 <1>  -0.5470 
 12 C        5.0590    -1.4210     0.6980 C.3   1 <1>   0.0200 
 13 C       -4.4110    -1.8570     0.0130 C.ar  1 <1>   0.1170 
 14 C        5.4800    -1.0290    -0.7330 C.3   1 <1>  -0.0800 
 15 C       -5.5580    -1.2220     0.4780 C.ar  1 <1>  -0.1500 
 16 C       -4.5570    -2.8580    -0.9400 C.ar  1 <1>  -0.1500 
 17 C        6.9560    -1.3740    -0.9670 C.3   1 <1>  -0.2400 
 18 C        5.2520     0.4660    -0.9990 C.3   1 <1>  -0.2400 
 19 C       -6.8090    -1.5810     0.0080 C.ar  1 <1>  -0.1500 
 20 C       -5.8060    -3.2180    -1.4120 C.ar  1 <1>  -0.1500 
 21 C       -6.9420    -2.5810    -0.9410 C.ar  1 <1>  -0.1430 
 22 C       -8.3170    -2.9750    -1.4560 C.3   1 <1>  -0.0170 
 23 C       -8.9120    -4.0930    -0.5980 C.3   1 <1>  -0.2400 
 24 H       -0.9010     0.3730     1.4020 H     1 <1>   0.0800 
 25 H       -0.8690    -0.7880     2.7180 H     1 <1>   0.0800 
 26 H        2.4110    -2.7010    -1.4740 H     1 <1>   0.0800 
 27 H        1.8370    -3.7490    -0.1880 H     1 <1>   0.0800 
 28 H        3.5560    -3.5290    -0.4320 H     1 <1>   0.0800 
 29 H       -2.3690    -1.9080    -0.1350 H     1 <1>   0.3700 
 30 H        5.2780    -2.4590     0.8740 H     1 <1>   0.0800 
 31 H        5.6370    -0.8500     1.4040 H     1 <1>   0.0800 
 32 H        4.8910    -1.5900    -1.4370 H     1 <1>   0.0800 
 33 H       -5.4830    -0.4400     1.2100 H     1 <1>   0.1500 
 34 H       -3.6880    -3.3660    -1.3160 H     1 <1>   0.1500 
 35 H        7.5860    -0.8250    -0.2890 H     1 <1>   0.0800 
 36 H        7.2410    -1.1260    -1.9740 H     1 <1>   0.0800 
 37 H        7.1260    -2.4260    -0.8180 H     1 <1>   0.0800 
 38 H        5.8130     1.0650    -0.3020 H     1 <1>   0.0800 
 39 H        4.2100     0.7170    -0.8960 H     1 <1>   0.0800 
 40 H        5.5600     0.7220    -1.9970 H     1 <1>   0.0800 
 41 H       -7.6800    -1.0770     0.3880 H     1 <1>   0.1500 
 42 H       -5.8940    -3.9990    -2.1470 H     1 <1>   0.1500 
 43 H       -8.2410    -3.3040    -2.4780 H     1 <1>   0.0800 
 44 H       -8.9700    -2.1190    -1.4380 H     1 <1>   0.0800 
 45 H       -8.2740    -4.9580    -0.6230 H     1 <1>   0.0800 
 46 H       -9.8840    -4.3670    -0.9650 H     1 <1>   0.0800 
 47 H       -9.0060    -3.7650     0.4230 H     1 <1>   0.0800 
@<TRIPOS>BOND
  1   1   2  1   
  2   1   3  1   
  3   2   4  2   
  4   2   5  1   
  5   3   6  1   
  6   3  24  1   
  7   3  25  1   
  8   4   7  1   
  9   5   8  1   
 10   5   9  1   
 11   6  10  2   
 12   6  11  am  
 13   7   8  2   
 14   8  12  1   
 15   9  26  1   
 16   9  27  1   
 17   9  28  1   
 18  11  13  1   
 19  11  29  1   
 20  12  14  1   
 21  12  30  1   
 22  12  31  1   
 23  13  15  ar  
 24  13  16  ar  
 25  14  17  1   
 26  14  18  1   
 27  14  32  1   
 28  15  19  ar  
 29  15  33  1   
 30  16  20  ar  
 31  16  34  1   
 32  17  35  1   
 33  17  36  1   
 34  17  37  1   
 35  18  38  1   
 36  18  39  1   
 37  18  40  1   
 38  19  21  ar  
 39  19  41  1   
 40  20  21  ar  
 41  20  42  1   
 42  21  22  1   
 43  22  23  1   
 44  22  43  1   
 45  22  44  1   
 46  23  45  1   
 47  23  46  1   
 48  23  47  1   
@<TRIPOS>SUBSTRUCTURE
  1 ****   1 GROUP 4 **** **** 0

# MOE 2024.06 (io_trps.svl 2023.06)
