@<TRIPOS>MOLECULE
NONAME
43 44 1 0 0 
SMALL
USER_CHARGES


@<TRIPOS>ATOM
  1 O        0.9400     0.6010     0.0430 O.2   1 <1>  -0.5700 
  2 C        1.0490     1.6950    -0.4780 C.2   1 <1>   0.6900 
  3 N        2.2700     2.0720    -0.9530 N.am  1 <1>  -0.6600 
  4 N        0.0290     2.5890    -0.5720 N.am  1 <1>  -0.5470 
  5 C        3.0720     2.9730    -0.0810 C.3   1 <1>   0.1400 
  6 C        3.0950     1.0250    -1.6240 C.3   1 <1>   0.1400 
  7 C       -1.2800     2.5810    -0.0700 C.ar  1 <1>   0.1170 
  8 C        3.8410     2.1430     0.9690 C.3   1 <1>   0.3430 
  9 C        3.8750     0.1990    -0.5800 C.3   1 <1>   0.3430 
 10 C       -2.2000     3.4760    -0.6010 C.ar  1 <1>  -0.1500 
 11 C       -1.7040     1.7340     0.9470 C.ar  1 <1>  -0.1500 
 12 N        4.6980     1.0710     0.3410 N.4   1 <1>  -0.9590 
 13 C       -3.5070     3.5360    -0.1440 C.ar  1 <1>  -0.1430 
 14 C       -3.0050     1.7840     1.4110 C.ar  1 <1>  -0.1500 
 15 C        5.3670     0.2680     1.3970 C.3   1 <1>   0.3430 
 16 C       -3.9150     2.6800     0.8740 C.ar  1 <1>  -0.1430 
 17 C       -4.4680     4.5380    -0.7680 C.3   1 <1>  -0.0970 
 18 C        6.5070    -0.5390     0.7860 C.3   1 <1>  -0.2400 
 19 C       -5.3370     2.7020     1.4140 C.3   1 <1>  -0.0970 
 20 H        0.2370     3.3530    -1.2080 H     1 <1>   0.3700 
 21 H        2.4180     3.6640     0.4250 H     1 <1>   0.0800 
 22 H        3.7570     3.5450    -0.6820 H     1 <1>   0.0800 
 23 H        3.7750     1.4880    -2.3180 H     1 <1>   0.0800 
 24 H        2.4510     0.3670    -2.1840 H     1 <1>   0.0800 
 25 H        3.1190     1.6840     1.6260 H     1 <1>   0.0800 
 26 H        4.4540     2.8030     1.5600 H     1 <1>   0.0800 
 27 H        4.5100    -0.5030    -1.0930 H     1 <1>   0.0800 
 28 H        3.1610    -0.3650    -0.0010 H     1 <1>   0.0800 
 29 H       -1.8880     4.1360    -1.3890 H     1 <1>   0.1500 
 30 H       -1.0250     1.0290     1.3870 H     1 <1>   0.1500 
 31 H        5.4260     1.5300    -0.2210 H     1 <1>   0.4500 
 32 H       -3.3040     1.1140     2.1980 H     1 <1>   0.1500 
 33 H        4.6560    -0.3920     1.8700 H     1 <1>   0.0800 
 34 H        5.7710     0.9240     2.1520 H     1 <1>   0.0800 
 35 H       -3.9840     5.1120    -1.5380 H     1 <1>   0.0800 
 36 H       -4.8300     5.2170    -0.0180 H     1 <1>   0.0800 
 37 H       -5.3020     4.0220    -1.2070 H     1 <1>   0.0800 
 38 H        6.1440    -1.2770     0.0950 H     1 <1>   0.0800 
 39 H        7.0270    -1.0590     1.5720 H     1 <1>   0.0800 
 40 H        7.2140     0.1060     0.2950 H     1 <1>   0.0800 
 41 H       -5.5640     3.6730     1.8160 H     1 <1>   0.0800 
 42 H       -5.4650     1.9750     2.1950 H     1 <1>   0.0800 
 43 H       -6.0330     2.4760     0.6260 H     1 <1>   0.0800 
@<TRIPOS>BOND
  1   1   2  2   
  2   2   3  am  
  3   2   4  am  
  4   3   5  1   
  5   3   6  1   
  6   4   7  1   
  7   4  20  1   
  8   5   8  1   
  9   5  21  1   
 10   5  22  1   
 11   6   9  1   
 12   6  23  1   
 13   6  24  1   
 14   7  10  ar  
 15   7  11  ar  
 16   8  12  1   
 17   8  25  1   
 18   8  26  1   
 19   9  12  1   
 20   9  27  1   
 21   9  28  1   
 22  10  13  ar  
 23  10  29  1   
 24  11  14  ar  
 25  11  30  1   
 26  12  15  1   
 27  12  31  1   
 28  13  16  ar  
 29  13  17  1   
 30  14  16  ar  
 31  14  32  1   
 32  15  18  1   
 33  15  33  1   
 34  15  34  1   
 35  16  19  1   
 36  17  35  1   
 37  17  36  1   
 38  17  37  1   
 39  18  38  1   
 40  18  39  1   
 41  18  40  1   
 42  19  41  1   
 43  19  42  1   
 44  19  43  1   
@<TRIPOS>SUBSTRUCTURE
  1 ****   2 GROUP 4 **** **** 0

# MOE 2024.06 (io_trps.svl 2023.06)
