@<TRIPOS>MOLECULE
NONAME
31 31 1 0 0 
SMALL
USER_CHARGES


@<TRIPOS>ATOM
  1 CL       0.3020     0.3250     1.4530 Cl    1 <1>  -0.1770 
  2 C        0.0230     1.9490     0.8760 C.ar  1 <1>   0.1770 
  3 C       -1.2600     2.3470     0.5600 C.ar  1 <1>  -0.1500 
  4 C        1.0980     2.8070     0.7450 C.ar  1 <1>  -0.1500 
  5 C       -1.4930     3.6380     0.1000 C.ar  1 <1>   0.1170 
  6 C        0.8830     4.0940     0.2820 C.ar  1 <1>  -0.1500 
  7 N       -2.7720     4.1100    -0.2440 N.am  1 <1>  -0.5470 
  8 C       -0.4060     4.5130    -0.0430 C.ar  1 <1>   0.0830 
  9 C       -4.0300     3.6580     0.0150 C.2   1 <1>   0.6900 
 10 O       -0.6770     5.7700    -0.5110 O.3   1 <1>  -0.3630 
 11 O       -4.2280     2.6880     0.7190 O.2   1 <1>  -0.5700 
 12 N       -5.0560     4.3500    -0.5460 N.am  1 <1>  -0.7300 
 13 C        0.3370     6.7460    -0.6200 C.3   1 <1>   0.0400 
 14 C       -6.5050     4.1050    -0.4210 C.3   1 <1>   0.2200 
 15 C       -6.9430     4.2280     1.0370 C.3   1 <1>  -0.2400 
 16 C       -6.8660     2.7480    -1.0200 C.3   1 <1>  -0.2400 
 17 H       -2.0640     1.6440     0.6720 H     1 <1>   0.1500 
 18 H        2.0850     2.4670     1.0010 H     1 <1>   0.1500 
 19 H        1.7290     4.7470     0.1830 H     1 <1>   0.1500 
 20 H       -2.7360     5.0440    -0.6440 H     1 <1>   0.3700 
 21 H       -4.8170     5.0620    -1.2300 H     1 <1>   0.3700 
 22 H       -0.1110     7.6560    -0.9780 H     1 <1>   0.0800 
 23 H        1.0770     6.4050    -1.3220 H     1 <1>   0.0800 
 24 H        0.7700     6.9100     0.3500 H     1 <1>   0.0800 
 25 H       -7.0160     4.8670    -0.9860 H     1 <1>   0.0800 
 26 H       -6.5070     3.4480     1.6350 H     1 <1>   0.0800 
 27 H       -8.0120     4.1450     1.1050 H     1 <1>   0.0800 
 28 H       -6.6490     5.1830     1.4330 H     1 <1>   0.0800 
 29 H       -6.4180     1.9500    -0.4540 H     1 <1>   0.0800 
 30 H       -6.5300     2.6900    -2.0390 H     1 <1>   0.0800 
 31 H       -7.9320     2.6130    -1.0040 H     1 <1>   0.0800 
@<TRIPOS>BOND
  1   1   2  1   
  2   2   3  ar  
  3   2   4  ar  
  4   3   5  ar  
  5   3  17  1   
  6   4   6  ar  
  7   4  18  1   
  8   5   7  1   
  9   5   8  ar  
 10   6   8  ar  
 11   6  19  1   
 12   7   9  am  
 13   7  20  1   
 14   8  10  1   
 15   9  11  2   
 16   9  12  am  
 17  10  13  1   
 18  12  14  1   
 19  12  21  1   
 20  13  22  1   
 21  13  23  1   
 22  13  24  1   
 23  14  15  1   
 24  14  16  1   
 25  14  25  1   
 26  15  26  1   
 27  15  27  1   
 28  15  28  1   
 29  16  29  1   
 30  16  30  1   
 31  16  31  1   
@<TRIPOS>SUBSTRUCTURE
  1 ****   7 GROUP 4 **** **** 0

# MOE 2024.06 (io_trps.svl 2023.06)
