@<TRIPOS>MOLECULE
NONAME
43 45 1 0 0 
SMALL
USER_CHARGES


@<TRIPOS>ATOM
  1 O       -0.3060    -1.1480     1.8100 O.2   1 <1>  -0.5700 
  2 C       -1.3080    -1.5720     1.2550 C.2   1 <1>   0.5440 
  3 N       -2.3560    -0.7030     1.0250 N.am  1 <1>  -0.6600 
  4 C       -1.3440    -2.9530     0.8150 C.ar  1 <1>   0.0860 
  5 C       -2.4000     0.6500     1.6450 C.3   1 <1>   0.1400 
  6 C       -3.3480    -0.8950    -0.0700 C.3   1 <1>   0.1400 
  7 C       -0.3000    -3.4840     0.0390 C.ar  1 <1>   0.1170 
  8 C       -2.4190    -3.7810     1.1440 C.ar  1 <1>  -0.1500 
  9 C       -2.1500     1.7130     0.5710 C.3   1 <1>  -0.1600 
 10 C       -3.1130     0.1540    -1.1610 C.3   1 <1>  -0.1600 
 11 N        0.8040    -2.6710    -0.2470 N.am  1 <1>  -0.5470 
 12 C       -0.3780    -4.8030    -0.3990 C.ar  1 <1>  -0.1500 
 13 C       -2.4820    -5.0880     0.7040 C.ar  1 <1>  -0.1500 
 14 C       -3.1430     1.5830    -0.5950 C.3   1 <1>  -0.0800 
 15 C        1.7180    -2.6370    -1.2710 C.2   1 <1>   0.7150 
 16 C       -1.4590    -5.5990    -0.0750 C.ar  1 <1>  -0.1500 
 17 C       -2.8240     2.6050    -1.6920 C.3   1 <1>  -0.2400 
 18 O        1.6630    -3.4690    -2.1570 O.2   1 <1>  -0.5700 
 19 C        2.7080    -1.5830    -1.2610 C.2   1 <1>   0.0550 
 20 O        3.6330    -1.4880    -2.2140 O.3   1 <1>  -0.2800 
 21 C        2.9010    -0.5570    -0.3810 C.2   1 <1>  -0.1500 
 22 C        4.3960    -0.4490    -1.9700 C.2   1 <1>  -0.0100 
 23 C        3.9950     0.1750    -0.8420 C.2   1 <1>  -0.1500 
 24 H       -1.6620     0.7370     2.4240 H     1 <1>   0.0800 
 25 H       -3.3690     0.8000     2.0890 H     1 <1>   0.0800 
 26 H       -4.3410    -0.7890     0.3330 H     1 <1>   0.0800 
 27 H       -3.2650    -1.8750    -0.5040 H     1 <1>   0.0800 
 28 H       -3.2120    -3.3850     1.7530 H     1 <1>   0.1500 
 29 H       -1.1410     1.6040     0.2110 H     1 <1>   0.0800 
 30 H       -2.2360     2.6880     1.0160 H     1 <1>   0.0800 
 31 H       -3.8680     0.0480    -1.9190 H     1 <1>   0.0800 
 32 H       -2.1590    -0.0370    -1.6210 H     1 <1>   0.0800 
 33 H        0.8850    -1.8810     0.4040 H     1 <1>   0.3700 
 34 H        0.4150    -5.2170    -0.9950 H     1 <1>   0.1500 
 35 H       -3.3210    -5.7110     0.9640 H     1 <1>   0.1500 
 36 H       -4.1350     1.7830    -0.2230 H     1 <1>   0.0800 
 37 H       -1.5020    -6.6170    -0.4240 H     1 <1>   0.1500 
 38 H       -1.8390     2.4380    -2.0910 H     1 <1>   0.0800 
 39 H       -2.8690     3.6040    -1.2960 H     1 <1>   0.0800 
 40 H       -3.5360     2.5260    -2.4940 H     1 <1>   0.0800 
 41 H        2.3390    -0.3230     0.5080 H     1 <1>   0.1500 
 42 H        5.2020    -0.2230    -2.6460 H     1 <1>   0.1500 
 43 H        4.4110     1.0510    -0.3760 H     1 <1>   0.1500 
@<TRIPOS>BOND
  1   1   2  2   
  2   2   3  am  
  3   2   4  1   
  4   3   5  1   
  5   3   6  1   
  6   4   7  ar  
  7   4   8  ar  
  8   5   9  1   
  9   5  24  1   
 10   5  25  1   
 11   6  10  1   
 12   6  26  1   
 13   6  27  1   
 14   7  11  1   
 15   7  12  ar  
 16   8  13  ar  
 17   8  28  1   
 18   9  14  1   
 19   9  29  1   
 20   9  30  1   
 21  10  14  1   
 22  10  31  1   
 23  10  32  1   
 24  11  15  am  
 25  11  33  1   
 26  12  16  ar  
 27  12  34  1   
 28  13  16  ar  
 29  13  35  1   
 30  14  17  1   
 31  14  36  1   
 32  15  18  2   
 33  15  19  1   
 34  16  37  1   
 35  17  38  1   
 36  17  39  1   
 37  17  40  1   
 38  19  20  1   
 39  19  21  2   
 40  20  22  1   
 41  21  23  1   
 42  21  41  1   
 43  22  23  2   
 44  22  42  1   
 45  23  43  1   
@<TRIPOS>SUBSTRUCTURE
  1 ****  11 GROUP 4 **** **** 0

# MOE 2024.06 (io_trps.svl 2023.06)
