@<TRIPOS>MOLECULE
NONAME
39 41 1 0 0 
SMALL
USER_CHARGES


@<TRIPOS>ATOM
  1 O       -1.2630    -0.0550    -1.8300 O.2   1 <1>  -0.5700 
  2 C       -1.3680    -1.0630    -1.1690 C.2   1 <1>   0.5690 
  3 N       -0.2750    -1.8300    -0.8910 N.am  1 <1>  -0.7300 
  4 C       -2.7600    -1.4730    -0.6380 C.3   1 <1>   0.0610 
  5 C        1.1120    -1.5480    -1.3380 C.3   1 <1>   0.0600 
  6 C       -3.3150    -0.3620     0.2870 C.3   1 <1>  -0.1600 
  7 C       -2.7330    -2.7990     0.1700 C.3   1 <1>  -0.1600 
  8 C       -3.7400    -1.6550    -1.8230 C.3   1 <1>  -0.1600 
  9 C       -4.7260    -0.7110     0.8020 C.3   1 <1>   0.0000 
 10 C       -4.1370    -3.1760     0.6830 C.3   1 <1>   0.0000 
 11 C       -5.1490    -2.0180    -1.3230 C.3   1 <1>  -0.0800 
 12 C       -4.6580    -2.0380     1.5830 C.3   1 <1>  -0.1600 
 13 C       -5.6650    -0.8930    -0.4080 C.3   1 <1>  -0.1600 
 14 C       -5.2480     0.4100     1.7100 C.3   1 <1>  -0.2400 
 15 C       -5.0830    -3.3310    -0.5250 C.3   1 <1>  -0.1600 
 16 C       -4.0750    -4.4890     1.4740 C.3   1 <1>  -0.2400 
 17 H       -0.4030    -2.6730    -0.3300 H     1 <1>   0.3700 
 18 H        1.1420    -0.6420    -1.9210 H     1 <1>   0.0800 
 19 H        1.4720    -2.3610    -1.9440 H     1 <1>   0.0800 
 20 H        1.7530    -1.4300    -0.4820 H     1 <1>   0.0800 
 21 H       -3.3510     0.5670    -0.2560 H     1 <1>   0.0800 
 22 H       -2.6460    -0.2220     1.1180 H     1 <1>   0.0800 
 23 H       -2.0690    -2.6960     1.0100 H     1 <1>   0.0800 
 24 H       -2.3610    -3.5930    -0.4550 H     1 <1>   0.0800 
 25 H       -3.3760    -2.4270    -2.4790 H     1 <1>   0.0800 
 26 H       -3.7880    -0.7440    -2.3950 H     1 <1>   0.0800 
 27 H       -5.8130    -2.1350    -2.1630 H     1 <1>   0.0800 
 28 H       -4.0100    -1.9230     2.4340 H     1 <1>   0.0800 
 29 H       -5.6370    -2.2900     1.9520 H     1 <1>   0.0800 
 30 H       -5.7250     0.0250    -0.9670 H     1 <1>   0.0800 
 31 H       -6.6580    -1.1330    -0.0690 H     1 <1>   0.0800 
 32 H       -4.5960     0.5430     2.5550 H     1 <1>   0.0800 
 33 H       -6.2320     0.1740     2.0710 H     1 <1>   0.0800 
 34 H       -5.2970     1.3390     1.1690 H     1 <1>   0.0800 
 35 H       -6.0700    -3.5940    -0.1860 H     1 <1>   0.0800 
 36 H       -4.7370    -4.1240    -1.1650 H     1 <1>   0.0800 
 37 H       -3.4180    -4.3890     2.3200 H     1 <1>   0.0800 
 38 H       -3.7130    -5.2880     0.8530 H     1 <1>   0.0800 
 39 H       -5.0530    -4.7550     1.8350 H     1 <1>   0.0800 
@<TRIPOS>BOND
  1   1   2  2   
  2   2   3  am  
  3   2   4  1   
  4   3   5  1   
  5   3  17  1   
  6   4   6  1   
  7   4   7  1   
  8   4   8  1   
  9   5  18  1   
 10   5  19  1   
 11   5  20  1   
 12   6   9  1   
 13   6  21  1   
 14   6  22  1   
 15   7  10  1   
 16   7  23  1   
 17   7  24  1   
 18   8  11  1   
 19   8  25  1   
 20   8  26  1   
 21   9  12  1   
 22   9  13  1   
 23   9  14  1   
 24  10  12  1   
 25  10  15  1   
 26  10  16  1   
 27  11  13  1   
 28  11  15  1   
 29  11  27  1   
 30  12  28  1   
 31  12  29  1   
 32  13  30  1   
 33  13  31  1   
 34  14  32  1   
 35  14  33  1   
 36  14  34  1   
 37  15  35  1   
 38  15  36  1   
 39  16  37  1   
 40  16  38  1   
 41  16  39  1   
@<TRIPOS>SUBSTRUCTURE
  1 ****   4 GROUP 4 **** **** 0

# MOE 2024.06 (io_trps.svl 2023.06)
