@<TRIPOS>MOLECULE
NONAME
38 41 1 0 0 
SMALL
USER_CHARGES


@<TRIPOS>ATOM
  1 O       -0.4230     0.9880     2.2190 O.2   1 <1>  -0.5760 
  2 C       -0.8200     1.6580     1.3020 C.2   1 <1>   0.4880 
  3 C        0.0080     2.5820     0.6160 C.2   1 <1>  -0.1340 
  4 C       -2.2850     1.5650     0.9060 C.3   1 <1>  -0.1090 
  5 C       -0.4410     3.4470    -0.3230 C.2   1 <1>   0.1550 
  6 C        1.4830     2.5490     1.0070 C.3   1 <1>   0.7110 
  7 C       -2.5360     2.0590    -0.5320 C.3   1 <1>  -0.0900 
  8 N        0.4010     4.3880    -0.8830 N.pl3 1 <1>  -0.6950 
  9 C       -1.8920     3.4370    -0.7810 C.3   1 <1>  -0.0330 
 10 N        2.1810     3.7570     0.4940 N.pl3 1 <1>  -0.4640 
 11 C        2.1690     1.3270     0.3980 C.ar  1 <1>  -0.1530 
 12 C       -4.0380     2.0960    -0.8380 C.3   1 <1>  -0.2490 
 13 C        1.6570     4.5350    -0.4240 C.cat 1 <1>   1.0680 
 14 N        3.4560     4.1500     0.7920 N.2   1 <1>  -0.2690 
 15 C        2.8840     0.4620     1.2160 C.ar  1 <1>  -0.1600 
 16 C        2.1000     1.0590    -0.9660 C.ar  1 <1>  -0.1600 
 17 N        2.5510     5.4350    -0.7490 N.pl3 1 <1>  -0.7050 
 18 C        3.6480     5.1600     0.0240 C.2   1 <1>   0.4960 
 19 C        3.5220    -0.6440     0.6830 C.ar  1 <1>  -0.1600 
 20 C        2.7380    -0.0470    -1.4980 C.ar  1 <1>  -0.1600 
 21 C        3.4500    -0.8980    -0.6740 C.ar  1 <1>  -0.1600 
 22 H       -2.8590     2.1480     1.6040 H     1 <1>   0.0700 
 23 H       -2.6040     0.5410     0.9950 H     1 <1>   0.0700 
 24 H        1.5780     2.5330     2.0800 H     1 <1>   0.0700 
 25 H       -2.0790     1.3520    -1.2060 H     1 <1>   0.0700 
 26 H        0.0540     5.0280    -1.6000 H     1 <1>   0.4430 
 27 H       -1.9480     3.6560    -1.8330 H     1 <1>   0.0700 
 28 H       -2.4350     4.1990    -0.2490 H     1 <1>   0.0700 
 29 H       -4.5460     2.7870    -0.1880 H     1 <1>   0.0700 
 30 H       -4.4690     1.1200    -0.7010 H     1 <1>   0.0700 
 31 H       -4.2070     2.3960    -1.8580 H     1 <1>   0.0700 
 32 H        2.9510     0.6340     2.2770 H     1 <1>   0.1400 
 33 H        1.5510     1.6970    -1.6350 H     1 <1>   0.1400 
 34 H        2.4660     6.1850    -1.4290 H     1 <1>   0.4430 
 35 H        4.5610     5.7360    -0.0210 H     1 <1>   0.1400 
 36 H        4.0730    -1.3100     1.3250 H     1 <1>   0.1400 
 37 H        2.6820    -0.2530    -2.5530 H     1 <1>   0.1400 
 38 H        3.9460    -1.7600    -1.0860 H     1 <1>   0.1400 
@<TRIPOS>BOND
  1   1   2  2   
  2   2   3  1   
  3   2   4  1   
  4   3   5  2   
  5   3   6  1   
  6   4   7  1   
  7   4  22  1   
  8   4  23  1   
  9   5   8  1   
 10   5   9  1   
 11   6  10  1   
 12   6  11  1   
 13   6  24  1   
 14   7   9  1   
 15   7  12  1   
 16   7  25  1   
 17   8  13  ar  
 18   8  26  1   
 19   9  27  1   
 20   9  28  1   
 21  10  13  ar  
 22  10  14  1   
 23  11  15  ar  
 24  11  16  ar  
 25  12  29  1   
 26  12  30  1   
 27  12  31  1   
 28  13  17  ar  
 29  14  18  2   
 30  15  19  ar  
 31  15  32  1   
 32  16  20  ar  
 33  16  33  1   
 34  17  18  1   
 35  17  34  1   
 36  18  35  1   
 37  19  21  ar  
 38  19  36  1   
 39  20  21  ar  
 40  20  37  1   
 41  21  38  1   
@<TRIPOS>SUBSTRUCTURE
  1 ****   6 GROUP 4 **** **** 0

# MOE 2024.06 (io_trps.svl 2023.06)
