@<TRIPOS>MOLECULE
NONAME
37 38 1 0 0 
SMALL
USER_CHARGES


@<TRIPOS>ATOM
  1 O       -5.6580     6.6760     0.8610 O.3   1 <1>  -0.6850 
  2 C       -6.8000     6.9440     0.1050 C.3   1 <1>   0.1100 
  3 C       -7.1550     5.7600    -0.8160 C.3   1 <1>   0.3460 
  4 N       -7.6020     4.5470    -0.0720 N.pl3 1 <1>  -0.7680 
  5 C       -6.8490     3.6940     0.6210 C.cat 1 <1>   1.0680 
  6 C       -8.8700     3.9850    -0.1660 C.ar  1 <1>   0.3000 
  7 N       -5.5910     3.9040     0.9130 N.pl3 1 <1>  -0.8400 
  8 N       -7.5350     2.6110     0.9760 N.pl3 1 <1>  -0.7680 
  9 C       -8.8250     2.7670     0.4890 C.ar  1 <1>   0.3000 
 10 C      -10.0490     4.4240    -0.7610 C.ar  1 <1>  -0.1190 
 11 C       -7.0720     1.4330     1.7420 C.3   1 <1>   0.3460 
 12 C       -9.9520     1.9560     0.5620 C.ar  1 <1>  -0.1190 
 13 C      -11.1700     3.6200    -0.6880 C.ar  1 <1>  -0.1600 
 14 C       -6.7250     0.2740     0.8010 C.3   1 <1>  -0.1700 
 15 C      -11.1220     2.3900    -0.0310 C.ar  1 <1>  -0.1600 
 16 C       -5.5670     0.5850    -0.1630 C.3   1 <1>  -0.1700 
 17 C       -5.2190    -0.6430    -1.0050 C.3   1 <1>  -0.2490 
 18 H       -5.4170     7.4660     1.3960 H     1 <1>   0.3920 
 19 H       -6.5980     7.8170    -0.4920 H     1 <1>   0.0690 
 20 H       -7.6160     7.1580     0.7740 H     1 <1>   0.0690 
 21 H       -6.3000     5.5150    -1.4240 H     1 <1>   0.0690 
 22 H       -7.9380     6.0720    -1.4840 H     1 <1>   0.0690 
 23 H       -5.0090     3.2480     1.4180 H     1 <1>   0.4430 
 24 H       -5.2280     4.8600     0.8080 H     1 <1>   0.4430 
 25 H      -10.0900     5.3710    -1.2660 H     1 <1>   0.1400 
 26 H       -7.8500     1.1240     2.4200 H     1 <1>   0.0690 
 27 H       -6.2100     1.6900     2.3340 H     1 <1>   0.0690 
 28 H       -9.9110     1.0090     1.0680 H     1 <1>   0.1400 
 29 H      -12.0950     3.9380    -1.1420 H     1 <1>   0.1400 
 30 H       -7.5990    -0.0050     0.2400 H     1 <1>   0.0690 
 31 H       -6.4510    -0.5730     1.4060 H     1 <1>   0.0690 
 32 H      -12.0090     1.7800     0.0110 H     1 <1>   0.1400 
 33 H       -4.6950     0.8830     0.3930 H     1 <1>   0.0690 
 34 H       -5.8410     1.3860    -0.8270 H     1 <1>   0.0690 
 35 H       -4.9130    -1.4610    -0.3760 H     1 <1>   0.0690 
 36 H       -4.4120    -0.4120    -1.6780 H     1 <1>   0.0690 
 37 H       -6.0680    -0.9550    -1.5890 H     1 <1>   0.0690 
@<TRIPOS>BOND
  1   1   2  1   
  2   1  18  1   
  3   2   3  1   
  4   2  19  1   
  5   2  20  1   
  6   3   4  1   
  7   3  21  1   
  8   3  22  1   
  9   4   5  ar  
 10   4   6  1   
 11   5   7  ar  
 12   5   8  ar  
 13   6   9  ar  
 14   6  10  ar  
 15   7  23  1   
 16   7  24  1   
 17   8   9  1   
 18   8  11  1   
 19   9  12  ar  
 20  10  13  ar  
 21  10  25  1   
 22  11  14  1   
 23  11  26  1   
 24  11  27  1   
 25  12  15  ar  
 26  12  28  1   
 27  13  15  ar  
 28  13  29  1   
 29  14  16  1   
 30  14  30  1   
 31  14  31  1   
 32  15  32  1   
 33  16  17  1   
 34  16  33  1   
 35  16  34  1   
 36  17  35  1   
 37  17  36  1   
 38  17  37  1   
@<TRIPOS>SUBSTRUCTURE
  1 ****   8 GROUP 4 **** **** 0

# MOE 2024.06 (io_trps.svl 2023.06)
