@<TRIPOS>MOLECULE
NONAME
33 35 1 0 0 
SMALL
USER_CHARGES


@<TRIPOS>ATOM
  1 S       -2.5780     1.7690     0.9550 S.3   1 <1>  -0.0800 
  2 C       -3.9700     1.8220     2.0150 C.2   1 <1>   0.4620 
  3 C       -3.2880     3.0480     0.0100 C.2   1 <1>  -0.1100 
  4 N       -4.8460     2.6920     1.6920 N.2   1 <1>  -0.5650 
  5 N       -4.0280     0.9680     3.0650 N.pl3 1 <1>  -0.8840 
  6 C       -4.4700     3.3980     0.5510 C.2   1 <1>   0.0460 
  7 C       -5.4300     4.4900     0.0250 C.3   1 <1>   0.3240 
  8 C       -6.7180     3.8300    -0.5130 C.ar  1 <1>  -0.1430 
  9 C       -4.7580     5.4040    -1.0200 C.3   1 <1>  -0.1600 
 10 C       -5.7130     5.5220     1.1330 C.3   1 <1>  -0.1600 
 11 C       -6.8920     3.5550    -1.8660 C.ar  1 <1>  -0.1500 
 12 C       -7.7390     3.4720     0.3610 C.ar  1 <1>  -0.1500 
 13 C       -3.8890     6.3950    -0.2370 C.3   1 <1>  -0.1600 
 14 C       -4.5030     6.4620     1.1630 C.3   1 <1>  -0.1600 
 15 C       -8.0560     2.9680    -2.3320 C.ar  1 <1>  -0.1500 
 16 C       -8.9050     2.8860    -0.1000 C.ar  1 <1>  -0.1500 
 17 C       -9.0670     2.6360    -1.4490 C.ar  1 <1>  -0.1500 
 18 H       -2.7350     3.3900    -0.8440 H     1 <1>   0.1500 
 19 H       -4.8920     0.9180     3.6030 H     1 <1>   0.4000 
 20 H       -3.3640     0.2020     3.1690 H     1 <1>   0.4000 
 21 H       -5.5240     5.9650    -1.5270 H     1 <1>   0.0800 
 22 H       -4.1950     4.8640    -1.7580 H     1 <1>   0.0800 
 23 H       -5.8810     5.0690     2.0930 H     1 <1>   0.0800 
 24 H       -6.5870     6.0890     0.8650 H     1 <1>   0.0800 
 25 H       -6.1240     3.7870    -2.5800 H     1 <1>   0.1500 
 26 H       -7.6290     3.6390     1.4180 H     1 <1>   0.1500 
 27 H       -3.8830     7.3610    -0.7120 H     1 <1>   0.0800 
 28 H       -2.8770     6.0320    -0.1710 H     1 <1>   0.0800 
 29 H       -3.7880     6.1070     1.8880 H     1 <1>   0.0800 
 30 H       -4.7970     7.4640     1.4230 H     1 <1>   0.0800 
 31 H       -8.1740     2.7670    -3.3820 H     1 <1>   0.1500 
 32 H       -9.6820     2.6200     0.5950 H     1 <1>   0.1500 
 33 H       -9.9720     2.1800    -1.8100 H     1 <1>   0.1500 
@<TRIPOS>BOND
  1   1   2  1   
  2   1   3  1   
  3   2   4  2   
  4   2   5  1   
  5   3   6  2   
  6   3  18  1   
  7   4   6  1   
  8   5  19  1   
  9   5  20  1   
 10   6   7  1   
 11   7   8  1   
 12   7   9  1   
 13   7  10  1   
 14   8  11  ar  
 15   8  12  ar  
 16   9  13  1   
 17   9  21  1   
 18   9  22  1   
 19  10  14  1   
 20  10  23  1   
 21  10  24  1   
 22  11  15  ar  
 23  11  25  1   
 24  12  16  ar  
 25  12  26  1   
 26  13  14  1   
 27  13  27  1   
 28  13  28  1   
 29  14  29  1   
 30  14  30  1   
 31  15  17  ar  
 32  15  31  1   
 33  16  17  ar  
 34  16  32  1   
 35  17  33  1   
@<TRIPOS>SUBSTRUCTURE
  1 ****   7 GROUP 4 **** **** 0

# MOE 2024.06 (io_trps.svl 2023.06)
