@<TRIPOS>MOLECULE
NONAME
45 47 1 0 0 
SMALL
USER_CHARGES


@<TRIPOS>ATOM
  1 CL       2.1560     1.7690    -3.2740 Cl    1 <1>  -0.1770 
  2 C        2.6620     1.6220    -1.6100 C.ar  1 <1>   0.1770 
  3 C        3.8280     0.9440    -1.3190 C.ar  1 <1>  -0.1500 
  4 C        1.8850     2.1860    -0.6150 C.ar  1 <1>  -0.1500 
  5 C        4.2400     0.8200     0.0030 C.ar  1 <1>   0.1000 
  6 C        2.2910     2.0660     0.7040 C.ar  1 <1>  -0.1500 
  7 N        5.4060     0.1450     0.3400 N.pl3 1 <1>  -0.8380 
  8 C        3.4600     1.3870     1.0050 C.ar  1 <1>  -0.1500 
  9 C        6.6880     0.7780    -0.0900 C.3   1 <1>   0.2090 
 10 C        5.3740    -1.3390     0.2000 C.3   1 <1>   0.2090 
 11 C        7.8870     0.1230     0.6290 C.3   1 <1>   0.3430 
 12 C        6.5790    -1.9820     0.9200 C.3   1 <1>   0.3430 
 13 N        7.8960    -1.3830     0.4910 N.4   1 <1>  -0.9590 
 14 C        9.0450    -1.9910     1.2130 C.3   1 <1>   0.4860 
 15 C       10.3250    -1.4870     0.5770 C.ar  1 <1>  -0.1430 
 16 C       10.6480    -1.8630    -0.7190 C.ar  1 <1>  -0.1500 
 17 C       11.1790    -0.6390     1.2720 C.ar  1 <1>  -0.1500 
 18 C       11.7980    -1.3790    -1.3090 C.ar  1 <1>   0.0830 
 19 C       12.3380    -0.1630     0.6800 C.ar  1 <1>  -0.1500 
 20 O       12.0850    -1.7400    -2.5690 O.3   1 <1>  -0.5330 
 21 C       12.6590    -0.5280    -0.6240 C.ar  1 <1>   0.0830 
 22 O       13.7750    -0.1030    -1.2810 O.3   1 <1>  -0.3630 
 23 C       14.7480     0.6860    -0.6320 C.3   1 <1>   0.0400 
 24 H        4.4050     0.5180    -2.1160 H     1 <1>   0.1500 
 25 H        0.9810     2.7090    -0.8710 H     1 <1>   0.1500 
 26 H        1.6990     2.5000     1.4910 H     1 <1>   0.1500 
 27 H        3.7780     1.2930     2.0270 H     1 <1>   0.1500 
 28 H        6.6610     1.8290     0.1460 H     1 <1>   0.0800 
 29 H        6.8040     0.6820    -1.1550 H     1 <1>   0.0800 
 30 H        5.3830    -1.6060    -0.8430 H     1 <1>   0.0800 
 31 H        4.4600    -1.7150     0.6290 H     1 <1>   0.0800 
 32 H        7.8340     0.3890     1.6720 H     1 <1>   0.0800 
 33 H        8.8000     0.5350     0.2300 H     1 <1>   0.0800 
 34 H        6.5760    -3.0420     0.7280 H     1 <1>   0.0800 
 35 H        6.4460    -1.8360     1.9790 H     1 <1>   0.0800 
 36 H        8.0370    -1.5830    -0.5070 H     1 <1>   0.4500 
 37 H        9.0100    -3.0660     1.1330 H     1 <1>   0.0800 
 38 H        9.0180    -1.7220     2.2560 H     1 <1>   0.0800 
 39 H       10.0300    -2.5320    -1.2920 H     1 <1>   0.1500 
 40 H       10.9570    -0.3410     2.2840 H     1 <1>   0.1500 
 41 H       12.9780     0.4890     1.2460 H     1 <1>   0.1500 
 42 H       12.9380    -1.3400    -2.8390 H     1 <1>   0.4500 
 43 H       14.3030     1.6190    -0.3340 H     1 <1>   0.0800 
 44 H       15.5470     0.8720    -1.3280 H     1 <1>   0.0800 
 45 H       15.1260     0.1480     0.2200 H     1 <1>   0.0800 
@<TRIPOS>BOND
  1   1   2  1   
  2   2   3  ar  
  3   2   4  ar  
  4   3   5  ar  
  5   3  24  1   
  6   4   6  ar  
  7   4  25  1   
  8   5   7  1   
  9   5   8  ar  
 10   6   8  ar  
 11   6  26  1   
 12   7   9  1   
 13   7  10  1   
 14   8  27  1   
 15   9  11  1   
 16   9  28  1   
 17   9  29  1   
 18  10  12  1   
 19  10  30  1   
 20  10  31  1   
 21  11  13  1   
 22  11  32  1   
 23  11  33  1   
 24  12  13  1   
 25  12  34  1   
 26  12  35  1   
 27  13  14  1   
 28  13  36  1   
 29  14  15  1   
 30  14  37  1   
 31  14  38  1   
 32  15  16  ar  
 33  15  17  ar  
 34  16  18  ar  
 35  16  39  1   
 36  17  19  ar  
 37  17  40  1   
 38  18  20  1   
 39  18  21  ar  
 40  19  21  ar  
 41  19  41  1   
 42  20  42  1   
 43  21  22  1   
 44  22  23  1   
 45  23  43  1   
 46  23  44  1   
 47  23  45  1   
@<TRIPOS>SUBSTRUCTURE
  1 ****  11 GROUP 4 **** **** 0

# MOE 2024.06 (io_trps.svl 2023.06)
