@<TRIPOS>MOLECULE
NONAME
25 24 1 0 0 
SMALL
USER_CHARGES


@<TRIPOS>ATOM
  1 S      -10.8310    -0.7830    -0.1140 S.o2  1 <1>   1.2120 
  2 O      -10.2020     0.1140     0.8290 O.2   1 <1>  -0.6500 
  3 O      -10.9940    -0.3940    -1.4930 O.2   1 <1>  -0.6500 
  4 C       -9.8280    -2.2610    -0.1040 C.2   1 <1>  -0.1670 
  5 C      -12.4080    -1.3340     0.5460 C.3   1 <1>  -0.0550 
  6 C       -8.9290    -2.5760     0.8340 C.2   1 <1>  -0.0490 
  7 C      -13.4510    -0.2100     0.6590 C.3   1 <1>  -0.1600 
  8 S       -7.9180    -4.0600     0.7520 S.3   1 <1>  -0.2320 
  9 C      -14.7740    -0.7330     1.2280 C.3   1 <1>  -0.2400 
 10 C       -6.2420    -3.5360     0.8590 C.cat 1 <1>   0.8400 
 11 N       -5.3460    -4.4790     0.9550 N.pl3 1 <1>  -0.7540 
 12 N       -5.9840    -2.2550     0.8290 N.pl3 1 <1>  -0.7540 
 13 H      -10.0110    -2.8930    -0.9510 H     1 <1>   0.1500 
 14 H      -12.8060    -2.1050    -0.0870 H     1 <1>   0.0800 
 15 H      -12.2550    -1.7560     1.5210 H     1 <1>   0.0800 
 16 H       -8.7170    -1.9850     1.7130 H     1 <1>   0.1500 
 17 H      -13.0710     0.5700     1.2980 H     1 <1>   0.0800 
 18 H      -13.6240     0.2170    -0.3150 H     1 <1>   0.0800 
 19 H      -14.6290    -1.1420     2.2130 H     1 <1>   0.0800 
 20 H      -15.1860    -1.4960     0.5900 H     1 <1>   0.0800 
 21 H      -15.4860     0.0710     1.2960 H     1 <1>   0.0800 
 22 H       -4.3390    -4.3310     1.0200 H     1 <1>   0.4500 
 23 H       -5.6160    -5.4660     0.9690 H     1 <1>   0.4500 
 24 H       -6.7180    -1.5510     0.7190 H     1 <1>   0.4500 
 25 H       -5.0490    -1.8490     0.8840 H     1 <1>   0.4500 
@<TRIPOS>BOND
  1   1   2  2   
  2   1   3  2   
  3   1   4  1   
  4   1   5  1   
  5   4   6  2   
  6   4  13  1   
  7   5   7  1   
  8   5  14  1   
  9   5  15  1   
 10   6   8  1   
 11   6  16  1   
 12   7   9  1   
 13   7  17  1   
 14   7  18  1   
 15   8  10  1   
 16   9  19  1   
 17   9  20  1   
 18   9  21  1   
 19  10  11  ar  
 20  10  12  ar  
 21  11  22  1   
 22  11  23  1   
 23  12  24  1   
 24  12  25  1   
@<TRIPOS>SUBSTRUCTURE
  1 ****   4 GROUP 4 **** **** 0

# MOE 2024.06 (io_trps.svl 2023.06)
