@<TRIPOS>MOLECULE
NONAME
32 32 1 0 0 
SMALL
USER_CHARGES


@<TRIPOS>ATOM
  1 I       -0.6030     0.3120     0.3460 I     1 <1>  -0.0810 
  2 C        1.3890     1.0410     0.1540 C.ar  1 <1>   0.0810 
  3 C        1.5820     2.3250    -0.3200 C.ar  1 <1>  -0.1500 
  4 C        2.4370     0.2110     0.5090 C.ar  1 <1>  -0.1500 
  5 C        2.8800     2.7900    -0.4410 C.ar  1 <1>  -0.1500 
  6 C        3.7310     0.6880     0.3830 C.ar  1 <1>  -0.1500 
  7 C        3.9550     1.9820    -0.0940 C.ar  1 <1>   0.0830 
  8 O        5.1900     2.5230    -0.2460 O.3   1 <1>  -0.3630 
  9 C        6.3550     1.7980     0.0740 C.3   1 <1>   0.1200 
 10 C        7.5650     2.6870    -0.2100 C.3   1 <1>  -0.1600 
 11 C        8.8660     1.9570     0.1200 C.3   1 <1>   0.0700 
 12 S       10.2380     3.0810    -0.2460 S.3   1 <1>  -0.4600 
 13 C       11.7050     2.1680     0.2890 C.3   1 <1>   0.1500 
 14 C       12.8240     3.1910     0.4610 C.3   1 <1>  -0.2400 
 15 C       12.0300     1.1300    -0.7840 C.3   1 <1>  -0.2400 
 16 H        0.7450     2.9460    -0.5880 H     1 <1>   0.1500 
 17 H        2.2470    -0.7830     0.8740 H     1 <1>   0.1500 
 18 H        3.0710     3.7830    -0.8060 H     1 <1>   0.1500 
 19 H        4.5440     0.0450     0.6580 H     1 <1>   0.1500 
 20 H        6.3810     0.9130    -0.5380 H     1 <1>   0.0800 
 21 H        6.3130     1.5340     1.1160 H     1 <1>   0.0800 
 22 H        7.4990     3.5790     0.3880 H     1 <1>   0.0800 
 23 H        7.5680     2.9620    -1.2500 H     1 <1>   0.0800 
 24 H        8.9950     1.0800    -0.4900 H     1 <1>   0.0800 
 25 H        8.9280     1.7030     1.1640 H     1 <1>   0.0800 
 26 H       11.4690     1.6990     1.2300 H     1 <1>   0.0800 
 27 H       13.0170     3.6950    -0.4690 H     1 <1>   0.0800 
 28 H       13.7260     2.7040     0.7860 H     1 <1>   0.0800 
 29 H       12.5430     3.9210     1.1990 H     1 <1>   0.0800 
 30 H       12.1850     1.6130    -1.7330 H     1 <1>   0.0800 
 31 H       11.2280     0.4230    -0.8800 H     1 <1>   0.0800 
 32 H       12.9240     0.5960    -0.5200 H     1 <1>   0.0800 
@<TRIPOS>BOND
  1   1   2  1   
  2   2   3  ar  
  3   2   4  ar  
  4   3   5  ar  
  5   3  16  1   
  6   4   6  ar  
  7   4  17  1   
  8   5   7  ar  
  9   5  18  1   
 10   6   7  ar  
 11   6  19  1   
 12   7   8  1   
 13   8   9  1   
 14   9  10  1   
 15   9  20  1   
 16   9  21  1   
 17  10  11  1   
 18  10  22  1   
 19  10  23  1   
 20  11  12  1   
 21  11  24  1   
 22  11  25  1   
 23  12  13  1   
 24  13  14  1   
 25  13  15  1   
 26  13  26  1   
 27  14  27  1   
 28  14  28  1   
 29  14  29  1   
 30  15  30  1   
 31  15  31  1   
 32  15  32  1   
@<TRIPOS>SUBSTRUCTURE
  1 ****   9 GROUP 4 **** **** 0

# MOE 2024.06 (io_trps.svl 2023.06)
