@<TRIPOS>MOLECULE
NONAME
48 50 1 0 0 
SMALL
USER_CHARGES


@<TRIPOS>ATOM
  1 N        4.5110     4.4760    -0.2520 N.4   1 <1>  -0.9590 
  2 C        5.6300     5.4330    -0.4530 C.3   1 <1>   0.4230 
  3 C        3.7360     4.6030     1.0290 C.3   1 <1>   0.3430 
  4 C        4.8900     3.0450    -0.4940 C.3   1 <1>   0.3430 
  5 C        6.6670     5.3520     0.6780 C.3   1 <1>  -0.1600 
  6 C        5.0840     6.8580    -0.6010 C.3   1 <1>  -0.1600 
  7 C        2.4830     3.6950     1.0060 C.3   1 <1>   0.1100 
  8 C        3.6480     2.1190    -0.4450 C.3   1 <1>   0.1100 
  9 C        7.8130     6.3450     0.4350 C.3   1 <1>  -0.1600 
 10 C        6.2260     7.8550    -0.8500 C.3   1 <1>  -0.1600 
 11 N        2.3950     2.8810    -0.2360 N.3   1 <1>  -0.8100 
 12 C        7.2820     7.7750     0.2600 C.3   1 <1>  -0.1600 
 13 C        1.2070     2.0050    -0.2580 C.3   1 <1>   0.3100 
 14 C       -0.0310     2.8320    -0.3020 C.1   1 <1>  -0.2000 
 15 C       -1.0090     3.5100    -0.3300 C.1   1 <1>  -0.0730 
 16 C       -2.1730     4.3430    -0.3620 C.ar  1 <1>   0.0730 
 17 C       -3.1410     4.2500     0.6290 C.ar  1 <1>  -0.1500 
 18 C       -2.3560     5.2630    -1.3850 C.ar  1 <1>  -0.1500 
 19 C       -4.2640     5.0600     0.6030 C.ar  1 <1>  -0.1500 
 20 C       -3.4750     6.0760    -1.4170 C.ar  1 <1>  -0.1500 
 21 C       -4.4310     5.9750    -0.4220 C.ar  1 <1>  -0.1500 
 22 H        3.7930     4.6520    -0.9720 H     1 <1>   0.4500 
 23 H        6.1300     5.1850    -1.3760 H     1 <1>   0.0800 
 24 H        3.4210     5.6220     1.1740 H     1 <1>   0.0800 
 25 H        4.3580     4.3290     1.8650 H     1 <1>   0.0800 
 26 H        5.6030     2.7200     0.2460 H     1 <1>   0.0800 
 27 H        5.3560     2.9500    -1.4610 H     1 <1>   0.0800 
 28 H        7.0810     4.3620     0.7350 H     1 <1>   0.0800 
 29 H        6.2120     5.5920     1.6220 H     1 <1>   0.0800 
 30 H        4.5660     7.1590     0.2920 H     1 <1>   0.0800 
 31 H        4.3980     6.9030    -1.4290 H     1 <1>   0.0800 
 32 H        1.6130     4.3250     1.0900 H     1 <1>   0.0800 
 33 H        2.4960     3.0510     1.8700 H     1 <1>   0.0800 
 34 H        3.7750     1.3980     0.3440 H     1 <1>   0.0800 
 35 H        3.5870     1.5760    -1.3740 H     1 <1>   0.0800 
 36 H        8.3610     6.0600    -0.4490 H     1 <1>   0.0800 
 37 H        8.5000     6.3190     1.2650 H     1 <1>   0.0800 
 38 H        5.8300     8.8560    -0.8950 H     1 <1>   0.0800 
 39 H        6.6900     7.6460    -1.7990 H     1 <1>   0.0800 
 40 H        8.1010     8.4350     0.0240 H     1 <1>   0.0800 
 41 H        6.8530     8.1140     1.1890 H     1 <1>   0.0800 
 42 H        1.1910     1.3690     0.6100 H     1 <1>   0.0800 
 43 H        1.2300     1.3840    -1.1380 H     1 <1>   0.0800 
 44 H       -3.0150     3.5400     1.4260 H     1 <1>   0.1500 
 45 H       -1.6150     5.3430    -2.1610 H     1 <1>   0.1500 
 46 H       -5.0070     4.9780     1.3770 H     1 <1>   0.1500 
 47 H       -3.6030     6.7860    -2.2170 H     1 <1>   0.1500 
 48 H       -5.3030     6.6060    -0.4450 H     1 <1>   0.1500 
@<TRIPOS>BOND
  1   1   2  1   
  2   1   3  1   
  3   1   4  1   
  4   1  22  1   
  5   2   5  1   
  6   2   6  1   
  7   2  23  1   
  8   3   7  1   
  9   3  24  1   
 10   3  25  1   
 11   4   8  1   
 12   4  26  1   
 13   4  27  1   
 14   5   9  1   
 15   5  28  1   
 16   5  29  1   
 17   6  10  1   
 18   6  30  1   
 19   6  31  1   
 20   7  11  1   
 21   7  32  1   
 22   7  33  1   
 23   8  11  1   
 24   8  34  1   
 25   8  35  1   
 26   9  12  1   
 27   9  36  1   
 28   9  37  1   
 29  10  12  1   
 30  10  38  1   
 31  10  39  1   
 32  11  13  1   
 33  12  40  1   
 34  12  41  1   
 35  13  14  1   
 36  13  42  1   
 37  13  43  1   
 38  14  15  3   
 39  15  16  1   
 40  16  17  ar  
 41  16  18  ar  
 42  17  19  ar  
 43  17  44  1   
 44  18  20  ar  
 45  18  45  1   
 46  19  21  ar  
 47  19  46  1   
 48  20  21  ar  
 49  20  47  1   
 50  21  48  1   
@<TRIPOS>SUBSTRUCTURE
  1 ****   7 GROUP 4 **** **** 0

# MOE 2024.06 (io_trps.svl 2023.06)
