@<TRIPOS>MOLECULE
NONAME
45 47 1 0 0 
SMALL
USER_CHARGES


@<TRIPOS>ATOM
  1 O        0.5870     0.0210     0.0310 O.2   1 <1>  -0.5700 
  2 C        0.9120    -0.9370     0.7070 C.2   1 <1>   0.6900 
  3 N        2.1730    -1.0120     1.2380 N.am  1 <1>  -0.6600 
  4 N        0.0320    -1.9440     0.9820 N.am  1 <1>  -0.5470 
  5 C        3.0760     0.1840     1.2400 C.3   1 <1>   0.1400 
  6 C        2.9060    -2.3030     1.4450 C.3   1 <1>   0.1400 
  7 C       -1.2410    -2.2320     0.4710 C.ar  1 <1>   0.1170 
  8 C        4.2330     0.0120     0.2420 C.3   1 <1>   0.2090 
  9 C        4.0820    -2.4480     0.4630 C.3   1 <1>   0.2090 
 10 C       -2.1080    -3.0120     1.2270 C.ar  1 <1>  -0.1500 
 11 C       -1.6720    -1.7880    -0.7740 C.ar  1 <1>  -0.1500 
 12 N        4.9790    -1.2530     0.5080 N.pl3 1 <1>  -0.8380 
 13 C       -3.3670    -3.3390     0.7550 C.ar  1 <1>  -0.1500 
 14 C       -2.9310    -2.1120    -1.2480 C.ar  1 <1>  -0.1500 
 15 C        6.2430    -1.3630    -0.0400 C.ar  1 <1>   0.4100 
 16 C       -3.7880    -2.8910    -0.4870 C.ar  1 <1>  -0.1440 
 17 N        6.4060    -2.2310    -1.0330 N.ar  1 <1>  -0.6200 
 18 C        7.2770    -0.5710     0.4550 C.ar  1 <1>  -0.1500 
 19 C       -5.1710    -3.2470    -1.0080 C.3   1 <1>  -0.0170 
 20 C        7.6240    -2.3030    -1.5450 C.ar  1 <1>   0.1600 
 21 C        8.5380    -0.6560    -0.0860 C.ar  1 <1>  -0.1500 
 22 C       -6.1940    -2.1950    -0.5750 C.3   1 <1>  -0.2400 
 23 C        8.7060    -1.5540    -1.1200 C.ar  1 <1>  -0.1500 
 24 H        0.3180    -2.4960     1.7810 H     1 <1>   0.3700 
 25 H        3.4820     0.3140     2.2270 H     1 <1>   0.0800 
 26 H        2.5240     1.0740     0.9940 H     1 <1>   0.0800 
 27 H        2.2480    -3.1430     1.3140 H     1 <1>   0.0800 
 28 H        3.2890    -2.3310     2.4500 H     1 <1>   0.0800 
 29 H        4.8980     0.8540     0.3180 H     1 <1>   0.0800 
 30 H        3.8370    -0.0100    -0.7590 H     1 <1>   0.0800 
 31 H        3.7020    -2.5690    -0.5370 H     1 <1>   0.0800 
 32 H        4.6500    -3.3280     0.7100 H     1 <1>   0.0800 
 33 H       -1.8010    -3.3660     2.1930 H     1 <1>   0.1500 
 34 H       -1.0220    -1.1850    -1.3820 H     1 <1>   0.1500 
 35 H       -4.0230    -3.9410     1.3590 H     1 <1>   0.1500 
 36 H       -3.2410    -1.7510    -2.2120 H     1 <1>   0.1500 
 37 H        7.0700     0.0980     1.2670 H     1 <1>   0.1500 
 38 H       -5.4620    -4.2120    -0.6320 H     1 <1>   0.0800 
 39 H       -5.1480    -3.3090    -2.0820 H     1 <1>   0.0800 
 40 H        7.7660    -3.0020    -2.3510 H     1 <1>   0.1500 
 41 H        9.3540    -0.0560     0.2790 H     1 <1>   0.1500 
 42 H       -6.2350    -2.1380     0.4980 H     1 <1>   0.0800 
 43 H       -7.1700    -2.4510    -0.9470 H     1 <1>   0.0800 
 44 H       -5.9170    -1.2300    -0.9600 H     1 <1>   0.0800 
 45 H        9.6660    -1.6730    -1.5900 H     1 <1>   0.1500 
@<TRIPOS>BOND
  1   1   2  2   
  2   2   3  am  
  3   2   4  am  
  4   3   5  1   
  5   3   6  1   
  6   4   7  1   
  7   4  24  1   
  8   5   8  1   
  9   5  25  1   
 10   5  26  1   
 11   6   9  1   
 12   6  27  1   
 13   6  28  1   
 14   7  10  ar  
 15   7  11  ar  
 16   8  12  1   
 17   8  29  1   
 18   8  30  1   
 19   9  12  1   
 20   9  31  1   
 21   9  32  1   
 22  10  13  ar  
 23  10  33  1   
 24  11  14  ar  
 25  11  34  1   
 26  12  15  1   
 27  13  16  ar  
 28  13  35  1   
 29  14  16  ar  
 30  14  36  1   
 31  15  17  ar  
 32  15  18  ar  
 33  16  19  1   
 34  17  20  ar  
 35  18  21  ar  
 36  18  37  1   
 37  19  22  1   
 38  19  38  1   
 39  19  39  1   
 40  20  23  ar  
 41  20  40  1   
 42  21  23  ar  
 43  21  41  1   
 44  22  42  1   
 45  22  43  1   
 46  22  44  1   
 47  23  45  1   
@<TRIPOS>SUBSTRUCTURE
  1 ****   2 GROUP 4 **** **** 0

# MOE 2024.06 (io_trps.svl 2023.06)
