@<TRIPOS>MOLECULE
NONAME
56 58 1 0 0 
SMALL
USER_CHARGES


@<TRIPOS>ATOM
  1 S        0.1730     0.5040    -0.5550 S.3   1 <1>  -0.0800 
  2 C       -0.4950    -1.1180    -0.4390 C.2   1 <1>   0.1040 
  3 C       -1.4020     1.2190    -0.3060 C.2   1 <1>  -0.1400 
  4 N        0.3340    -2.2260    -0.5520 N.am  1 <1>  -0.4940 
  5 C       -1.8510    -1.0820    -0.2280 C.2   1 <1>  -0.0860 
  6 C       -2.3440     0.2790    -0.1340 C.2   1 <1>  -0.1810 
  7 C       -1.5460     2.7240    -0.3020 C.3   1 <1>   0.0200 
  8 C        1.6680    -2.3740    -0.8430 C.2   1 <1>   0.5690 
  9 C       -2.6480    -2.2780    -0.1280 C.2   1 <1>   0.8060 
 10 C       -3.7890     0.6920     0.1340 C.3   1 <1>   0.0210 
 11 C       -3.0380     3.0850    -0.3970 C.3   1 <1>  -0.1600 
 12 O        2.3910    -1.4580    -1.1530 O.2   1 <1>  -0.5700 
 13 C        2.2450    -3.8010    -0.7580 C.3   1 <1>   0.1710 
 14 O       -2.1500    -3.3910    -0.0460 O.2   1 <1>  -0.5700 
 15 O       -3.9820    -2.1790    -0.1410 O.3   1 <1>  -0.4300 
 16 C       -3.8990     2.1840     0.5100 C.3   1 <1>  -0.1600 
 17 N        3.7070    -3.9020    -0.4640 N.3   1 <1>  -0.8100 
 18 C       -4.8430    -3.2870    -0.0300 C.3   1 <1>   0.2000 
 19 C        4.0960    -3.2480     0.8120 C.3   1 <1>   0.1100 
 20 C        4.2300    -5.2840    -0.5340 C.3   1 <1>   0.1100 
 21 C       -6.1640    -2.8940    -0.6860 C.3   1 <1>  -0.2400 
 22 C       -5.0320    -3.6090     1.4520 C.3   1 <1>  -0.2400 
 23 C        5.6310    -3.2500     1.0180 C.3   1 <1>   0.3430 
 24 C        5.7640    -5.3320    -0.3070 C.3   1 <1>   0.3430 
 25 N        6.3260    -3.9530    -0.1130 N.4   1 <1>  -0.9590 
 26 C        7.8130    -3.9100    -0.0200 C.3   1 <1>   0.2630 
 27 H       -0.1760    -3.1020    -0.3940 H     1 <1>   0.3700 
 28 H       -1.0120     3.1490    -1.1330 H     1 <1>   0.0800 
 29 H       -1.1260     3.1110     0.6100 H     1 <1>   0.0800 
 30 H       -4.1960     0.1110     0.9420 H     1 <1>   0.0800 
 31 H       -4.3730     0.4990    -0.7500 H     1 <1>   0.0800 
 32 H       -3.3620     2.9610    -1.4160 H     1 <1>   0.0800 
 33 H       -3.1750     4.1180    -0.1290 H     1 <1>   0.0800 
 34 H        2.0560    -4.2700    -1.7070 H     1 <1>   0.0800 
 35 H        1.7000    -4.3450    -0.0080 H     1 <1>   0.0800 
 36 H       -3.5740     2.3090     1.5280 H     1 <1>   0.0800 
 37 H       -4.9290     2.4900     0.4550 H     1 <1>   0.0800 
 38 H       -4.4130    -4.1260    -0.5550 H     1 <1>   0.0800 
 39 H        3.6220    -3.7460     1.6410 H     1 <1>   0.0800 
 40 H        3.7620    -2.2240     0.8180 H     1 <1>   0.0800 
 41 H        4.0110    -5.6980    -1.5040 H     1 <1>   0.0800 
 42 H        3.7410    -5.9010     0.2010 H     1 <1>   0.0800 
 43 H       -6.5940    -2.0430    -0.1880 H     1 <1>   0.0800 
 44 H       -6.8600    -3.7120    -0.6290 H     1 <1>   0.0800 
 45 H       -6.0040    -2.6580    -1.7220 H     1 <1>   0.0800 
 46 H       -5.4270    -2.7570     1.9760 H     1 <1>   0.0800 
 47 H       -4.0950    -3.8980     1.8930 H     1 <1>   0.0800 
 48 H       -5.7190    -4.4280     1.5630 H     1 <1>   0.0800 
 49 H        5.8630    -3.7310     1.9530 H     1 <1>   0.0800 
 50 H        5.9720    -2.2300     1.0780 H     1 <1>   0.0800 
 51 H        6.2270    -5.8000    -1.1590 H     1 <1>   0.0800 
 52 H        5.9750    -5.9400     0.5570 H     1 <1>   0.0800 
 53 H        5.9930    -3.4340    -0.9450 H     1 <1>   0.4500 
 54 H        8.1490    -4.4450     0.8530 H     1 <1>   0.0800 
 55 H        8.1530    -2.8890     0.0480 H     1 <1>   0.0800 
 56 H        8.2540    -4.3610    -0.8940 H     1 <1>   0.0800 
@<TRIPOS>BOND
  1   1   2  1   
  2   1   3  1   
  3   2   4  1   
  4   2   5  2   
  5   3   6  2   
  6   3   7  1   
  7   4   8  am  
  8   4  27  1   
  9   5   6  1   
 10   5   9  1   
 11   6  10  1   
 12   7  11  1   
 13   7  28  1   
 14   7  29  1   
 15   8  12  2   
 16   8  13  1   
 17   9  14  2   
 18   9  15  1   
 19  10  16  1   
 20  10  30  1   
 21  10  31  1   
 22  11  16  1   
 23  11  32  1   
 24  11  33  1   
 25  13  17  1   
 26  13  34  1   
 27  13  35  1   
 28  15  18  1   
 29  16  36  1   
 30  16  37  1   
 31  17  19  1   
 32  17  20  1   
 33  18  21  1   
 34  18  22  1   
 35  18  38  1   
 36  19  23  1   
 37  19  39  1   
 38  19  40  1   
 39  20  24  1   
 40  20  41  1   
 41  20  42  1   
 42  21  43  1   
 43  21  44  1   
 44  21  45  1   
 45  22  46  1   
 46  22  47  1   
 47  22  48  1   
 48  23  25  1   
 49  23  49  1   
 50  23  50  1   
 51  24  25  1   
 52  24  51  1   
 53  24  52  1   
 54  25  26  1   
 55  25  53  1   
 56  26  54  1   
 57  26  55  1   
 58  26  56  1   
@<TRIPOS>SUBSTRUCTURE
  1 ****   4 GROUP 4 **** **** 0

# MOE 2024.06 (io_trps.svl 2023.06)
