@<TRIPOS>MOLECULE
NONAME
33 33 1 0 0 
SMALL
USER_CHARGES


@<TRIPOS>ATOM
  1 S       -0.2600     0.4680     1.2440 S.o2  1 <1>   1.4470 
  2 O       -0.1080     0.7790     2.6490 O.2   1 <1>  -0.6500 
  3 O       -0.6810    -0.8570     0.8480 O.2   1 <1>  -0.6500 
  4 N       -1.4320     1.5410     0.6540 N.am  1 <1>  -0.8490 
  5 C        1.2420     0.9090     0.3240 C.ar  1 <1>  -0.0090 
  6 C       -2.7810     1.1530     1.1740 C.3   1 <1>   0.2570 
  7 C       -1.1090     2.9320     1.0000 C.3   1 <1>   0.1960 
  8 C        1.2890     0.7890    -1.0600 C.ar  1 <1>  -0.1500 
  9 C        2.3750     1.3860     0.9740 C.ar  1 <1>  -0.1500 
 10 C       -3.9440     1.4370     0.2180 C.2   1 <1>   0.5690 
 11 C       -1.9310     3.9210     0.1770 C.3   1 <1>  -0.2400 
 12 C        2.4230     1.1380    -1.7740 C.ar  1 <1>  -0.1500 
 13 C        3.5140     1.7360     0.2690 C.ar  1 <1>  -0.1500 
 14 O       -5.0220     1.7390     0.6750 O.2   1 <1>  -0.5700 
 15 N       -3.7270     1.3420    -1.1230 N.am  1 <1>  -0.7300 
 16 C        3.5380     1.6130    -1.1080 C.ar  1 <1>  -0.1500 
 17 C       -4.7290     1.5740    -2.1900 C.3   1 <1>   0.0600 
 18 H       -2.9720     1.6400     2.1140 H     1 <1>   0.0800 
 19 H       -2.8200     0.0950     1.3620 H     1 <1>   0.0800 
 20 H       -0.0710     3.1230     0.7860 H     1 <1>   0.0800 
 21 H       -1.2600     3.1050     2.0540 H     1 <1>   0.0800 
 22 H        0.4250     0.4170    -1.5850 H     1 <1>   0.1500 
 23 H        2.3690     1.4840     2.0480 H     1 <1>   0.1500 
 24 H       -1.8570     3.6900    -0.8710 H     1 <1>   0.0800 
 25 H       -1.5510     4.9150     0.3310 H     1 <1>   0.0800 
 26 H       -2.9630     3.9180     0.4780 H     1 <1>   0.0800 
 27 H        2.4390     1.0370    -2.8460 H     1 <1>   0.1500 
 28 H        4.3810     2.1030     0.7910 H     1 <1>   0.1500 
 29 H       -2.7650     1.1470    -1.4170 H     1 <1>   0.3700 
 30 H        4.4220     1.8840    -1.6590 H     1 <1>   0.1500 
 31 H       -4.4300     2.4140    -2.7930 H     1 <1>   0.0800 
 32 H       -5.6930     1.7810    -1.7570 H     1 <1>   0.0800 
 33 H       -4.8080     0.6990    -2.8110 H     1 <1>   0.0800 
@<TRIPOS>BOND
  1   1   2  2   
  2   1   3  2   
  3   1   4  am  
  4   1   5  1   
  5   4   6  1   
  6   4   7  1   
  7   5   8  ar  
  8   5   9  ar  
  9   6  10  1   
 10   6  18  1   
 11   6  19  1   
 12   7  11  1   
 13   7  20  1   
 14   7  21  1   
 15   8  12  ar  
 16   8  22  1   
 17   9  13  ar  
 18   9  23  1   
 19  10  14  2   
 20  10  15  am  
 21  11  24  1   
 22  11  25  1   
 23  11  26  1   
 24  12  16  ar  
 25  12  27  1   
 26  13  16  ar  
 27  13  28  1   
 28  15  17  1   
 29  15  29  1   
 30  16  30  1   
 31  17  31  1   
 32  17  32  1   
 33  17  33  1   
@<TRIPOS>SUBSTRUCTURE
  1 ****   4 GROUP 4 **** **** 0

# MOE 2024.06 (io_trps.svl 2023.06)
