@<TRIPOS>MOLECULE
NONAME
37 37 1 0 0 
SMALL
USER_CHARGES


@<TRIPOS>ATOM
  1 CL       0.0080     0.3030     2.4670 Cl    1 <1>  -0.1770 
  2 C       -0.9320     1.0810     1.2120 C.ar  1 <1>   0.1770 
  3 C       -0.3550     2.0650     0.4190 C.ar  1 <1>   0.0830 
  4 C       -2.2460     0.6890     1.0250 C.ar  1 <1>  -0.1500 
  5 O        0.9250     2.4600     0.6240 O.3   1 <1>  -0.3630 
  6 C       -1.1310     2.6500    -0.5730 C.ar  1 <1>   0.1770 
  7 C       -3.0070     1.2850     0.0300 C.ar  1 <1>  -0.1500 
  8 C        1.9120     1.7840    -0.1100 C.3   1 <1>   0.1200 
  9 CL      -0.4460     3.8850    -1.6080 Cl    1 <1>  -0.1770 
 10 C       -2.4470     2.2690    -0.7730 C.ar  1 <1>  -0.1500 
 11 C        3.2480     2.4470     0.2220 C.3   1 <1>  -0.1600 
 12 C        4.3870     1.7890    -0.5520 C.3   1 <1>   0.3430 
 13 N        5.7000     2.3760    -0.1540 N.4   1 <1>  -0.9590 
 14 C        5.8570     3.7790    -0.6310 C.3   1 <1>   0.3430 
 15 C        6.8120     1.5020    -0.6190 C.3   1 <1>   0.3430 
 16 C        5.9680     4.6910     0.5830 C.3   1 <1>  -0.2400 
 17 C        8.0950     1.8510     0.1270 C.3   1 <1>  -0.2400 
 18 H       -2.6680    -0.0750     1.6540 H     1 <1>   0.1500 
 19 H       -4.0310     0.9850    -0.1200 H     1 <1>   0.1500 
 20 H        1.6770     1.8750    -1.1570 H     1 <1>   0.0800 
 21 H        1.9000     0.7480     0.1840 H     1 <1>   0.0800 
 22 H       -3.0250     2.7390    -1.5480 H     1 <1>   0.1500 
 23 H        3.4220     2.3480     1.2790 H     1 <1>   0.0800 
 24 H        3.1740     3.4880    -0.0350 H     1 <1>   0.0800 
 25 H        4.2330     1.9140    -1.6120 H     1 <1>   0.0800 
 26 H        4.3860     0.7330    -0.3340 H     1 <1>   0.0800 
 27 H        5.7350     2.3970     0.8740 H     1 <1>   0.4500 
 28 H        5.0090     4.0710    -1.2300 H     1 <1>   0.0800 
 29 H        6.7440     3.8740    -1.2370 H     1 <1>   0.0800 
 30 H        6.9570     1.6150    -1.6820 H     1 <1>   0.0800 
 31 H        6.5680     0.4700    -0.4200 H     1 <1>   0.0800 
 32 H        5.0810     4.6390     1.1890 H     1 <1>   0.0800 
 33 H        6.8290     4.4390     1.1770 H     1 <1>   0.0800 
 34 H        6.0820     5.7080     0.2510 H     1 <1>   0.0800 
 35 H        8.4310     2.8440    -0.1090 H     1 <1>   0.0800 
 36 H        8.8700     1.1670    -0.1690 H     1 <1>   0.0800 
 37 H        7.9580     1.7550     1.1900 H     1 <1>   0.0800 
@<TRIPOS>BOND
  1   1   2  1   
  2   2   3  ar  
  3   2   4  ar  
  4   3   5  1   
  5   3   6  ar  
  6   4   7  ar  
  7   4  18  1   
  8   5   8  1   
  9   6   9  1   
 10   6  10  ar  
 11   7  10  ar  
 12   7  19  1   
 13   8  11  1   
 14   8  20  1   
 15   8  21  1   
 16  10  22  1   
 17  11  12  1   
 18  11  23  1   
 19  11  24  1   
 20  12  13  1   
 21  12  25  1   
 22  12  26  1   
 23  13  14  1   
 24  13  15  1   
 25  13  27  1   
 26  14  16  1   
 27  14  28  1   
 28  14  29  1   
 29  15  17  1   
 30  15  30  1   
 31  15  31  1   
 32  16  32  1   
 33  16  33  1   
 34  16  34  1   
 35  17  35  1   
 36  17  36  1   
 37  17  37  1   
@<TRIPOS>SUBSTRUCTURE
  1 ****   8 GROUP 4 **** **** 0

# MOE 2024.06 (io_trps.svl 2023.06)
