@<TRIPOS>MOLECULE
NONAME
53 54 1 0 0 
SMALL
USER_CHARGES


@<TRIPOS>ATOM
  1 O       -0.9670    -0.2950     0.9930 O.2   1 <1>  -0.5700 
  2 C       -0.7790    -1.4100     0.5380 C.2   1 <1>   0.5440 
  3 N       -0.5970    -1.5800    -0.8090 N.am  1 <1>  -0.7300 
  4 C       -0.7640    -2.5660     1.4090 C.ar  1 <1>   0.0860 
  5 C       -0.6220    -0.5890    -1.8890 C.3   1 <1>   0.3000 
  6 C       -1.7260    -2.7360     2.4210 C.ar  1 <1>   0.1170 
  7 C        0.2140    -3.5500     1.2460 C.ar  1 <1>  -0.1500 
  8 C       -0.3980    -1.3600    -3.1880 C.3   1 <1>  -0.2400 
  9 C        0.5090     0.4210    -1.6900 C.3   1 <1>  -0.2400 
 10 C       -1.9840     0.0990    -1.9330 C.3   1 <1>  -0.2400 
 11 N       -2.7080    -1.7520     2.6100 N.am  1 <1>  -0.5470 
 12 C       -1.6720    -3.8760     3.2210 C.ar  1 <1>  -0.1500 
 13 C        0.2490    -4.6750     2.0450 C.ar  1 <1>  -0.1500 
 14 C       -3.9360    -1.7680     3.2130 C.2   1 <1>   0.5690 
 15 C       -0.7010    -4.8380     3.0360 C.ar  1 <1>  -0.1500 
 16 O       -4.4280    -2.7540     3.7050 O.2   1 <1>  -0.5700 
 17 C       -4.7230    -0.4700     3.2580 C.3   1 <1>   0.0440 
 18 C       -4.7340     0.2490     1.9140 C.ar  1 <1>  -0.1430 
 19 C       -5.3480    -0.3420     0.8200 C.ar  1 <1>  -0.1500 
 20 C       -4.1330     1.4880     1.7700 C.ar  1 <1>  -0.1500 
 21 C       -5.3660     0.2950    -0.4180 C.ar  1 <1>   0.0830 
 22 C       -4.1500     2.1370     0.5480 C.ar  1 <1>  -0.1500 
 23 O       -5.9450    -0.2640    -1.5200 O.3   1 <1>  -0.3630 
 24 C       -4.7650     1.5500    -0.5540 C.ar  1 <1>   0.0830 
 25 C       -6.4470    -1.5810    -1.5040 C.3   1 <1>   0.0400 
 26 O       -4.7970     2.1490    -1.7800 O.3   1 <1>  -0.3630 
 27 C       -4.1070     3.3510    -2.0330 C.3   1 <1>   0.0400 
 28 H       -0.5700    -2.5360    -1.1580 H     1 <1>   0.3700 
 29 H        0.9640    -3.4240     0.4850 H     1 <1>   0.1500 
 30 H       -1.1840    -2.0780    -3.3420 H     1 <1>   0.0800 
 31 H        0.5510    -1.8660    -3.1700 H     1 <1>   0.0800 
 32 H       -0.3990    -0.6820    -4.0220 H     1 <1>   0.0800 
 33 H        1.4550    -0.0830    -1.6190 H     1 <1>   0.0800 
 34 H        0.3510     0.9950    -0.7950 H     1 <1>   0.0800 
 35 H        0.5450     1.1040    -2.5190 H     1 <1>   0.0800 
 36 H       -2.7770    -0.6230    -2.0030 H     1 <1>   0.0800 
 37 H       -2.0480     0.7540    -2.7820 H     1 <1>   0.0800 
 38 H       -2.1340     0.6910    -1.0500 H     1 <1>   0.0800 
 39 H       -2.4830    -0.8660     2.1300 H     1 <1>   0.3700 
 40 H       -2.3950    -4.0170     4.0040 H     1 <1>   0.1500 
 41 H        1.0110    -5.4230     1.9030 H     1 <1>   0.1500 
 42 H       -0.6810    -5.7120     3.6650 H     1 <1>   0.1500 
 43 H       -4.2950     0.1570     4.0170 H     1 <1>   0.0800 
 44 H       -5.7350    -0.6880     3.5470 H     1 <1>   0.0800 
 45 H       -5.8090    -1.3030     0.9500 H     1 <1>   0.1500 
 46 H       -3.6460     1.9610     2.6050 H     1 <1>   0.1500 
 47 H       -3.6750     3.0950     0.4770 H     1 <1>   0.1500 
 48 H       -6.7940    -1.8160    -2.4940 H     1 <1>   0.0800 
 49 H       -7.2650    -1.6340    -0.8080 H     1 <1>   0.0800 
 50 H       -5.6550    -2.2530    -1.2240 H     1 <1>   0.0800 
 51 H       -4.2370     3.5970    -3.0720 H     1 <1>   0.0800 
 52 H       -3.0630     3.2060    -1.8190 H     1 <1>   0.0800 
 53 H       -4.5250     4.1290    -1.4190 H     1 <1>   0.0800 
@<TRIPOS>BOND
  1   1   2  2   
  2   2   3  am  
  3   2   4  1   
  4   3   5  1   
  5   3  28  1   
  6   4   6  ar  
  7   4   7  ar  
  8   5   8  1   
  9   5   9  1   
 10   5  10  1   
 11   6  11  1   
 12   6  12  ar  
 13   7  13  ar  
 14   7  29  1   
 15   8  30  1   
 16   8  31  1   
 17   8  32  1   
 18   9  33  1   
 19   9  34  1   
 20   9  35  1   
 21  10  36  1   
 22  10  37  1   
 23  10  38  1   
 24  11  14  am  
 25  11  39  1   
 26  12  15  ar  
 27  12  40  1   
 28  13  15  ar  
 29  13  41  1   
 30  14  16  2   
 31  14  17  1   
 32  15  42  1   
 33  17  18  1   
 34  17  43  1   
 35  17  44  1   
 36  18  19  ar  
 37  18  20  ar  
 38  19  21  ar  
 39  19  45  1   
 40  20  22  ar  
 41  20  46  1   
 42  21  23  1   
 43  21  24  ar  
 44  22  24  ar  
 45  22  47  1   
 46  23  25  1   
 47  24  26  1   
 48  25  48  1   
 49  25  49  1   
 50  25  50  1   
 51  26  27  1   
 52  27  51  1   
 53  27  52  1   
 54  27  53  1   
@<TRIPOS>SUBSTRUCTURE
  1 ****   1 GROUP 4 **** **** 0

# MOE 2024.06 (io_trps.svl 2023.06)
