@<TRIPOS>MOLECULE
NONAME
40 41 1 0 0 
SMALL
USER_CHARGES


@<TRIPOS>ATOM
  1 O       -1.0860    -0.6980     0.3200 O.2   1 <1>  -0.5700 
  2 C       -1.0600    -1.6110    -0.4640 C.2   1 <1>   0.5690 
  3 N       -0.0960    -1.6580    -1.4010 N.am  1 <1>  -0.8000 
  4 C       -2.1100    -2.7190    -0.4030 C.3   1 <1>  -0.0190 
  5 C       -3.5400    -2.1450    -0.3920 C.3   1 <1>  -0.1600 
  6 C       -1.8950    -3.6200     0.8260 C.3   1 <1>  -0.1600 
  7 C       -4.5930    -3.2510    -0.2910 C.3   1 <1>   0.1400 
  8 C       -2.9610    -4.7160     0.9160 C.3   1 <1>   0.1400 
  9 N       -4.3170    -4.1020     0.9020 N.am  1 <1>  -0.6600 
 10 C       -5.2250    -4.3610     1.9060 C.2   1 <1>   0.5690 
 11 O       -4.9520    -5.0870     2.8350 O.2   1 <1>  -0.5700 
 12 C       -6.6100    -3.7180     1.9230 C.3   1 <1>   0.1810 
 13 O       -7.3830    -4.1160     0.8000 O.3   1 <1>  -0.3630 
 14 C       -8.5800    -3.5380     0.5340 C.ar  1 <1>   0.0820 
 15 C       -9.1710    -3.8590    -0.6770 C.ar  1 <1>  -0.1500 
 16 C       -9.2230    -2.6570     1.4000 C.ar  1 <1>  -0.1500 
 17 C      -10.3880    -3.3060    -1.0410 C.ar  1 <1>  -0.1430 
 18 C      -10.4400    -2.1050     1.0400 C.ar  1 <1>  -0.1500 
 19 C      -11.0190    -2.4280    -0.1760 C.ar  1 <1>  -0.1500 
 20 C      -11.0310    -3.6610    -2.3690 C.3   1 <1>  -0.0970 
 21 H        0.6010    -0.9120    -1.4250 H     1 <1>   0.3700 
 22 H        0.0040    -2.3980    -2.0940 H     1 <1>   0.3700 
 23 H       -2.0050    -3.3260    -1.2840 H     1 <1>   0.0800 
 24 H       -3.7070    -1.5750    -1.2880 H     1 <1>   0.0800 
 25 H       -3.6570    -1.4780     0.4450 H     1 <1>   0.0800 
 26 H       -1.9330    -3.0260     1.7230 H     1 <1>   0.0800 
 27 H       -0.9220    -4.0750     0.7780 H     1 <1>   0.0800 
 28 H       -4.5640    -3.8690    -1.1720 H     1 <1>   0.0800 
 29 H       -5.5670    -2.8000    -0.2400 H     1 <1>   0.0800 
 30 H       -2.8090    -5.2870     1.8170 H     1 <1>   0.0800 
 31 H       -2.8730    -5.3880     0.0800 H     1 <1>   0.0800 
 32 H       -6.5030    -2.6490     1.9060 H     1 <1>   0.0800 
 33 H       -7.1330    -4.0190     2.8110 H     1 <1>   0.0800 
 34 H       -8.6660    -4.5470    -1.3310 H     1 <1>   0.1500 
 35 H       -8.8020    -2.3940     2.3510 H     1 <1>   0.1500 
 36 H      -10.9400    -1.4240     1.7060 H     1 <1>   0.1500 
 37 H      -11.9660    -1.9930    -0.4450 H     1 <1>   0.1500 
 38 H      -10.3030    -4.0680    -3.0480 H     1 <1>   0.0800 
 39 H      -11.4630    -2.7850    -2.8180 H     1 <1>   0.0800 
 40 H      -11.8050    -4.3910    -2.2140 H     1 <1>   0.0800 
@<TRIPOS>BOND
  1   1   2  2   
  2   2   3  am  
  3   2   4  1   
  4   3  21  1   
  5   3  22  1   
  6   4   5  1   
  7   4   6  1   
  8   4  23  1   
  9   5   7  1   
 10   5  24  1   
 11   5  25  1   
 12   6   8  1   
 13   6  26  1   
 14   6  27  1   
 15   7   9  1   
 16   7  28  1   
 17   7  29  1   
 18   8   9  1   
 19   8  30  1   
 20   8  31  1   
 21   9  10  am  
 22  10  11  2   
 23  10  12  1   
 24  12  13  1   
 25  12  32  1   
 26  12  33  1   
 27  13  14  1   
 28  14  15  ar  
 29  14  16  ar  
 30  15  17  ar  
 31  15  34  1   
 32  16  18  ar  
 33  16  35  1   
 34  17  19  ar  
 35  17  20  1   
 36  18  19  ar  
 37  18  36  1   
 38  19  37  1   
 39  20  38  1   
 40  20  39  1   
 41  20  40  1   
@<TRIPOS>SUBSTRUCTURE
  1 ****   7 GROUP 4 **** **** 0

# MOE 2024.06 (io_trps.svl 2023.06)
