@<TRIPOS>MOLECULE
NONAME
40 40 1 0 0 
SMALL
USER_CHARGES


@<TRIPOS>ATOM
  1 CL      -1.9310    -1.5570     2.8000 Cl    1 <1>  -0.1770 
  2 C       -2.2460    -1.8770     1.1060 C.ar  1 <1>   0.1770 
  3 C       -1.2820    -2.5160     0.3260 C.ar  1 <1>   0.1990 
  4 C       -3.4630    -1.4910     0.5800 C.ar  1 <1>  -0.1500 
  5 N       -0.0480    -2.9080     0.8420 N.am  1 <1>  -0.6930 
  6 C       -1.5850    -2.7630    -1.0080 C.ar  1 <1>  -0.1500 
  7 C       -3.7410    -1.7470    -0.7520 C.ar  1 <1>  -0.1500 
  8 S        0.3270    -4.5630     1.1710 S.o2  1 <1>   1.3330 
  9 C        0.9990    -1.8710     1.1070 C.3   1 <1>   0.2570 
 10 C       -2.8060    -2.3870    -1.5630 C.ar  1 <1>  -0.1440 
 11 O       -0.2910    -5.3570     0.1400 O.2   1 <1>  -0.6500 
 12 O        1.7510    -4.6280     1.4000 O.2   1 <1>  -0.6500 
 13 C       -0.5160    -4.8360     2.7140 C.3   1 <1>  -0.1350 
 14 C        2.0040    -1.6960    -0.0370 C.2   1 <1>   0.5690 
 15 C       -3.1420    -2.6690    -3.0380 C.3   1 <1>   1.1640 
 16 O        2.0390    -0.6370    -0.6180 O.2   1 <1>  -0.5700 
 17 N        2.8450    -2.7160    -0.3550 N.am  1 <1>  -0.7300 
 18 F       -2.0940    -3.0470    -3.7590 F     1 <1>  -0.3400 
 19 F       -3.6460    -1.6030    -3.6470 F     1 <1>  -0.3400 
 20 F       -4.0490    -3.6300    -3.1620 F     1 <1>  -0.3400 
 21 C        3.8650    -2.7000    -1.4340 C.3   1 <1>   0.1400 
 22 C        5.2610    -2.5540    -0.8310 C.3   1 <1>   0.1200 
 23 O        6.2040    -2.6650    -1.8510 O.3   1 <1>  -0.5600 
 24 C        7.5180    -2.5110    -1.4220 C.3   1 <1>   0.0400 
 25 H       -4.1850    -0.9980     1.2070 H     1 <1>   0.1500 
 26 H       -0.8410    -3.2640    -1.6060 H     1 <1>   0.1500 
 27 H       -4.6950    -1.4450    -1.1570 H     1 <1>   0.1500 
 28 H        1.5380    -2.1220     2.0020 H     1 <1>   0.0800 
 29 H        0.5210    -0.9220     1.2730 H     1 <1>   0.0800 
 30 H       -0.1540    -4.1570     3.4610 H     1 <1>   0.0800 
 31 H       -0.3510    -5.8400     3.0510 H     1 <1>   0.0800 
 32 H       -1.5710    -4.6850     2.5920 H     1 <1>   0.0800 
 33 H        2.7530    -3.6040     0.1630 H     1 <1>   0.3700 
 34 H        3.6770    -1.8750    -2.1010 H     1 <1>   0.0800 
 35 H        3.8030    -3.6190    -1.9900 H     1 <1>   0.0800 
 36 H        5.4420    -3.3360    -0.1140 H     1 <1>   0.0800 
 37 H        5.3630    -1.5870    -0.3690 H     1 <1>   0.0800 
 38 H        8.1630    -2.6160    -2.2770 H     1 <1>   0.0800 
 39 H        7.7470    -3.2720    -0.6970 H     1 <1>   0.0800 
 40 H        7.6390    -1.5300    -0.9960 H     1 <1>   0.0800 
@<TRIPOS>BOND
  1   1   2  1   
  2   2   3  ar  
  3   2   4  ar  
  4   3   5  1   
  5   3   6  ar  
  6   4   7  ar  
  7   4  25  1   
  8   5   8  am  
  9   5   9  1   
 10   6  10  ar  
 11   6  26  1   
 12   7  10  ar  
 13   7  27  1   
 14   8  11  2   
 15   8  12  2   
 16   8  13  1   
 17   9  14  1   
 18   9  28  1   
 19   9  29  1   
 20  10  15  1   
 21  13  30  1   
 22  13  31  1   
 23  13  32  1   
 24  14  16  2   
 25  14  17  am  
 26  15  18  1   
 27  15  19  1   
 28  15  20  1   
 29  17  21  1   
 30  17  33  1   
 31  21  22  1   
 32  21  34  1   
 33  21  35  1   
 34  22  23  1   
 35  22  36  1   
 36  22  37  1   
 37  23  24  1   
 38  24  38  1   
 39  24  39  1   
 40  24  40  1   
@<TRIPOS>SUBSTRUCTURE
  1 ****   5 GROUP 4 **** **** 0

# MOE 2024.06 (io_trps.svl 2023.06)
