@<TRIPOS>MOLECULE
NONAME
51 53 1 0 0 
SMALL
USER_CHARGES


@<TRIPOS>ATOM
  1 O        0.0440    -0.4170    -0.5250 O.2   1 <1>  -0.5700 
  2 C       -0.3260     0.5150     0.1610 C.2   1 <1>   0.6900 
  3 N        0.5590     1.4430     0.6320 N.am  1 <1>  -0.5470 
  4 N       -1.6400     0.6810     0.4950 N.am  1 <1>  -0.5470 
  5 C        1.9170     1.6230     0.3260 C.ar  1 <1>   0.1170 
  6 C       -2.7410    -0.1710     0.3090 C.ar  1 <1>   0.1170 
  7 C        2.7630     2.1630     1.2880 C.ar  1 <1>  -0.1500 
  8 C        2.4510     1.2980    -0.9180 C.ar  1 <1>  -0.1500 
  9 C       -2.6160    -1.5550     0.2250 C.ar  1 <1>  -0.1500 
 10 C       -4.0130     0.3830     0.2270 C.ar  1 <1>  -0.1500 
 11 C        4.1060     2.3590     1.0190 C.ar  1 <1>  -0.1500 
 12 C        3.7930     1.4910    -1.1920 C.ar  1 <1>  -0.1500 
 13 C       -3.7260    -2.3640     0.0570 C.ar  1 <1>  -0.1500 
 14 C       -5.1260    -0.4210     0.0610 C.ar  1 <1>  -0.1500 
 15 C        4.6320     2.0180    -0.2150 C.ar  1 <1>   0.0830 
 16 C       -4.9940    -1.7960    -0.0260 C.ar  1 <1>   0.0830 
 17 O        5.9630     2.2180    -0.3910 O.3   1 <1>  -0.3630 
 18 O       -6.1370    -2.5130    -0.1910 O.3   1 <1>  -0.3620 
 19 C        6.6390     1.6430    -1.5010 C.3   1 <1>   0.1810 
 20 C       -6.0970    -3.9150    -0.3300 C.3   1 <1>   0.0400 
 21 C        8.1570     1.7230    -1.3430 C.2   1 <1>   0.5690 
 22 O        8.7740     2.2660    -2.2320 O.2   1 <1>  -0.5700 
 23 N        8.8010     1.1710    -0.2600 N.am  1 <1>  -0.6600 
 24 C       10.2800     1.2870    -0.0860 C.3   1 <1>   0.1400 
 25 C        8.1310     0.4690     0.8780 C.3   1 <1>   0.1400 
 26 C       10.8900    -0.0660     0.3150 C.3   1 <1>   0.1200 
 27 C        8.8690    -0.8340     1.2280 C.3   1 <1>   0.1200 
 28 O       10.2320    -0.5940     1.4330 O.3   1 <1>  -0.5600 
 29 H        0.2240     1.9790     1.4260 H     1 <1>   0.3700 
 30 H       -1.8800     1.6190     0.7960 H     1 <1>   0.3700 
 31 H        2.3750     2.4280     2.2540 H     1 <1>   0.1500 
 32 H        1.8110     0.8900    -1.6800 H     1 <1>   0.1500 
 33 H       -1.6430    -2.0080     0.2910 H     1 <1>   0.1500 
 34 H       -4.1390     1.4480     0.2880 H     1 <1>   0.1500 
 35 H        4.7560     2.7750     1.7680 H     1 <1>   0.1500 
 36 H        4.1570     1.2300    -2.1680 H     1 <1>   0.1500 
 37 H       -3.5810    -3.4250    -0.0060 H     1 <1>   0.1500 
 38 H       -6.1080     0.0120    -0.0040 H     1 <1>   0.1500 
 39 H        6.3410     2.1760    -2.3850 H     1 <1>   0.0800 
 40 H        6.3520     0.6110    -1.5840 H     1 <1>   0.0800 
 41 H       -7.1050    -4.2660    -0.4630 H     1 <1>   0.0800 
 42 H       -5.6760    -4.3430     0.5630 H     1 <1>   0.0800 
 43 H       -5.5070    -4.1640    -1.1940 H     1 <1>   0.0800 
 44 H       10.4890     2.0110     0.6810 H     1 <1>   0.0800 
 45 H       10.7440     1.6270    -0.9960 H     1 <1>   0.0800 
 46 H        7.1100     0.2320     0.6420 H     1 <1>   0.0800 
 47 H        8.1300     1.1170     1.7380 H     1 <1>   0.0800 
 48 H       11.9270     0.0570     0.5720 H     1 <1>   0.0800 
 49 H       10.8150    -0.7690    -0.4960 H     1 <1>   0.0800 
 50 H        8.7610    -1.5550     0.4370 H     1 <1>   0.0800 
 51 H        8.4710    -1.2530     2.1350 H     1 <1>   0.0800 
@<TRIPOS>BOND
  1   1   2  2   
  2   2   3  am  
  3   2   4  am  
  4   3   5  1   
  5   3  29  1   
  6   4   6  1   
  7   4  30  1   
  8   5   7  ar  
  9   5   8  ar  
 10   6   9  ar  
 11   6  10  ar  
 12   7  11  ar  
 13   7  31  1   
 14   8  12  ar  
 15   8  32  1   
 16   9  13  ar  
 17   9  33  1   
 18  10  14  ar  
 19  10  34  1   
 20  11  15  ar  
 21  11  35  1   
 22  12  15  ar  
 23  12  36  1   
 24  13  16  ar  
 25  13  37  1   
 26  14  16  ar  
 27  14  38  1   
 28  15  17  1   
 29  16  18  1   
 30  17  19  1   
 31  18  20  1   
 32  19  21  1   
 33  19  39  1   
 34  19  40  1   
 35  20  41  1   
 36  20  42  1   
 37  20  43  1   
 38  21  22  2   
 39  21  23  am  
 40  23  24  1   
 41  23  25  1   
 42  24  26  1   
 43  24  44  1   
 44  24  45  1   
 45  25  27  1   
 46  25  46  1   
 47  25  47  1   
 48  26  28  1   
 49  26  48  1   
 50  26  49  1   
 51  27  28  1   
 52  27  50  1   
 53  27  51  1   
@<TRIPOS>SUBSTRUCTURE
  1 ****   8 GROUP 4 **** **** 0

# MOE 2024.06 (io_trps.svl 2023.06)
