@<TRIPOS>MOLECULE
NONAME
49 50 1 0 0 
SMALL
USER_CHARGES


@<TRIPOS>ATOM
  1 O        0.0380    -0.0260    -0.4480 O.3   1 <1>  -0.3630 
  2 C       -1.1950    -0.5900    -0.4030 C.ar  1 <1>   0.0830 
  3 C        0.2000     1.3740    -0.4400 C.3   1 <1>   0.1200 
  4 C       -1.2510    -1.9710    -0.3300 C.ar  1 <1>  -0.1500 
  5 C       -2.3810     0.1330    -0.4260 C.ar  1 <1>  -0.1500 
  6 C        1.7000     1.6740    -0.4720 C.3   1 <1>   0.1100 
  7 C       -2.4620    -2.6440    -0.2750 C.ar  1 <1>  -0.1440 
  8 C       -3.5910    -0.5320    -0.3720 C.ar  1 <1>  -0.1500 
  9 N        1.9740     3.1290    -0.4330 N.3   1 <1>  -0.8100 
 10 C       -3.6550    -1.9190    -0.2960 C.ar  1 <1>  -0.1430 
 11 C       -2.4250    -4.1640    -0.1950 C.3   1 <1>  -0.0970 
 12 C        3.3250     3.4160    -0.9560 C.3   1 <1>   0.1100 
 13 C        1.7930     3.6950     0.9220 C.3   1 <1>   0.1100 
 14 C       -5.0350    -2.5900    -0.2380 C.3   1 <1>   0.0630 
 15 C        3.6250     4.9290    -0.9560 C.3   1 <1>   0.3430 
 16 C        2.0800     5.2110     0.9460 C.3   1 <1>   0.3430 
 17 C       -5.8420    -2.2940    -1.5070 C.3   1 <1>  -0.2400 
 18 C       -5.8070    -2.1520     1.0120 C.3   1 <1>  -0.2400 
 19 N        3.4490     5.5310     0.4120 N.4   1 <1>  -0.9590 
 20 C        3.6930     7.0040     0.3900 C.3   1 <1>   0.2630 
 21 H       -0.2560     1.7530     0.4560 H     1 <1>   0.0800 
 22 H       -0.2800     1.7760    -1.3140 H     1 <1>   0.0800 
 23 H       -0.3230    -2.5130    -0.3150 H     1 <1>   0.1500 
 24 H       -2.3860     1.2030    -0.4880 H     1 <1>   0.1500 
 25 H        2.0880     1.2620    -1.3890 H     1 <1>   0.0800 
 26 H        2.1860     1.1830     0.3540 H     1 <1>   0.0800 
 27 H       -4.4970     0.0460    -0.3920 H     1 <1>   0.1500 
 28 H       -1.4130    -4.5280    -0.1920 H     1 <1>   0.0800 
 29 H       -2.9310    -4.5900    -1.0420 H     1 <1>   0.0800 
 30 H       -2.9010    -4.4970     0.7100 H     1 <1>   0.0800 
 31 H        3.3950     3.0550    -1.9690 H     1 <1>   0.0800 
 32 H        4.0660     2.8990    -0.3700 H     1 <1>   0.0800 
 33 H        2.4420     3.1940     1.6210 H     1 <1>   0.0800 
 34 H        0.7790     3.5380     1.2450 H     1 <1>   0.0800 
 35 H       -4.9280    -3.6570    -0.1800 H     1 <1>   0.0800 
 36 H        2.9550     5.4060    -1.6520 H     1 <1>   0.0800 
 37 H        4.6330     5.0900    -1.3020 H     1 <1>   0.0800 
 38 H        1.9860     5.5720     1.9570 H     1 <1>   0.0800 
 39 H        1.3320     5.7040     0.3460 H     1 <1>   0.0800 
 40 H       -6.0600    -1.2450    -1.5910 H     1 <1>   0.0800 
 41 H       -6.7710    -2.8360    -1.4920 H     1 <1>   0.0800 
 42 H       -5.2820    -2.5970    -2.3730 H     1 <1>   0.0800 
 43 H       -6.0240    -1.1000     0.9840 H     1 <1>   0.0800 
 44 H       -5.2210    -2.3580     1.8900 H     1 <1>   0.0800 
 45 H       -6.7340    -2.6920     1.0850 H     1 <1>   0.0800 
 46 H        4.1340     5.0820     1.0340 H     1 <1>   0.4500 
 47 H        2.9840     7.4920    -0.2590 H     1 <1>   0.0800 
 48 H        4.6880     7.2140     0.0320 H     1 <1>   0.0800 
 49 H        3.5920     7.4150     1.3820 H     1 <1>   0.0800 
@<TRIPOS>BOND
  1   1   2  1   
  2   1   3  1   
  3   2   4  ar  
  4   2   5  ar  
  5   3   6  1   
  6   3  21  1   
  7   3  22  1   
  8   4   7  ar  
  9   4  23  1   
 10   5   8  ar  
 11   5  24  1   
 12   6   9  1   
 13   6  25  1   
 14   6  26  1   
 15   7  10  ar  
 16   7  11  1   
 17   8  10  ar  
 18   8  27  1   
 19   9  12  1   
 20   9  13  1   
 21  10  14  1   
 22  11  28  1   
 23  11  29  1   
 24  11  30  1   
 25  12  15  1   
 26  12  31  1   
 27  12  32  1   
 28  13  16  1   
 29  13  33  1   
 30  13  34  1   
 31  14  17  1   
 32  14  18  1   
 33  14  35  1   
 34  15  19  1   
 35  15  36  1   
 36  15  37  1   
 37  16  19  1   
 38  16  38  1   
 39  16  39  1   
 40  17  40  1   
 41  17  41  1   
 42  17  42  1   
 43  18  43  1   
 44  18  44  1   
 45  18  45  1   
 46  19  20  1   
 47  19  46  1   
 48  20  47  1   
 49  20  48  1   
 50  20  49  1   
@<TRIPOS>SUBSTRUCTURE
  1 ****   3 GROUP 4 **** **** 0

# MOE 2024.06 (io_trps.svl 2023.06)
