@<TRIPOS>MOLECULE
NONAME
56 58 1 0 0 
SMALL
USER_CHARGES


@<TRIPOS>ATOM
  1 N        0.0550     0.1450    -0.0920 N.4   1 <1>  -0.9590 
  2 C        1.2970     0.8660    -0.5230 C.3   1 <1>   0.4230 
  3 C       -0.1580    -1.1740    -0.7710 C.3   1 <1>   0.3430 
  4 C       -1.2070     0.9680    -0.2270 C.3   1 <1>   0.3430 
  5 C        2.5430     0.0150    -0.2280 C.3   1 <1>  -0.1600 
  6 C        1.4190     2.2160     0.2030 C.3   1 <1>  -0.1600 
  7 C       -1.1530    -2.0190     0.0470 C.3   1 <1>  -0.0800 
  8 C       -2.5030     0.1520    -0.0220 C.3   1 <1>  -0.0800 
  9 C        3.8390     0.7620    -0.5510 C.3   1 <1>   0.3430 
 10 C        2.7290     2.9300    -0.1310 C.3   1 <1>   0.3430 
 11 C       -2.2390    -1.1630     0.7330 C.3   1 <1>  -0.1600 
 12 C       -0.4210    -2.8790     1.0890 C.3   1 <1>  -0.2400 
 13 C       -3.2250    -0.1050    -1.3570 C.3   1 <1>  -0.2400 
 14 N        3.8890     2.0530     0.1920 N.4   1 <1>  -0.9590 
 15 C        5.1640     2.8000    -0.0820 C.3   1 <1>   0.3430 
 16 C        6.3880     2.1140     0.5280 C.3   1 <1>  -0.0170 
 17 C        7.5930     3.0000     0.2880 C.ar  1 <1>  -0.1440 
 18 C        7.9420     3.9720     1.2140 C.ar  1 <1>  -0.1500 
 19 C        8.3500     2.8560    -0.8660 C.ar  1 <1>  -0.1500 
 20 C        9.0300     4.7960     0.9840 C.ar  1 <1>  -0.1500 
 21 C        9.4370     3.6800    -1.0950 C.ar  1 <1>  -0.1500 
 22 C        9.7770     4.6510    -0.1710 C.ar  1 <1>  -0.1500 
 23 H        0.1300    -0.0900     0.9070 H     1 <1>   0.4500 
 24 H        1.2450     1.0490    -1.5860 H     1 <1>   0.0800 
 25 H        0.7600    -1.7270    -0.8660 H     1 <1>   0.0800 
 26 H       -0.5530    -1.0100    -1.7600 H     1 <1>   0.0800 
 27 H       -1.2430     1.4270    -1.2020 H     1 <1>   0.0800 
 28 H       -1.1910     1.7590     0.5050 H     1 <1>   0.0800 
 29 H        2.5420    -0.8730    -0.8310 H     1 <1>   0.0800 
 30 H        2.5610    -0.2810     0.8060 H     1 <1>   0.0800 
 31 H        1.3590     2.0790     1.2690 H     1 <1>   0.0800 
 32 H        0.6230     2.8730    -0.0970 H     1 <1>   0.0800 
 33 H       -1.6360    -2.6910    -0.6440 H     1 <1>   0.0800 
 34 H       -3.1710     0.7510     0.5750 H     1 <1>   0.0800 
 35 H        3.8960     0.9500    -1.6120 H     1 <1>   0.0800 
 36 H        4.6810     0.1450    -0.2780 H     1 <1>   0.0800 
 37 H        2.7930     3.8470     0.4350 H     1 <1>   0.0800 
 38 H        2.7480     3.1860    -1.1800 H     1 <1>   0.0800 
 39 H       -1.9320    -0.9150     1.7360 H     1 <1>   0.0800 
 40 H       -3.1500    -1.7330     0.8220 H     1 <1>   0.0800 
 41 H        0.1030    -2.2730     1.8070 H     1 <1>   0.0800 
 42 H        0.2850    -3.5350     0.6100 H     1 <1>   0.0800 
 43 H       -1.1290    -3.4930     1.6200 H     1 <1>   0.0800 
 44 H       -2.6350    -0.6920    -2.0370 H     1 <1>   0.0800 
 45 H       -3.4690     0.8270    -1.8370 H     1 <1>   0.0800 
 46 H       -4.1480    -0.6300    -1.1800 H     1 <1>   0.0800 
 47 H        3.8780     1.8590     1.2050 H     1 <1>   0.4500 
 48 H        5.0990     3.7920     0.3380 H     1 <1>   0.0800 
 49 H        5.3130     2.9080    -1.1450 H     1 <1>   0.0800 
 50 H        6.5640     1.1560     0.0740 H     1 <1>   0.0800 
 51 H        6.2560     1.9780     1.5870 H     1 <1>   0.0800 
 52 H        7.3790     4.1000     2.1220 H     1 <1>   0.1500 
 53 H        8.1090     2.1040    -1.5980 H     1 <1>   0.1500 
 54 H        9.2990     5.5490     1.7050 H     1 <1>   0.1500 
 55 H       10.0240     3.5660    -1.9910 H     1 <1>   0.1500 
 56 H       10.6240     5.2920    -0.3480 H     1 <1>   0.1500 
@<TRIPOS>BOND
  1   1   2  1   
  2   1   3  1   
  3   1   4  1   
  4   1  23  1   
  5   2   5  1   
  6   2   6  1   
  7   2  24  1   
  8   3   7  1   
  9   3  25  1   
 10   3  26  1   
 11   4   8  1   
 12   4  27  1   
 13   4  28  1   
 14   5   9  1   
 15   5  29  1   
 16   5  30  1   
 17   6  10  1   
 18   6  31  1   
 19   6  32  1   
 20   7  11  1   
 21   7  12  1   
 22   7  33  1   
 23   8  11  1   
 24   8  13  1   
 25   8  34  1   
 26   9  14  1   
 27   9  35  1   
 28   9  36  1   
 29  10  14  1   
 30  10  37  1   
 31  10  38  1   
 32  11  39  1   
 33  11  40  1   
 34  12  41  1   
 35  12  42  1   
 36  12  43  1   
 37  13  44  1   
 38  13  45  1   
 39  13  46  1   
 40  14  15  1   
 41  14  47  1   
 42  15  16  1   
 43  15  48  1   
 44  15  49  1   
 45  16  17  1   
 46  16  50  1   
 47  16  51  1   
 48  17  18  ar  
 49  17  19  ar  
 50  18  20  ar  
 51  18  52  1   
 52  19  21  ar  
 53  19  53  1   
 54  20  22  ar  
 55  20  54  1   
 56  21  22  ar  
 57  21  55  1   
 58  22  56  1   
@<TRIPOS>SUBSTRUCTURE
  1 ****  14 GROUP 4 **** **** 0

# MOE 2024.06 (io_trps.svl 2023.06)
