@<TRIPOS>MOLECULE
NONAME
38 41 1 0 0 
SMALL
USER_CHARGES


@<TRIPOS>ATOM
  1 O       -0.6030    -0.1600    -0.5290 O.2   1 <1>  -0.5700 
  2 C       -1.4130    -1.0510    -0.4870 C.2   1 <1>   0.5690 
  3 N       -1.1850    -2.4060    -0.2900 N.am  1 <1>  -0.2370 
  4 C       -2.8860    -0.8750    -0.7030 C.3   1 <1>  -0.0190 
  5 C        0.0770    -3.0350    -0.3450 C.ar  1 <1>   0.1170 
  6 C       -2.4010    -3.0240    -0.0420 C.2   1 <1>   0.5690 
  7 C       -3.9980     0.1810    -0.5450 C.3   1 <1>   0.3380 
  8 C       -3.3790    -1.9370     0.2740 C.3   1 <1>  -0.0190 
  9 C        1.1690    -2.4810     0.3110 C.ar  1 <1>  -0.1500 
 10 C        0.2620    -4.2110    -1.0620 C.ar  1 <1>  -0.1500 
 11 O       -2.6590    -4.1990    -0.0430 O.2   1 <1>  -0.5700 
 12 O       -4.6400    -0.2340     0.6220 O.3   1 <1>  -0.5600 
 13 C       -5.0740    -0.2810    -1.5060 C.2   1 <1>  -0.2880 
 14 C       -4.8610    -1.5880     0.3510 C.3   1 <1>   0.3380 
 15 C        2.4430    -3.0410     0.2410 C.ar  1 <1>   0.0860 
 16 C        1.5080    -4.8060    -1.1260 C.ar  1 <1>  -0.1500 
 17 C       -5.5620    -1.4040    -0.9830 C.2   1 <1>  -0.2880 
 18 C        3.5850    -2.4320     0.8960 C.2   1 <1>   0.6340 
 19 C        2.5840    -4.2250    -0.4810 C.ar  1 <1>  -0.1500 
 20 O        4.3690    -3.0780     1.5520 O.2   1 <1>  -0.5700 
 21 O        3.8290    -1.1240     0.7750 O.3   1 <1>  -0.4300 
 22 C        3.3950    -0.3440    -0.3170 C.3   1 <1>   0.1200 
 23 C        4.2330     0.9290    -0.3420 C.3   1 <1>  -0.2400 
 24 H       -2.9820    -1.2300    -1.7180 H     1 <1>   0.0800 
 25 H       -3.7460     1.2280    -0.5270 H     1 <1>   0.0800 
 26 H       -3.0550    -1.6840     1.2740 H     1 <1>   0.0800 
 27 H        1.0320    -1.5870     0.8950 H     1 <1>   0.1500 
 28 H       -0.5700    -4.6690    -1.5700 H     1 <1>   0.1500 
 29 H       -5.2840     0.2510    -2.4180 H     1 <1>   0.1500 
 30 H       -5.4350    -2.0370     1.1440 H     1 <1>   0.0800 
 31 H        1.6390    -5.7220    -1.6770 H     1 <1>   0.1500 
 32 H       -6.3050    -2.1040    -1.3250 H     1 <1>   0.1500 
 33 H        3.5540    -4.6930    -0.5310 H     1 <1>   0.1500 
 34 H        2.3540    -0.1030    -0.1870 H     1 <1>   0.0800 
 35 H        3.5340    -0.9060    -1.2260 H     1 <1>   0.0800 
 36 H        4.0970     1.4790     0.5720 H     1 <1>   0.0800 
 37 H        3.9280     1.5510    -1.1640 H     1 <1>   0.0800 
 38 H        5.2740     0.6860    -0.4620 H     1 <1>   0.0800 
@<TRIPOS>BOND
  1   1   2  2   
  2   2   3  am  
  3   2   4  1   
  4   3   5  1   
  5   3   6  am  
  6   4   7  1   
  7   4   8  1   
  8   4  24  1   
  9   5   9  ar  
 10   5  10  ar  
 11   6   8  1   
 12   6  11  2   
 13   7  12  1   
 14   7  13  1   
 15   7  25  1   
 16   8  14  1   
 17   8  26  1   
 18   9  15  ar  
 19   9  27  1   
 20  10  16  ar  
 21  10  28  1   
 22  12  14  1   
 23  13  17  2   
 24  13  29  1   
 25  14  17  1   
 26  14  30  1   
 27  15  18  1   
 28  15  19  ar  
 29  16  19  ar  
 30  16  31  1   
 31  17  32  1   
 32  18  20  2   
 33  18  21  1   
 34  19  33  1   
 35  21  22  1   
 36  22  23  1   
 37  22  34  1   
 38  22  35  1   
 39  23  36  1   
 40  23  37  1   
 41  23  38  1   
@<TRIPOS>SUBSTRUCTURE
  1 ****   3 GROUP 4 **** **** 0

# MOE 2024.06 (io_trps.svl 2023.06)
