@<TRIPOS>MOLECULE
NONAME
35 36 1 0 0 
SMALL
USER_CHARGES


@<TRIPOS>ATOM
  1 F        0.0890    -0.0850    -0.2680 F     1 <1>  -0.3400 
  2 C        0.8950     0.5740     0.5500 C.3   1 <1>   1.1640 
  3 F        0.1810     0.8040     1.6470 F     1 <1>  -0.3400 
  4 F        1.8470    -0.2720     0.9250 F     1 <1>  -0.3400 
  5 C        1.4520     1.8680    -0.0670 C.ar  1 <1>  -0.1440 
  6 C        2.4130     1.8070    -1.0870 C.ar  1 <1>   0.0860 
  7 C        1.0110     3.1120     0.3820 C.ar  1 <1>  -0.1500 
  8 C        2.9310     0.5620    -1.6200 C.2   1 <1>   0.5440 
  9 C        2.8990     3.0030    -1.6140 C.ar  1 <1>  -0.1500 
 10 C        1.5100     4.2830    -0.1560 C.ar  1 <1>  -0.1500 
 11 O        2.2480    -0.1430    -2.3270 O.2   1 <1>  -0.5700 
 12 N        4.1900     0.1300    -1.3570 N.am  1 <1>  -0.7300 
 13 C        2.4590     4.2290    -1.1580 C.ar  1 <1>  -0.1500 
 14 C        5.1560     0.6870    -0.3980 C.3   1 <1>   0.2200 
 15 C        6.3970     1.1620    -1.1610 C.3   1 <1>  -0.1600 
 16 C        5.5150    -0.3920     0.6280 C.3   1 <1>  -0.1600 
 17 C        7.4810     1.6640    -0.1960 C.3   1 <1>  -0.1600 
 18 C        6.5960     0.1050     1.5990 C.3   1 <1>  -0.1600 
 19 C        7.8390     0.5920     0.8420 C.3   1 <1>  -0.1600 
 20 H        0.2690     3.1880     1.1600 H     1 <1>   0.1500 
 21 H        3.6330     2.9630    -2.4000 H     1 <1>   0.1500 
 22 H        1.1600     5.2370     0.2030 H     1 <1>   0.1500 
 23 H        4.4450    -0.7640    -1.7790 H     1 <1>   0.3700 
 24 H        2.8490     5.1390    -1.5820 H     1 <1>   0.1500 
 25 H        4.7210     1.5260     0.1190 H     1 <1>   0.0800 
 26 H        6.1220     1.9560    -1.8320 H     1 <1>   0.0800 
 27 H        6.7950     0.3480    -1.7410 H     1 <1>   0.0800 
 28 H        5.8790    -1.2670     0.1180 H     1 <1>   0.0800 
 29 H        4.6350    -0.6640     1.1840 H     1 <1>   0.0800 
 30 H        7.1270     2.5460     0.3120 H     1 <1>   0.0800 
 31 H        8.3610     1.9360    -0.7520 H     1 <1>   0.0800 
 32 H        6.8700    -0.6900     2.2700 H     1 <1>   0.0800 
 33 H        6.2000     0.9130     2.1910 H     1 <1>   0.0800 
 34 H        8.5530     0.9910     1.5420 H     1 <1>   0.0800 
 35 H        8.3010    -0.2440     0.3440 H     1 <1>   0.0800 
@<TRIPOS>BOND
  1   1   2  1   
  2   2   3  1   
  3   2   4  1   
  4   2   5  1   
  5   5   6  ar  
  6   5   7  ar  
  7   6   8  1   
  8   6   9  ar  
  9   7  10  ar  
 10   7  20  1   
 11   8  11  2   
 12   8  12  am  
 13   9  13  ar  
 14   9  21  1   
 15  10  13  ar  
 16  10  22  1   
 17  12  14  1   
 18  12  23  1   
 19  13  24  1   
 20  14  15  1   
 21  14  16  1   
 22  14  25  1   
 23  15  17  1   
 24  15  26  1   
 25  15  27  1   
 26  16  18  1   
 27  16  28  1   
 28  16  29  1   
 29  17  19  1   
 30  17  30  1   
 31  17  31  1   
 32  18  19  1   
 33  18  32  1   
 34  18  33  1   
 35  19  34  1   
 36  19  35  1   
@<TRIPOS>SUBSTRUCTURE
  1 ****   6 GROUP 4 **** **** 0

# MOE 2024.06 (io_trps.svl 2023.06)
