@<TRIPOS>MOLECULE
NONAME
32 33 1 0 0 
SMALL
USER_CHARGES


@<TRIPOS>ATOM
  1 O       -5.1720     3.5290    -0.2600 O.3   1 <1>  -0.5600 
  2 C       -5.3200     2.2380    -0.8140 C.3   1 <1>   0.3440 
  3 C       -6.3410     4.2940    -0.2300 C.3   1 <1>   0.1200 
  4 C       -6.5650     1.5170    -0.2890 C.ar  1 <1>  -0.1440 
  5 C       -4.0480     1.4480    -0.4380 C.3   1 <1>   0.3430 
  6 C       -7.3100     3.6730     0.7770 C.3   1 <1>  -0.0170 
  7 C       -7.5030     2.1970     0.4780 C.ar  1 <1>  -0.1440 
  8 C       -6.7770     0.1760    -0.5860 C.ar  1 <1>  -0.1500 
  9 N       -2.8580     2.3510    -0.3140 N.4   1 <1>  -0.9060 
 10 C       -8.6180     1.5340     0.9630 C.ar  1 <1>  -0.1500 
 11 C       -7.8940    -0.4820    -0.1030 C.ar  1 <1>  -0.1500 
 12 C       -1.7810     1.8130     0.5380 C.3   1 <1>   0.3430 
 13 C       -8.8130     0.1960     0.6760 C.ar  1 <1>  -0.1500 
 14 C       -0.6830     2.8620     0.6270 C.3   1 <1>  -0.2400 
 15 H       -5.3910     2.3460    -1.8820 H     1 <1>   0.0800 
 16 H       -6.7710     4.3180    -1.2170 H     1 <1>   0.0800 
 17 H       -6.0820     5.2960     0.0670 H     1 <1>   0.0800 
 18 H       -3.8690     0.6690    -1.1600 H     1 <1>   0.0800 
 19 H       -4.2360     0.9780     0.5130 H     1 <1>   0.0800 
 20 H       -8.2530     4.1860     0.7220 H     1 <1>   0.0800 
 21 H       -6.9220     3.7930     1.7730 H     1 <1>   0.0800 
 22 H       -6.0880    -0.3790    -1.1990 H     1 <1>   0.1500 
 23 H       -3.2430     3.2210     0.0980 H     1 <1>   0.4500 
 24 H       -2.5020     2.6200    -1.2370 H     1 <1>   0.4500 
 25 H       -9.3430     2.0570     1.5630 H     1 <1>   0.1500 
 26 H       -8.0530    -1.5220    -0.3320 H     1 <1>   0.1500 
 27 H       -1.3860     0.9040     0.1120 H     1 <1>   0.0800 
 28 H       -2.1600     1.5970     1.5250 H     1 <1>   0.0800 
 29 H       -9.6820    -0.3150     1.0540 H     1 <1>   0.1500 
 30 H       -0.2720     3.0740    -0.3440 H     1 <1>   0.0800 
 31 H        0.1120     2.4910     1.2490 H     1 <1>   0.0800 
 32 H       -1.0540     3.7690     1.0700 H     1 <1>   0.0800 
@<TRIPOS>BOND
  1   1   2  1   
  2   1   3  1   
  3   2   4  1   
  4   2   5  1   
  5   2  15  1   
  6   3   6  1   
  7   3  16  1   
  8   3  17  1   
  9   4   7  ar  
 10   4   8  ar  
 11   5   9  1   
 12   5  18  1   
 13   5  19  1   
 14   6   7  1   
 15   6  20  1   
 16   6  21  1   
 17   7  10  ar  
 18   8  11  ar  
 19   8  22  1   
 20   9  12  1   
 21   9  23  1   
 22   9  24  1   
 23  10  13  ar  
 24  10  25  1   
 25  11  13  ar  
 26  11  26  1   
 27  12  14  1   
 28  12  27  1   
 29  12  28  1   
 30  13  29  1   
 31  14  30  1   
 32  14  31  1   
 33  14  32  1   
@<TRIPOS>SUBSTRUCTURE
  1 ****   2 GROUP 4 **** **** 0

# MOE 2024.06 (io_trps.svl 2023.06)
