@<TRIPOS>MOLECULE
NONAME
43 44 1 0 0 
SMALL
USER_CHARGES


@<TRIPOS>ATOM
  1 S        0.8740    -0.3470     0.7860 S.o2  1 <1>   1.4470 
  2 O        1.5080    -0.9810     1.9200 O.2   1 <1>  -0.6500 
  3 O        0.8520     1.0920     0.6650 O.2   1 <1>  -0.6500 
  4 N        1.7080    -0.8430    -0.5820 N.am  1 <1>  -0.9140 
  5 C       -0.7820    -1.0380     0.5260 C.ar  1 <1>  -0.0090 
  6 C        3.1520    -0.7480    -0.4250 C.3   1 <1>   0.1960 
  7 C       -1.8530    -0.2310     0.1550 C.ar  1 <1>  -0.1500 
  8 C       -1.0170    -2.4010     0.6740 C.ar  1 <1>  -0.1500 
  9 C        3.8240    -1.2380    -1.7020 C.3   1 <1>  -0.0990 
 10 C       -3.1120    -0.7630    -0.0600 C.ar  1 <1>  -0.1500 
 11 C       -2.2730    -2.9410     0.4620 C.ar  1 <1>  -0.1500 
 12 C        5.3280    -1.1980    -1.5140 C.2   1 <1>   0.5690 
 13 C       -3.3230    -2.1210     0.0940 C.ar  1 <1>  -0.1500 
 14 O        5.8270    -0.0970    -1.5320 O.2   1 <1>  -0.5700 
 15 N        6.0810    -2.3310    -1.3100 N.am  1 <1>  -0.6600 
 16 C        5.5890    -3.7240    -1.4980 C.3   1 <1>   0.1400 
 17 C        7.5190    -2.1950    -0.9320 C.3   1 <1>   0.1400 
 18 C        4.9640    -4.2470    -0.1990 C.3   1 <1>  -0.1600 
 19 C        7.9840    -3.2080     0.1270 C.3   1 <1>  -0.1600 
 20 C        5.9800    -4.6020     0.8980 C.3   1 <1>  -0.1600 
 21 C        6.9680    -3.4780     1.2510 C.3   1 <1>  -0.1600 
 22 H        1.4450    -0.1470    -1.2770 H     1 <1>   0.4200 
 23 H        3.4720    -1.3600     0.4030 H     1 <1>   0.0800 
 24 H        3.4390     0.2730    -0.2220 H     1 <1>   0.0800 
 25 H       -1.7010     0.8290     0.0340 H     1 <1>   0.1500 
 26 H       -0.2020    -3.0450     0.9600 H     1 <1>   0.1500 
 27 H        3.5720    -0.5840    -2.5160 H     1 <1>   0.0800 
 28 H        3.4700    -2.2200    -1.9360 H     1 <1>   0.0800 
 29 H       -3.9280    -0.1210    -0.3450 H     1 <1>   0.1500 
 30 H       -2.4340    -3.9990     0.5840 H     1 <1>   0.1500 
 31 H       -4.3020    -2.5380    -0.0720 H     1 <1>   0.1500 
 32 H        6.4010    -4.3630    -1.8000 H     1 <1>   0.0800 
 33 H        4.8650    -3.7510    -2.2910 H     1 <1>   0.0800 
 34 H        7.6870    -1.2080    -0.5360 H     1 <1>   0.0800 
 35 H        8.1250    -2.2920    -1.8160 H     1 <1>   0.0800 
 36 H        4.4050    -5.1360    -0.4310 H     1 <1>   0.0800 
 37 H        4.2630    -3.5260     0.1800 H     1 <1>   0.0800 
 38 H        8.8820    -2.8120     0.5680 H     1 <1>   0.0800 
 39 H        8.2630    -4.1290    -0.3510 H     1 <1>   0.0800 
 40 H        6.5330    -5.4760     0.6000 H     1 <1>   0.0800 
 41 H        5.4330    -4.8650     1.7870 H     1 <1>   0.0800 
 42 H        6.4370    -2.5760     1.5040 H     1 <1>   0.0800 
 43 H        7.5120    -3.7860     2.1270 H     1 <1>   0.0800 
@<TRIPOS>BOND
  1   1   2  2   
  2   1   3  2   
  3   1   4  am  
  4   1   5  1   
  5   4   6  1   
  6   4  22  1   
  7   5   7  ar  
  8   5   8  ar  
  9   6   9  1   
 10   6  23  1   
 11   6  24  1   
 12   7  10  ar  
 13   7  25  1   
 14   8  11  ar  
 15   8  26  1   
 16   9  12  1   
 17   9  27  1   
 18   9  28  1   
 19  10  13  ar  
 20  10  29  1   
 21  11  13  ar  
 22  11  30  1   
 23  12  14  2   
 24  12  15  am  
 25  13  31  1   
 26  15  16  1   
 27  15  17  1   
 28  16  18  1   
 29  16  32  1   
 30  16  33  1   
 31  17  19  1   
 32  17  34  1   
 33  17  35  1   
 34  18  20  1   
 35  18  36  1   
 36  18  37  1   
 37  19  21  1   
 38  19  38  1   
 39  19  39  1   
 40  20  21  1   
 41  20  40  1   
 42  20  41  1   
 43  21  42  1   
 44  21  43  1   
@<TRIPOS>SUBSTRUCTURE
  1 ****   6 GROUP 4 **** **** 0

# MOE 2024.06 (io_trps.svl 2023.06)
