@<TRIPOS>MOLECULE
NONAME
43 45 1 0 0 
SMALL
USER_CHARGES


@<TRIPOS>ATOM
  1 S        1.1050    -1.9820    -1.4160 S.3   1 <1>  -0.4600 
  2 C        2.5320    -0.8840    -1.6170 C.3   1 <1>   0.0700 
  3 C        1.7260    -3.2340    -0.2640 C.3   1 <1>   0.0700 
  4 C        3.0230    -0.4450    -0.2310 C.3   1 <1>   0.3430 
  5 C        2.3070    -2.5320     0.9720 C.3   1 <1>   0.3430 
  6 N        3.4430    -1.6090     0.6300 N.4   1 <1>  -0.9590 
  7 C        4.1330    -1.1370     1.8620 C.3   1 <1>   0.4860 
  8 C        5.4150    -0.4400     1.4520 C.ar  1 <1>  -0.1430 
  9 C        6.4550    -1.1690     0.8960 C.ar  1 <1>  -0.1500 
 10 C        5.5600     0.9310     1.6180 C.ar  1 <1>  -0.1500 
 11 C        7.6210    -0.5450     0.4900 C.ar  1 <1>   0.0820 
 12 C        6.7270     1.5600     1.2200 C.ar  1 <1>  -0.1500 
 13 O        8.5670    -1.3430    -0.0550 O.3   1 <1>  -0.3630 
 14 C        7.7570     0.8300     0.6540 C.ar  1 <1>  -0.1500 
 15 C        9.8280    -0.8380    -0.4420 C.3   1 <1>   0.2630 
 16 C       10.6640    -1.9840    -0.9880 C.ar  1 <1>  -0.1440 
 17 C       11.2350    -2.9030    -0.1210 C.ar  1 <1>  -0.1500 
 18 C       10.8660    -2.1210    -2.3540 C.ar  1 <1>  -0.1500 
 19 C       12.0040    -3.9440    -0.6120 C.ar  1 <1>  -0.1500 
 20 C       11.6350    -3.1620    -2.8450 C.ar  1 <1>  -0.1500 
 21 C       12.2050    -4.0740    -1.9750 C.ar  1 <1>  -0.1500 
 22 H        2.2000    -0.0400    -2.1960 H     1 <1>   0.0800 
 23 H        3.2900    -1.4180    -2.1620 H     1 <1>   0.0800 
 24 H        2.4650    -3.8210    -0.7790 H     1 <1>   0.0800 
 25 H        0.8900    -3.8580     0.0010 H     1 <1>   0.0800 
 26 H        2.2360     0.1050     0.2580 H     1 <1>   0.0800 
 27 H        3.8580     0.2240    -0.3680 H     1 <1>   0.0800 
 28 H        2.6490    -3.2870     1.6610 H     1 <1>   0.0800 
 29 H        1.5190    -1.9760     1.4540 H     1 <1>   0.0800 
 30 H        4.1480    -2.1350     0.0960 H     1 <1>   0.4500 
 31 H        4.3760    -1.9720     2.4980 H     1 <1>   0.0800 
 32 H        3.5000    -0.4590     2.4110 H     1 <1>   0.0800 
 33 H        6.3910    -2.2360     0.7670 H     1 <1>   0.1500 
 34 H        4.7760     1.5240     2.0590 H     1 <1>   0.1500 
 35 H        6.8370     2.6240     1.3520 H     1 <1>   0.1500 
 36 H        8.6490     1.3470     0.3530 H     1 <1>   0.1500 
 37 H       10.3030    -0.4080     0.4220 H     1 <1>   0.0800 
 38 H        9.6780    -0.0840    -1.1940 H     1 <1>   0.0800 
 39 H       11.0810    -2.8120     0.9400 H     1 <1>   0.1500 
 40 H       10.4260    -1.4210    -3.0420 H     1 <1>   0.1500 
 41 H       12.4450    -4.6540     0.0670 H     1 <1>   0.1500 
 42 H       11.7890    -3.2630    -3.9050 H     1 <1>   0.1500 
 43 H       12.8020    -4.8830    -2.3570 H     1 <1>   0.1500 
@<TRIPOS>BOND
  1   1   2  1   
  2   1   3  1   
  3   2   4  1   
  4   2  22  1   
  5   2  23  1   
  6   3   5  1   
  7   3  24  1   
  8   3  25  1   
  9   4   6  1   
 10   4  26  1   
 11   4  27  1   
 12   5   6  1   
 13   5  28  1   
 14   5  29  1   
 15   6   7  1   
 16   6  30  1   
 17   7   8  1   
 18   7  31  1   
 19   7  32  1   
 20   8   9  ar  
 21   8  10  ar  
 22   9  11  ar  
 23   9  33  1   
 24  10  12  ar  
 25  10  34  1   
 26  11  13  1   
 27  11  14  ar  
 28  12  14  ar  
 29  12  35  1   
 30  13  15  1   
 31  14  36  1   
 32  15  16  1   
 33  15  37  1   
 34  15  38  1   
 35  16  17  ar  
 36  16  18  ar  
 37  17  19  ar  
 38  17  39  1   
 39  18  20  ar  
 40  18  40  1   
 41  19  21  ar  
 42  19  41  1   
 43  20  21  ar  
 44  20  42  1   
 45  21  43  1   
@<TRIPOS>SUBSTRUCTURE
  1 ****   9 GROUP 4 **** **** 0

# MOE 2024.06 (io_trps.svl 2023.06)
