@<TRIPOS>MOLECULE
NONAME
31 31 1 0 0 
SMALL
USER_CHARGES


@<TRIPOS>ATOM
  1 BR      -1.6140    -0.8630    -0.3930 Br    1 <1>  -0.1110 
  2 C       -0.0370    -1.9750    -0.2960 C.ar  1 <1>   0.1110 
  3 C       -0.1010    -3.2270     0.3110 C.ar  1 <1>   0.0820 
  4 C        1.1320    -1.4800    -0.8390 C.ar  1 <1>  -0.1500 
  5 O       -1.2640    -3.6840     0.8330 O.3   1 <1>  -0.3630 
  6 C        1.0520    -4.0030     0.3960 C.ar  1 <1>  -0.1440 
  7 C        2.2620    -2.2710    -0.7560 C.ar  1 <1>   0.1770 
  8 C       -2.1990    -4.2100    -0.0750 C.3   1 <1>   0.1200 
  9 C        2.2340    -3.5160    -0.1480 C.ar  1 <1>  -0.1500 
 10 C        1.0360    -5.3640     1.0770 C.3   1 <1>  -0.0960 
 11 CL       3.7610    -1.6870    -1.4330 Cl    1 <1>  -0.1770 
 12 C       -3.5700    -4.1180     0.5920 C.3   1 <1>  -0.1600 
 13 C       -4.6700    -4.5650    -0.3610 C.3   1 <1>   0.3430 
 14 N       -5.9810    -4.4090     0.3140 N.4   1 <1>  -0.9060 
 15 C       -7.1270    -4.8150    -0.5530 C.3   1 <1>   0.2630 
 16 H        1.1680    -0.5140    -1.3060 H     1 <1>   0.1500 
 17 H       -1.9200    -5.2280    -0.2870 H     1 <1>   0.0800 
 18 H       -2.1680    -3.6300    -0.9820 H     1 <1>   0.0800 
 19 H        3.1410    -4.0920    -0.1030 H     1 <1>   0.1500 
 20 H        0.4890    -6.0690     0.4780 H     1 <1>   0.0800 
 21 H        0.5660    -5.2870     2.0410 H     1 <1>   0.0800 
 22 H        2.0350    -5.7360     1.2190 H     1 <1>   0.0800 
 23 H       -3.7360    -3.0940     0.8790 H     1 <1>   0.0800 
 24 H       -3.5660    -4.7410     1.4700 H     1 <1>   0.0800 
 25 H       -4.5160    -5.5970    -0.6390 H     1 <1>   0.0800 
 26 H       -4.6420    -3.9610    -1.2550 H     1 <1>   0.0800 
 27 H       -6.0950    -3.4260     0.6030 H     1 <1>   0.4500 
 28 H       -5.9840    -4.9640     1.1810 H     1 <1>   0.4500 
 29 H       -7.1520    -4.2150    -1.4480 H     1 <1>   0.0800 
 30 H       -8.0600    -4.6850    -0.0260 H     1 <1>   0.0800 
 31 H       -7.0360    -5.8520    -0.8350 H     1 <1>   0.0800 
@<TRIPOS>BOND
  1   1   2  1   
  2   2   3  ar  
  3   2   4  ar  
  4   3   5  1   
  5   3   6  ar  
  6   4   7  ar  
  7   4  16  1   
  8   5   8  1   
  9   6   9  ar  
 10   6  10  1   
 11   7   9  ar  
 12   7  11  1   
 13   8  12  1   
 14   8  17  1   
 15   8  18  1   
 16   9  19  1   
 17  10  20  1   
 18  10  21  1   
 19  10  22  1   
 20  12  13  1   
 21  12  23  1   
 22  12  24  1   
 23  13  14  1   
 24  13  25  1   
 25  13  26  1   
 26  14  15  1   
 27  14  27  1   
 28  14  28  1   
 29  15  29  1   
 30  15  30  1   
 31  15  31  1   
@<TRIPOS>SUBSTRUCTURE
  1 ****   3 GROUP 4 **** **** 0

# MOE 2024.06 (io_trps.svl 2023.06)
