@<TRIPOS>MOLECULE
NONAME
47 49 1 0 0 
SMALL
USER_CHARGES


@<TRIPOS>ATOM
  1 S        0.0260     0.7050     1.0830 S.o2  1 <1>   1.4470 
  2 O       -0.4320     1.5110     2.1950 O.2   1 <1>  -0.6500 
  3 O       -0.4120    -0.6700     0.9800 O.2   1 <1>  -0.6500 
  4 N       -0.4880     1.4880    -0.3300 N.am  1 <1>  -0.8490 
  5 C        1.8340     0.7750     0.9710 C.ar  1 <1>  -0.0090 
  6 C       -1.9090     1.2260    -0.6020 C.3   1 <1>   0.1960 
  7 C       -0.2630     2.9430    -0.2900 C.3   1 <1>   0.1960 
  8 C        2.6110     1.1690     2.0550 C.ar  1 <1>  -0.1500 
  9 C        2.4970     0.4300    -0.2010 C.ar  1 <1>  -0.1500 
 10 C       -2.3710     1.9430    -1.8840 C.3   1 <1>   0.1200 
 11 C       -0.7560     3.6130    -1.5850 C.3   1 <1>   0.1200 
 12 C        3.9910     1.2190     1.9710 C.ar  1 <1>  -0.1500 
 13 C        3.8760     0.4830    -0.2910 C.ar  1 <1>  -0.1500 
 14 O       -2.1050     3.3160    -1.8080 O.3   1 <1>  -0.5600 
 15 C        4.6490     0.8740     0.7970 C.ar  1 <1>   0.1170 
 16 N        6.0470     0.9510     0.7560 N.am  1 <1>  -0.5470 
 17 C        6.9670     0.3350    -0.0470 C.2   1 <1>   0.6900 
 18 O        6.6260    -0.5320    -0.8300 O.2   1 <1>  -0.5700 
 19 N        8.2900     0.6890     0.0680 N.am  1 <1>  -0.6600 
 20 C        8.7780     1.9700     0.6550 C.3   1 <1>   0.1400 
 21 C        9.3580    -0.1280    -0.5740 C.3   1 <1>   0.1400 
 22 C        9.4710     2.8050    -0.4280 C.3   1 <1>  -0.1600 
 23 C       10.0500     0.6890    -1.6700 C.3   1 <1>  -0.1600 
 24 C       10.5890     2.0190    -1.1260 C.3   1 <1>  -0.1600 
 25 H       -2.5130     1.5580     0.2270 H     1 <1>   0.0800 
 26 H       -2.0650     0.1670    -0.7240 H     1 <1>   0.0800 
 27 H        0.7880     3.1440    -0.1690 H     1 <1>   0.0800 
 28 H       -0.7860     3.3810     0.5450 H     1 <1>   0.0800 
 29 H        2.1250     1.4370     2.9790 H     1 <1>   0.1500 
 30 H        1.9230     0.1150    -1.0570 H     1 <1>   0.1500 
 31 H       -3.4310     1.8210    -2.0180 H     1 <1>   0.0800 
 32 H       -1.8630     1.5410    -2.7430 H     1 <1>   0.0800 
 33 H       -0.1830     3.2700    -2.4300 H     1 <1>   0.0800 
 34 H       -0.6630     4.6810    -1.5120 H     1 <1>   0.0800 
 35 H        4.5610     1.5240     2.8290 H     1 <1>   0.1500 
 36 H        4.3520     0.2140    -1.2170 H     1 <1>   0.1500 
 37 H        6.4840     1.4430     1.5240 H     1 <1>   0.3700 
 38 H        9.4760     1.7470     1.4440 H     1 <1>   0.0800 
 39 H        7.9690     2.5420     1.0720 H     1 <1>   0.0800 
 40 H        8.9490    -1.0290    -1.0000 H     1 <1>   0.0800 
 41 H       10.0760    -0.4150     0.1750 H     1 <1>   0.0800 
 42 H        9.8780     3.6960     0.0150 H     1 <1>   0.0800 
 43 H        8.7360     3.1070    -1.1540 H     1 <1>   0.0800 
 44 H        9.3390     0.8770    -2.4570 H     1 <1>   0.0800 
 45 H       10.8560     0.1130    -2.0880 H     1 <1>   0.0800 
 46 H       11.3810     1.8220    -0.4230 H     1 <1>   0.0800 
 47 H       10.9970     2.6040    -1.9330 H     1 <1>   0.0800 
@<TRIPOS>BOND
  1   1   2  2   
  2   1   3  2   
  3   1   4  am  
  4   1   5  1   
  5   4   6  1   
  6   4   7  1   
  7   5   8  ar  
  8   5   9  ar  
  9   6  10  1   
 10   6  25  1   
 11   6  26  1   
 12   7  11  1   
 13   7  27  1   
 14   7  28  1   
 15   8  12  ar  
 16   8  29  1   
 17   9  13  ar  
 18   9  30  1   
 19  10  14  1   
 20  10  31  1   
 21  10  32  1   
 22  11  14  1   
 23  11  33  1   
 24  11  34  1   
 25  12  15  ar  
 26  12  35  1   
 27  13  15  ar  
 28  13  36  1   
 29  15  16  1   
 30  16  17  am  
 31  16  37  1   
 32  17  18  2   
 33  17  19  am  
 34  19  20  1   
 35  19  21  1   
 36  20  22  1   
 37  20  38  1   
 38  20  39  1   
 39  21  23  1   
 40  21  40  1   
 41  21  41  1   
 42  22  24  1   
 43  22  42  1   
 44  22  43  1   
 45  23  24  1   
 46  23  44  1   
 47  23  45  1   
 48  24  46  1   
 49  24  47  1   
@<TRIPOS>SUBSTRUCTURE
  1 ****  13 GROUP 4 **** **** 0

# MOE 2024.06 (io_trps.svl 2023.06)
