@<TRIPOS>MOLECULE
NONAME
29 29 1 0 0 
SMALL
USER_CHARGES


@<TRIPOS>ATOM
  1 F        0.2640     0.4690     2.1160 F     1 <1>  -0.3400 
  2 C        0.4040     1.7680     1.8680 C.3   1 <1>   1.0200 
  3 F       -0.3610     2.3800     2.7660 F     1 <1>  -0.3400 
  4 F        1.6580     2.0450     2.2180 F     1 <1>  -0.3400 
  5 C        0.1180     2.1160     0.3830 C.3   1 <1>   0.4600 
  6 O        1.0460     1.4440    -0.4900 O.3   1 <1>  -0.6800 
  7 C       -1.2800     1.6380    -0.0270 C.2   1 <1>  -0.0400 
  8 C        0.2350     3.6570     0.2340 C.3   1 <1>   1.0200 
  9 O       -2.3310     2.1050     0.6190 O.3   1 <1>  -0.2800 
 10 C       -1.6770     0.7720    -0.9870 C.2   1 <1>  -0.1500 
 11 F       -0.0630     4.0670    -0.9960 F     1 <1>  -0.3400 
 12 F        1.4760     4.0900     0.4430 F     1 <1>  -0.3400 
 13 F       -0.5360     4.3790     1.0390 F     1 <1>  -0.3400 
 14 C       -3.4110     1.5600     0.0980 C.2   1 <1>  -0.0400 
 15 C       -3.0720     0.7220    -0.9040 C.2   1 <1>  -0.1500 
 16 C       -4.7540     1.9540     0.6870 C.3   1 <1>   0.0200 
 17 C       -5.9300     1.2960    -0.0460 C.3   1 <1>  -0.1600 
 18 C       -7.2630     1.7200     0.5670 C.3   1 <1>   0.1200 
 19 O       -8.2770     1.0830    -0.1210 O.3   1 <1>  -0.6800 
 20 H        1.9710     1.7030    -0.2880 H     1 <1>   0.4000 
 21 H       -1.0730     0.2190    -1.6860 H     1 <1>   0.1500 
 22 H       -3.7070     0.1210    -1.5320 H     1 <1>   0.1500 
 23 H       -4.8480     3.0240     0.6340 H     1 <1>   0.0800 
 24 H       -4.7680     1.6690     1.7250 H     1 <1>   0.0800 
 25 H       -5.8340     0.2260     0.0250 H     1 <1>   0.0800 
 26 H       -5.9010     1.5840    -1.0820 H     1 <1>   0.0800 
 27 H       -7.4150     2.7830     0.4890 H     1 <1>   0.0800 
 28 H       -7.3270     1.4220     1.6000 H     1 <1>   0.0800 
 29 H       -8.2690     1.3390    -1.0630 H     1 <1>   0.4000 
@<TRIPOS>BOND
  1   1   2  1   
  2   2   3  1   
  3   2   4  1   
  4   2   5  1   
  5   5   6  1   
  6   5   7  1   
  7   5   8  1   
  8   6  20  1   
  9   7   9  1   
 10   7  10  2   
 11   8  11  1   
 12   8  12  1   
 13   8  13  1   
 14   9  14  1   
 15  10  15  1   
 16  10  21  1   
 17  14  15  2   
 18  14  16  1   
 19  15  22  1   
 20  16  17  1   
 21  16  23  1   
 22  16  24  1   
 23  17  18  1   
 24  17  25  1   
 25  17  26  1   
 26  18  19  1   
 27  18  27  1   
 28  18  28  1   
 29  19  29  1   
@<TRIPOS>SUBSTRUCTURE
  1 ****   9 GROUP 4 **** **** 0

# MOE 2024.06 (io_trps.svl 2023.06)
