@<TRIPOS>MOLECULE
NONAME
39 39 1 0 0 
SMALL
USER_CHARGES


@<TRIPOS>ATOM
  1 S        0.1820     0.0510    -0.4330 S.o2  1 <1>   1.4470 
  2 O        1.1520    -0.4440     0.5160 O.2   1 <1>  -0.6500 
  3 O        0.5550     0.1900    -1.8230 O.2   1 <1>  -0.6500 
  4 N       -0.1550     1.5880     0.1470 N.am  1 <1>  -0.9140 
  5 C       -1.3870    -0.8740    -0.3010 C.ar  1 <1>  -0.0090 
  6 C        0.7760     2.5890    -0.3270 C.3   1 <1>   0.1960 
  7 C       -1.4410    -2.2710    -0.3690 C.ar  1 <1>  -0.1430 
  8 C       -2.5800    -0.1810    -0.1420 C.ar  1 <1>  -0.1500 
  9 C        0.4560     3.8990     0.3800 C.3   1 <1>  -0.2400 
 10 C       -2.6610    -2.9320    -0.2350 C.ar  1 <1>  -0.1430 
 11 C       -0.1440    -3.0580    -0.5870 C.3   1 <1>  -0.0970 
 12 C       -3.8140    -0.8100    -0.0250 C.ar  1 <1>   0.0860 
 13 C       -3.8220    -2.1990    -0.0640 C.ar  1 <1>  -0.1500 
 14 C       -2.7790    -4.4520    -0.2590 C.3   1 <1>  -0.0970 
 15 C       -5.0330    -0.0370     0.1360 C.2   1 <1>   0.5440 
 16 O       -5.0230     1.0180     0.7370 O.2   1 <1>  -0.5700 
 17 N       -6.2090    -0.4780    -0.4040 N.am  1 <1>  -0.7300 
 18 C       -7.5080     0.2120    -0.2920 C.3   1 <1>   0.1400 
 19 C       -8.6010    -0.8350    -0.1210 C.3   1 <1>  -0.2400 
 20 H       -0.0070     1.4980     1.1500 H     1 <1>   0.4200 
 21 H        0.6680     2.7130    -1.3930 H     1 <1>   0.0800 
 22 H        1.7900     2.2880    -0.1140 H     1 <1>   0.0800 
 23 H       -2.5730     0.8950    -0.1090 H     1 <1>   0.1500 
 24 H       -0.5560     4.1960     0.1680 H     1 <1>   0.0800 
 25 H        1.1170     4.6690     0.0260 H     1 <1>   0.0800 
 26 H        0.5870     3.7990     1.4420 H     1 <1>   0.0800 
 27 H        0.4570    -2.5990    -1.3510 H     1 <1>   0.0800 
 28 H       -0.3190    -4.0670    -0.9050 H     1 <1>   0.0800 
 29 H        0.4230    -3.0870     0.3270 H     1 <1>   0.0800 
 30 H       -4.7610    -2.7100     0.0510 H     1 <1>   0.1500 
 31 H       -2.1070    -4.8870     0.4590 H     1 <1>   0.0800 
 32 H       -2.5410    -4.8240    -1.2390 H     1 <1>   0.0800 
 33 H       -3.7760    -4.7710    -0.0120 H     1 <1>   0.0800 
 34 H       -6.1950    -1.2870    -1.0240 H     1 <1>   0.3700 
 35 H       -7.6810     0.7950    -1.1810 H     1 <1>   0.0800 
 36 H       -7.4990     0.8780     0.5560 H     1 <1>   0.0800 
 37 H       -8.6380    -1.4870    -0.9750 H     1 <1>   0.0800 
 38 H       -9.5540    -0.3460    -0.0260 H     1 <1>   0.0800 
 39 H       -8.4260    -1.4120     0.7690 H     1 <1>   0.0800 
@<TRIPOS>BOND
  1   1   2  2   
  2   1   3  2   
  3   1   4  am  
  4   1   5  1   
  5   4   6  1   
  6   4  20  1   
  7   5   7  ar  
  8   5   8  ar  
  9   6   9  1   
 10   6  21  1   
 11   6  22  1   
 12   7  10  ar  
 13   7  11  1   
 14   8  12  ar  
 15   8  23  1   
 16   9  24  1   
 17   9  25  1   
 18   9  26  1   
 19  10  13  ar  
 20  10  14  1   
 21  11  27  1   
 22  11  28  1   
 23  11  29  1   
 24  12  13  ar  
 25  12  15  1   
 26  13  30  1   
 27  14  31  1   
 28  14  32  1   
 29  14  33  1   
 30  15  16  2   
 31  15  17  am  
 32  17  18  1   
 33  17  34  1   
 34  18  19  1   
 35  18  35  1   
 36  18  36  1   
 37  19  37  1   
 38  19  38  1   
 39  19  39  1   
@<TRIPOS>SUBSTRUCTURE
  1 ****   8 GROUP 4 **** **** 0

# MOE 2024.06 (io_trps.svl 2023.06)
