@<TRIPOS>MOLECULE
NONAME
40 44 1 0 0 
SMALL
USER_CHARGES


@<TRIPOS>ATOM
  1 N       -0.1220    -0.7230     0.5090 N.pl3 1 <1>   0.3340 
  2 C       -1.4140    -0.2440     0.6010 C.2   1 <1>  -0.1970 
  3 C        0.1470    -2.0820     0.6240 C.2   1 <1>  -0.1810 
  4 C        0.6890     0.3480     0.3060 C.2   1 <1>  -0.3020 
  5 C       -2.4710    -1.1720     0.8170 C.2   1 <1>  -0.1050 
  6 C       -1.3760     1.1190     0.4520 C.2   1 <1>  -0.1500 
  7 C       -0.8630    -2.9670     0.8300 C.2   1 <1>  -0.1500 
  8 C       -0.0470     1.4970     0.2650 C.2   1 <1>  -0.1810 
  9 C       -2.2030    -2.5010     0.9280 C.2   1 <1>  -0.1500 
 10 C        0.4340     2.9360     0.0590 C.3   1 <1>   0.1810 
 11 C       -0.2240     3.5350    -1.2020 C.3   1 <1>  -0.1600 
 12 C        1.9690     2.9960    -0.1170 C.3   1 <1>  -0.1600 
 13 C        0.0500     3.7990     1.2800 C.3   1 <1>  -0.1600 
 14 C        0.2320     4.9920    -1.4140 C.3   1 <1>  -0.0800 
 15 C        2.4410     4.4470    -0.3230 C.3   1 <1>  -0.0800 
 16 C        0.5080     5.2570     1.0820 C.3   1 <1>  -0.0800 
 17 C        1.7630     5.0240    -1.5800 C.3   1 <1>  -0.1600 
 18 C       -0.1610     5.8290    -0.1820 C.3   1 <1>  -0.1600 
 19 C        2.0370     5.2880     0.9030 C.3   1 <1>  -0.1600 
 20 H        1.1780    -2.3690     0.5400 H     1 <1>   0.1500 
 21 H        1.7500     0.2290     0.2010 H     1 <1>   0.1500 
 22 H       -3.4730    -0.7860     0.8870 H     1 <1>   0.1500 
 23 H       -2.2190     1.7850     0.4750 H     1 <1>   0.1500 
 24 H       -0.6820    -4.0250     0.9220 H     1 <1>   0.1500 
 25 H       -2.9850    -3.2220     1.0910 H     1 <1>   0.1500 
 26 H       -1.2940     3.5070    -1.1030 H     1 <1>   0.0800 
 27 H        0.0390     2.9410    -2.0590 H     1 <1>   0.0800 
 28 H        2.2580     2.4000    -0.9650 H     1 <1>   0.0800 
 29 H        2.4470     2.5830     0.7540 H     1 <1>   0.0800 
 30 H        0.5050     3.3890     2.1650 H     1 <1>   0.0800 
 31 H       -1.0150     3.7750     1.4230 H     1 <1>   0.0800 
 32 H       -0.2380     5.3960    -2.2950 H     1 <1>   0.0800 
 33 H        3.5110     4.4690    -0.4430 H     1 <1>   0.0800 
 34 H        0.2300     5.8460     1.9400 H     1 <1>   0.0800 
 35 H        2.0910     6.0360    -1.7390 H     1 <1>   0.0800 
 36 H        2.0480     4.4490    -2.4440 H     1 <1>   0.0800 
 37 H       -1.2310     5.8210    -0.0630 H     1 <1>   0.0800 
 38 H        0.1440     6.8510    -0.3250 H     1 <1>   0.0800 
 39 H        2.3690     6.3030     0.7740 H     1 <1>   0.0800 
 40 H        2.5150     4.8980     1.7850 H     1 <1>   0.0800 
@<TRIPOS>BOND
  1   1   2  1   
  2   1   3  1   
  3   1   4  1   
  4   2   5  1   
  5   2   6  2   
  6   3   7  2   
  7   3  20  1   
  8   4   8  2   
  9   4  21  1   
 10   5   9  2   
 11   5  22  1   
 12   6   8  1   
 13   6  23  1   
 14   7   9  1   
 15   7  24  1   
 16   8  10  1   
 17   9  25  1   
 18  10  11  1   
 19  10  12  1   
 20  10  13  1   
 21  11  14  1   
 22  11  26  1   
 23  11  27  1   
 24  12  15  1   
 25  12  28  1   
 26  12  29  1   
 27  13  16  1   
 28  13  30  1   
 29  13  31  1   
 30  14  17  1   
 31  14  18  1   
 32  14  32  1   
 33  15  17  1   
 34  15  19  1   
 35  15  33  1   
 36  16  18  1   
 37  16  19  1   
 38  16  34  1   
 39  17  35  1   
 40  17  36  1   
 41  18  37  1   
 42  18  38  1   
 43  19  39  1   
 44  19  40  1   
@<TRIPOS>SUBSTRUCTURE
  1 ****   8 GROUP 4 **** **** 0

# MOE 2024.06 (io_trps.svl 2023.06)
