@<TRIPOS>MOLECULE
NONAME
49 51 1 0 0 
SMALL
USER_CHARGES


@<TRIPOS>ATOM
  1 S        0.0650    -0.3460     0.7010 S.o2  1 <1>   1.4470 
  2 O        0.5790    -0.9750     1.9000 O.2   1 <1>  -0.6500 
  3 O        0.4560     1.0130     0.3960 O.2   1 <1>  -0.6500 
  4 N        0.5750    -1.3070    -0.5960 N.am  1 <1>  -0.8490 
  5 C       -1.7430    -0.4860     0.6550 C.ar  1 <1>  -0.0090 
  6 C        1.9280    -0.9430    -1.0580 C.3   1 <1>   0.1960 
  7 C        0.4780    -2.7480    -0.3390 C.3   1 <1>   0.1960 
  8 C       -2.4830    -0.6460     1.8210 C.ar  1 <1>  -0.1500 
  9 C       -2.4430    -0.4220    -0.5440 C.ar  1 <1>  -0.1500 
 10 C        2.6740    -2.0850    -1.7840 C.3   1 <1>   0.1200 
 11 C        0.8410    -3.5710    -1.5980 C.3   1 <1>   0.1200 
 12 C       -3.8630    -0.7440     1.7910 C.ar  1 <1>  -0.1500 
 13 C       -3.8230    -0.5220    -0.5790 C.ar  1 <1>  -0.1500 
 14 O        1.7830    -2.9450    -2.4330 O.3   1 <1>  -0.5600 
 15 C       -4.5580    -0.6820     0.5900 C.ar  1 <1>   0.1170 
 16 N       -5.9550    -0.8000     0.6120 N.am  1 <1>  -0.5470 
 17 C       -6.9160    -0.4010    -0.2900 C.2   1 <1>   0.5440 
 18 O       -6.6130     0.2780    -1.2490 O.2   1 <1>  -0.5700 
 19 C       -8.2990    -0.7780    -0.0620 C.ar  1 <1>   0.0860 
 20 C       -9.3390     0.0970    -0.3680 C.ar  1 <1>  -0.1500 
 21 C       -8.6420    -2.0220     0.4730 C.ar  1 <1>  -0.1500 
 22 C      -10.6630    -0.2330    -0.1390 C.ar  1 <1>   0.0820 
 23 C       -9.9610    -2.3660     0.7060 C.ar  1 <1>  -0.1500 
 24 O      -11.5900     0.6990    -0.4680 O.3   1 <1>  -0.3620 
 25 C      -10.9750    -1.4750     0.4040 C.ar  1 <1>  -0.1500 
 26 C      -12.9690     0.4530    -0.3210 C.3   1 <1>   0.1200 
 27 C      -13.7220     1.6890    -0.8030 C.3   1 <1>  -0.2400 
 28 H        2.5330    -0.6300    -0.2220 H     1 <1>   0.0800 
 29 H        1.8440    -0.0990    -1.7220 H     1 <1>   0.0800 
 30 H       -0.5200    -3.0040    -0.0290 H     1 <1>   0.0800 
 31 H        1.1470    -3.0190     0.4610 H     1 <1>   0.0800 
 32 H       -1.9680    -0.6930     2.7670 H     1 <1>   0.1500 
 33 H       -1.8980    -0.2920    -1.4650 H     1 <1>   0.1500 
 34 H        3.2480    -2.6650    -1.0820 H     1 <1>   0.0800 
 35 H        3.3460    -1.6820    -2.5200 H     1 <1>   0.0800 
 36 H       -0.0430    -3.7310    -2.1900 H     1 <1>   0.0800 
 37 H        1.2320    -4.5300    -1.3110 H     1 <1>   0.0800 
 38 H       -4.4020    -0.8640     2.7130 H     1 <1>   0.1500 
 39 H       -4.3260    -0.4740    -1.5280 H     1 <1>   0.1500 
 40 H       -6.3370    -1.1650     1.4810 H     1 <1>   0.3700 
 41 H       -9.1100     1.0580    -0.7940 H     1 <1>   0.1500 
 42 H       -7.8700    -2.7360     0.6990 H     1 <1>   0.1500 
 43 H      -10.2020    -3.3310     1.1190 H     1 <1>   0.1500 
 44 H      -11.9920    -1.7640     0.5950 H     1 <1>   0.1500 
 45 H      -13.1730     0.2650     0.7190 H     1 <1>   0.0800 
 46 H      -13.2270    -0.4060    -0.9160 H     1 <1>   0.0800 
 47 H      -13.4440     2.5440    -0.2140 H     1 <1>   0.0800 
 48 H      -14.7810     1.5320    -0.7040 H     1 <1>   0.0800 
 49 H      -13.4970     1.8770    -1.8380 H     1 <1>   0.0800 
@<TRIPOS>BOND
  1   1   2  2   
  2   1   3  2   
  3   1   4  am  
  4   1   5  1   
  5   4   6  1   
  6   4   7  1   
  7   5   8  ar  
  8   5   9  ar  
  9   6  10  1   
 10   6  28  1   
 11   6  29  1   
 12   7  11  1   
 13   7  30  1   
 14   7  31  1   
 15   8  12  ar  
 16   8  32  1   
 17   9  13  ar  
 18   9  33  1   
 19  10  14  1   
 20  10  34  1   
 21  10  35  1   
 22  11  14  1   
 23  11  36  1   
 24  11  37  1   
 25  12  15  ar  
 26  12  38  1   
 27  13  15  ar  
 28  13  39  1   
 29  15  16  1   
 30  16  17  am  
 31  16  40  1   
 32  17  18  2   
 33  17  19  1   
 34  19  20  ar  
 35  19  21  ar  
 36  20  22  ar  
 37  20  41  1   
 38  21  23  ar  
 39  21  42  1   
 40  22  24  1   
 41  22  25  ar  
 42  23  25  ar  
 43  23  43  1   
 44  24  26  1   
 45  25  44  1   
 46  26  27  1   
 47  26  45  1   
 48  26  46  1   
 49  27  47  1   
 50  27  48  1   
 51  27  49  1   
@<TRIPOS>SUBSTRUCTURE
  1 ****  15 GROUP 4 **** **** 0

# MOE 2024.06 (io_trps.svl 2023.06)
