@<TRIPOS>MOLECULE
NONAME
49 52 1 0 0 
SMALL
USER_CHARGES


@<TRIPOS>ATOM
  1 O        0.8300    -2.9340    -2.0790 O.2   1 <1>  -0.5700 
  2 C        1.0330    -3.5400    -1.0560 C.2   1 <1>   0.5690 
  3 N        0.0220    -4.0410    -0.2970 N.am  1 <1>  -0.7300 
  4 C        2.4930    -3.6930    -0.5990 C.3   1 <1>   0.4040 
  5 C       -1.4180    -3.9330    -0.6300 C.3   1 <1>   0.2200 
  6 N        3.0750    -2.4590     0.0620 N.4   1 <1>  -0.9590 
  7 C       -2.1540    -3.1180     0.4560 C.3   1 <1>  -0.0800 
  8 C       -2.0460    -5.3400    -0.7310 C.3   1 <1>  -0.0800 
  9 C        3.0540    -1.2950    -0.8800 C.3   1 <1>   0.3430 
 10 C        4.4450    -2.7190     0.5900 C.3   1 <1>   0.3430 
 11 C       -2.1050    -3.8450     1.8200 C.3   1 <1>  -0.1600 
 12 C       -3.6300    -2.9670     0.0340 C.3   1 <1>  -0.1600 
 13 C       -1.9990    -6.0670     0.6340 C.3   1 <1>  -0.1600 
 14 C       -3.5230    -5.1850    -1.1500 C.3   1 <1>  -0.1600 
 15 C        3.5370    -0.0370    -0.1570 C.3   1 <1>  -0.1600 
 16 C        4.9480    -1.4880     1.3460 C.3   1 <1>  -0.1600 
 17 C       -2.7480    -5.2400     1.6970 C.3   1 <1>  -0.0800 
 18 C       -4.2860    -4.3550    -0.0990 C.3   1 <1>  -0.0800 
 19 C        4.9260    -0.2330     0.4650 C.3   1 <1>  -0.1600 
 20 C       -4.2150    -5.0770     1.2600 C.3   1 <1>  -0.1600 
 21 H        0.1780    -4.5760     0.5580 H     1 <1>   0.3700 
 22 H        3.0790    -3.9420    -1.4670 H     1 <1>   0.0800 
 23 H        2.5430    -4.5240     0.0820 H     1 <1>   0.0800 
 24 H       -1.5280    -3.4330    -1.5780 H     1 <1>   0.0800 
 25 H        2.4710    -2.2000     0.8530 H     1 <1>   0.4500 
 26 H       -1.7110    -2.1410     0.5350 H     1 <1>   0.0800 
 27 H       -1.5280    -5.9140    -1.4790 H     1 <1>   0.0800 
 28 H        2.0550    -1.1280    -1.2510 H     1 <1>   0.0800 
 29 H        3.6950    -1.4950    -1.7250 H     1 <1>   0.0800 
 30 H        5.1160    -2.9350    -0.2270 H     1 <1>   0.0800 
 31 H        4.4340    -3.5680     1.2550 H     1 <1>   0.0800 
 32 H       -1.0920    -3.9360     2.1660 H     1 <1>   0.0800 
 33 H       -2.6410    -3.2670     2.5540 H     1 <1>   0.0800 
 34 H       -3.6920    -2.4440    -0.9050 H     1 <1>   0.0800 
 35 H       -4.1620    -2.3820     0.7650 H     1 <1>   0.0800 
 36 H       -0.9830    -6.2310     0.9420 H     1 <1>   0.0800 
 37 H       -2.4620    -7.0340     0.5410 H     1 <1>   0.0800 
 38 H       -3.9790    -6.1540    -1.2500 H     1 <1>   0.0800 
 39 H       -3.5820    -4.6990    -2.1100 H     1 <1>   0.0800 
 40 H        2.8260     0.2310     0.6060 H     1 <1>   0.0800 
 41 H        3.5740     0.7780    -0.8590 H     1 <1>   0.0800 
 42 H        5.9560    -1.6690     1.6800 H     1 <1>   0.0800 
 43 H        4.3430    -1.3330     2.2230 H     1 <1>   0.0800 
 44 H       -2.7100    -5.7460     2.6480 H     1 <1>   0.0800 
 45 H       -5.3150    -4.2450    -0.3990 H     1 <1>   0.0800 
 46 H        5.1890     0.6320     1.0520 H     1 <1>   0.0800 
 47 H        5.6590    -0.3300    -0.3180 H     1 <1>   0.0800 
 48 H       -4.7570    -4.5130     2.0000 H     1 <1>   0.0800 
 49 H       -4.6830    -6.0430     1.1830 H     1 <1>   0.0800 
@<TRIPOS>BOND
  1   1   2  2   
  2   2   3  am  
  3   2   4  1   
  4   3   5  1   
  5   3  21  1   
  6   4   6  1   
  7   4  22  1   
  8   4  23  1   
  9   5   7  1   
 10   5   8  1   
 11   5  24  1   
 12   6   9  1   
 13   6  10  1   
 14   6  25  1   
 15   7  11  1   
 16   7  12  1   
 17   7  26  1   
 18   8  13  1   
 19   8  14  1   
 20   8  27  1   
 21   9  15  1   
 22   9  28  1   
 23   9  29  1   
 24  10  16  1   
 25  10  30  1   
 26  10  31  1   
 27  11  17  1   
 28  11  32  1   
 29  11  33  1   
 30  12  18  1   
 31  12  34  1   
 32  12  35  1   
 33  13  17  1   
 34  13  36  1   
 35  13  37  1   
 36  14  18  1   
 37  14  38  1   
 38  14  39  1   
 39  15  19  1   
 40  15  40  1   
 41  15  41  1   
 42  16  19  1   
 43  16  42  1   
 44  16  43  1   
 45  17  20  1   
 46  17  44  1   
 47  18  20  1   
 48  18  45  1   
 49  19  46  1   
 50  19  47  1   
 51  20  48  1   
 52  20  49  1   
@<TRIPOS>SUBSTRUCTURE
  1 ****   3 GROUP 4 **** **** 0

# MOE 2024.06 (io_trps.svl 2023.06)
