@<TRIPOS>MOLECULE
NONAME
44 44 1 0 0 
SMALL
USER_CHARGES


@<TRIPOS>ATOM
  1 S       -0.1330     1.8250    -0.5420 S.3   1 <1>  -0.4600 
  2 C       -0.9230     0.7480     0.6940 C.3   1 <1>   0.2140 
  3 C        1.1700     2.6680     0.4240 C.3   1 <1>   0.1310 
  4 C       -1.8050    -0.2710    -0.0140 C.ar  1 <1>  -0.1440 
  5 C        2.3110     1.7170     0.7510 C.2   1 <1>   0.5690 
  6 C       -2.7650     0.1340    -0.9290 C.ar  1 <1>  -0.1500 
  7 C       -1.6650    -1.6230     0.2640 C.ar  1 <1>  -0.1500 
  8 O        2.8010     1.7570     1.8530 O.2   1 <1>  -0.5700 
  9 N        2.7400     0.8590    -0.2090 N.am  1 <1>  -0.7300 
 10 C       -3.5700    -0.7980    -1.5620 C.ar  1 <1>  -0.1500 
 11 C       -2.4680    -2.5570    -0.3690 C.ar  1 <1>  -0.1500 
 12 C        3.8670    -0.0960    -0.0910 C.3   1 <1>   0.2200 
 13 C       -3.4210    -2.1440    -1.2820 C.ar  1 <1>  -0.1500 
 14 C        4.9780     0.3320    -1.0920 C.3   1 <1>  -0.0800 
 15 C        3.3740    -1.5650    -0.2840 C.3   1 <1>  -0.0800 
 16 C        6.2250    -0.5670    -1.0400 C.3   1 <1>  -0.2400 
 17 C        5.4350     1.7850    -0.8590 C.3   1 <1>  -0.2400 
 18 C        1.8550    -1.7740    -0.1300 C.3   1 <1>  -0.2400 
 19 C        4.0650    -2.5070     0.7200 C.3   1 <1>  -0.2400 
 20 H       -1.5040     1.3760     1.3440 H     1 <1>   0.0800 
 21 H       -0.1370     0.2690     1.2510 H     1 <1>   0.0800 
 22 H        0.7180     3.0440     1.3230 H     1 <1>   0.0800 
 23 H        1.5310     3.4840    -0.1730 H     1 <1>   0.0800 
 24 H       -2.8880     1.1790    -1.1560 H     1 <1>   0.1500 
 25 H       -0.9310    -1.9590     0.9750 H     1 <1>   0.1500 
 26 H        2.2050     0.7980    -1.0780 H     1 <1>   0.3700 
 27 H       -4.3090    -0.4730    -2.2730 H     1 <1>   0.1500 
 28 H       -2.3510    -3.6030    -0.1490 H     1 <1>   0.1500 
 29 H        4.2680    -0.0050     0.9060 H     1 <1>   0.0800 
 30 H       -4.0460    -2.8690    -1.7750 H     1 <1>   0.1500 
 31 H        4.5730     0.2650    -2.0880 H     1 <1>   0.0800 
 32 H        3.6370    -1.8860    -1.2770 H     1 <1>   0.0800 
 33 H        6.6350    -0.5840    -0.0450 H     1 <1>   0.0800 
 34 H        6.9800    -0.1990    -1.7120 H     1 <1>   0.0800 
 35 H        5.9910    -1.5720    -1.3400 H     1 <1>   0.0800 
 36 H        5.7840     1.9100     0.1510 H     1 <1>   0.0800 
 37 H        4.6280     2.4750    -1.0270 H     1 <1>   0.0800 
 38 H        6.2310     2.0450    -1.5340 H     1 <1>   0.0800 
 39 H        1.5310    -1.4420     0.8400 H     1 <1>   0.0800 
 40 H        1.6050    -2.8150    -0.2360 H     1 <1>   0.0800 
 41 H        1.3110    -1.2330    -0.8850 H     1 <1>   0.0800 
 42 H        3.7820    -2.2510     1.7260 H     1 <1>   0.0800 
 43 H        5.1350    -2.4450     0.6470 H     1 <1>   0.0800 
 44 H        3.7800    -3.5270     0.5340 H     1 <1>   0.0800 
@<TRIPOS>BOND
  1   1   2  1   
  2   1   3  1   
  3   2   4  1   
  4   2  20  1   
  5   2  21  1   
  6   3   5  1   
  7   3  22  1   
  8   3  23  1   
  9   4   6  ar  
 10   4   7  ar  
 11   5   8  2   
 12   5   9  am  
 13   6  10  ar  
 14   6  24  1   
 15   7  11  ar  
 16   7  25  1   
 17   9  12  1   
 18   9  26  1   
 19  10  13  ar  
 20  10  27  1   
 21  11  13  ar  
 22  11  28  1   
 23  12  14  1   
 24  12  15  1   
 25  12  29  1   
 26  13  30  1   
 27  14  16  1   
 28  14  17  1   
 29  14  31  1   
 30  15  18  1   
 31  15  19  1   
 32  15  32  1   
 33  16  33  1   
 34  16  34  1   
 35  16  35  1   
 36  17  36  1   
 37  17  37  1   
 38  17  38  1   
 39  18  39  1   
 40  18  40  1   
 41  18  41  1   
 42  19  42  1   
 43  19  43  1   
 44  19  44  1   
@<TRIPOS>SUBSTRUCTURE
  1 ****  18 GROUP 4 **** **** 0

# MOE 2024.06 (io_trps.svl 2023.06)
