@<TRIPOS>MOLECULE
NONAME
43 46 1 0 0 
SMALL
USER_CHARGES


@<TRIPOS>ATOM
  1 CL       0.0410    -1.2260    -2.5230 Cl    1 <1>  -0.1770 
  2 C       -0.6820    -1.6920    -0.9960 C.ar  1 <1>   0.1770 
  3 C        0.1420    -1.9880     0.0850 C.ar  1 <1>   0.1170 
  4 C       -2.0590    -1.7520    -0.9160 C.ar  1 <1>  -0.1500 
  5 N        1.5410    -1.9060    -0.0700 N.am  1 <1>  -0.5470 
  6 C       -0.4880    -2.3510     1.2700 C.ar  1 <1>  -0.1500 
  7 C       -2.6870    -2.1160     0.2700 C.ar  1 <1>  -0.1440 
  8 C        2.5800    -2.1290     0.7860 C.2   1 <1>   0.5690 
  9 C       -1.8690    -2.4140     1.3590 C.ar  1 <1>  -0.1500 
 10 C       -4.2310    -2.1740     0.3290 C.3   1 <1>   0.1440 
 11 O        2.4580    -2.4690     1.9350 O.2   1 <1>  -0.5700 
 12 C        3.9720    -1.9330     0.2400 C.3   1 <1>  -0.1790 
 13 C       -4.7580    -3.1950    -0.7070 C.3   1 <1>  -0.1600 
 14 C       -4.8220    -0.7810     0.0000 C.3   1 <1>  -0.1600 
 15 C       -4.7720    -2.5950     1.7200 C.3   1 <1>  -0.1600 
 16 C       -6.2990    -3.2390    -0.7100 C.3   1 <1>  -0.0800 
 17 C       -6.3620    -0.8170    -0.0010 C.3   1 <1>  -0.0800 
 18 C       -6.3120    -2.6400     1.7360 C.3   1 <1>  -0.0800 
 19 C       -6.8440    -1.8390    -1.0480 C.3   1 <1>  -0.1600 
 20 C       -6.7970    -3.6540     0.6850 C.3   1 <1>  -0.1600 
 21 C       -6.8600    -1.2450     1.3910 C.3   1 <1>  -0.1600 
 22 H       -2.6300    -1.5100    -1.7930 H     1 <1>   0.1500 
 23 H        1.8210    -1.6230    -1.0100 H     1 <1>   0.3700 
 24 H        0.0920    -2.5910     2.1410 H     1 <1>   0.1500 
 25 H       -2.2840    -2.7020     2.3070 H     1 <1>   0.1500 
 26 H        4.1400    -2.6030    -0.5810 H     1 <1>   0.0800 
 27 H        4.6940    -2.1390     1.0090 H     1 <1>   0.0800 
 28 H        4.0950    -0.9180    -0.0880 H     1 <1>   0.0800 
 29 H       -4.3680    -4.1710    -0.4780 H     1 <1>   0.0800 
 30 H       -4.4200    -2.9370    -1.6940 H     1 <1>   0.0800 
 31 H       -4.4850    -0.4500    -0.9650 H     1 <1>   0.0800 
 32 H       -4.4750    -0.0660     0.7250 H     1 <1>   0.0800 
 33 H       -4.4370    -1.8980     2.4670 H     1 <1>   0.0800 
 34 H       -4.3940    -3.5690     1.9770 H     1 <1>   0.0800 
 35 H       -6.6410    -3.9490    -1.4440 H     1 <1>   0.0800 
 36 H       -6.7480     0.1590    -0.2400 H     1 <1>   0.0800 
 37 H       -6.6570    -2.9360     2.7120 H     1 <1>   0.0800 
 38 H       -7.9200    -1.8620    -1.0640 H     1 <1>   0.0800 
 39 H       -6.5100    -1.5430    -2.0270 H     1 <1>   0.0800 
 40 H       -7.8720    -3.6980     0.6900 H     1 <1>   0.0800 
 41 H       -6.4290    -4.6360     0.9270 H     1 <1>   0.0800 
 42 H       -7.9360    -1.2630     1.4040 H     1 <1>   0.0800 
 43 H       -6.5360    -0.5320     2.1290 H     1 <1>   0.0800 
@<TRIPOS>BOND
  1   1   2  1   
  2   2   3  ar  
  3   2   4  ar  
  4   3   5  1   
  5   3   6  ar  
  6   4   7  ar  
  7   4  22  1   
  8   5   8  am  
  9   5  23  1   
 10   6   9  ar  
 11   6  24  1   
 12   7   9  ar  
 13   7  10  1   
 14   8  11  2   
 15   8  12  1   
 16   9  25  1   
 17  10  13  1   
 18  10  14  1   
 19  10  15  1   
 20  12  26  1   
 21  12  27  1   
 22  12  28  1   
 23  13  16  1   
 24  13  29  1   
 25  13  30  1   
 26  14  17  1   
 27  14  31  1   
 28  14  32  1   
 29  15  18  1   
 30  15  33  1   
 31  15  34  1   
 32  16  19  1   
 33  16  20  1   
 34  16  35  1   
 35  17  19  1   
 36  17  21  1   
 37  17  36  1   
 38  18  20  1   
 39  18  21  1   
 40  18  37  1   
 41  19  38  1   
 42  19  39  1   
 43  20  40  1   
 44  20  41  1   
 45  21  42  1   
 46  21  43  1   
@<TRIPOS>SUBSTRUCTURE
  1 ****   7 GROUP 4 **** **** 0

# MOE 2024.06 (io_trps.svl 2023.06)
