@<TRIPOS>MOLECULE
NONAME
54 55 1 0 0 
SMALL
USER_CHARGES


@<TRIPOS>ATOM
  1 O       -9.2060    -1.0740    -0.4070 O.3   1 <1>  -0.3630 
  2 C      -10.5500    -1.2220    -0.3200 C.ar  1 <1>   0.0830 
  3 C       -8.3850    -1.7730     0.5080 C.3   1 <1>   0.1200 
  4 C      -11.3960    -0.1120    -0.1590 C.ar  1 <1>  -0.1440 
  5 C      -11.0680    -2.5090    -0.4170 C.ar  1 <1>  -0.1500 
  6 C       -6.9260    -1.5570     0.0960 C.3   1 <1>   0.2000 
  7 C      -12.7630    -0.3750    -0.0630 C.ar  1 <1>  -0.1500 
  8 C      -10.8680     1.3500    -0.0880 C.3   1 <1>   0.1440 
  9 C      -12.4250    -2.7310    -0.3200 C.ar  1 <1>  -0.1500 
 10 O       -6.0760    -1.9950     1.1180 O.3   1 <1>  -0.6800 
 11 C       -6.6360    -0.0680    -0.1960 C.3   1 <1>   0.3430 
 12 C      -13.2730    -1.6590    -0.1370 C.ar  1 <1>  -0.1500 
 13 C      -10.0670     1.7050    -1.3530 C.3   1 <1>  -0.2400 
 14 C      -11.9910     2.4020     0.0060 C.3   1 <1>  -0.2400 
 15 C       -9.9990     1.5420     1.1650 C.3   1 <1>  -0.2400 
 16 N       -5.1740     0.2260    -0.0880 N.4   1 <1>  -0.9590 
 17 C       -4.9150     1.6440     0.2770 C.3   1 <1>   0.3430 
 18 C       -4.4160    -0.2070    -1.2950 C.3   1 <1>   0.3430 
 19 C       -3.4230     1.8410     0.5480 C.3   1 <1>  -0.1600 
 20 C       -2.9170    -0.0380    -1.0470 C.3   1 <1>  -0.1600 
 21 C       -2.5660     1.4030    -0.6490 C.3   1 <1>  -0.0800 
 22 C       -1.0740     1.5240    -0.3180 C.3   1 <1>  -0.2400 
 23 H       -8.6280    -2.8190     0.4820 H     1 <1>   0.0800 
 24 H       -8.5780    -1.3750     1.4900 H     1 <1>   0.0800 
 25 H      -10.4210    -3.3490    -0.5820 H     1 <1>   0.1500 
 26 H       -6.7170    -2.1460    -0.7800 H     1 <1>   0.0800 
 27 H      -13.4850     0.4070     0.0720 H     1 <1>   0.1500 
 28 H      -12.8220    -3.7290    -0.3910 H     1 <1>   0.1500 
 29 H       -6.2460    -2.9360     1.3420 H     1 <1>   0.4000 
 30 H       -7.1690     0.5170     0.5340 H     1 <1>   0.0800 
 31 H       -7.0160     0.2000    -1.1680 H     1 <1>   0.0800 
 32 H      -14.3340    -1.8220    -0.0580 H     1 <1>   0.1500 
 33 H      -10.6740     1.5310    -2.2240 H     1 <1>   0.0800 
 34 H       -9.1770     1.1180    -1.4460 H     1 <1>   0.0800 
 35 H       -9.7770     2.7410    -1.3430 H     1 <1>   0.0800 
 36 H      -12.5690     2.2660     0.9030 H     1 <1>   0.0800 
 37 H      -12.6440     2.3360    -0.8460 H     1 <1>   0.0800 
 38 H      -11.5840     3.3970     0.0310 H     1 <1>   0.0800 
 39 H       -9.1330     0.9180     1.1420 H     1 <1>   0.0800 
 40 H      -10.5690     1.2910     2.0430 H     1 <1>   0.0800 
 41 H       -9.6750     2.5640     1.2510 H     1 <1>   0.0800 
 42 H       -4.8630    -0.3770     0.6960 H     1 <1>   0.4500 
 43 H       -5.4760     1.9070     1.1600 H     1 <1>   0.0800 
 44 H       -5.2230     2.2900    -0.5290 H     1 <1>   0.0800 
 45 H       -4.7100     0.3890    -2.1430 H     1 <1>   0.0800 
 46 H       -4.6270    -1.2410    -1.5130 H     1 <1>   0.0800 
 47 H       -3.1470     1.2840     1.4270 H     1 <1>   0.0800 
 48 H       -3.2420     2.8820     0.7560 H     1 <1>   0.0800 
 49 H       -2.3840    -0.3010    -1.9440 H     1 <1>   0.0800 
 50 H       -2.6080    -0.7230    -0.2760 H     1 <1>   0.0800 
 51 H       -2.7780     2.0540    -1.4830 H     1 <1>   0.0800 
 52 H       -0.8100     0.8910     0.5120 H     1 <1>   0.0800 
 53 H       -0.8270     2.5400    -0.0630 H     1 <1>   0.0800 
 54 H       -0.4770     1.2390    -1.1670 H     1 <1>   0.0800 
@<TRIPOS>BOND
  1   1   2  1   
  2   1   3  1   
  3   2   4  ar  
  4   2   5  ar  
  5   3   6  1   
  6   3  23  1   
  7   3  24  1   
  8   4   7  ar  
  9   4   8  1   
 10   5   9  ar  
 11   5  25  1   
 12   6  10  1   
 13   6  11  1   
 14   6  26  1   
 15   7  12  ar  
 16   7  27  1   
 17   8  13  1   
 18   8  14  1   
 19   8  15  1   
 20   9  12  ar  
 21   9  28  1   
 22  10  29  1   
 23  11  16  1   
 24  11  30  1   
 25  11  31  1   
 26  12  32  1   
 27  13  33  1   
 28  13  34  1   
 29  13  35  1   
 30  14  36  1   
 31  14  37  1   
 32  14  38  1   
 33  15  39  1   
 34  15  40  1   
 35  15  41  1   
 36  16  17  1   
 37  16  18  1   
 38  16  42  1   
 39  17  19  1   
 40  17  43  1   
 41  17  44  1   
 42  18  20  1   
 43  18  45  1   
 44  18  46  1   
 45  19  21  1   
 46  19  47  1   
 47  19  48  1   
 48  20  21  1   
 49  20  49  1   
 50  20  50  1   
 51  21  22  1   
 52  21  51  1   
 53  22  52  1   
 54  22  53  1   
 55  22  54  1   
@<TRIPOS>SUBSTRUCTURE
  1 ****  11 GROUP 4 **** **** 0

# MOE 2024.06 (io_trps.svl 2023.06)
