@<TRIPOS>MOLECULE
NONAME
46 48 1 0 0 
SMALL
USER_CHARGES


@<TRIPOS>ATOM
  1 O        0.1380    -0.0560     0.9200 O.2   1 <1>  -0.5700 
  2 C        0.9710     0.7530     0.5710 C.2   1 <1>   0.5690 
  3 N        0.7640     2.1190     0.6940 N.am  1 <1>  -0.1200 
  4 C        2.3240     0.2730    -0.0220 C.3   1 <1>   0.0610 
  5 N       -0.5980     2.6270     0.8510 N.am  1 <1>  -0.4300 
  6 C        1.8040     3.0170     0.5370 C.2   1 <1>   0.5690 
  7 C        3.4670     1.1360     0.5850 C.3   1 <1>   0.0000 
  8 C        2.3290     0.6840    -1.5130 C.3   1 <1>  -0.1600 
  9 C        2.5310    -1.2520     0.1310 C.3   1 <1>  -0.2400 
 10 C       -1.4280     2.8990    -0.1970 C.2   1 <1>   0.5440 
 11 O        1.7320     4.1820     0.8560 O.2   1 <1>  -0.5700 
 12 C        3.1080     2.4900    -0.0620 C.3   1 <1>  -0.0190 
 13 C        3.4920     1.1740     2.1320 C.3   1 <1>  -0.2400 
 14 C        4.8870     0.6930     0.1490 C.3   1 <1>  -0.2400 
 15 C        2.8390     2.1350    -1.5380 C.3   1 <1>  -0.1600 
 16 O       -1.0370     2.6710    -1.3310 O.2   1 <1>  -0.5700 
 17 C       -2.7530     3.4340     0.0360 C.ar  1 <1>   0.0860 
 18 C       -3.8280     3.0570    -0.7710 C.ar  1 <1>  -0.1500 
 19 C       -3.0130     4.3410     1.0670 C.ar  1 <1>  -0.1500 
 20 C       -5.1050     3.5410    -0.5550 C.ar  1 <1>  -0.1500 
 21 C       -4.2870     4.8280     1.2900 C.ar  1 <1>  -0.1500 
 22 C       -5.3440     4.4330     0.4870 C.ar  1 <1>   0.0820 
 23 O       -6.5590     4.9520     0.7720 O.3   1 <1>  -0.3630 
 24 C       -7.7010     4.6280     0.0120 C.3   1 <1>   0.0400 
 25 H       -0.9350     2.7190     1.8090 H     1 <1>   0.3700 
 26 H        1.3430     0.6080    -1.9440 H     1 <1>   0.0800 
 27 H        2.9920     0.0580    -2.0840 H     1 <1>   0.0800 
 28 H        3.4410    -1.5780    -0.3370 H     1 <1>   0.0800 
 29 H        1.7140    -1.7800    -0.3290 H     1 <1>   0.0800 
 30 H        2.5590    -1.5220     1.1720 H     1 <1>   0.0800 
 31 H        3.8870     3.2240     0.0450 H     1 <1>   0.0800 
 32 H        4.2400     1.8700     2.4710 H     1 <1>   0.0800 
 33 H        2.5580     1.4640     2.5760 H     1 <1>   0.0800 
 34 H        3.7430     0.2040     2.5230 H     1 <1>   0.0800 
 35 H        4.9780     0.5670    -0.9140 H     1 <1>   0.0800 
 36 H        5.1530    -0.2410     0.6120 H     1 <1>   0.0800 
 37 H        5.6130     1.4260     0.4550 H     1 <1>   0.0800 
 38 H        2.1150     2.8010    -1.9810 H     1 <1>   0.0800 
 39 H        3.7490     2.1980    -2.1100 H     1 <1>   0.0800 
 40 H       -3.6490     2.3690    -1.5800 H     1 <1>   0.1500 
 41 H       -2.2080     4.6790     1.6970 H     1 <1>   0.1500 
 42 H       -5.8970     3.2170    -1.2020 H     1 <1>   0.1500 
 43 H       -4.4740     5.5250     2.0880 H     1 <1>   0.1500 
 44 H       -8.5390     5.1600     0.4250 H     1 <1>   0.0800 
 45 H       -7.8730     3.5680     0.0750 H     1 <1>   0.0800 
 46 H       -7.5410     4.9330    -1.0070 H     1 <1>   0.0800 
@<TRIPOS>BOND
  1   1   2  2   
  2   2   3  am  
  3   2   4  1   
  4   3   5  1   
  5   3   6  am  
  6   4   7  1   
  7   4   8  1   
  8   4   9  1   
  9   5  10  am  
 10   5  25  1   
 11   6  11  2   
 12   6  12  1   
 13   7  12  1   
 14   7  13  1   
 15   7  14  1   
 16   8  15  1   
 17   8  26  1   
 18   8  27  1   
 19   9  28  1   
 20   9  29  1   
 21   9  30  1   
 22  10  16  2   
 23  10  17  1   
 24  12  15  1   
 25  12  31  1   
 26  13  32  1   
 27  13  33  1   
 28  13  34  1   
 29  14  35  1   
 30  14  36  1   
 31  14  37  1   
 32  15  38  1   
 33  15  39  1   
 34  17  18  ar  
 35  17  19  ar  
 36  18  20  ar  
 37  18  40  1   
 38  19  21  ar  
 39  19  41  1   
 40  20  22  ar  
 41  20  42  1   
 42  21  22  ar  
 43  21  43  1   
 44  22  23  1   
 45  23  24  1   
 46  24  44  1   
 47  24  45  1   
 48  24  46  1   
@<TRIPOS>SUBSTRUCTURE
  1 ****   5 GROUP 4 **** **** 0

# MOE 2024.06 (io_trps.svl 2023.06)
