@<TRIPOS>MOLECULE
NONAME
35 35 1 0 0 
SMALL
USER_CHARGES


@<TRIPOS>ATOM
  1 BR       1.8090     2.4460     0.9050 Br    1 <1>  -0.1110 
  2 C        2.7340     0.8080     0.5020 C.ar  1 <1>   0.1110 
  3 C        2.6060     0.2650    -0.7620 C.ar  1 <1>  -0.1500 
  4 C        3.5020     0.2160     1.4850 C.ar  1 <1>  -0.1500 
  5 C        3.2700    -0.9170    -1.0450 C.ar  1 <1>  -0.1500 
  6 C        4.1620    -0.9640     1.1890 C.ar  1 <1>  -0.1500 
  7 C        4.0450    -1.5370    -0.0720 C.ar  1 <1>  -0.1430 
  8 C        4.7680    -2.8470    -0.3830 C.3   1 <1>   0.0440 
  9 C        4.5310    -3.9370     0.6550 C.2   1 <1>   0.5690 
 10 O        5.4830    -4.4120     1.2220 O.2   1 <1>  -0.5700 
 11 N        3.2890    -4.3880     0.9550 N.am  1 <1>  -0.7300 
 12 C        1.9860    -3.8840     0.4760 C.3   1 <1>   0.1400 
 13 C        0.9620    -5.0140     0.5280 C.3   1 <1>  -0.1600 
 14 C       -0.4030    -4.5270     0.0470 C.3   1 <1>   0.1200 
 15 O       -1.2780    -5.6000     0.1180 O.3   1 <1>  -0.5600 
 16 C       -2.5720    -5.3050    -0.2850 C.3   1 <1>   0.1200 
 17 C       -3.3960    -6.5790    -0.1510 C.3   1 <1>  -0.2400 
 18 H        2.0020     0.7570    -1.5030 H     1 <1>   0.1500 
 19 H        3.5830     0.6690     2.4570 H     1 <1>   0.1500 
 20 H        3.1800    -1.3470    -2.0280 H     1 <1>   0.1500 
 21 H        4.7670    -1.4370     1.9450 H     1 <1>   0.1500 
 22 H        5.8230    -2.6510    -0.4380 H     1 <1>   0.0800 
 23 H        4.4620    -3.2270    -1.3390 H     1 <1>   0.0800 
 24 H        3.2490    -5.1070     1.6810 H     1 <1>   0.3700 
 25 H        2.0800    -3.5230    -0.5330 H     1 <1>   0.0800 
 26 H        1.6720    -3.0690     1.1070 H     1 <1>   0.0800 
 27 H        0.8660    -5.3680     1.5390 H     1 <1>   0.0800 
 28 H        1.2870    -5.8210    -0.1050 H     1 <1>   0.0800 
 29 H       -0.3510    -4.1910    -0.9750 H     1 <1>   0.0800 
 30 H       -0.7720    -3.7370     0.6800 H     1 <1>   0.0800 
 31 H       -2.5510    -4.9730    -1.3100 H     1 <1>   0.0800 
 32 H       -2.9670    -4.5290     0.3490 H     1 <1>   0.0800 
 33 H       -2.9840    -7.3510    -0.7760 H     1 <1>   0.0800 
 34 H       -4.4090    -6.3930    -0.4560 H     1 <1>   0.0800 
 35 H       -3.3980    -6.9100     0.8720 H     1 <1>   0.0800 
@<TRIPOS>BOND
  1   1   2  1   
  2   2   3  ar  
  3   2   4  ar  
  4   3   5  ar  
  5   3  18  1   
  6   4   6  ar  
  7   4  19  1   
  8   5   7  ar  
  9   5  20  1   
 10   6   7  ar  
 11   6  21  1   
 12   7   8  1   
 13   8   9  1   
 14   8  22  1   
 15   8  23  1   
 16   9  10  2   
 17   9  11  am  
 18  11  12  1   
 19  11  24  1   
 20  12  13  1   
 21  12  25  1   
 22  12  26  1   
 23  13  14  1   
 24  13  27  1   
 25  13  28  1   
 26  14  15  1   
 27  14  29  1   
 28  14  30  1   
 29  15  16  1   
 30  16  17  1   
 31  16  31  1   
 32  16  32  1   
 33  17  33  1   
 34  17  34  1   
 35  17  35  1   
@<TRIPOS>SUBSTRUCTURE
  1 ****  12 GROUP 4 **** **** 0

# MOE 2024.06 (io_trps.svl 2023.06)
