@<TRIPOS>MOLECULE
NONAME
53 55 1 0 0 
SMALL
USER_CHARGES


@<TRIPOS>ATOM
  1 O       -0.6410    -0.2320    -0.4210 O.3   1 <1>  -0.3630 
  2 C       -1.7970    -0.7660     0.0410 C.ar  1 <1>   0.0830 
  3 C        0.2250    -0.9560    -1.2640 C.3   1 <1>   0.1200 
  4 C       -2.5190     0.0010     0.9400 C.ar  1 <1>  -0.1500 
  5 C       -2.2810    -2.0160    -0.3320 C.ar  1 <1>  -0.1500 
  6 C        1.4420    -0.0820    -1.5520 C.3   1 <1>  -0.2400 
  7 C       -3.7130    -0.4630     1.4620 C.ar  1 <1>  -0.1500 
  8 C       -3.4760    -2.4810     0.1890 C.ar  1 <1>  -0.1500 
  9 C       -4.2030    -1.7060     1.0830 C.ar  1 <1>  -0.1430 
 10 C       -5.5230    -2.2030     1.6390 C.3   1 <1>   0.4860 
 11 N       -6.5650    -2.0680     0.5860 N.4   1 <1>  -0.9590 
 12 C       -6.7550    -0.6290     0.1640 C.3   1 <1>   0.3430 
 13 C       -7.8740    -2.6850     1.0100 C.3   1 <1>   0.3430 
 14 C       -7.8360    -0.4560    -0.9240 C.3   1 <1>   0.2090 
 15 C       -8.9580    -2.5820    -0.0830 C.3   1 <1>   0.2090 
 16 N       -9.0940    -1.1840    -0.5810 N.pl3 1 <1>  -0.8380 
 17 C      -10.2020    -0.4570    -0.1420 C.ar  1 <1>   0.1000 
 18 C      -11.4200    -0.4960    -0.8310 C.ar  1 <1>  -0.1430 
 19 C      -10.1020     0.3040     1.0170 C.ar  1 <1>  -0.1500 
 20 C      -12.5160     0.2060    -0.3350 C.ar  1 <1>  -0.1430 
 21 C      -11.5450    -1.3070    -2.1220 C.3   1 <1>  -0.0970 
 22 C      -11.1850     1.0090     1.4980 C.ar  1 <1>  -0.1500 
 23 C      -12.3890     0.9570     0.8230 C.ar  1 <1>  -0.1500 
 24 C      -13.8740     0.1830    -1.0250 C.3   1 <1>  -0.0970 
 25 H       -0.2990    -1.1880    -2.1750 H     1 <1>   0.0800 
 26 H        0.5180    -1.8600    -0.7580 H     1 <1>   0.0800 
 27 H       -2.1310     0.9630     1.2270 H     1 <1>   0.1500 
 28 H       -1.7370    -2.6350    -1.0220 H     1 <1>   0.1500 
 29 H        1.1380     0.8260    -2.0420 H     1 <1>   0.0800 
 30 H        2.1240    -0.6070    -2.1940 H     1 <1>   0.0800 
 31 H        1.9490     0.1580    -0.6350 H     1 <1>   0.0800 
 32 H       -4.2440     0.1560     2.1640 H     1 <1>   0.1500 
 33 H       -3.8240    -3.4560    -0.1110 H     1 <1>   0.1500 
 34 H       -5.7940    -1.6280     2.5090 H     1 <1>   0.0800 
 35 H       -5.4190    -3.2350     1.9310 H     1 <1>   0.0800 
 36 H       -6.2240    -2.5690    -0.2430 H     1 <1>   0.4500 
 37 H       -5.8260    -0.2280    -0.2080 H     1 <1>   0.0800 
 38 H       -7.0440    -0.0400     1.0180 H     1 <1>   0.0800 
 39 H       -8.2430    -2.1810     1.8880 H     1 <1>   0.0800 
 40 H       -7.7310    -3.7230     1.2600 H     1 <1>   0.0800 
 41 H       -7.4650    -0.8250    -1.8650 H     1 <1>   0.0800 
 42 H       -8.0530     0.5910    -1.0520 H     1 <1>   0.0800 
 43 H       -9.9020    -2.9110     0.3190 H     1 <1>   0.0800 
 44 H       -8.7120    -3.2280    -0.9070 H     1 <1>   0.0800 
 45 H       -9.1770     0.3460     1.5540 H     1 <1>   0.1500 
 46 H      -10.5940    -1.4240    -2.6070 H     1 <1>   0.0800 
 47 H      -12.1940    -0.8190    -2.8250 H     1 <1>   0.0800 
 48 H      -11.9400    -2.2810    -1.9000 H     1 <1>   0.0800 
 49 H      -11.1000     1.5970     2.3950 H     1 <1>   0.1500 
 50 H      -13.2290     1.5070     1.2090 H     1 <1>   0.1500 
 51 H      -14.1670    -0.8290    -1.2380 H     1 <1>   0.0800 
 52 H      -13.8270     0.7390    -1.9440 H     1 <1>   0.0800 
 53 H      -14.6320     0.6230    -0.4020 H     1 <1>   0.0800 
@<TRIPOS>BOND
  1   1   2  1   
  2   1   3  1   
  3   2   4  ar  
  4   2   5  ar  
  5   3   6  1   
  6   3  25  1   
  7   3  26  1   
  8   4   7  ar  
  9   4  27  1   
 10   5   8  ar  
 11   5  28  1   
 12   6  29  1   
 13   6  30  1   
 14   6  31  1   
 15   7   9  ar  
 16   7  32  1   
 17   8   9  ar  
 18   8  33  1   
 19   9  10  1   
 20  10  11  1   
 21  10  34  1   
 22  10  35  1   
 23  11  12  1   
 24  11  13  1   
 25  11  36  1   
 26  12  14  1   
 27  12  37  1   
 28  12  38  1   
 29  13  15  1   
 30  13  39  1   
 31  13  40  1   
 32  14  16  1   
 33  14  41  1   
 34  14  42  1   
 35  15  16  1   
 36  15  43  1   
 37  15  44  1   
 38  16  17  1   
 39  17  18  ar  
 40  17  19  ar  
 41  18  20  ar  
 42  18  21  1   
 43  19  22  ar  
 44  19  45  1   
 45  20  23  ar  
 46  20  24  1   
 47  21  46  1   
 48  21  47  1   
 49  21  48  1   
 50  22  23  ar  
 51  22  49  1   
 52  23  50  1   
 53  24  51  1   
 54  24  52  1   
 55  24  53  1   
@<TRIPOS>SUBSTRUCTURE
  1 ****  12 GROUP 4 **** **** 0

# MOE 2024.06 (io_trps.svl 2023.06)
