@<TRIPOS>MOLECULE
NONAME
36 37 1 0 0 
SMALL
USER_CHARGES


@<TRIPOS>ATOM
  1 O       -0.5330     1.4710     1.7880 O.2   1 <1>  -0.5700 
  2 C       -0.6960     2.0500     0.7460 C.2   1 <1>   0.5690 
  3 N       -1.8050     2.0130    -0.0620 N.am  1 <1>  -0.2370 
  4 C        0.3820     2.9400     0.1730 C.3   1 <1>  -0.0990 
  5 C       -2.9840     1.2770     0.2010 C.ar  1 <1>   0.1170 
  6 C       -1.5930     2.7980    -1.1670 C.2   1 <1>   0.5690 
  7 C       -0.2280     3.4450    -1.1390 C.3   1 <1>  -0.0990 
  8 C       -2.9270    -0.0310     0.6750 C.ar  1 <1>  -0.1500 
  9 C       -4.2420     1.8380    -0.0020 C.ar  1 <1>  -0.1500 
 10 O       -2.3530     2.9930    -2.0800 O.2   1 <1>  -0.5700 
 11 C       -4.0810    -0.7500     0.9250 C.ar  1 <1>  -0.1500 
 12 C       -5.3920     1.1120     0.2480 C.ar  1 <1>  -0.1500 
 13 C       -5.3400    -0.2000     0.7010 C.ar  1 <1>   0.0280 
 14 C       -6.5640    -0.9390     0.9280 C.2   1 <1>  -0.1780 
 15 O       -7.3680    -0.4200     1.7060 O.3   1 <1>  -0.8500 
 16 C       -6.8680    -2.1570     0.2860 C.2   1 <1>   0.0790 
 17 C       -5.9700    -2.6150    -0.7180 C.1   1 <1>   0.4920 
 18 C       -7.9800    -2.9930     0.5090 C.2   1 <1>   0.7060 
 19 N       -5.2550    -3.0190    -1.5170 N.1   1 <1>  -0.5570 
 20 O       -8.8710    -2.8740     1.3620 O.2   1 <1>  -0.5700 
 21 O       -8.1190    -4.0920    -0.2830 O.3   1 <1>  -0.4300 
 22 C       -9.2090    -4.9750    -0.1280 C.3   1 <1>   0.1200 
 23 C       -9.0690    -6.0830    -1.1660 C.3   1 <1>  -0.2400 
 24 H        1.2760     2.3670     0.0010 H     1 <1>   0.0800 
 25 H        0.5870     3.7480     0.8520 H     1 <1>   0.0800 
 26 H        0.3440     3.1260    -1.9920 H     1 <1>   0.0800 
 27 H       -0.3300     4.5150    -1.1440 H     1 <1>   0.0800 
 28 H       -1.9740    -0.4940     0.8560 H     1 <1>   0.1500 
 29 H       -4.3320     2.8480    -0.3570 H     1 <1>   0.1500 
 30 H       -4.0210    -1.7520     1.3060 H     1 <1>   0.1500 
 31 H       -6.3660     1.5440     0.1060 H     1 <1>   0.1500 
 32 H      -10.1200    -4.4190    -0.2730 H     1 <1>   0.0800 
 33 H       -9.1840    -5.3740     0.8730 H     1 <1>   0.0800 
 34 H       -9.0810    -5.6640    -2.1560 H     1 <1>   0.0800 
 35 H       -9.8870    -6.7730    -1.0730 H     1 <1>   0.0800 
 36 H       -8.1480    -6.6160    -1.0130 H     1 <1>   0.0800 
@<TRIPOS>BOND
  1   1   2  2   
  2   2   3  am  
  3   2   4  1   
  4   3   5  1   
  5   3   6  am  
  6   4   7  1   
  7   4  24  1   
  8   4  25  1   
  9   5   8  ar  
 10   5   9  ar  
 11   6   7  1   
 12   6  10  2   
 13   7  26  1   
 14   7  27  1   
 15   8  11  ar  
 16   8  28  1   
 17   9  12  ar  
 18   9  29  1   
 19  11  13  ar  
 20  11  30  1   
 21  12  13  ar  
 22  12  31  1   
 23  13  14  1   
 24  14  15  1   
 25  14  16  2   
 26  16  17  1   
 27  16  18  1   
 28  17  19  3   
 29  18  20  2   
 30  18  21  1   
 31  21  22  1   
 32  22  23  1   
 33  22  32  1   
 34  22  33  1   
 35  23  34  1   
 36  23  35  1   
 37  23  36  1   
@<TRIPOS>SUBSTRUCTURE
  1 ****  13 GROUP 4 **** **** 0

# MOE 2024.06 (io_trps.svl 2023.06)
