@<TRIPOS>MOLECULE
NONAME
43 44 1 0 0 
SMALL
USER_CHARGES


@<TRIPOS>ATOM
  1 CL       3.7850    -1.3830    -0.3930 Cl    1 <1>  -0.1770 
  2 C        2.5740    -2.6110    -0.1360 C.ar  1 <1>   0.1770 
  3 C        1.8270    -3.0620    -1.2060 C.ar  1 <1>  -0.1500 
  4 C        2.3830    -3.1240     1.1310 C.ar  1 <1>  -0.1500 
  5 C        0.8820    -4.0540    -0.9990 C.ar  1 <1>  -0.1500 
  6 C        1.4290    -4.1090     1.3240 C.ar  1 <1>  -0.1500 
  7 C        0.6660    -4.5960     0.2650 C.ar  1 <1>  -0.0090 
  8 S       -0.5710    -5.9060     0.5100 S.o2  1 <1>   1.4470 
  9 O       -0.8630    -6.0840     1.9150 O.2   1 <1>  -0.6500 
 10 O       -1.6710    -5.6470    -0.3950 O.2   1 <1>  -0.6500 
 11 N        0.1580    -7.3490    -0.0280 N.am  1 <1>  -0.8490 
 12 C        1.0960    -7.9230     0.9760 C.3   1 <1>   0.2570 
 13 C       -0.8490    -8.3540    -0.3870 C.3   1 <1>   0.1160 
 14 C        2.4120    -7.1570     1.1360 C.2   1 <1>   0.5690 
 15 O        2.7650    -6.8140     2.2400 O.2   1 <1>  -0.5700 
 16 N        3.1490    -6.8880     0.0260 N.am  1 <1>  -0.7300 
 17 C        4.3990    -6.1150     0.0060 C.3   1 <1>   0.2200 
 18 C        4.6100    -5.5470    -1.4010 C.3   1 <1>  -0.1600 
 19 C        5.5700    -7.0190     0.4080 C.3   1 <1>  -0.1600 
 20 C        5.9340    -4.7740    -1.4880 C.3   1 <1>  -0.1600 
 21 C        6.9050    -6.2640     0.3210 C.3   1 <1>  -0.1600 
 22 C        7.1170    -5.6610    -1.0750 C.3   1 <1>  -0.1600 
 23 H        1.9860    -2.6440    -2.1840 H     1 <1>   0.1500 
 24 H        2.9740    -2.7610     1.9540 H     1 <1>   0.1500 
 25 H        0.2980    -4.4130    -1.8310 H     1 <1>   0.1500 
 26 H        1.2820    -4.5120     2.3140 H     1 <1>   0.1500 
 27 H        1.3660    -8.9200     0.6760 H     1 <1>   0.0800 
 28 H        0.6190    -8.0030     1.9380 H     1 <1>   0.0800 
 29 H       -1.4730    -7.9860    -1.1850 H     1 <1>   0.0800 
 30 H       -1.4730    -8.5810     0.4620 H     1 <1>   0.0800 
 31 H       -0.3740    -9.2580    -0.7300 H     1 <1>   0.0800 
 32 H        2.7710    -7.1400    -0.8890 H     1 <1>   0.3700 
 33 H        4.3220    -5.3040     0.7120 H     1 <1>   0.0800 
 34 H        3.8010    -4.8890    -1.6510 H     1 <1>   0.0800 
 35 H        4.6300    -6.3520    -2.1150 H     1 <1>   0.0800 
 36 H        5.6050    -7.8750    -0.2420 H     1 <1>   0.0800 
 37 H        5.4240    -7.3620     1.4180 H     1 <1>   0.0800 
 38 H        5.8880    -3.9140    -0.8400 H     1 <1>   0.0800 
 39 H        6.0810    -4.4200    -2.4930 H     1 <1>   0.0800 
 40 H        7.7150    -6.9340     0.5530 H     1 <1>   0.0800 
 41 H        6.9130    -5.4740     1.0540 H     1 <1>   0.0800 
 42 H        8.0230    -5.0790    -1.0820 H     1 <1>   0.0800 
 43 H        7.2320    -6.4570    -1.7910 H     1 <1>   0.0800 
@<TRIPOS>BOND
  1   1   2  1   
  2   2   3  ar  
  3   2   4  ar  
  4   3   5  ar  
  5   3  23  1   
  6   4   6  ar  
  7   4  24  1   
  8   5   7  ar  
  9   5  25  1   
 10   6   7  ar  
 11   6  26  1   
 12   7   8  1   
 13   8   9  2   
 14   8  10  2   
 15   8  11  am  
 16  11  12  1   
 17  11  13  1   
 18  12  14  1   
 19  12  27  1   
 20  12  28  1   
 21  13  29  1   
 22  13  30  1   
 23  13  31  1   
 24  14  15  2   
 25  14  16  am  
 26  16  17  1   
 27  16  32  1   
 28  17  18  1   
 29  17  19  1   
 30  17  33  1   
 31  18  20  1   
 32  18  34  1   
 33  18  35  1   
 34  19  21  1   
 35  19  36  1   
 36  19  37  1   
 37  20  22  1   
 38  20  38  1   
 39  20  39  1   
 40  21  22  1   
 41  21  40  1   
 42  21  41  1   
 43  22  42  1   
 44  22  43  1   
@<TRIPOS>SUBSTRUCTURE
  1 ****  16 GROUP 4 **** **** 0

# MOE 2024.06 (io_trps.svl 2023.06)
