@<TRIPOS>MOLECULE
NONAME
42 44 1 0 0 
SMALL
USER_CHARGES


@<TRIPOS>ATOM
  1 N       -7.4650    -3.7600    -0.5020 N.pl3 1 <1>   0.3260 
  2 C       -7.7220    -5.1270    -0.2500 C.ar  1 <1>  -0.0230 
  3 C       -6.2430    -3.1420    -0.4450 C.2   1 <1>  -0.3320 
  4 C       -8.3640    -2.7980    -0.8510 C.2   1 <1>  -0.3020 
  5 C       -7.6470    -6.0590    -1.2790 C.ar  1 <1>  -0.1500 
  6 C       -8.0290    -5.5600     1.0350 C.ar  1 <1>  -0.1500 
  7 C       -6.3820    -1.8210    -0.7530 C.2   1 <1>  -0.1500 
  8 C       -5.0350    -3.9660    -0.0780 C.3   1 <1>   0.5230 
  9 C       -7.7390    -1.6050    -1.0110 C.2   1 <1>  -0.1500 
 10 C       -7.8570    -7.4020    -1.0240 C.ar  1 <1>  -0.1500 
 11 C       -8.2390    -6.9030     1.2900 C.ar  1 <1>  -0.1500 
 12 N       -3.8760    -3.0660    -0.0940 N.4   1 <1>  -0.9060 
 13 C       -8.1500    -7.8250     0.2610 C.ar  1 <1>  -0.1500 
 14 C       -2.6010    -3.6960     0.2840 C.3   1 <1>   0.4230 
 15 C       -1.5690    -2.5860     0.5040 C.3   1 <1>  -0.1600 
 16 C       -2.1430    -4.6660    -0.8160 C.3   1 <1>  -0.1600 
 17 C       -0.1870    -3.1700     0.8310 C.3   1 <1>  -0.1600 
 18 C       -0.7600    -5.2520    -0.4960 C.3   1 <1>  -0.1600 
 19 C        0.2740    -4.1440    -0.2600 C.3   1 <1>  -0.1600 
 20 H       -9.4100    -3.0260    -0.9650 H     1 <1>   0.1500 
 21 H       -7.4310    -5.7370    -2.2840 H     1 <1>   0.1500 
 22 H       -8.1100    -4.8480     1.8390 H     1 <1>   0.1500 
 23 H       -5.6490    -1.0330    -0.8090 H     1 <1>   0.1500 
 24 H       -4.9060    -4.7640    -0.7930 H     1 <1>   0.0800 
 25 H       -5.1670    -4.3960     0.9030 H     1 <1>   0.0800 
 26 H       -8.1810    -0.6600    -1.2840 H     1 <1>   0.1500 
 27 H       -7.8000    -8.1210    -1.8240 H     1 <1>   0.1500 
 28 H       -8.4770    -7.2350     2.2860 H     1 <1>   0.1500 
 29 H       -4.0890    -2.2940     0.5450 H     1 <1>   0.4500 
 30 H       -3.8060    -2.6620    -1.0320 H     1 <1>   0.4500 
 31 H       -8.3160    -8.8700     0.4590 H     1 <1>   0.1500 
 32 H       -2.7190    -4.2410     1.2080 H     1 <1>   0.0800 
 33 H       -1.8750    -1.9550     1.3200 H     1 <1>   0.0800 
 34 H       -1.4810    -1.9820    -0.3840 H     1 <1>   0.0800 
 35 H       -2.0840    -4.1500    -1.7590 H     1 <1>   0.0800 
 36 H       -2.8360    -5.4820    -0.9130 H     1 <1>   0.0800 
 37 H       -0.2220    -3.6850     1.7770 H     1 <1>   0.0800 
 38 H        0.5320    -2.3720     0.9230 H     1 <1>   0.0800 
 39 H       -0.4330    -5.8770    -1.3110 H     1 <1>   0.0800 
 40 H       -0.8220    -5.8730     0.3830 H     1 <1>   0.0800 
 41 H        1.2140    -4.5860     0.0280 H     1 <1>   0.0800 
 42 H        0.4390    -3.6050    -1.1780 H     1 <1>   0.0800 
@<TRIPOS>BOND
  1   1   2  1   
  2   1   3  1   
  3   1   4  1   
  4   2   5  ar  
  5   2   6  ar  
  6   3   7  2   
  7   3   8  1   
  8   4   9  2   
  9   4  20  1   
 10   5  10  ar  
 11   5  21  1   
 12   6  11  ar  
 13   6  22  1   
 14   7   9  1   
 15   7  23  1   
 16   8  12  1   
 17   8  24  1   
 18   8  25  1   
 19   9  26  1   
 20  10  13  ar  
 21  10  27  1   
 22  11  13  ar  
 23  11  28  1   
 24  12  14  1   
 25  12  29  1   
 26  12  30  1   
 27  13  31  1   
 28  14  15  1   
 29  14  16  1   
 30  14  32  1   
 31  15  17  1   
 32  15  33  1   
 33  15  34  1   
 34  16  18  1   
 35  16  35  1   
 36  16  36  1   
 37  17  19  1   
 38  17  37  1   
 39  17  38  1   
 40  18  19  1   
 41  18  39  1   
 42  18  40  1   
 43  19  41  1   
 44  19  42  1   
@<TRIPOS>SUBSTRUCTURE
  1 ****   8 GROUP 4 **** **** 0

# MOE 2024.06 (io_trps.svl 2023.06)
