@<TRIPOS>MOLECULE
NONAME
42 44 1 0 0 
SMALL
USER_CHARGES


@<TRIPOS>ATOM
  1 O        0.3560    -0.9430    -1.9230 O.2   1 <1>  -0.5700 
  2 C        0.8770    -1.4390    -0.9510 C.2   1 <1>   0.5690 
  3 N        0.1600    -2.0540     0.0620 N.am  1 <1>  -0.6600 
  4 C        2.4050    -1.3980    -0.9390 C.3   1 <1>   0.1810 
  5 C       -1.3340    -2.1080     0.1950 C.3   1 <1>   0.2200 
  6 C        0.8070    -2.9630     1.0530 C.3   1 <1>   0.1400 
  7 O        2.9090    -0.7780     0.2370 O.3   1 <1>  -0.3630 
  8 C       -1.7860    -3.5240    -0.1960 C.3   1 <1>  -0.1600 
  9 C       -2.1070    -1.0010    -0.5470 C.3   1 <1>  -0.1600 
 10 C        0.4120    -4.4070     0.7220 C.3   1 <1>  -0.1600 
 11 C        4.2450    -0.7100     0.4700 C.ar  1 <1>   0.0820 
 12 C       -1.1140    -4.5880     0.6900 C.3   1 <1>  -0.1600 
 13 C       -3.5590    -0.8470    -0.0680 C.3   1 <1>  -0.2400 
 14 C        5.2070    -1.1660    -0.4340 C.ar  1 <1>  -0.1500 
 15 C        4.6340    -0.1510     1.6860 C.ar  1 <1>  -0.1500 
 16 C        6.5340    -1.0460    -0.0730 C.ar  1 <1>   0.0820 
 17 C        5.9760    -0.0400     2.0280 C.ar  1 <1>  -0.1500 
 18 O        7.6150    -1.4120    -0.7700 O.3   1 <1>  -0.3630 
 19 C        6.9090    -0.5000     1.1210 C.ar  1 <1>   0.0820 
 20 C        8.7490    -1.0750     0.0270 C.3   1 <1>   0.4000 
 21 O        8.2430    -0.4990     1.2290 O.3   1 <1>  -0.3630 
 22 H        2.7500    -0.8310    -1.7850 H     1 <1>   0.0800 
 23 H        2.7890    -2.3980    -0.9940 H     1 <1>   0.0800 
 24 H       -1.5560    -1.9720     1.2400 H     1 <1>   0.0800 
 25 H        0.4680    -2.7060     2.0420 H     1 <1>   0.0800 
 26 H        1.8770    -2.8750     1.0470 H     1 <1>   0.0800 
 27 H       -1.5390    -3.6950    -1.2300 H     1 <1>   0.0800 
 28 H       -2.8510    -3.6150    -0.0950 H     1 <1>   0.0800 
 29 H       -2.1110    -1.2040    -1.6030 H     1 <1>   0.0800 
 30 H       -1.6040    -0.0630    -0.3840 H     1 <1>   0.0800 
 31 H        0.8380    -5.0710     1.4540 H     1 <1>   0.0800 
 32 H        0.8250    -4.6680    -0.2360 H     1 <1>   0.0800 
 33 H       -1.3580    -5.5720     0.3260 H     1 <1>   0.0800 
 34 H       -1.4990    -4.5020     1.6920 H     1 <1>   0.0800 
 35 H       -4.1340    -1.7290    -0.2860 H     1 <1>   0.0800 
 36 H       -4.0180    -0.0150    -0.5730 H     1 <1>   0.0800 
 37 H       -3.5900    -0.6610     0.9910 H     1 <1>   0.0800 
 38 H        4.9670    -1.5970    -1.3860 H     1 <1>   0.1500 
 39 H        3.8760     0.1970     2.3640 H     1 <1>   0.1500 
 40 H        6.2900     0.3890     2.9620 H     1 <1>   0.1500 
 41 H        9.3540    -0.3530    -0.4930 H     1 <1>   0.0800 
 42 H        9.3050    -1.9660     0.2600 H     1 <1>   0.0800 
@<TRIPOS>BOND
  1   1   2  2   
  2   2   3  am  
  3   2   4  1   
  4   3   5  1   
  5   3   6  1   
  6   4   7  1   
  7   4  22  1   
  8   4  23  1   
  9   5   8  1   
 10   5   9  1   
 11   5  24  1   
 12   6  10  1   
 13   6  25  1   
 14   6  26  1   
 15   7  11  1   
 16   8  12  1   
 17   8  27  1   
 18   8  28  1   
 19   9  13  1   
 20   9  29  1   
 21   9  30  1   
 22  10  12  1   
 23  10  31  1   
 24  10  32  1   
 25  11  14  ar  
 26  11  15  ar  
 27  12  33  1   
 28  12  34  1   
 29  13  35  1   
 30  13  36  1   
 31  13  37  1   
 32  14  16  ar  
 33  14  38  1   
 34  15  17  ar  
 35  15  39  1   
 36  16  18  1   
 37  16  19  ar  
 38  17  19  ar  
 39  17  40  1   
 40  18  20  1   
 41  19  21  1   
 42  20  21  1   
 43  20  41  1   
 44  20  42  1   
@<TRIPOS>SUBSTRUCTURE
  1 ****   7 GROUP 4 **** **** 0

# MOE 2024.06 (io_trps.svl 2023.06)
