@<TRIPOS>MOLECULE
NONAME
48 49 1 0 0 
SMALL
USER_CHARGES


@<TRIPOS>ATOM
  1 S        0.4640     0.0670    -1.2980 S.o2  1 <1>   1.4470 
  2 O        0.4020     1.2610    -0.4830 O.2   1 <1>  -0.6500 
  3 O        0.9660     0.1640    -2.6520 O.2   1 <1>  -0.6500 
  4 N        1.4700    -1.0200    -0.4790 N.am  1 <1>  -0.8490 
  5 C       -1.1400    -0.7830    -1.3100 C.ar  1 <1>  -0.0090 
  6 C        1.0990    -1.2230     0.9410 C.3   1 <1>   0.1960 
  7 C        2.8860    -0.6590    -0.6020 C.3   1 <1>   0.1960 
  8 C       -2.0510    -0.6130    -0.2800 C.ar  1 <1>  -0.1500 
  9 C       -1.4820    -1.6570    -2.3320 C.ar  1 <1>  -0.1500 
 10 C        2.2850    -1.6030     1.8650 C.3   1 <1>   0.2000 
 11 C        3.8120    -1.7170     0.0530 C.3   1 <1>   0.2000 
 12 C       -3.2790    -1.2770    -0.2190 C.ar  1 <1>   0.0860 
 13 C       -2.6900    -2.3260    -2.3220 C.ar  1 <1>  -0.1500 
 14 O        3.2410    -2.3440     1.1720 O.3   1 <1>  -0.5600 
 15 C        1.8420    -2.4450     3.0600 C.3   1 <1>  -0.2400 
 16 C        5.1540    -1.1280     0.4880 C.3   1 <1>  -0.2400 
 17 C       -3.5940    -2.1480    -1.2770 C.ar  1 <1>   0.0830 
 18 C       -4.1400    -1.0350     0.9300 C.2   1 <1>   0.5440 
 19 O       -4.7780    -2.8100    -1.2570 O.3   1 <1>  -0.3630 
 20 O       -3.6610    -0.6460     1.9800 O.2   1 <1>  -0.5700 
 21 N       -5.4910    -1.2160     0.8710 N.am  1 <1>  -0.7300 
 22 C       -5.1390    -3.7810    -2.2180 C.3   1 <1>   0.0400 
 23 C       -6.4510    -0.9810     1.9640 C.3   1 <1>   0.1400 
 24 C       -7.7300    -0.4070     1.3680 C.3   1 <1>  -0.2400 
 25 H        0.3560    -2.0010     0.9850 H     1 <1>   0.0800 
 26 H        0.6490    -0.3340     1.3500 H     1 <1>   0.0800 
 27 H        3.0490     0.3020    -0.1410 H     1 <1>   0.0800 
 28 H        3.1550    -0.5670    -1.6400 H     1 <1>   0.0800 
 29 H       -1.8000     0.0680     0.5170 H     1 <1>   0.1500 
 30 H       -0.7890    -1.8120    -3.1440 H     1 <1>   0.1500 
 31 H        2.7610    -0.7060     2.2240 H     1 <1>   0.0800 
 32 H        3.9930    -2.4970    -0.6660 H     1 <1>   0.0800 
 33 H       -2.9030    -2.9850    -3.1420 H     1 <1>   0.1500 
 34 H        1.4070    -3.3690     2.7230 H     1 <1>   0.0800 
 35 H        1.1140    -1.9090     3.6410 H     1 <1>   0.0800 
 36 H        2.6890    -2.6610     3.6860 H     1 <1>   0.0800 
 37 H        5.0110    -0.3580     1.2250 H     1 <1>   0.0800 
 38 H        5.6610    -0.7040    -0.3590 H     1 <1>   0.0800 
 39 H        5.7730    -1.9040     0.9010 H     1 <1>   0.0800 
 40 H       -5.8530    -1.6970     0.0420 H     1 <1>   0.3700 
 41 H       -6.0990    -4.1810    -1.9450 H     1 <1>   0.0800 
 42 H       -4.4040    -4.5670    -2.2140 H     1 <1>   0.0800 
 43 H       -5.2000    -3.3130    -3.1840 H     1 <1>   0.0800 
 44 H       -6.0320    -0.2890     2.6770 H     1 <1>   0.0800 
 45 H       -6.6540    -1.9110     2.4660 H     1 <1>   0.0800 
 46 H       -7.5210     0.5210     0.8670 H     1 <1>   0.0800 
 47 H       -8.4380    -0.2170     2.1530 H     1 <1>   0.0800 
 48 H       -8.1670    -1.1020     0.6740 H     1 <1>   0.0800 
@<TRIPOS>BOND
  1   1   2  2   
  2   1   3  2   
  3   1   4  am  
  4   1   5  1   
  5   4   6  1   
  6   4   7  1   
  7   5   8  ar  
  8   5   9  ar  
  9   6  10  1   
 10   6  25  1   
 11   6  26  1   
 12   7  11  1   
 13   7  27  1   
 14   7  28  1   
 15   8  12  ar  
 16   8  29  1   
 17   9  13  ar  
 18   9  30  1   
 19  10  14  1   
 20  10  15  1   
 21  10  31  1   
 22  11  14  1   
 23  11  16  1   
 24  11  32  1   
 25  12  17  ar  
 26  12  18  1   
 27  13  17  ar  
 28  13  33  1   
 29  15  34  1   
 30  15  35  1   
 31  15  36  1   
 32  16  37  1   
 33  16  38  1   
 34  16  39  1   
 35  17  19  1   
 36  18  20  2   
 37  18  21  am  
 38  19  22  1   
 39  21  23  1   
 40  21  40  1   
 41  22  41  1   
 42  22  42  1   
 43  22  43  1   
 44  23  24  1   
 45  23  44  1   
 46  23  45  1   
 47  24  46  1   
 48  24  47  1   
 49  24  48  1   
@<TRIPOS>SUBSTRUCTURE
  1 ****   8 GROUP 4 **** **** 0

# MOE 2024.06 (io_trps.svl 2023.06)
