@<TRIPOS>MOLECULE
NONAME
42 43 1 0 0 
SMALL
USER_CHARGES


@<TRIPOS>ATOM
  1 O       -0.9010    -0.2360     0.0410 O.3   1 <1>  -0.8500 
  2 C       -1.7450     0.6400     0.2020 C.2   1 <1>  -0.0730 
  3 O       -2.9700     0.2430     0.5560 O.3   1 <1>  -0.3570 
  4 C       -1.6140     2.0120     0.0910 C.2   1 <1>  -0.1240 
  5 C       -3.8790     1.3200     0.5230 C.3   1 <1>   0.2800 
  6 C       -0.5390     2.8480    -0.2230 C.2   1 <1>   0.7060 
  7 C       -2.9680     2.5690     0.4730 C.3   1 <1>   0.1190 
  8 C       -4.7420     1.2740     1.8100 C.3   1 <1>  -0.1600 
  9 C       -4.7630     1.0890    -0.7260 C.3   1 <1>  -0.1600 
 10 O        0.5930     2.5130    -0.6060 O.2   1 <1>  -0.5700 
 11 O       -0.7320     4.1870    -0.0700 O.3   1 <1>  -0.4300 
 12 C       -3.5480     3.6680    -0.4050 C.2   1 <1>   0.6590 
 13 C       -6.0430     0.4530     1.6890 C.3   1 <1>  -0.1600 
 14 C       -5.5100    -0.2600    -0.6960 C.3   1 <1>  -0.1600 
 15 C        0.2700     5.1320    -0.3820 C.3   1 <1>   0.1200 
 16 O       -3.3100     3.7940    -1.5810 O.2   1 <1>  -0.5700 
 17 O       -4.3860     4.4910     0.2220 O.3   1 <1>  -0.4300 
 18 C       -5.8800    -0.7250     0.7240 C.3   1 <1>  -0.1600 
 19 C        1.1720     5.3190     0.8370 C.3   1 <1>  -0.2400 
 20 C       -5.0650     5.5370    -0.4370 C.3   1 <1>   0.1200 
 21 C       -6.3450     4.9780    -1.0560 C.3   1 <1>  -0.2400 
 22 H       -2.8620     2.9680     1.4630 H     1 <1>   0.0800 
 23 H       -5.0200     2.2730     2.0910 H     1 <1>   0.0800 
 24 H       -4.1330     0.8730     2.6020 H     1 <1>   0.0800 
 25 H       -4.1520     1.1380    -1.6120 H     1 <1>   0.0800 
 26 H       -5.4930     1.8760    -0.7870 H     1 <1>   0.0800 
 27 H       -6.8330     1.0880     1.3240 H     1 <1>   0.0800 
 28 H       -6.3320     0.0940     2.6610 H     1 <1>   0.0800 
 29 H       -4.8780    -1.0120    -1.1390 H     1 <1>   0.0800 
 30 H       -6.3960    -0.1820    -1.3000 H     1 <1>   0.0800 
 31 H       -0.2260     6.0550    -0.6240 H     1 <1>   0.0800 
 32 H        0.8240     4.8000    -1.2450 H     1 <1>   0.0800 
 33 H       -6.7800    -1.3130     0.6930 H     1 <1>   0.0800 
 34 H       -5.0900    -1.3590     1.0950 H     1 <1>   0.0800 
 35 H        0.5910     5.6390     1.6830 H     1 <1>   0.0800 
 36 H        1.9180     6.0630     0.6260 H     1 <1>   0.0800 
 37 H        1.6700     4.3940     1.0710 H     1 <1>   0.0800 
 38 H       -4.4180     5.9660    -1.1840 H     1 <1>   0.0800 
 39 H       -5.2990     6.2880     0.2980 H     1 <1>   0.0800 
 40 H       -6.1050     4.2470    -1.8080 H     1 <1>   0.0800 
 41 H       -6.8970     5.7730    -1.5220 H     1 <1>   0.0800 
 42 H       -6.9610     4.5290    -0.2970 H     1 <1>   0.0800 
@<TRIPOS>BOND
  1   1   2  1   
  2   2   3  1   
  3   2   4  2   
  4   3   5  1   
  5   4   6  1   
  6   4   7  1   
  7   5   7  1   
  8   5   8  1   
  9   5   9  1   
 10   6  10  2   
 11   6  11  1   
 12   7  12  1   
 13   7  22  1   
 14   8  13  1   
 15   8  23  1   
 16   8  24  1   
 17   9  14  1   
 18   9  25  1   
 19   9  26  1   
 20  11  15  1   
 21  12  16  2   
 22  12  17  1   
 23  13  18  1   
 24  13  27  1   
 25  13  28  1   
 26  14  18  1   
 27  14  29  1   
 28  14  30  1   
 29  15  19  1   
 30  15  31  1   
 31  15  32  1   
 32  17  20  1   
 33  18  33  1   
 34  18  34  1   
 35  19  35  1   
 36  19  36  1   
 37  19  37  1   
 38  20  21  1   
 39  20  38  1   
 40  20  39  1   
 41  21  40  1   
 42  21  41  1   
 43  21  42  1   
@<TRIPOS>SUBSTRUCTURE
  1 ****   7 GROUP 4 **** **** 0

# MOE 2024.06 (io_trps.svl 2023.06)
