@<TRIPOS>MOLECULE
NONAME
40 40 1 0 0 
SMALL
USER_CHARGES


@<TRIPOS>ATOM
  1 O        1.2050     3.2150    -1.5180 O.2   1 <1>  -0.5700 
  2 C        0.5640     2.4860    -0.7980 C.2   1 <1>   0.5690 
  3 N        1.1370     1.3790    -0.2610 N.am  1 <1>  -0.7300 
  4 C       -0.9150     2.8010    -0.4600 C.3   1 <1>   0.0610 
  5 C        2.5310     0.9190    -0.5570 C.3   1 <1>   0.2810 
  6 C       -1.4080     4.0720    -1.1800 C.3   1 <1>  -0.2400 
  7 C       -1.0800     3.0210     1.0560 C.3   1 <1>  -0.2400 
  8 C       -1.8230     1.6320    -0.8910 C.3   1 <1>  -0.2400 
  9 C        2.6490    -0.6120    -0.5450 C.2   1 <1>   0.6590 
 10 C        3.4840     1.5760     0.4500 C.3   1 <1>  -0.0160 
 11 O        2.9720    -1.2420    -1.5210 O.2   1 <1>  -0.5700 
 12 O        2.3430    -1.2150     0.6040 O.3   1 <1>  -0.4300 
 13 C        4.9270     1.1620     0.2090 C.ar  1 <1>  -0.1440 
 14 C        2.4230    -2.6180     0.7440 C.3   1 <1>   0.0400 
 15 C        5.5240     0.1900     0.9980 C.ar  1 <1>  -0.1500 
 16 C        5.6560     1.7530    -0.8110 C.ar  1 <1>  -0.1500 
 17 C        6.8350    -0.1870     0.7690 C.ar  1 <1>  -0.1500 
 18 C        6.9680     1.3760    -1.0410 C.ar  1 <1>  -0.1500 
 19 C        7.5580     0.4050    -0.2520 C.ar  1 <1>  -0.1500 
 20 H        0.5950     0.7730     0.3560 H     1 <1>   0.3700 
 21 H        2.8010     1.2510    -1.5440 H     1 <1>   0.0800 
 22 H       -2.4360     4.2800    -0.9410 H     1 <1>   0.0800 
 23 H       -1.3230     3.9530    -2.2460 H     1 <1>   0.0800 
 24 H       -0.8110     4.9200    -0.8920 H     1 <1>   0.0800 
 25 H       -0.4490     3.8310     1.3810 H     1 <1>   0.0800 
 26 H       -0.8060     2.1390     1.6060 H     1 <1>   0.0800 
 27 H       -2.0990     3.2670     1.2960 H     1 <1>   0.0800 
 28 H       -2.8550     1.8570    -0.6880 H     1 <1>   0.0800 
 29 H       -1.7150     1.4530    -1.9470 H     1 <1>   0.0800 
 30 H       -1.5650     0.7290    -0.3670 H     1 <1>   0.0800 
 31 H        3.1940     1.3090     1.4500 H     1 <1>   0.0800 
 32 H        3.4090     2.6450     0.3560 H     1 <1>   0.0800 
 33 H        2.1400    -2.8800     1.7480 H     1 <1>   0.0800 
 34 H        3.4360    -2.9290     0.5500 H     1 <1>   0.0800 
 35 H        1.7540    -3.0780     0.0360 H     1 <1>   0.0800 
 36 H        4.9720    -0.2800     1.7940 H     1 <1>   0.1500 
 37 H        5.2060     2.5090    -1.4320 H     1 <1>   0.1500 
 38 H        7.2940    -0.9420     1.3830 H     1 <1>   0.1500 
 39 H        7.5280     1.8370    -1.8360 H     1 <1>   0.1500 
 40 H        8.5770     0.1110    -0.4310 H     1 <1>   0.1500 
@<TRIPOS>BOND
  1   1   2  2   
  2   2   3  am  
  3   2   4  1   
  4   3   5  1   
  5   3  20  1   
  6   4   6  1   
  7   4   7  1   
  8   4   8  1   
  9   5   9  1   
 10   5  10  1   
 11   5  21  1   
 12   6  22  1   
 13   6  23  1   
 14   6  24  1   
 15   7  25  1   
 16   7  26  1   
 17   7  27  1   
 18   8  28  1   
 19   8  29  1   
 20   8  30  1   
 21   9  11  2   
 22   9  12  1   
 23  10  13  1   
 24  10  31  1   
 25  10  32  1   
 26  12  14  1   
 27  13  15  ar  
 28  13  16  ar  
 29  14  33  1   
 30  14  34  1   
 31  14  35  1   
 32  15  17  ar  
 33  15  36  1   
 34  16  18  ar  
 35  16  37  1   
 36  17  19  ar  
 37  17  38  1   
 38  18  19  ar  
 39  18  39  1   
 40  19  40  1   
@<TRIPOS>SUBSTRUCTURE
  1 ****   5 GROUP 4 **** **** 0

# MOE 2024.06 (io_trps.svl 2023.06)
