@<TRIPOS>MOLECULE
NONAME
47 49 1 0 0 
SMALL
USER_CHARGES


@<TRIPOS>ATOM
  1 F       -3.9720     1.7790    -2.0760 F     1 <1>  -0.1900 
  2 C       -2.8130     2.2930    -1.7560 C.ar  1 <1>   0.1900 
  3 C       -2.3750     2.2320    -0.4410 C.ar  1 <1>  -0.1440 
  4 C       -2.0690     2.8810    -2.7620 C.ar  1 <1>  -0.1500 
  5 C       -1.1340     2.7820    -0.1450 C.ar  1 <1>  -0.1500 
  6 C       -3.2190     1.5820     0.6440 C.3   1 <1>   0.2540 
  7 C       -0.8370     3.4280    -2.4460 C.ar  1 <1>  -0.1500 
  8 C       -0.3730     3.3760    -1.1410 C.ar  1 <1>  -0.1500 
  9 N       -4.3810     2.4280     0.9780 N.3   1 <1>  -0.8100 
 10 C       -5.3380     1.7380     1.8710 C.3   1 <1>   0.1100 
 11 C       -4.0100     3.7570     1.5190 C.3   1 <1>   0.1100 
 12 C       -6.5870     2.6040     2.1740 C.3   1 <1>   0.3430 
 13 C       -5.2530     4.6470     1.7700 C.3   1 <1>   0.3430 
 14 N       -6.5230     3.9170     1.4490 N.4   1 <1>  -0.9590 
 15 C       -7.7310     4.7610     1.5560 C.3   1 <1>   0.4810 
 16 C       -8.8850     4.0120     0.9340 C.2   1 <1>  -0.2880 
 17 C       -9.3730     4.2390    -0.2970 C.2   1 <1>  -0.1780 
 18 C      -10.4760     3.5640    -0.9450 C.ar  1 <1>   0.0280 
 19 C      -10.6000     3.6060    -2.3320 C.ar  1 <1>  -0.1500 
 20 C      -11.4450     2.8610    -0.2310 C.ar  1 <1>  -0.1500 
 21 C      -11.6420     2.9690    -2.9810 C.ar  1 <1>  -0.1500 
 22 C      -12.4890     2.2220    -0.8750 C.ar  1 <1>  -0.1500 
 23 C      -12.5890     2.2740    -2.2530 C.ar  1 <1>  -0.1500 
 24 H       -2.4470     2.9060    -3.7680 H     1 <1>   0.1500 
 25 H       -0.7500     2.7500     0.8600 H     1 <1>   0.1500 
 26 H       -2.6230     1.4080     1.5250 H     1 <1>   0.0800 
 27 H       -3.5630     0.6270     0.2820 H     1 <1>   0.0800 
 28 H       -0.2390     3.8900    -3.2140 H     1 <1>   0.1500 
 29 H        0.5880     3.7980    -0.9010 H     1 <1>   0.1500 
 30 H       -5.6610     0.8220     1.4040 H     1 <1>   0.0800 
 31 H       -4.8550     1.4750     2.7980 H     1 <1>   0.0800 
 32 H       -3.4610     3.6400     2.4380 H     1 <1>   0.0800 
 33 H       -3.3680     4.2690     0.8220 H     1 <1>   0.0800 
 34 H       -6.6560     2.7710     3.2360 H     1 <1>   0.0800 
 35 H       -7.4640     2.0580     1.8690 H     1 <1>   0.0800 
 36 H       -5.1730     5.5280     1.1540 H     1 <1>   0.0800 
 37 H       -5.2570     4.9640     2.7990 H     1 <1>   0.0800 
 38 H       -6.4120     3.6360     0.4610 H     1 <1>   0.4500 
 39 H       -7.9450     5.0000     2.5850 H     1 <1>   0.0800 
 40 H       -7.5760     5.6800     1.0140 H     1 <1>   0.0800 
 41 H       -9.2940     3.2600     1.5850 H     1 <1>   0.1500 
 42 H       -8.9270     4.9970    -0.9190 H     1 <1>   0.1500 
 43 H       -9.8720     4.1400    -2.9160 H     1 <1>   0.1500 
 44 H      -11.3950     2.8150     0.8400 H     1 <1>   0.1500 
 45 H      -11.7170     3.0130    -4.0540 H     1 <1>   0.1500 
 46 H      -13.2270     1.6840    -0.3050 H     1 <1>   0.1500 
 47 H      -13.4010     1.7770    -2.7560 H     1 <1>   0.1500 
@<TRIPOS>BOND
  1   1   2  1   
  2   2   3  ar  
  3   2   4  ar  
  4   3   5  ar  
  5   3   6  1   
  6   4   7  ar  
  7   4  24  1   
  8   5   8  ar  
  9   5  25  1   
 10   6   9  1   
 11   6  26  1   
 12   6  27  1   
 13   7   8  ar  
 14   7  28  1   
 15   8  29  1   
 16   9  10  1   
 17   9  11  1   
 18  10  12  1   
 19  10  30  1   
 20  10  31  1   
 21  11  13  1   
 22  11  32  1   
 23  11  33  1   
 24  12  14  1   
 25  12  34  1   
 26  12  35  1   
 27  13  14  1   
 28  13  36  1   
 29  13  37  1   
 30  14  15  1   
 31  14  38  1   
 32  15  16  1   
 33  15  39  1   
 34  15  40  1   
 35  16  17  2   
 36  16  41  1   
 37  17  18  1   
 38  17  42  1   
 39  18  19  ar  
 40  18  20  ar  
 41  19  21  ar  
 42  19  43  1   
 43  20  22  ar  
 44  20  44  1   
 45  21  23  ar  
 46  21  45  1   
 47  22  23  ar  
 48  22  46  1   
 49  23  47  1   
@<TRIPOS>SUBSTRUCTURE
  1 ****  14 GROUP 4 **** **** 0

# MOE 2024.06 (io_trps.svl 2023.06)
