@<TRIPOS>MOLECULE
NONAME
51 53 1 0 0 
SMALL
USER_CHARGES


@<TRIPOS>ATOM
  1 S       -0.3860    -0.3440    -0.0160 S.o2  1 <1>   1.2040 
  2 O       -0.7070    -1.1410    -1.1810 O.2   1 <1>  -0.6500 
  3 O       -0.8980    -0.7190     1.2860 O.2   1 <1>  -0.6500 
  4 C        1.4130    -0.1840     0.0960 C.ar  1 <1>  -0.0090 
  5 C       -0.8460     1.3630    -0.3390 C.3   1 <1>   0.0890 
  6 C        2.2150    -0.3090    -1.0330 C.ar  1 <1>  -0.1500 
  7 C        2.0340     0.1050     1.3060 C.ar  1 <1>  -0.1500 
  8 C       -2.3440     1.5910    -0.5090 C.ar  1 <1>  -0.1440 
  9 C        3.5880    -0.1460    -0.9600 C.ar  1 <1>  -0.1500 
 10 C        3.4060     0.2700     1.3880 C.ar  1 <1>  -0.1500 
 11 C       -3.1970     1.4900     0.5780 C.ar  1 <1>  -0.1500 
 12 C       -2.8740     1.8980    -1.7520 C.ar  1 <1>  -0.1500 
 13 C        4.1850     0.1460     0.2520 C.ar  1 <1>  -0.1500 
 14 C       -4.5540     1.7020     0.4220 C.ar  1 <1>  -0.1500 
 15 C       -4.2330     2.1100    -1.8980 C.ar  1 <1>  -0.1500 
 16 C       -5.1100     2.0240    -0.8170 C.ar  1 <1>   0.0860 
 17 C       -6.5380     2.2540    -0.9860 C.2   1 <1>   0.5440 
 18 O       -7.0490     2.1740    -2.0890 O.2   1 <1>  -0.5700 
 19 N       -7.3470     2.5520     0.0850 N.am  1 <1>  -0.6600 
 20 C       -7.4900     3.9530     0.5740 C.3   1 <1>   0.2200 
 21 C       -8.5420     1.6870     0.3080 C.3   1 <1>   0.2200 
 22 C       -8.6470     4.6400    -0.1740 C.3   1 <1>  -0.1600 
 23 C       -6.1980     4.7680     0.4590 C.3   1 <1>  -0.2400 
 24 C       -9.8260     2.5070     0.5360 C.3   1 <1>  -0.1600 
 25 C       -8.2570     0.7630     1.4890 C.3   1 <1>  -0.2400 
 26 C       -9.8700     3.7290    -0.3910 C.3   1 <1>  -0.1600 
 27 H       -0.3440     1.6990    -1.2250 H     1 <1>   0.0800 
 28 H       -0.5060     1.9780     0.4710 H     1 <1>   0.0800 
 29 H        1.7640    -0.5440    -1.9830 H     1 <1>   0.1500 
 30 H        1.4400     0.1970     2.2000 H     1 <1>   0.1500 
 31 H        4.1920    -0.2500    -1.8460 H     1 <1>   0.1500 
 32 H        3.8680     0.4910     2.3350 H     1 <1>   0.1500 
 33 H       -2.8110     1.2380     1.5520 H     1 <1>   0.1500 
 34 H       -2.2380     1.9710    -2.6170 H     1 <1>   0.1500 
 35 H        5.2530     0.2720     0.3130 H     1 <1>   0.1500 
 36 H       -5.2000     1.6140     1.2780 H     1 <1>   0.1500 
 37 H       -4.6320     2.3450    -2.8700 H     1 <1>   0.1500 
 38 H       -7.7450     3.9030     1.6190 H     1 <1>   0.0800 
 39 H       -8.6920     1.0800    -0.5700 H     1 <1>   0.0800 
 40 H       -8.3000     4.9830    -1.1340 H     1 <1>   0.0800 
 41 H       -8.9420     5.5080     0.3870 H     1 <1>   0.0800 
 42 H       -5.8960     4.8710    -0.5680 H     1 <1>   0.0800 
 43 H       -5.4120     4.3040     1.0240 H     1 <1>   0.0800 
 44 H       -6.3580     5.7520     0.8600 H     1 <1>   0.0800 
 45 H       -9.8820     2.8320     1.5600 H     1 <1>   0.0800 
 46 H      -10.6800     1.8790     0.3510 H     1 <1>   0.0800 
 47 H       -8.0710     1.3350     2.3800 H     1 <1>   0.0800 
 48 H       -7.4000     0.1500     1.2750 H     1 <1>   0.0800 
 49 H       -9.0990     0.1180     1.6600 H     1 <1>   0.0800 
 50 H       -9.8610     3.3790    -1.4100 H     1 <1>   0.0800 
 51 H      -10.7790     4.2850    -0.2400 H     1 <1>   0.0800 
@<TRIPOS>BOND
  1   1   2  2   
  2   1   3  2   
  3   1   4  1   
  4   1   5  1   
  5   4   6  ar  
  6   4   7  ar  
  7   5   8  1   
  8   5  27  1   
  9   5  28  1   
 10   6   9  ar  
 11   6  29  1   
 12   7  10  ar  
 13   7  30  1   
 14   8  11  ar  
 15   8  12  ar  
 16   9  13  ar  
 17   9  31  1   
 18  10  13  ar  
 19  10  32  1   
 20  11  14  ar  
 21  11  33  1   
 22  12  15  ar  
 23  12  34  1   
 24  13  35  1   
 25  14  16  ar  
 26  14  36  1   
 27  15  16  ar  
 28  15  37  1   
 29  16  17  1   
 30  17  18  2   
 31  17  19  am  
 32  19  20  1   
 33  19  21  1   
 34  20  22  1   
 35  20  23  1   
 36  20  38  1   
 37  21  24  1   
 38  21  25  1   
 39  21  39  1   
 40  22  26  1   
 41  22  40  1   
 42  22  41  1   
 43  23  42  1   
 44  23  43  1   
 45  23  44  1   
 46  24  26  1   
 47  24  45  1   
 48  24  46  1   
 49  25  47  1   
 50  25  48  1   
 51  25  49  1   
 52  26  50  1   
 53  26  51  1   
@<TRIPOS>SUBSTRUCTURE
  1 ****  11 GROUP 4 **** **** 0

# MOE 2024.06 (io_trps.svl 2023.06)
