@<TRIPOS>MOLECULE
NONAME
52 54 1 0 0 
SMALL
USER_CHARGES


@<TRIPOS>ATOM
  1 O        0.9060    -2.9230     1.9260 O.2   1 <1>  -0.5700 
  2 C        0.7210    -2.9720     0.7280 C.2   1 <1>   0.5690 
  3 N        1.7280    -2.6200    -0.1430 N.am  1 <1>  -0.6600 
  4 C       -0.6550    -3.4670     0.2050 C.3   1 <1>   0.2610 
  5 C        1.6400    -2.6570    -1.6330 C.3   1 <1>   0.1400 
  6 C        3.0470    -2.1110     0.3320 C.3   1 <1>   0.1400 
  7 O       -1.2770    -2.5030    -0.6030 O.3   1 <1>  -0.5600 
  8 C       -1.7130    -3.7420     1.2750 C.3   1 <1>  -0.1600 
  9 C        2.8150    -3.4570    -2.2230 C.3   1 <1>   0.1100 
 10 C        4.1980    -2.9230    -0.2850 C.3   1 <1>   0.1100 
 11 C       -1.9970    -1.6150     0.1920 C.3   1 <1>   0.1200 
 12 C       -2.3990    -2.3940     1.4430 C.3   1 <1>  -0.1600 
 13 N        4.1270    -2.9530    -1.7640 N.3   1 <1>  -0.8100 
 14 C        5.2340    -3.7210    -2.4080 C.3   1 <1>   0.1710 
 15 C        6.6600    -3.2030    -2.1750 C.2   1 <1>   0.5690 
 16 O        7.2050    -2.5910    -3.0620 O.2   1 <1>  -0.5700 
 17 N        7.2710    -3.5170    -0.9870 N.am  1 <1>  -0.5470 
 18 C        8.5380    -3.1990    -0.4670 C.ar  1 <1>   0.1170 
 19 C        9.1070    -4.0060     0.5270 C.ar  1 <1>  -0.1440 
 20 C        9.2280    -2.0720    -0.9000 C.ar  1 <1>  -0.1500 
 21 C       10.3430    -3.6640     1.0740 C.ar  1 <1>  -0.1440 
 22 C        8.3560    -5.2570     0.9940 C.3   1 <1>  -0.0970 
 23 C       10.4550    -1.7430    -0.3660 C.ar  1 <1>  -0.1500 
 24 C       11.0080    -2.5360     0.6190 C.ar  1 <1>  -0.1500 
 25 C       11.0140    -4.4820     2.1710 C.3   1 <1>  -0.0970 
 26 H       -0.4940    -4.3470    -0.3900 H     1 <1>   0.0800 
 27 H        1.6740    -1.6500    -2.0110 H     1 <1>   0.0800 
 28 H        0.7180    -3.0990    -1.9600 H     1 <1>   0.0800 
 29 H        3.1120    -2.1630     1.4050 H     1 <1>   0.0800 
 30 H        3.1500    -1.0800     0.0450 H     1 <1>   0.0800 
 31 H       -1.2970    -4.1170     2.1940 H     1 <1>   0.0800 
 32 H       -2.4110    -4.4640     0.8920 H     1 <1>   0.0800 
 33 H        2.7650    -3.3920    -3.2960 H     1 <1>   0.0800 
 34 H        2.7040    -4.4920    -1.9450 H     1 <1>   0.0800 
 35 H        4.1650    -3.9250     0.1070 H     1 <1>   0.0800 
 36 H        5.1190    -2.4620     0.0230 H     1 <1>   0.0800 
 37 H       -2.8500    -1.2680    -0.3650 H     1 <1>   0.0800 
 38 H       -1.3540    -0.7870     0.4400 H     1 <1>   0.0800 
 39 H       -2.0320    -1.8840     2.3170 H     1 <1>   0.0800 
 40 H       -3.4670    -2.4970     1.5150 H     1 <1>   0.0800 
 41 H        5.0750    -3.7100    -3.4720 H     1 <1>   0.0800 
 42 H        5.1880    -4.7460    -2.0890 H     1 <1>   0.0800 
 43 H        6.7140    -4.0950    -0.3660 H     1 <1>   0.3700 
 44 H        8.8050    -1.4390    -1.6580 H     1 <1>   0.1500 
 45 H        7.9680    -5.7980     0.1500 H     1 <1>   0.0800 
 46 H        7.5430    -4.9740     1.6380 H     1 <1>   0.0800 
 47 H        8.9880    -5.9390     1.5300 H     1 <1>   0.0800 
 48 H       10.9780    -0.8700    -0.7150 H     1 <1>   0.1500 
 49 H       11.9650    -2.2640     1.0280 H     1 <1>   0.1500 
 50 H       10.3410    -4.6160     2.9990 H     1 <1>   0.0800 
 51 H       11.8960    -3.9890     2.5380 H     1 <1>   0.0800 
 52 H       11.3020    -5.4440     1.7870 H     1 <1>   0.0800 
@<TRIPOS>BOND
  1   1   2  2   
  2   2   3  am  
  3   2   4  1   
  4   3   5  1   
  5   3   6  1   
  6   4   7  1   
  7   4   8  1   
  8   4  26  1   
  9   5   9  1   
 10   5  27  1   
 11   5  28  1   
 12   6  10  1   
 13   6  29  1   
 14   6  30  1   
 15   7  11  1   
 16   8  12  1   
 17   8  31  1   
 18   8  32  1   
 19   9  13  1   
 20   9  33  1   
 21   9  34  1   
 22  10  13  1   
 23  10  35  1   
 24  10  36  1   
 25  11  12  1   
 26  11  37  1   
 27  11  38  1   
 28  12  39  1   
 29  12  40  1   
 30  13  14  1   
 31  14  15  1   
 32  14  41  1   
 33  14  42  1   
 34  15  16  2   
 35  15  17  am  
 36  17  18  1   
 37  17  43  1   
 38  18  19  ar  
 39  18  20  ar  
 40  19  21  ar  
 41  19  22  1   
 42  20  23  ar  
 43  20  44  1   
 44  21  24  ar  
 45  21  25  1   
 46  22  45  1   
 47  22  46  1   
 48  22  47  1   
 49  23  24  ar  
 50  23  48  1   
 51  24  49  1   
 52  25  50  1   
 53  25  51  1   
 54  25  52  1   
@<TRIPOS>SUBSTRUCTURE
  1 ****  10 GROUP 4 **** **** 0

# MOE 2024.06 (io_trps.svl 2023.06)
