@<TRIPOS>MOLECULE
NONAME
47 49 1 0 0 
SMALL
USER_CHARGES


@<TRIPOS>ATOM
  1 S        0.4590     0.4160    -0.4720 S.o2  1 <1>   1.4470 
  2 O        0.5530     0.4030    -1.9140 O.2   1 <1>  -0.6500 
  3 O        0.8780    -0.7250     0.3130 O.2   1 <1>  -0.6500 
  4 N        1.3750     1.7780     0.1060 N.am  1 <1>  -0.6930 
  5 C       -1.2270     0.8670     0.0190 C.ar  1 <1>  -0.0090 
  6 C        1.5430     2.9070    -0.6950 C.ar  1 <1>   0.1990 
  7 C        2.2630     1.5330     1.2690 C.3   1 <1>   0.1160 
  8 C       -1.6150     0.8460     1.3540 C.ar  1 <1>  -0.1500 
  9 C       -2.1700     1.2710    -0.9200 C.ar  1 <1>  -0.1500 
 10 C        2.7640     3.2480    -1.3060 C.ar  1 <1>   0.0860 
 11 C        0.4380     3.7320    -0.8980 C.ar  1 <1>  -0.1500 
 12 C       -2.8930     1.2150     1.7380 C.ar  1 <1>  -0.1500 
 13 C       -3.4490     1.6410    -0.5430 C.ar  1 <1>  -0.1500 
 14 C        3.9710     2.4870    -1.0960 C.2   1 <1>   0.5440 
 15 C        2.8070     4.3740    -2.1310 C.ar  1 <1>  -0.1500 
 16 C        0.5060     4.8480    -1.7060 C.ar  1 <1>  -0.1500 
 17 C       -3.8180     1.6150     0.7900 C.ar  1 <1>  -0.1430 
 18 O        4.1210     1.3980    -1.6150 O.2   1 <1>  -0.5700 
 19 N        4.9840     2.9810    -0.3030 N.am  1 <1>  -0.6600 
 20 C        1.6970     5.1680    -2.3320 C.ar  1 <1>  -0.1500 
 21 C       -5.2190     2.0210     1.2100 C.3   1 <1>  -0.0970 
 22 C        4.9600     4.2680     0.4270 C.3   1 <1>   0.1400 
 23 C        6.2080     2.2120     0.0030 C.3   1 <1>   0.1400 
 24 C        6.3310     4.3640     1.0890 C.3   1 <1>  -0.1600 
 25 C        6.8120     2.9200     1.2090 C.3   1 <1>  -0.1600 
 26 H        1.6930     1.1290     2.0870 H     1 <1>   0.0800 
 27 H        2.7270     2.4500     1.5860 H     1 <1>   0.0800 
 28 H        3.0290     0.8260     0.9950 H     1 <1>   0.0800 
 29 H       -0.9070     0.5330     2.1020 H     1 <1>   0.1500 
 30 H       -1.8980     1.2960    -1.9630 H     1 <1>   0.1500 
 31 H       -0.4910     3.4950    -0.4120 H     1 <1>   0.1500 
 32 H       -3.1630     1.1880     2.7800 H     1 <1>   0.1500 
 33 H       -4.1560     1.9490    -1.2950 H     1 <1>   0.1500 
 34 H        3.7350     4.6200    -2.6190 H     1 <1>   0.1500 
 35 H       -0.3630     5.4660    -1.8530 H     1 <1>   0.1500 
 36 H        1.7540     6.0320    -2.9730 H     1 <1>   0.1500 
 37 H       -5.2380     3.0680     1.4510 H     1 <1>   0.0800 
 38 H       -5.5310     1.4600     2.0720 H     1 <1>   0.0800 
 39 H       -5.9200     1.8350     0.4150 H     1 <1>   0.0800 
 40 H        4.1830     4.2420     1.1710 H     1 <1>   0.0800 
 41 H        4.7940     5.0910    -0.2460 H     1 <1>   0.0800 
 42 H        6.8720     2.2630    -0.8440 H     1 <1>   0.0800 
 43 H        5.9750     1.1820     0.2150 H     1 <1>   0.0800 
 44 H        6.2810     4.8610     2.0420 H     1 <1>   0.0800 
 45 H        6.9920     4.9140     0.4420 H     1 <1>   0.0800 
 46 H        7.8850     2.8430     1.2200 H     1 <1>   0.0800 
 47 H        6.4200     2.4750     2.1060 H     1 <1>   0.0800 
@<TRIPOS>BOND
  1   1   2  2   
  2   1   3  2   
  3   1   4  am  
  4   1   5  1   
  5   4   6  1   
  6   4   7  1   
  7   5   8  ar  
  8   5   9  ar  
  9   6  10  ar  
 10   6  11  ar  
 11   7  26  1   
 12   7  27  1   
 13   7  28  1   
 14   8  12  ar  
 15   8  29  1   
 16   9  13  ar  
 17   9  30  1   
 18  10  14  1   
 19  10  15  ar  
 20  11  16  ar  
 21  11  31  1   
 22  12  17  ar  
 23  12  32  1   
 24  13  17  ar  
 25  13  33  1   
 26  14  18  2   
 27  14  19  am  
 28  15  20  ar  
 29  15  34  1   
 30  16  20  ar  
 31  16  35  1   
 32  17  21  1   
 33  19  22  1   
 34  19  23  1   
 35  20  36  1   
 36  21  37  1   
 37  21  38  1   
 38  21  39  1   
 39  22  24  1   
 40  22  40  1   
 41  22  41  1   
 42  23  25  1   
 43  23  42  1   
 44  23  43  1   
 45  24  25  1   
 46  24  44  1   
 47  24  45  1   
 48  25  46  1   
 49  25  47  1   
@<TRIPOS>SUBSTRUCTURE
  1 ****   4 GROUP 4 **** **** 0

# MOE 2024.06 (io_trps.svl 2023.06)
