@<TRIPOS>MOLECULE
NONAME
49 51 1 0 0 
SMALL
USER_CHARGES


@<TRIPOS>ATOM
  1 S       -0.2460     0.1150     1.1910 S.3   1 <1>  -0.0800 
  2 C       -1.1340     1.0990     0.0720 C.2   1 <1>   0.4420 
  3 C        1.1810     0.5240     0.3030 C.2   1 <1>   0.1980 
  4 N       -0.3700     1.6230    -0.8170 N.2   1 <1>  -0.3380 
  5 N       -2.4960     1.1890     0.2730 N.am  1 <1>  -0.4940 
  6 N        0.9470     1.2910    -0.6800 N.2   1 <1>  -0.3380 
  7 C        2.5090    -0.0400     0.7530 C.3   1 <1>   0.0200 
  8 C       -3.4300     1.8840    -0.4440 C.2   1 <1>   0.5690 
  9 C        3.6090     0.4970    -0.1710 C.3   1 <1>   0.3430 
 10 O       -3.1600     2.5520    -1.4080 O.2   1 <1>  -0.5700 
 11 C       -4.8850     1.7950     0.0200 C.3   1 <1>  -0.0190 
 12 N        4.9830     0.0550     0.2310 N.4   1 <1>  -0.9590 
 13 C       -5.7810     1.1610    -1.0620 C.3   1 <1>  -0.1600 
 14 C       -5.4300     3.1780     0.4290 C.3   1 <1>  -0.1600 
 15 C        6.0000     0.8640    -0.5050 C.3   1 <1>   0.3430 
 16 C        5.2040    -1.4090     0.0130 C.3   1 <1>   0.3430 
 17 C       -7.2450     1.0780    -0.6060 C.3   1 <1>  -0.1600 
 18 C       -6.8930     3.0960     0.8860 C.3   1 <1>  -0.1600 
 19 C        7.4010     0.5210     0.0030 C.3   1 <1>  -0.1600 
 20 C        6.5870    -1.8050     0.5330 C.3   1 <1>  -0.1600 
 21 C       -7.7750     2.4570    -0.1940 C.3   1 <1>  -0.1600 
 22 C        7.7000    -0.9780    -0.1240 C.3   1 <1>  -0.1600 
 23 H       -2.8510     0.6650     1.0650 H     1 <1>   0.3700 
 24 H        2.4580    -1.1120     0.7040 H     1 <1>   0.0800 
 25 H        2.6910     0.2690     1.7660 H     1 <1>   0.0800 
 26 H        3.5610     1.5740    -0.1530 H     1 <1>   0.0800 
 27 H        3.4050     0.1840    -1.1830 H     1 <1>   0.0800 
 28 H       -4.9270     1.1610     0.8870 H     1 <1>   0.0800 
 29 H        5.1250     0.2480     1.2320 H     1 <1>   0.4500 
 30 H       -5.4220     0.1750    -1.3010 H     1 <1>   0.0800 
 31 H       -5.7240     1.7540    -1.9600 H     1 <1>   0.0800 
 32 H       -5.3590     3.8480    -0.4120 H     1 <1>   0.0800 
 33 H       -4.8270     3.5870     1.2210 H     1 <1>   0.0800 
 34 H        5.8140     1.9170    -0.3580 H     1 <1>   0.0800 
 35 H        5.9400     0.6550    -1.5610 H     1 <1>   0.0800 
 36 H        5.1390    -1.6350    -1.0400 H     1 <1>   0.0800 
 37 H        4.4540    -1.9840     0.5310 H     1 <1>   0.0800 
 38 H       -7.3240     0.4010     0.2280 H     1 <1>   0.0800 
 39 H       -7.8490     0.6860    -1.4070 H     1 <1>   0.0800 
 40 H       -7.2560     4.0860     1.1060 H     1 <1>   0.0800 
 41 H       -6.9560     2.5140     1.7890 H     1 <1>   0.0800 
 42 H        7.4970     0.8300     1.0300 H     1 <1>   0.0800 
 43 H        8.1270     1.0770    -0.5660 H     1 <1>   0.0800 
 44 H        6.7540    -2.8490     0.3280 H     1 <1>   0.0800 
 45 H        6.6190    -1.6800     1.6020 H     1 <1>   0.0800 
 46 H       -8.7830     2.3620     0.1720 H     1 <1>   0.0800 
 47 H       -7.7990     3.1000    -1.0580 H     1 <1>   0.0800 
 48 H        8.6470    -1.2040     0.3380 H     1 <1>   0.0800 
 49 H        7.7750    -1.2410    -1.1660 H     1 <1>   0.0800 
@<TRIPOS>BOND
  1   1   2  1   
  2   1   3  1   
  3   2   4  2   
  4   2   5  1   
  5   3   6  2   
  6   3   7  1   
  7   4   6  1   
  8   5   8  am  
  9   5  23  1   
 10   7   9  1   
 11   7  24  1   
 12   7  25  1   
 13   8  10  2   
 14   8  11  1   
 15   9  12  1   
 16   9  26  1   
 17   9  27  1   
 18  11  13  1   
 19  11  14  1   
 20  11  28  1   
 21  12  15  1   
 22  12  16  1   
 23  12  29  1   
 24  13  17  1   
 25  13  30  1   
 26  13  31  1   
 27  14  18  1   
 28  14  32  1   
 29  14  33  1   
 30  15  19  1   
 31  15  34  1   
 32  15  35  1   
 33  16  20  1   
 34  16  36  1   
 35  16  37  1   
 36  17  21  1   
 37  17  38  1   
 38  17  39  1   
 39  18  21  1   
 40  18  40  1   
 41  18  41  1   
 42  19  22  1   
 43  19  42  1   
 44  19  43  1   
 45  20  22  1   
 46  20  44  1   
 47  20  45  1   
 48  21  46  1   
 49  21  47  1   
 50  22  48  1   
 51  22  49  1   
@<TRIPOS>SUBSTRUCTURE
  1 ****   2 GROUP 4 **** **** 0

# MOE 2024.06 (io_trps.svl 2023.06)
