@<TRIPOS>MOLECULE
NONAME
47 49 1 0 0 
SMALL
USER_CHARGES


@<TRIPOS>ATOM
  1 O       -1.9000     0.9910    -0.7640 O.3   1 <1>  -0.3630 
  2 C       -1.2330     2.0340    -0.1950 C.ar  1 <1>   0.0820 
  3 C       -1.2280     0.0810    -1.6130 C.3   1 <1>   0.0400 
  4 C       -1.8770     2.7290     0.8230 C.ar  1 <1>  -0.1440 
  5 C        0.0420     2.4280    -0.5960 C.ar  1 <1>  -0.1500 
  6 C       -1.2500     3.8070     1.4270 C.ar  1 <1>  -0.1500 
  7 C       -3.2650     2.3190     1.2710 C.3   1 <1>   0.4870 
  8 C        0.6620     3.5060     0.0110 C.ar  1 <1>  -0.1500 
  9 C        0.0150     4.2030     1.0260 C.ar  1 <1>   0.0820 
 10 N       -4.1870     2.4870     0.1250 N.4   1 <1>  -0.9590 
 11 O        0.5440     5.2720     1.6710 O.3   1 <1>  -0.3620 
 12 C       -4.3060     3.9340    -0.2810 C.3   1 <1>   0.3430 
 13 C       -5.5380     1.8850     0.3970 C.3   1 <1>   0.3430 
 14 C        1.8600     5.7070     1.4060 C.3   1 <1>   0.0400 
 15 C       -5.2800     4.1410    -1.4610 C.3   1 <1>   0.2090 
 16 C       -6.5230     2.0810    -0.7780 C.3   1 <1>   0.2090 
 17 N       -6.6090     3.5140    -1.1920 N.pl3 1 <1>  -0.8380 
 18 C       -7.4880     4.2890    -0.4650 C.ar  1 <1>   0.4100 
 19 N       -7.1820     4.4860     0.8130 N.ar  1 <1>  -0.6200 
 20 C       -8.6160     4.8160    -1.0830 C.ar  1 <1>  -0.1500 
 21 C       -8.0370     5.2380     1.4910 C.ar  1 <1>   0.1600 
 22 C       -9.4930     5.5930    -0.3640 C.ar  1 <1>  -0.1500 
 23 C       -9.1840     5.8050     0.9640 C.ar  1 <1>  -0.1500 
 24 H       -0.9260     0.5920    -2.5110 H     1 <1>   0.0800 
 25 H       -1.9050    -0.7170    -1.8610 H     1 <1>   0.0800 
 26 H       -0.3730    -0.3180    -1.0950 H     1 <1>   0.0800 
 27 H        0.5680     1.9150    -1.3790 H     1 <1>   0.1500 
 28 H       -1.7230     4.3600     2.2190 H     1 <1>   0.1500 
 29 H       -3.5860     2.9250     2.1020 H     1 <1>   0.0800 
 30 H       -3.2420     1.2870     1.5800 H     1 <1>   0.0800 
 31 H        1.6440     3.7910    -0.3190 H     1 <1>   0.1500 
 32 H       -3.7310     1.9760    -0.6480 H     1 <1>   0.4500 
 33 H       -3.3370     4.3210    -0.5530 H     1 <1>   0.0800 
 34 H       -4.6700     4.5110     0.5530 H     1 <1>   0.0800 
 35 H       -5.9690     2.3520     1.2670 H     1 <1>   0.0800 
 36 H       -5.4380     0.8320     0.6000 H     1 <1>   0.0800 
 37 H        2.0740     6.5390     2.0530 H     1 <1>   0.0800 
 38 H        1.9260     6.0190     0.3780 H     1 <1>   0.0800 
 39 H        2.5440     4.9020     1.6110 H     1 <1>   0.0800 
 40 H       -4.8620     3.7210    -2.3590 H     1 <1>   0.0800 
 41 H       -5.4120     5.1980    -1.6260 H     1 <1>   0.0800 
 42 H       -7.4990     1.7390    -0.4790 H     1 <1>   0.0800 
 43 H       -6.2120     1.4870    -1.6190 H     1 <1>   0.0800 
 44 H       -8.7850     4.6050    -2.1220 H     1 <1>   0.1500 
 45 H       -7.8140     5.4150     2.5290 H     1 <1>   0.1500 
 46 H      -10.3760     6.0160    -0.8130 H     1 <1>   0.1500 
 47 H       -9.8290     6.4040     1.5830 H     1 <1>   0.1500 
@<TRIPOS>BOND
  1   1   2  1   
  2   1   3  1   
  3   2   4  ar  
  4   2   5  ar  
  5   3  24  1   
  6   3  25  1   
  7   3  26  1   
  8   4   6  ar  
  9   4   7  1   
 10   5   8  ar  
 11   5  27  1   
 12   6   9  ar  
 13   6  28  1   
 14   7  10  1   
 15   7  29  1   
 16   7  30  1   
 17   8   9  ar  
 18   8  31  1   
 19   9  11  1   
 20  10  12  1   
 21  10  13  1   
 22  10  32  1   
 23  11  14  1   
 24  12  15  1   
 25  12  33  1   
 26  12  34  1   
 27  13  16  1   
 28  13  35  1   
 29  13  36  1   
 30  14  37  1   
 31  14  38  1   
 32  14  39  1   
 33  15  17  1   
 34  15  40  1   
 35  15  41  1   
 36  16  17  1   
 37  16  42  1   
 38  16  43  1   
 39  17  18  1   
 40  18  19  ar  
 41  18  20  ar  
 42  19  21  ar  
 43  20  22  ar  
 44  20  44  1   
 45  21  23  ar  
 46  21  45  1   
 47  22  23  ar  
 48  22  46  1   
 49  23  47  1   
@<TRIPOS>SUBSTRUCTURE
  1 ****  12 GROUP 4 **** **** 0

# MOE 2024.06 (io_trps.svl 2023.06)
