@<TRIPOS>MOLECULE
NONAME
46 47 1 0 0 
SMALL
USER_CHARGES


@<TRIPOS>ATOM
  1 O        0.9240    -0.7940     0.9930 O.2   1 <1>  -0.5700 
  2 C        1.7910    -1.2350     0.2670 C.2   1 <1>   0.6900 
  3 N        1.7320    -2.4610    -0.3330 N.am  1 <1>  -0.4200 
  4 N        2.9240    -0.5600    -0.0800 N.am  1 <1>  -0.6600 
  5 C        2.7980    -2.6160    -1.1630 C.2   1 <1>   0.5690 
  6 C        0.6450    -3.4400    -0.1430 C.3   1 <1>   0.1400 
  7 C        3.6710    -1.3670    -1.0870 C.3   1 <1>   0.2810 
  8 C        3.0790     0.9090     0.0160 C.3   1 <1>   0.1400 
  9 O        3.0310    -3.5820    -1.8490 O.2   1 <1>  -0.5700 
 10 C        0.9780    -4.3550     1.0340 C.3   1 <1>  -0.2400 
 11 C        5.0910    -1.6950    -0.6150 C.3   1 <1>  -0.0990 
 12 C        3.5550     1.2690     1.4200 C.3   1 <1>  -0.2400 
 13 C        5.9940    -0.4910    -0.7010 C.2   1 <1>   0.5690 
 14 O        5.9730     0.1690    -1.7110 O.2   1 <1>  -0.5700 
 15 N        6.8030    -0.2140     0.3560 N.am  1 <1>  -0.7300 
 16 C        7.7950     0.8770     0.4850 C.3   1 <1>   0.2200 
 17 C        7.1150     2.2520     0.4280 C.3   1 <1>  -0.1600 
 18 C        8.8960     0.7430    -0.5750 C.3   1 <1>  -0.1600 
 19 C        8.1470     3.3820     0.5570 C.3   1 <1>  -0.1600 
 20 C        9.9270     1.8730    -0.4420 C.3   1 <1>  -0.1600 
 21 C        9.2500     3.2500    -0.5030 C.3   1 <1>  -0.1600 
 22 H        0.5310    -4.0230    -1.0410 H     1 <1>   0.0800 
 23 H       -0.2770    -2.9170     0.0450 H     1 <1>   0.0800 
 24 H        3.6730    -0.8750    -2.0440 H     1 <1>   0.0800 
 25 H        2.1300     1.3810    -0.1760 H     1 <1>   0.0800 
 26 H        3.7870     1.2570    -0.7180 H     1 <1>   0.0800 
 27 H        1.8910    -4.8920     0.8440 H     1 <1>   0.0800 
 28 H        0.1860    -5.0680     1.1730 H     1 <1>   0.0800 
 29 H        1.0790    -3.7780     1.9370 H     1 <1>   0.0800 
 30 H        5.5040    -2.4510    -1.2580 H     1 <1>   0.0800 
 31 H        5.0630    -2.0840     0.3850 H     1 <1>   0.0800 
 32 H        2.8160     0.9780     2.1450 H     1 <1>   0.0800 
 33 H        3.7010     2.3310     1.4900 H     1 <1>   0.0800 
 34 H        4.4840     0.7780     1.6410 H     1 <1>   0.0800 
 35 H        6.7530    -0.8200     1.1750 H     1 <1>   0.3700 
 36 H        8.2590     0.7830     1.4520 H     1 <1>   0.0800 
 37 H        6.3990     2.3340     1.2250 H     1 <1>   0.0800 
 38 H        6.5990     2.3630    -0.5090 H     1 <1>   0.0800 
 39 H        8.4610     0.7910    -1.5580 H     1 <1>   0.0800 
 40 H        9.3880    -0.2060    -0.4670 H     1 <1>   0.0800 
 41 H        8.5910     3.3540     1.5380 H     1 <1>   0.0800 
 42 H        7.6550     4.3330     0.4460 H     1 <1>   0.0800 
 43 H       10.6510     1.7940    -1.2350 H     1 <1>   0.0800 
 44 H       10.4510     1.7740     0.4940 H     1 <1>   0.0800 
 45 H        9.9860     4.0210    -0.3560 H     1 <1>   0.0800 
 46 H        8.8190     3.3890    -1.4810 H     1 <1>   0.0800 
@<TRIPOS>BOND
  1   1   2  2   
  2   2   3  am  
  3   2   4  am  
  4   3   5  am  
  5   3   6  1   
  6   4   7  1   
  7   4   8  1   
  8   5   7  1   
  9   5   9  2   
 10   6  10  1   
 11   6  22  1   
 12   6  23  1   
 13   7  11  1   
 14   7  24  1   
 15   8  12  1   
 16   8  25  1   
 17   8  26  1   
 18  10  27  1   
 19  10  28  1   
 20  10  29  1   
 21  11  13  1   
 22  11  30  1   
 23  11  31  1   
 24  12  32  1   
 25  12  33  1   
 26  12  34  1   
 27  13  14  2   
 28  13  15  am  
 29  15  16  1   
 30  15  35  1   
 31  16  17  1   
 32  16  18  1   
 33  16  36  1   
 34  17  19  1   
 35  17  37  1   
 36  17  38  1   
 37  18  20  1   
 38  18  39  1   
 39  18  40  1   
 40  19  21  1   
 41  19  41  1   
 42  19  42  1   
 43  20  21  1   
 44  20  43  1   
 45  20  44  1   
 46  21  45  1   
 47  21  46  1   
@<TRIPOS>SUBSTRUCTURE
  1 ****  13 GROUP 4 **** **** 0

# MOE 2024.06 (io_trps.svl 2023.06)
