@<TRIPOS>MOLECULE
NONAME
44 47 1 0 0 
SMALL
USER_CHARGES


@<TRIPOS>ATOM
  1 S       -0.5220     0.0980    -1.0140 S.3   1 <1>  -0.0800 
  2 C       -1.6480     1.2590    -0.3090 C.2   1 <1>   0.1660 
  3 C        0.8230     1.1220    -0.5490 C.2   1 <1>  -0.1400 
  4 N       -2.9860     1.0670    -0.3220 N.2   1 <1>  -0.5760 
  5 C       -0.9970     2.3300     0.2280 C.2   1 <1>  -0.0860 
  6 C        0.4240     2.2210     0.0730 C.2   1 <1>  -0.1810 
  7 C        2.2970     0.9590    -0.7370 C.3   1 <1>   0.0200 
  8 C       -3.6660     2.0120     0.2310 C.2   1 <1>   0.6510 
  9 C       -1.7950     3.3400     0.8290 C.2   1 <1>   0.7160 
 10 C        1.6000     3.0770     0.4570 C.3   1 <1>   0.0210 
 11 C        2.8170     2.2590    -0.0670 C.3   1 <1>  -0.1600 
 12 S       -5.4370     1.8000     0.2410 S.3   1 <1>  -0.3710 
 13 N       -3.1610     3.1560     0.8100 N.am  1 <1>  -0.4200 
 14 O       -1.3030     4.3330     1.3470 O.2   1 <1>  -0.5700 
 15 C       -5.7040     0.1940    -0.6590 C.3   1 <1>   0.1310 
 16 C       -4.0400     4.2330     1.3420 C.3   1 <1>   0.3200 
 17 C       -7.1790    -0.1530    -0.7130 C.2   1 <1>   0.6590 
 18 C       -4.5430     5.1340     0.2240 C.2   1 <1>  -0.0400 
 19 O       -7.7960    -0.1380    -1.7480 O.2   1 <1>  -0.5700 
 20 O       -7.7440    -0.4960     0.4390 O.3   1 <1>  -0.4300 
 21 O       -5.3910     6.0940     0.5420 O.3   1 <1>  -0.2800 
 22 C       -4.2870     5.1560    -1.1040 C.2   1 <1>  -0.1500 
 23 C       -9.1080    -0.8370     0.5170 C.3   1 <1>   0.1200 
 24 C       -5.6950     6.7430    -0.5650 C.2   1 <1>  -0.0100 
 25 C       -5.0450     6.2130    -1.6210 C.2   1 <1>  -0.1500 
 26 C       -9.4280    -1.1810     1.9680 C.3   1 <1>  -0.2400 
 27 H        2.5460     0.9200    -1.7830 H     1 <1>   0.0800 
 28 H        2.6500     0.0790    -0.2300 H     1 <1>   0.0800 
 29 H        1.6400     3.2020     1.5250 H     1 <1>   0.0800 
 30 H        1.5360     4.0390    -0.0200 H     1 <1>   0.0800 
 31 H        3.3680     2.8440    -0.7830 H     1 <1>   0.0800 
 32 H        3.4710     2.0130     0.7510 H     1 <1>   0.0800 
 33 H       -5.1600    -0.5670    -0.1330 H     1 <1>   0.0800 
 34 H       -5.3110     0.3130    -1.6510 H     1 <1>   0.0800 
 35 H       -3.5090     4.8370     2.0570 H     1 <1>   0.0800 
 36 H       -4.8790     3.8070     1.8620 H     1 <1>   0.0800 
 37 H       -3.6450     4.5170    -1.6840 H     1 <1>   0.1500 
 38 H       -9.2860    -1.6800    -0.1300 H     1 <1>   0.0800 
 39 H       -9.6890     0.0050     0.1810 H     1 <1>   0.0800 
 40 H       -6.3820     7.5700    -0.5100 H     1 <1>   0.1500 
 41 H       -5.0790     6.5120    -2.6540 H     1 <1>   0.1500 
 42 H       -8.8330    -2.0150     2.2920 H     1 <1>   0.0800 
 43 H      -10.4660    -1.4450     2.0570 H     1 <1>   0.0800 
 44 H       -9.2350    -0.3330     2.6000 H     1 <1>   0.0800 
@<TRIPOS>BOND
  1   1   2  1   
  2   1   3  1   
  3   2   4  1   
  4   2   5  2   
  5   3   6  2   
  6   3   7  1   
  7   4   8  2   
  8   5   6  1   
  9   5   9  1   
 10   6  10  1   
 11   7  11  1   
 12   7  27  1   
 13   7  28  1   
 14   8  12  1   
 15   8  13  1   
 16   9  13  am  
 17   9  14  2   
 18  10  11  1   
 19  10  29  1   
 20  10  30  1   
 21  11  31  1   
 22  11  32  1   
 23  12  15  1   
 24  13  16  1   
 25  15  17  1   
 26  15  33  1   
 27  15  34  1   
 28  16  18  1   
 29  16  35  1   
 30  16  36  1   
 31  17  19  2   
 32  17  20  1   
 33  18  21  1   
 34  18  22  2   
 35  20  23  1   
 36  21  24  1   
 37  22  25  1   
 38  22  37  1   
 39  23  26  1   
 40  23  38  1   
 41  23  39  1   
 42  24  25  2   
 43  24  40  1   
 44  25  41  1   
 45  26  42  1   
 46  26  43  1   
 47  26  44  1   
@<TRIPOS>SUBSTRUCTURE
  1 ****   8 GROUP 4 **** **** 0

# MOE 2024.06 (io_trps.svl 2023.06)
