@<TRIPOS>MOLECULE
NONAME
41 42 1 0 0 
SMALL
USER_CHARGES


@<TRIPOS>ATOM
  1 O        0.0640     0.7810    -1.5810 O.2   1 <1>  -0.5700 
  2 C        0.0020     1.5710    -0.6600 C.2   1 <1>   0.5440 
  3 N       -1.1880     1.7160    -0.0100 N.am  1 <1>  -0.7300 
  4 C        1.1650     2.3370    -0.2480 C.ar  1 <1>   0.0860 
  5 C       -2.4490     1.0910    -0.4140 C.3   1 <1>   0.3640 
  6 C        2.4480     1.8050    -0.3600 C.ar  1 <1>  -0.1500 
  7 C        1.0480     3.6270     0.2740 C.ar  1 <1>  -0.1500 
  8 C       -3.5740     2.0760    -0.1190 C.ar  1 <1>  -0.1430 
  9 C       -2.6110    -0.2280     0.3380 C.3   1 <1>  -0.2400 
 10 C        3.5690     2.5110     0.0410 C.ar  1 <1>   0.0820 
 11 C        2.1600     4.3440     0.6780 C.ar  1 <1>  -0.1500 
 12 C       -3.9900     2.3930     1.1610 C.ar  1 <1>  -0.1500 
 13 C       -4.2350     2.7230    -1.1450 C.ar  1 <1>  -0.1500 
 14 O        4.7650     1.8910    -0.1080 O.3   1 <1>  -0.3630 
 15 C        3.4220     3.7910     0.5660 C.ar  1 <1>  -0.1500 
 16 C       -5.0160     3.3050     1.3440 C.ar  1 <1>   0.1600 
 17 C       -5.2470     3.6220    -0.8540 C.ar  1 <1>   0.1600 
 18 C        5.9740     2.5280     0.2370 C.3   1 <1>   0.1200 
 19 N       -5.6530     3.9280     0.3670 N.ar  1 <1>  -0.6200 
 20 C        7.1240     1.5690    -0.0690 C.3   1 <1>  -0.1600 
 21 C        8.4800     2.1920     0.2810 C.3   1 <1>  -0.2400 
 22 H       -1.2680     2.3570     0.7770 H     1 <1>   0.3700 
 23 H       -2.4220     0.8850    -1.4720 H     1 <1>   0.0800 
 24 H        2.5740     0.8190    -0.7690 H     1 <1>   0.1500 
 25 H        0.0770     4.0800     0.3570 H     1 <1>   0.1500 
 26 H       -2.5530    -0.0820     1.4000 H     1 <1>   0.0800 
 27 H       -1.8380    -0.9100     0.0330 H     1 <1>   0.0800 
 28 H       -3.5630    -0.6650     0.0980 H     1 <1>   0.0800 
 29 H        2.0440     5.3370     1.0780 H     1 <1>   0.1500 
 30 H       -3.5310     1.9410     2.0210 H     1 <1>   0.1500 
 31 H       -3.9690     2.5400    -2.1710 H     1 <1>   0.1500 
 32 H        4.2700     4.3660     0.8870 H     1 <1>   0.1500 
 33 H       -5.3280     3.5360     2.3490 H     1 <1>   0.1500 
 34 H       -5.7500     4.1150    -1.6690 H     1 <1>   0.1500 
 35 H        5.9460     2.7650     1.2870 H     1 <1>   0.0800 
 36 H        6.0630     3.4270    -0.3480 H     1 <1>   0.0800 
 37 H        7.1070     1.3210    -1.1160 H     1 <1>   0.0800 
 38 H        6.9910     0.6650     0.5000 H     1 <1>   0.0800 
 39 H        8.6420     3.0890    -0.2910 H     1 <1>   0.0800 
 40 H        9.2710     1.4980     0.0560 H     1 <1>   0.0800 
 41 H        8.5260     2.4330     1.3280 H     1 <1>   0.0800 
@<TRIPOS>BOND
  1   1   2  2   
  2   2   3  am  
  3   2   4  1   
  4   3   5  1   
  5   3  22  1   
  6   4   6  ar  
  7   4   7  ar  
  8   5   8  1   
  9   5   9  1   
 10   5  23  1   
 11   6  10  ar  
 12   6  24  1   
 13   7  11  ar  
 14   7  25  1   
 15   8  12  ar  
 16   8  13  ar  
 17   9  26  1   
 18   9  27  1   
 19   9  28  1   
 20  10  14  1   
 21  10  15  ar  
 22  11  15  ar  
 23  11  29  1   
 24  12  16  ar  
 25  12  30  1   
 26  13  17  ar  
 27  13  31  1   
 28  14  18  1   
 29  15  32  1   
 30  16  19  ar  
 31  16  33  1   
 32  17  19  ar  
 33  17  34  1   
 34  18  20  1   
 35  18  35  1   
 36  18  36  1   
 37  20  21  1   
 38  20  37  1   
 39  20  38  1   
 40  21  39  1   
 41  21  40  1   
 42  21  41  1   
@<TRIPOS>SUBSTRUCTURE
  1 ****   4 GROUP 4 **** **** 0

# MOE 2024.06 (io_trps.svl 2023.06)
