@<TRIPOS>MOLECULE
NONAME
40 40 1 0 0 
SMALL
USER_CHARGES


@<TRIPOS>ATOM
  1 I        0.0690     0.1980     1.3230 I     1 <1>  -0.0810 
  2 C        2.0050     0.9380     0.8330 C.ar  1 <1>   0.0810 
  3 C        2.1030     2.0880     0.0720 C.ar  1 <1>  -0.1500 
  4 C        3.1140     0.2480     1.2890 C.ar  1 <1>  -0.1500 
  5 C        3.3660     2.5600    -0.2410 C.ar  1 <1>  -0.1500 
  6 C        4.3720     0.7320     0.9690 C.ar  1 <1>  -0.1500 
  7 C        4.5000     1.8910     0.2010 C.ar  1 <1>   0.0830 
  8 O        5.6940     2.4290    -0.1560 O.3   1 <1>  -0.3630 
  9 C        6.9110     1.8400     0.2310 C.3   1 <1>   0.1200 
 10 C        8.0390     2.7010    -0.3410 C.3   1 <1>  -0.1600 
 11 C        9.4240     2.1440     0.0170 C.3   1 <1>  -0.1600 
 12 C       10.5240     3.0350    -0.5680 C.3   1 <1>   0.3430 
 13 N       11.8740     2.5670    -0.1420 N.4   1 <1>  -0.9590 
 14 C       12.8810     3.6330    -0.3980 C.3   1 <1>   0.3430 
 15 C       12.2540     1.2800    -0.7890 C.3   1 <1>   0.3430 
 16 C       14.1500     3.3520     0.3980 C.3   1 <1>  -0.2400 
 17 C       12.4050     0.2220     0.2940 C.3   1 <1>  -0.2400 
 18 H        1.2210     2.6010    -0.2680 H     1 <1>   0.1500 
 19 H        2.9970    -0.6430     1.8790 H     1 <1>   0.1500 
 20 H        3.4810     3.4510    -0.8310 H     1 <1>   0.1500 
 21 H        5.2310     0.1960     1.3230 H     1 <1>   0.1500 
 22 H        6.9440     0.8410    -0.1700 H     1 <1>   0.0800 
 23 H        6.9480     1.8150     1.3060 H     1 <1>   0.0800 
 24 H        7.9360     3.6990     0.0510 H     1 <1>   0.0800 
 25 H        7.9280     2.7410    -1.4110 H     1 <1>   0.0800 
 26 H        9.5050     1.1460    -0.3770 H     1 <1>   0.0800 
 27 H        9.5200     2.1080     1.0880 H     1 <1>   0.0800 
 28 H       10.3670     4.0430    -0.2190 H     1 <1>   0.0800 
 29 H       10.4570     3.0410    -1.6450 H     1 <1>   0.0800 
 30 H       11.8480     2.4080     0.8740 H     1 <1>   0.4500 
 31 H       12.4850     4.5880    -0.0870 H     1 <1>   0.0800 
 32 H       13.1060     3.6900    -1.4510 H     1 <1>   0.0800 
 33 H       13.1860     1.3870    -1.3220 H     1 <1>   0.0800 
 34 H       11.4970     0.9750    -1.4950 H     1 <1>   0.0800 
 35 H       13.9360     3.2810     1.4490 H     1 <1>   0.0800 
 36 H       14.6340     2.4520     0.0640 H     1 <1>   0.0800 
 37 H       14.8410     4.1640     0.2560 H     1 <1>   0.0800 
 38 H       13.1810     0.4900     0.9890 H     1 <1>   0.0800 
 39 H       11.4810     0.0730     0.8230 H     1 <1>   0.0800 
 40 H       12.6800    -0.7130    -0.1620 H     1 <1>   0.0800 
@<TRIPOS>BOND
  1   1   2  1   
  2   2   3  ar  
  3   2   4  ar  
  4   3   5  ar  
  5   3  18  1   
  6   4   6  ar  
  7   4  19  1   
  8   5   7  ar  
  9   5  20  1   
 10   6   7  ar  
 11   6  21  1   
 12   7   8  1   
 13   8   9  1   
 14   9  10  1   
 15   9  22  1   
 16   9  23  1   
 17  10  11  1   
 18  10  24  1   
 19  10  25  1   
 20  11  12  1   
 21  11  26  1   
 22  11  27  1   
 23  12  13  1   
 24  12  28  1   
 25  12  29  1   
 26  13  14  1   
 27  13  15  1   
 28  13  30  1   
 29  14  16  1   
 30  14  31  1   
 31  14  32  1   
 32  15  17  1   
 33  15  33  1   
 34  15  34  1   
 35  16  35  1   
 36  16  36  1   
 37  16  37  1   
 38  17  38  1   
 39  17  39  1   
 40  17  40  1   
@<TRIPOS>SUBSTRUCTURE
  1 ****   9 GROUP 4 **** **** 0

# MOE 2024.06 (io_trps.svl 2023.06)
