@<TRIPOS>MOLECULE
NONAME
39 39 1 0 0 
SMALL
USER_CHARGES


@<TRIPOS>ATOM
  1 S        0.5020    -0.3490    -1.2390 S.3   1 <1>  -0.3310 
  2 C        0.2220    -1.8970    -0.4130 C.2   1 <1>  -0.0370 
  3 C        0.2050     0.9500     0.0400 C.3   1 <1>   0.0700 
  4 C        0.9290    -2.3440     0.6580 C.2   1 <1>   0.0290 
  5 C       -0.8900    -2.6860    -1.0860 C.3   1 <1>  -0.0220 
  6 C       -0.5190     2.1110    -0.6350 C.3   1 <1>  -0.2400 
  7 C        0.6920    -3.6590     1.1930 C.2   1 <1>   0.4950 
  8 C        1.9530    -1.5860     1.3230 C.2   1 <1>   0.4950 
  9 C       -1.4940    -3.7410    -0.1360 C.3   1 <1>   0.0000 
 10 O        1.3040    -4.1300     2.1150 O.2   1 <1>  -0.5700 
 11 C       -0.3580    -4.5410     0.5340 C.3   1 <1>  -0.0990 
 12 O        1.7120    -0.6640     2.0600 O.2   1 <1>  -0.5700 
 13 C        3.4100    -1.9500     1.0820 C.3   1 <1>  -0.0990 
 14 C       -2.3560    -3.0520     0.9400 C.3   1 <1>  -0.2400 
 15 C       -2.3950    -4.6970    -0.9330 C.3   1 <1>  -0.2400 
 16 C        3.9630    -1.2860    -0.1880 C.3   1 <1>  -0.1600 
 17 C        5.4360    -1.6420    -0.4060 C.3   1 <1>  -0.2400 
 18 H        1.1640     1.2490     0.4260 H     1 <1>   0.0800 
 19 H       -0.3890     0.5100     0.8220 H     1 <1>   0.0800 
 20 H       -0.4810    -3.1610    -1.9620 H     1 <1>   0.0800 
 21 H       -1.6640    -2.0140    -1.4140 H     1 <1>   0.0800 
 22 H        0.0850     2.5110    -1.4310 H     1 <1>   0.0800 
 23 H       -0.7060     2.8900     0.0810 H     1 <1>   0.0800 
 24 H       -1.4580     1.7780    -1.0390 H     1 <1>   0.0800 
 25 H       -0.7670    -5.2060     1.2740 H     1 <1>   0.0800 
 26 H        0.1430    -5.1460    -0.2000 H     1 <1>   0.0800 
 27 H        3.5060    -3.0180     1.0070 H     1 <1>   0.0800 
 28 H        3.9830    -1.6320     1.9350 H     1 <1>   0.0800 
 29 H       -1.7820    -2.3560     1.5250 H     1 <1>   0.0800 
 30 H       -2.7780    -3.7800     1.6090 H     1 <1>   0.0800 
 31 H       -3.1660    -2.5100     0.4830 H     1 <1>   0.0800 
 32 H       -1.8330    -5.2070    -1.6960 H     1 <1>   0.0800 
 33 H       -3.1940    -4.1560    -1.4090 H     1 <1>   0.0800 
 34 H       -2.8300    -5.4370    -0.2830 H     1 <1>   0.0800 
 35 H        3.8620    -0.2170    -0.1020 H     1 <1>   0.0800 
 36 H        3.3900    -1.6040    -1.0430 H     1 <1>   0.0800 
 37 H        6.0310    -1.3080     0.4260 H     1 <1>   0.0800 
 38 H        5.8000    -1.1640    -1.2990 H     1 <1>   0.0800 
 39 H        5.5570    -2.7050    -0.5150 H     1 <1>   0.0800 
@<TRIPOS>BOND
  1   1   2  1   
  2   1   3  1   
  3   2   4  2   
  4   2   5  1   
  5   3   6  1   
  6   3  18  1   
  7   3  19  1   
  8   4   7  1   
  9   4   8  1   
 10   5   9  1   
 11   5  20  1   
 12   5  21  1   
 13   6  22  1   
 14   6  23  1   
 15   6  24  1   
 16   7  10  2   
 17   7  11  1   
 18   8  12  2   
 19   8  13  1   
 20   9  11  1   
 21   9  14  1   
 22   9  15  1   
 23  11  25  1   
 24  11  26  1   
 25  13  16  1   
 26  13  27  1   
 27  13  28  1   
 28  14  29  1   
 29  14  30  1   
 30  14  31  1   
 31  15  32  1   
 32  15  33  1   
 33  15  34  1   
 34  16  17  1   
 35  16  35  1   
 36  16  36  1   
 37  17  37  1   
 38  17  38  1   
 39  17  39  1   
@<TRIPOS>SUBSTRUCTURE
  1 ****   4 GROUP 4 **** **** 0

# MOE 2024.06 (io_trps.svl 2023.06)
