@<TRIPOS>MOLECULE
NONAME
55 57 1 0 0 
SMALL
USER_CHARGES


@<TRIPOS>ATOM
  1 O        0.4750    -1.8860     2.4800 O.2   1 <1>  -0.5700 
  2 C        0.7730    -1.6750     1.3250 C.2   1 <1>   0.5440 
  3 N        0.0480    -2.1120     0.2470 N.am  1 <1>  -0.4200 
  4 C        1.9150    -0.9470     0.8480 C.ar  1 <1>   0.0860 
  5 C        0.6910    -1.7210    -0.8960 C.2   1 <1>   0.5440 
  6 C       -1.2310    -2.8750     0.2910 C.3   1 <1>   0.2010 
  7 C        1.8630    -0.9750    -0.5370 C.ar  1 <1>   0.0860 
  8 C        2.9490    -0.2860     1.4980 C.ar  1 <1>  -0.1500 
  9 O        0.2990    -1.9820    -2.0130 O.2   1 <1>  -0.5700 
 10 C       -2.2510    -2.3140     1.2830 C.2   1 <1>   0.5690 
 11 C        2.8460    -0.3440    -1.2890 C.ar  1 <1>  -0.1500 
 12 C        3.9280     0.3440     0.7480 C.ar  1 <1>  -0.1500 
 13 O       -2.7920    -3.0640     2.0560 O.2   1 <1>  -0.5700 
 14 N       -2.6380    -1.0170     1.2900 N.am  1 <1>  -0.7300 
 15 C        3.8770     0.3150    -0.6400 C.ar  1 <1>  -0.1500 
 16 C       -3.3660    -0.3270     0.1880 C.3   1 <1>   0.3610 
 17 C       -4.3970    -1.2530    -0.5370 C.2   1 <1>   0.5690 
 18 C       -2.3360     0.2720    -0.8050 C.3   1 <1>  -0.1600 
 19 C       -4.1470     0.8050     0.8710 C.3   1 <1>  -0.2400 
 20 O       -4.6260    -1.0790    -1.7120 O.2   1 <1>  -0.5700 
 21 N       -5.0440    -2.2270     0.1850 N.am  1 <1>  -0.5470 
 22 C       -1.2530     1.1920    -0.2070 C.3   1 <1>  -0.2400 
 23 C       -6.1090    -3.0530    -0.2130 C.ar  1 <1>   0.1170 
 24 C       -5.9390    -4.4410    -0.2110 C.ar  1 <1>  -0.1430 
 25 C       -7.3490    -2.5190    -0.5840 C.ar  1 <1>  -0.1430 
 26 C       -6.9850    -5.2680    -0.5850 C.ar  1 <1>  -0.1500 
 27 C       -4.6170    -5.0800     0.1930 C.3   1 <1>  -0.0970 
 28 C       -8.3800    -3.3640    -0.9600 C.ar  1 <1>  -0.1500 
 29 C       -7.6200    -1.0190    -0.5830 C.3   1 <1>  -0.0970 
 30 C       -8.2020    -4.7340    -0.9620 C.ar  1 <1>  -0.1500 
 31 H       -1.0110    -3.8890     0.5690 H     1 <1>   0.0800 
 32 H       -1.6760    -2.8880    -0.6870 H     1 <1>   0.0800 
 33 H        2.9770    -0.2720     2.5750 H     1 <1>   0.1500 
 34 H        2.7940    -0.3730    -2.3650 H     1 <1>   0.1500 
 35 H        4.7350     0.8590     1.2430 H     1 <1>   0.1500 
 36 H       -2.9950    -0.7180     2.1990 H     1 <1>   0.3700 
 37 H        4.6450     0.8090    -1.2130 H     1 <1>   0.1500 
 38 H       -2.8710     0.8370    -1.5500 H     1 <1>   0.0800 
 39 H       -1.8640    -0.5340    -1.3360 H     1 <1>   0.0800 
 40 H       -3.4990     1.4420     1.4440 H     1 <1>   0.0800 
 41 H       -4.6420     1.4030     0.1270 H     1 <1>   0.0800 
 42 H       -4.9020     0.4010     1.5230 H     1 <1>   0.0800 
 43 H       -4.6110    -2.4830     1.0790 H     1 <1>   0.3700 
 44 H       -1.6860     2.1050     0.1600 H     1 <1>   0.0800 
 45 H       -0.5360     1.4470    -0.9670 H     1 <1>   0.0800 
 46 H       -0.7320     0.7110     0.6010 H     1 <1>   0.0800 
 47 H       -6.8600    -6.3360    -0.5880 H     1 <1>   0.1500 
 48 H       -4.4570    -4.9530     1.2480 H     1 <1>   0.0800 
 49 H       -3.8060    -4.6270    -0.3470 H     1 <1>   0.0800 
 50 H       -4.6150    -6.1330    -0.0250 H     1 <1>   0.0800 
 51 H       -9.3320    -2.9600    -1.2550 H     1 <1>   0.1500 
 52 H       -7.1920    -0.5720    -1.4630 H     1 <1>   0.0800 
 53 H       -7.1920    -0.5590     0.2890 H     1 <1>   0.0800 
 54 H       -8.6760    -0.8190    -0.5800 H     1 <1>   0.0800 
 55 H       -9.0090    -5.3820    -1.2550 H     1 <1>   0.1500 
@<TRIPOS>BOND
  1   1   2  2   
  2   2   3  am  
  3   2   4  1   
  4   3   5  am  
  5   3   6  1   
  6   4   7  ar  
  7   4   8  ar  
  8   5   7  1   
  9   5   9  2   
 10   6  10  1   
 11   6  31  1   
 12   6  32  1   
 13   7  11  ar  
 14   8  12  ar  
 15   8  33  1   
 16  10  13  2   
 17  10  14  am  
 18  11  15  ar  
 19  11  34  1   
 20  12  15  ar  
 21  12  35  1   
 22  14  16  1   
 23  14  36  1   
 24  15  37  1   
 25  16  17  1   
 26  16  18  1   
 27  16  19  1   
 28  17  20  2   
 29  17  21  am  
 30  18  22  1   
 31  18  38  1   
 32  18  39  1   
 33  19  40  1   
 34  19  41  1   
 35  19  42  1   
 36  21  23  1   
 37  21  43  1   
 38  22  44  1   
 39  22  45  1   
 40  22  46  1   
 41  23  24  ar  
 42  23  25  ar  
 43  24  26  ar  
 44  24  27  1   
 45  25  28  ar  
 46  25  29  1   
 47  26  30  ar  
 48  26  47  1   
 49  27  48  1   
 50  27  49  1   
 51  27  50  1   
 52  28  30  ar  
 53  28  51  1   
 54  29  52  1   
 55  29  53  1   
 56  29  54  1   
 57  30  55  1   
@<TRIPOS>SUBSTRUCTURE
  1 ****  10 GROUP 4 **** **** 0

# MOE 2024.06 (io_trps.svl 2023.06)
