@<TRIPOS>MOLECULE
NONAME
47 49 1 0 0 
SMALL
USER_CHARGES


@<TRIPOS>ATOM
  1 F        0.7570    -0.3550     1.2900 F     1 <1>  -0.1900 
  2 C        1.8450    -0.9740     0.9090 C.ar  1 <1>   0.1900 
  3 C        2.0680    -1.1600    -0.4420 C.ar  1 <1>  -0.1500 
  4 C        2.7320    -1.4180     1.8720 C.ar  1 <1>  -0.1500 
  5 C        3.2210    -1.8160    -0.8360 C.ar  1 <1>  -0.1500 
  6 C        3.8810    -2.0720     1.4620 C.ar  1 <1>  -0.1500 
  7 C        4.1350    -2.2760     0.1060 C.ar  1 <1>   0.1000 
  8 N        5.2840    -2.9320    -0.3230 N.pl3 1 <1>  -0.8380 
  9 C        5.3540    -4.3940    -0.0440 C.3   1 <1>   0.2090 
 10 C        6.5730    -2.2040    -0.1310 C.3   1 <1>   0.2090 
 11 C        6.4900    -5.0510    -0.8570 C.3   1 <1>   0.3430 
 12 C        7.7040    -2.8740    -0.9390 C.3   1 <1>   0.3430 
 13 N        7.8180    -4.3590    -0.6680 N.4   1 <1>  -0.9590 
 14 C        8.8880    -4.9850    -1.4910 C.3   1 <1>   0.4860 
 15 C       10.2180    -4.3670    -1.1060 C.ar  1 <1>  -0.1430 
 16 C       10.8120    -3.4240    -1.9330 C.ar  1 <1>  -0.1500 
 17 C       10.8510    -4.7340     0.0750 C.ar  1 <1>  -0.1500 
 18 C       12.0160    -2.8460    -1.5740 C.ar  1 <1>  -0.1500 
 19 C       12.0570    -4.1560     0.4320 C.ar  1 <1>  -0.1500 
 20 C       12.6450    -3.2030    -0.3940 C.ar  1 <1>   0.0830 
 21 O       13.8200    -2.5860    -0.1210 O.3   1 <1>  -0.3620 
 22 C       14.6000    -2.9380     0.9980 C.3   1 <1>   0.1200 
 23 C       15.8680    -2.0900     0.9750 C.3   1 <1>  -0.2400 
 24 H        1.3540    -0.8000    -1.1610 H     1 <1>   0.1500 
 25 H        2.5200    -1.2520     2.9130 H     1 <1>   0.1500 
 26 H        3.4220    -1.9750    -1.8800 H     1 <1>   0.1500 
 27 H        4.5810    -2.4240     2.1960 H     1 <1>   0.1500 
 28 H        4.4140    -4.8490    -0.3090 H     1 <1>   0.0800 
 29 H        5.5130    -4.5560     1.0080 H     1 <1>   0.0800 
 30 H        6.8290    -2.1870     0.9140 H     1 <1>   0.0800 
 31 H        6.4560    -1.1850    -0.4590 H     1 <1>   0.0800 
 32 H        6.2110    -5.0150    -1.8980 H     1 <1>   0.0800 
 33 H        6.5690    -6.0870    -0.5730 H     1 <1>   0.0800 
 34 H        8.6360    -2.3850    -0.7040 H     1 <1>   0.0800 
 35 H        7.5030    -2.7140    -1.9850 H     1 <1>   0.0800 
 36 H        8.1020    -4.4560     0.3140 H     1 <1>   0.4500 
 37 H        8.6970    -4.8230    -2.5390 H     1 <1>   0.0800 
 38 H        8.9250    -6.0470    -1.3100 H     1 <1>   0.0800 
 39 H       10.3560    -3.1290    -2.8630 H     1 <1>   0.1500 
 40 H       10.4220    -5.4740     0.7280 H     1 <1>   0.1500 
 41 H       12.4850    -2.1140    -2.2090 H     1 <1>   0.1500 
 42 H       12.5270    -4.4560     1.3500 H     1 <1>   0.1500 
 43 H       14.8420    -3.9840     0.9300 H     1 <1>   0.0800 
 44 H       14.0290    -2.7410     1.8890 H     1 <1>   0.0800 
 45 H       16.4240    -2.2810     0.0740 H     1 <1>   0.0800 
 46 H       16.4870    -2.3350     1.8180 H     1 <1>   0.0800 
 47 H       15.6160    -1.0460     1.0260 H     1 <1>   0.0800 
@<TRIPOS>BOND
  1   1   2  1   
  2   2   3  ar  
  3   2   4  ar  
  4   3   5  ar  
  5   3  24  1   
  6   4   6  ar  
  7   4  25  1   
  8   5   7  ar  
  9   5  26  1   
 10   6   7  ar  
 11   6  27  1   
 12   7   8  1   
 13   8   9  1   
 14   8  10  1   
 15   9  11  1   
 16   9  28  1   
 17   9  29  1   
 18  10  12  1   
 19  10  30  1   
 20  10  31  1   
 21  11  13  1   
 22  11  32  1   
 23  11  33  1   
 24  12  13  1   
 25  12  34  1   
 26  12  35  1   
 27  13  14  1   
 28  13  36  1   
 29  14  15  1   
 30  14  37  1   
 31  14  38  1   
 32  15  16  ar  
 33  15  17  ar  
 34  16  18  ar  
 35  16  39  1   
 36  17  19  ar  
 37  17  40  1   
 38  18  20  ar  
 39  18  41  1   
 40  19  20  ar  
 41  19  42  1   
 42  20  21  1   
 43  21  22  1   
 44  22  23  1   
 45  22  43  1   
 46  22  44  1   
 47  23  45  1   
 48  23  46  1   
 49  23  47  1   
@<TRIPOS>SUBSTRUCTURE
  1 ****  12 GROUP 4 **** **** 0

# MOE 2024.06 (io_trps.svl 2023.06)
