@<TRIPOS>MOLECULE
NONAME
41 44 1 0 0 
SMALL
USER_CHARGES


@<TRIPOS>ATOM
  1 S       -0.0160    -0.0170    -0.0730 S.o2  1 <1>   1.4590 
  2 O       -1.1750    -0.9330    -0.2380 O.co2 1 <1>  -0.8170 
  3 O       -0.0080     0.6780     1.2370 O.co2 1 <1>  -0.8170 
  4 O        0.1900     0.8920    -1.2280 O.co2 1 <1>  -0.8170 
  5 C        1.4580    -1.1160    -0.0420 C.ar  1 <1>  -0.0090 
  6 C        1.3920    -2.3910     0.5090 C.ar  1 <1>  -0.1500 
  7 C        2.6870    -0.7010    -0.5420 C.ar  1 <1>  -0.1500 
  8 C        2.5000    -3.2200     0.5540 C.ar  1 <1>  -0.1500 
  9 C        3.8000    -1.5230    -0.5010 C.ar  1 <1>  -0.1500 
 10 C        3.7230    -2.7980     0.0480 C.ar  1 <1>   0.1000 
 11 N        4.8300    -3.6510     0.1020 N.pl3 1 <1>  -0.4580 
 12 N        6.0950    -3.3570    -0.3650 N.2   1 <1>  -0.4920 
 13 C        7.0620    -4.1780    -0.2840 C.2   1 <1>   0.3280 
 14 C        8.4510    -3.8240    -0.8110 C.3   1 <1>  -0.0190 
 15 C        7.0350    -5.5910     0.3150 C.3   1 <1>  -0.0190 
 16 C        8.8470    -4.8420    -1.8980 C.3   1 <1>  -0.1600 
 17 C        9.4600    -3.8990     0.3530 C.3   1 <1>  -0.1600 
 18 C        7.4400    -6.6000    -0.7780 C.3   1 <1>  -0.1600 
 19 C        8.0520    -5.6570     1.4720 C.3   1 <1>  -0.1600 
 20 C        8.8490    -6.2670    -1.3090 C.3   1 <1>  -0.0800 
 21 C        9.4640    -5.3190     0.9530 C.3   1 <1>  -0.0800 
 22 C        9.8550    -6.3290    -0.1430 C.3   1 <1>  -0.1600 
 23 H        0.4460    -2.7220     0.9030 H     1 <1>   0.1500 
 24 H        2.7570     0.2850    -0.9680 H     1 <1>   0.1500 
 25 H        2.4070    -4.1980     0.9850 H     1 <1>   0.1500 
 26 H        4.7380    -1.1790    -0.8960 H     1 <1>   0.1500 
 27 H        4.6680    -4.5670     0.5280 H     1 <1>   0.4000 
 28 H        8.4410    -2.8310    -1.2240 H     1 <1>   0.0800 
 29 H        6.0600    -5.8430     0.6860 H     1 <1>   0.0800 
 30 H        8.1470    -4.7850    -2.7140 H     1 <1>   0.0800 
 31 H        9.8230    -4.6030    -2.2850 H     1 <1>   0.0800 
 32 H        9.1880    -3.1830     1.1100 H     1 <1>   0.0800 
 33 H       10.4440    -3.6460     0.0000 H     1 <1>   0.0800 
 34 H        6.7290    -6.5600    -1.5860 H     1 <1>   0.0800 
 35 H        7.4270    -7.5990    -0.3780 H     1 <1>   0.0800 
 36 H        7.7700    -4.9570     2.2400 H     1 <1>   0.0800 
 37 H        8.0490    -6.6420     1.9070 H     1 <1>   0.0800 
 38 H        9.1280    -6.9750    -2.0700 H     1 <1>   0.0800 
 39 H       10.1720    -5.3690     1.7640 H     1 <1>   0.0800 
 40 H       10.8440    -6.1090    -0.5040 H     1 <1>   0.0800 
 41 H        9.8740    -7.3240     0.2690 H     1 <1>   0.0800 
@<TRIPOS>BOND
  1   1   2  ar  
  2   1   3  ar  
  3   1   4  ar  
  4   1   5  1   
  5   5   6  ar  
  6   5   7  ar  
  7   6   8  ar  
  8   6  23  1   
  9   7   9  ar  
 10   7  24  1   
 11   8  10  ar  
 12   8  25  1   
 13   9  10  ar  
 14   9  26  1   
 15  10  11  1   
 16  11  12  1   
 17  11  27  1   
 18  12  13  2   
 19  13  14  1   
 20  13  15  1   
 21  14  16  1   
 22  14  17  1   
 23  14  28  1   
 24  15  18  1   
 25  15  19  1   
 26  15  29  1   
 27  16  20  1   
 28  16  30  1   
 29  16  31  1   
 30  17  21  1   
 31  17  32  1   
 32  17  33  1   
 33  18  20  1   
 34  18  34  1   
 35  18  35  1   
 36  19  21  1   
 37  19  36  1   
 38  19  37  1   
 39  20  22  1   
 40  20  38  1   
 41  21  22  1   
 42  21  39  1   
 43  22  40  1   
 44  22  41  1   
@<TRIPOS>SUBSTRUCTURE
  1 ****  11 GROUP 4 **** **** 0

# MOE 2024.06 (io_trps.svl 2023.06)
