@<TRIPOS>MOLECULE
NONAME
33 34 1 0 0 
SMALL
USER_CHARGES


@<TRIPOS>ATOM
  1 O       -0.1640     0.0360     0.0300 O.2   1 <1>  -0.5700 
  2 C        0.3070     1.1250    -0.1840 C.2   1 <1>   0.6300 
  3 N       -0.4280     2.2610    -0.3640 N.am  1 <1>  -0.5470 
  4 C        1.8190     1.2590    -0.2860 C.3   1 <1>  -0.1000 
  5 C       -1.8160     2.4850    -0.3280 C.ar  1 <1>   0.1170 
  6 C        2.6890     0.9780     0.9050 C.3   1 <1>  -0.2000 
  7 C        2.5680     2.3770     0.3870 C.3   1 <1>  -0.2000 
  8 C       -2.7070     1.6290     0.3120 C.ar  1 <1>  -0.1500 
  9 C       -2.3250     3.6220    -0.9460 C.ar  1 <1>  -0.1500 
 10 C       -4.0630     1.8990     0.3270 C.ar  1 <1>  -0.1500 
 11 C       -3.6810     3.8990    -0.9340 C.ar  1 <1>  -0.1500 
 12 C       -4.5620     3.0320    -0.2940 C.ar  1 <1>   0.0830 
 13 O       -5.9060     3.2210    -0.2310 O.3   1 <1>  -0.3630 
 14 C       -6.5160     4.3490    -0.8390 C.3   1 <1>   0.1810 
 15 C       -8.0240     4.3350    -0.6370 C.2   1 <1>   0.6590 
 16 O       -8.7840     4.2330    -1.5680 O.2   1 <1>  -0.5700 
 17 O       -8.4580     4.4760     0.6120 O.3   1 <1>  -0.4300 
 18 C       -9.8350     4.4800     0.9240 C.3   1 <1>   0.0400 
 19 H        0.1320     3.0790    -0.5870 H     1 <1>   0.3700 
 20 H        2.1780     0.9060    -1.2360 H     1 <1>   0.1000 
 21 H        3.6070     0.4380     0.7520 H     1 <1>   0.1000 
 22 H        2.2080     0.7170     1.8330 H     1 <1>   0.1000 
 23 H        2.0420     3.0880     1.0000 H     1 <1>   0.1000 
 24 H        3.4150     2.8110    -0.1160 H     1 <1>   0.1000 
 25 H       -2.3480     0.7440     0.8060 H     1 <1>   0.1500 
 26 H       -1.6550     4.2970    -1.4460 H     1 <1>   0.1500 
 27 H       -4.7430     1.2290     0.8220 H     1 <1>   0.1500 
 28 H       -4.0270     4.7870    -1.4270 H     1 <1>   0.1500 
 29 H       -6.2990     4.3230    -1.8910 H     1 <1>   0.0800 
 30 H       -6.1070     5.2360    -0.3940 H     1 <1>   0.0800 
 31 H       -9.9440     4.6020     1.9870 H     1 <1>   0.0800 
 32 H      -10.2650     3.5440     0.6120 H     1 <1>   0.0800 
 33 H      -10.3080     5.2960     0.4060 H     1 <1>   0.0800 
@<TRIPOS>BOND
  1   1   2  2   
  2   2   3  am  
  3   2   4  1   
  4   3   5  1   
  5   3  19  1   
  6   4   6  1   
  7   4   7  1   
  8   4  20  1   
  9   5   8  ar  
 10   5   9  ar  
 11   6   7  1   
 12   6  21  1   
 13   6  22  1   
 14   7  23  1   
 15   7  24  1   
 16   8  10  ar  
 17   8  25  1   
 18   9  11  ar  
 19   9  26  1   
 20  10  12  ar  
 21  10  27  1   
 22  11  12  ar  
 23  11  28  1   
 24  12  13  1   
 25  13  14  1   
 26  14  15  1   
 27  14  29  1   
 28  14  30  1   
 29  15  16  2   
 30  15  17  1   
 31  17  18  1   
 32  18  31  1   
 33  18  32  1   
 34  18  33  1   
@<TRIPOS>SUBSTRUCTURE
  1 ****  10 GROUP 4 **** **** 0

# MOE 2024.06 (io_trps.svl 2023.06)
