@<TRIPOS>MOLECULE
NONAME
25 26 1 0 0 
SMALL
USER_CHARGES


@<TRIPOS>ATOM
  1 O       -2.5210    -3.2200    -0.0730 O.3   1 <1>  -0.6800 
  2 C       -2.5460    -1.8690    -0.4100 C.3   1 <1>   0.2000 
  3 C       -1.3010    -1.1660     0.1480 C.3   1 <1>   0.3300 
  4 C       -3.8050    -1.2310     0.1900 C.3   1 <1>   0.3300 
  5 N       -1.4740     0.3080     0.0990 N.pl3 1 <1>  -0.7940 
  6 N       -3.8010     0.2570     0.0350 N.pl3 1 <1>  -0.6850 
  7 C       -2.6450     0.9670     0.0230 C.cat 1 <1>   0.7390 
  8 C       -5.0060     0.8990    -0.0490 C.2   1 <1>   0.1910 
  9 C       -2.6910     2.3770    -0.0740 C.2   1 <1>  -0.1680 
 10 C       -5.0740     2.2590    -0.1500 C.2   1 <1>  -0.1500 
 11 C       -3.9010     3.0180    -0.1620 C.2   1 <1>  -0.1500 
 12 C       -1.4110     3.2110    -0.0850 C.3   1 <1>  -0.1020 
 13 H       -1.9440    -3.7430    -0.6690 H     1 <1>   0.4000 
 14 H       -2.5770    -1.7950    -1.4830 H     1 <1>   0.0800 
 15 H       -0.4400    -1.4460    -0.4330 H     1 <1>   0.0800 
 16 H       -1.1460    -1.4620     1.1730 H     1 <1>   0.0800 
 17 H       -3.8570    -1.4650     1.2400 H     1 <1>   0.0800 
 18 H       -4.6690    -1.6460    -0.2990 H     1 <1>   0.0800 
 19 H       -0.6140     0.8580     0.1470 H     1 <1>   0.4500 
 20 H       -5.9130     0.3120    -0.0320 H     1 <1>   0.1500 
 21 H       -6.0250     2.7610    -0.2170 H     1 <1>   0.1500 
 22 H       -3.9760     4.0920    -0.2390 H     1 <1>   0.1500 
 23 H       -0.7920     2.9400    -0.9230 H     1 <1>   0.0800 
 24 H       -0.8590     3.0660     0.8270 H     1 <1>   0.0800 
 25 H       -1.6360     4.2600    -0.1700 H     1 <1>   0.0800 
@<TRIPOS>BOND
  1   1   2  1   
  2   1  13  1   
  3   2   3  1   
  4   2   4  1   
  5   2  14  1   
  6   3   5  1   
  7   3  15  1   
  8   3  16  1   
  9   4   6  1   
 10   4  17  1   
 11   4  18  1   
 12   5   7  ar  
 13   5  19  1   
 14   6   7  ar  
 15   6   8  1   
 16   7   9  1   
 17   8  10  2   
 18   8  20  1   
 19   9  11  2   
 20   9  12  1   
 21  10  11  1   
 22  10  21  1   
 23  11  22  1   
 24  12  23  1   
 25  12  24  1   
 26  12  25  1   
@<TRIPOS>SUBSTRUCTURE
  1 ****   7 GROUP 4 **** **** 0

# MOE 2024.06 (io_trps.svl 2023.06)
