@<TRIPOS>MOLECULE
NONAME
39 40 1 0 0 
SMALL
USER_CHARGES


@<TRIPOS>ATOM
  1 CL       0.4710     1.3960    -2.7940 Cl    1 <1>  -0.1770 
  2 C       -0.0490     2.3030    -1.3910 C.ar  1 <1>   0.1770 
  3 C        0.8040     2.5050    -0.3170 C.ar  1 <1>   0.1900 
  4 C       -1.3310     2.8190    -1.3640 C.ar  1 <1>  -0.1500 
  5 F        2.0170     2.0140    -0.3440 F     1 <1>  -0.1900 
  6 C        0.4030     3.2190     0.7960 C.ar  1 <1>  -0.1500 
  7 C       -1.7500     3.5410    -0.2470 C.ar  1 <1>   0.0830 
  8 C       -0.8830     3.7370     0.8220 C.ar  1 <1>  -0.1500 
  9 O       -2.9870     4.0820    -0.1250 O.3   1 <1>  -0.3630 
 10 C       -3.9680     3.9230    -1.1420 C.3   1 <1>   0.1810 
 11 C       -5.2880     4.5940    -0.7660 C.2   1 <1>   0.5690 
 12 O       -5.5950     5.5770    -1.4020 O.2   1 <1>  -0.5700 
 13 N       -6.1090     4.0870     0.2190 N.am  1 <1>  -0.6600 
 14 C       -5.7070     3.0050     1.1580 C.3   1 <1>   0.1400 
 15 C       -7.3780     4.7880     0.5590 C.3   1 <1>   0.1400 
 16 C       -6.0430     1.6120     0.6150 C.3   1 <1>  -0.1600 
 17 C       -8.4900     4.4660    -0.4440 C.3   1 <1>  -0.1600 
 18 C       -7.5420     1.2740     0.5750 C.3   1 <1>  -0.1600 
 19 C       -9.1740     3.1020    -0.2590 C.3   1 <1>  -0.1600 
 20 C       -8.3050     1.8840    -0.6150 C.3   1 <1>  -0.1600 
 21 H       -1.9670     2.6490    -2.2120 H     1 <1>   0.1500 
 22 H        1.0810     3.3660     1.6180 H     1 <1>   0.1500 
 23 H       -1.2220     4.2990     1.6740 H     1 <1>   0.1500 
 24 H       -4.1280     2.8750    -1.3060 H     1 <1>   0.0800 
 25 H       -3.5910     4.3760    -2.0400 H     1 <1>   0.0800 
 26 H       -6.1910     3.1450     2.1090 H     1 <1>   0.0800 
 27 H       -4.6500     3.0640     1.3420 H     1 <1>   0.0800 
 28 H       -7.1930     5.8490     0.5380 H     1 <1>   0.0800 
 29 H       -7.7000     4.5390     1.5550 H     1 <1>   0.0800 
 30 H       -5.5730     0.9020     1.2730 H     1 <1>   0.0800 
 31 H       -5.6040     1.4700    -0.3550 H     1 <1>   0.0800 
 32 H       -8.1140     4.5630    -1.4470 H     1 <1>   0.0800 
 33 H       -9.2470     5.2210    -0.3260 H     1 <1>   0.0800 
 34 H       -8.0080     1.5350     1.5090 H     1 <1>   0.0800 
 35 H       -7.6170     0.2040     0.4840 H     1 <1>   0.0800 
 36 H      -10.0240     3.0920    -0.9200 H     1 <1>   0.0800 
 37 H       -9.5620     3.0140     0.7410 H     1 <1>   0.0800 
 38 H       -8.9720     1.1230    -0.9830 H     1 <1>   0.0800 
 39 H       -7.6370     2.1220    -1.4250 H     1 <1>   0.0800 
@<TRIPOS>BOND
  1   1   2  1   
  2   2   3  ar  
  3   2   4  ar  
  4   3   5  1   
  5   3   6  ar  
  6   4   7  ar  
  7   4  21  1   
  8   6   8  ar  
  9   6  22  1   
 10   7   8  ar  
 11   7   9  1   
 12   8  23  1   
 13   9  10  1   
 14  10  11  1   
 15  10  24  1   
 16  10  25  1   
 17  11  12  2   
 18  11  13  am  
 19  13  14  1   
 20  13  15  1   
 21  14  16  1   
 22  14  26  1   
 23  14  27  1   
 24  15  17  1   
 25  15  28  1   
 26  15  29  1   
 27  16  18  1   
 28  16  30  1   
 29  16  31  1   
 30  17  19  1   
 31  17  32  1   
 32  17  33  1   
 33  18  20  1   
 34  18  34  1   
 35  18  35  1   
 36  19  20  1   
 37  19  36  1   
 38  19  37  1   
 39  20  38  1   
 40  20  39  1   
@<TRIPOS>SUBSTRUCTURE
  1 ****  10 GROUP 4 **** **** 0

# MOE 2024.06 (io_trps.svl 2023.06)
