@<TRIPOS>MOLECULE
NONAME
41 42 1 0 0 
SMALL
USER_CHARGES


@<TRIPOS>ATOM
  1 O        0.5460    -5.5460     0.3440 O.3   1 <1>  -0.6800 
  2 C        0.3070    -5.9900    -0.9620 C.3   1 <1>   0.2000 
  3 C        1.5120    -5.6600    -1.8560 C.3   1 <1>   0.0960 
  4 C       -1.0050    -5.3510    -1.4780 C.3   1 <1>   0.3430 
  5 N        2.7130    -6.3440    -1.3440 N.pl3 1 <1>   0.0480 
  6 N       -1.9530    -5.0990    -0.3430 N.4   1 <1>  -0.9590 
  7 C        3.5260    -5.9050    -0.3250 C.ar  1 <1>  -0.1520 
  8 C        3.0710    -7.6280    -1.6420 C.2   1 <1>  -0.3020 
  9 C       -3.0640    -6.0870    -0.2340 C.3   1 <1>   0.3430 
 10 C       -2.4330    -3.6940    -0.3460 C.3   1 <1>   0.3430 
 11 C        4.3950    -6.9370     0.0150 C.ar  1 <1>   0.0000 
 12 C        3.5820    -4.6810     0.3510 C.ar  1 <1>  -0.1500 
 13 C        4.0900    -8.0150    -0.8400 C.2   1 <1>  -0.1500 
 14 C       -2.5220    -7.4780     0.0710 C.3   1 <1>  -0.2400 
 15 C       -2.9080    -3.3100     1.0510 C.3   1 <1>  -0.2400 
 16 C        5.3230    -6.7580     1.0450 C.ar  1 <1>  -0.1500 
 17 C        4.4990    -4.5160     1.3630 C.ar  1 <1>  -0.1500 
 18 C        5.3690    -5.5560     1.7120 C.ar  1 <1>  -0.1500 
 19 H        1.4410    -5.8470     0.6440 H     1 <1>   0.4000 
 20 H        0.1880    -7.0590    -0.9220 H     1 <1>   0.0800 
 21 H        1.6910    -4.6000    -1.8810 H     1 <1>   0.0800 
 22 H        1.3340    -5.9990    -2.8600 H     1 <1>   0.0800 
 23 H       -1.4570    -5.9830    -2.2240 H     1 <1>   0.0800 
 24 H       -0.7570    -4.4150    -1.9500 H     1 <1>   0.0800 
 25 H       -1.3400    -5.2030     0.4910 H     1 <1>   0.4500 
 26 H        2.5830    -8.2030    -2.4090 H     1 <1>   0.1500 
 27 H       -3.6370    -6.1060    -1.1480 H     1 <1>   0.0800 
 28 H       -3.7250    -5.7980     0.5670 H     1 <1>   0.0800 
 29 H       -3.2310    -3.5700    -1.0600 H     1 <1>   0.0800 
 30 H       -1.6240    -3.0370    -0.6230 H     1 <1>   0.0800 
 31 H        2.9220    -3.8760     0.0820 H     1 <1>   0.1500 
 32 H        4.6040    -8.9610    -0.8200 H     1 <1>   0.1500 
 33 H       -1.9970    -7.8890    -0.7720 H     1 <1>   0.0800 
 34 H       -3.3460    -8.1350     0.2890 H     1 <1>   0.0800 
 35 H       -1.8780    -7.4580     0.9330 H     1 <1>   0.0800 
 36 H       -3.7790    -3.8670     1.3420 H     1 <1>   0.0800 
 37 H       -3.1710    -2.2670     1.0580 H     1 <1>   0.0800 
 38 H       -2.1240    -3.4580     1.7730 H     1 <1>   0.0800 
 39 H        5.9860    -7.5640     1.2990 H     1 <1>   0.1500 
 40 H        4.5610    -3.5840     1.8980 H     1 <1>   0.1500 
 41 H        6.0780    -5.4020     2.5070 H     1 <1>   0.1500 
@<TRIPOS>BOND
  1   1   2  1   
  2   1  19  1   
  3   2   3  1   
  4   2   4  1   
  5   2  20  1   
  6   3   5  1   
  7   3  21  1   
  8   3  22  1   
  9   4   6  1   
 10   4  23  1   
 11   4  24  1   
 12   5   7  1   
 13   5   8  1   
 14   6   9  1   
 15   6  10  1   
 16   6  25  1   
 17   7  11  ar  
 18   7  12  ar  
 19   8  13  2   
 20   8  26  1   
 21   9  14  1   
 22   9  27  1   
 23   9  28  1   
 24  10  15  1   
 25  10  29  1   
 26  10  30  1   
 27  11  13  1   
 28  11  16  ar  
 29  12  17  ar  
 30  12  31  1   
 31  13  32  1   
 32  14  33  1   
 33  14  34  1   
 34  14  35  1   
 35  15  36  1   
 36  15  37  1   
 37  15  38  1   
 38  16  18  ar  
 39  16  39  1   
 40  17  18  ar  
 41  17  40  1   
 42  18  41  1   
@<TRIPOS>SUBSTRUCTURE
  1 ****   1 GROUP 4 **** **** 0

# MOE 2024.06 (io_trps.svl 2023.06)
