@<TRIPOS>MOLECULE
NONAME
49 51 1 0 0 
SMALL
USER_CHARGES


@<TRIPOS>ATOM
  1 F       -0.1820    -1.1210     0.4320 F     1 <1>  -0.3400 
  2 C        0.9120    -1.0740     1.1830 C.3   1 <1>   1.1640 
  3 F        0.5980    -0.3520     2.2520 F     1 <1>  -0.3400 
  4 F        1.1170    -2.3130     1.6170 F     1 <1>  -0.3400 
  5 C        2.1150    -0.4880     0.4280 C.ar  1 <1>  -0.1440 
  6 C        3.3730    -1.0780     0.4930 C.ar  1 <1>  -0.1500 
  7 C        1.9620     0.6630    -0.3400 C.ar  1 <1>  -0.1500 
  8 C        4.4590    -0.5470    -0.1880 C.ar  1 <1>   0.1000 
  9 C        3.0380     1.2030    -1.0240 C.ar  1 <1>  -0.1500 
 10 N        5.6960    -1.1720    -0.0960 N.pl3 1 <1>  -0.8380 
 11 C        4.2780     0.6010    -0.9490 C.ar  1 <1>  -0.1500 
 12 C        6.7590    -0.4340     0.6460 C.3   1 <1>   0.2090 
 13 C        6.1700    -1.8810    -1.3200 C.3   1 <1>   0.2090 
 14 C        7.9600    -1.3560     0.9440 C.3   1 <1>   0.3430 
 15 C        7.3810    -2.7840    -0.9990 C.3   1 <1>   0.3430 
 16 N        8.4910    -2.0400    -0.2950 N.4   1 <1>  -0.9590 
 17 C        9.6320    -2.9440     0.0250 C.3   1 <1>   0.3430 
 18 C       10.9760    -2.2970    -0.3470 C.3   1 <1>  -0.0800 
 19 C       12.1090    -3.3010    -0.0670 C.3   1 <1>  -0.1600 
 20 C       11.2420    -0.9710     0.3970 C.3   1 <1>  -0.1600 
 21 C       13.4820    -2.7200    -0.4260 C.3   1 <1>  -0.1600 
 22 C       12.6180    -0.3920     0.0420 C.3   1 <1>  -0.1600 
 23 C       13.7360    -1.4040     0.3160 C.3   1 <1>  -0.1600 
 24 H        3.5340    -1.9660     1.0780 H     1 <1>   0.1500 
 25 H        1.0010     1.1460    -0.4090 H     1 <1>   0.1500 
 26 H        2.9040     2.0940    -1.6150 H     1 <1>   0.1500 
 27 H        5.1080     1.0240    -1.4830 H     1 <1>   0.1500 
 28 H        6.3510    -0.0680     1.5730 H     1 <1>   0.0800 
 29 H        7.0820     0.4150     0.0700 H     1 <1>   0.0800 
 30 H        6.4380    -1.1630    -2.0750 H     1 <1>   0.0800 
 31 H        5.3680    -2.4860    -1.7100 H     1 <1>   0.0800 
 32 H        7.6380    -2.1000     1.6540 H     1 <1>   0.0800 
 33 H        8.7400    -0.7760     1.4090 H     1 <1>   0.0800 
 34 H        7.7500    -3.2130    -1.9160 H     1 <1>   0.0800 
 35 H        7.0360    -3.5900    -0.3730 H     1 <1>   0.0800 
 36 H        8.8370    -1.3140    -0.9350 H     1 <1>   0.4500 
 37 H        9.5350    -3.8630    -0.5310 H     1 <1>   0.0800 
 38 H        9.6270    -3.1940     1.0740 H     1 <1>   0.0800 
 39 H       10.9740    -2.1040    -1.4070 H     1 <1>   0.0800 
 40 H       11.9570    -4.2020    -0.6370 H     1 <1>   0.0800 
 41 H       12.1120    -3.5700     0.9770 H     1 <1>   0.0800 
 42 H       11.2020    -1.1360     1.4610 H     1 <1>   0.0800 
 43 H       10.5010    -0.2350     0.1430 H     1 <1>   0.0800 
 44 H       13.5360    -2.5470    -1.4880 H     1 <1>   0.0800 
 45 H       14.2530    -3.4280    -0.1710 H     1 <1>   0.0800 
 46 H       12.7980     0.5000     0.6190 H     1 <1>   0.0800 
 47 H       12.6390    -0.1180    -0.9990 H     1 <1>   0.0800 
 48 H       14.6810    -0.9910     0.0040 H     1 <1>   0.0800 
 49 H       13.7980    -1.5950     1.3750 H     1 <1>   0.0800 
@<TRIPOS>BOND
  1   1   2  1   
  2   2   3  1   
  3   2   4  1   
  4   2   5  1   
  5   5   6  ar  
  6   5   7  ar  
  7   6   8  ar  
  8   6  24  1   
  9   7   9  ar  
 10   7  25  1   
 11   8  10  1   
 12   8  11  ar  
 13   9  11  ar  
 14   9  26  1   
 15  10  12  1   
 16  10  13  1   
 17  11  27  1   
 18  12  14  1   
 19  12  28  1   
 20  12  29  1   
 21  13  15  1   
 22  13  30  1   
 23  13  31  1   
 24  14  16  1   
 25  14  32  1   
 26  14  33  1   
 27  15  16  1   
 28  15  34  1   
 29  15  35  1   
 30  16  17  1   
 31  16  36  1   
 32  17  18  1   
 33  17  37  1   
 34  17  38  1   
 35  18  19  1   
 36  18  20  1   
 37  18  39  1   
 38  19  21  1   
 39  19  40  1   
 40  19  41  1   
 41  20  22  1   
 42  20  42  1   
 43  20  43  1   
 44  21  23  1   
 45  21  44  1   
 46  21  45  1   
 47  22  23  1   
 48  22  46  1   
 49  22  47  1   
 50  23  48  1   
 51  23  49  1   
@<TRIPOS>SUBSTRUCTURE
  1 ****  10 GROUP 4 **** **** 0

# MOE 2024.06 (io_trps.svl 2023.06)
