@<TRIPOS>MOLECULE
NONAME
30 30 1 0 0 
SMALL
USER_CHARGES


@<TRIPOS>ATOM
  1 S        0.1840     0.5500    -1.3780 S.o2  1 <1>   1.4470 
  2 O        0.9760     1.6210    -1.9370 O.2   1 <1>  -0.6500 
  3 O        0.0040    -0.6850    -2.1010 O.2   1 <1>  -0.6500 
  4 N        1.0370     0.0310    -0.0260 N.am  1 <1>  -0.9140 
  5 C       -1.3750     1.1600    -0.6840 C.ar  1 <1>  -0.0090 
  6 C        2.4350    -0.2450    -0.3410 C.3   1 <1>   0.1960 
  7 C       -1.4220     2.3630     0.0110 C.ar  1 <1>  -0.1500 
  8 C       -2.5550     0.4330    -0.8070 C.ar  1 <1>  -0.1500 
  9 C        3.2400    -0.4900     0.9470 C.3   1 <1>   0.3430 
 10 C       -2.6030     2.8220     0.5680 C.ar  1 <1>  -0.1500 
 11 C       -3.7410     0.8840    -0.2540 C.ar  1 <1>  -0.1500 
 12 N        4.7110    -0.5460     0.6880 N.4   1 <1>  -0.8530 
 13 C       -3.7690     2.0870     0.4430 C.ar  1 <1>   0.0830 
 14 O       -4.8820     2.6020     1.0190 O.3   1 <1>  -0.3620 
 15 C       -6.1250     1.9410     0.9410 C.3   1 <1>   0.0400 
 16 H        0.5680    -0.8500     0.1920 H     1 <1>   0.4200 
 17 H        2.8590     0.6110    -0.8420 H     1 <1>   0.0800 
 18 H        2.4950    -1.0970    -0.9990 H     1 <1>   0.0800 
 19 H       -0.5260     2.9510     0.1180 H     1 <1>   0.1500 
 20 H       -2.5500    -0.5000    -1.3460 H     1 <1>   0.1500 
 21 H        2.9120    -1.4130     1.3970 H     1 <1>   0.0800 
 22 H        3.0300     0.3150     1.6340 H     1 <1>   0.0800 
 23 H       -2.6290     3.7540     1.1040 H     1 <1>   0.1500 
 24 H       -4.6270     0.2900    -0.3750 H     1 <1>   0.1500 
 25 H        4.9570    -1.3090     0.0460 H     1 <1>   0.4500 
 26 H        5.2290    -0.6940     1.5630 H     1 <1>   0.4500 
 27 H        5.0470     0.3360     0.2790 H     1 <1>   0.4500 
 28 H       -6.8520     2.5370     1.4630 H     1 <1>   0.0800 
 29 H       -6.0380     0.9770     1.4090 H     1 <1>   0.0800 
 30 H       -6.4060     1.8460    -0.0930 H     1 <1>   0.0800 
@<TRIPOS>BOND
  1   1   2  2   
  2   1   3  2   
  3   1   4  am  
  4   1   5  1   
  5   4   6  1   
  6   4  16  1   
  7   5   7  ar  
  8   5   8  ar  
  9   6   9  1   
 10   6  17  1   
 11   6  18  1   
 12   7  10  ar  
 13   7  19  1   
 14   8  11  ar  
 15   8  20  1   
 16   9  12  1   
 17   9  21  1   
 18   9  22  1   
 19  10  13  ar  
 20  10  23  1   
 21  11  13  ar  
 22  11  24  1   
 23  12  25  1   
 24  12  26  1   
 25  12  27  1   
 26  13  14  1   
 27  14  15  1   
 28  15  28  1   
 29  15  29  1   
 30  15  30  1   
@<TRIPOS>SUBSTRUCTURE
  1 ****   5 GROUP 4 **** **** 0

# MOE 2024.06 (io_trps.svl 2023.06)
