@<TRIPOS>MOLECULE
NONAME
49 50 1 0 0 
SMALL
USER_CHARGES


@<TRIPOS>ATOM
  1 S        0.9530     0.1340    -1.1520 S.o2  1 <1>   1.4470 
  2 O        2.3780    -0.0960    -1.0540 O.2   1 <1>  -0.6500 
  3 O        0.3270     0.2310    -2.4500 O.2   1 <1>  -0.6500 
  4 N        0.6630     1.6330    -0.3360 N.am  1 <1>  -0.6930 
  5 C        0.0660    -1.0440    -0.0960 C.ar  1 <1>  -0.0090 
  6 C       -0.6250     2.1540    -0.2370 C.ar  1 <1>   0.1990 
  7 C        1.7660     2.1130     0.5620 C.3   1 <1>   0.2570 
  8 C        0.7410    -1.8500     0.8140 C.ar  1 <1>  -0.1500 
  9 C       -1.3200    -1.1480    -0.1520 C.ar  1 <1>  -0.1500 
 10 C       -1.2950     2.1970     0.9810 C.ar  1 <1>  -0.1500 
 11 C       -1.2760     2.6390    -1.3650 C.ar  1 <1>  -0.1500 
 12 C        1.5360     3.4760     1.2290 C.2   1 <1>   0.5690 
 13 C        0.0590    -2.7300     1.6380 C.ar  1 <1>  -0.1500 
 14 C       -2.0090    -2.0250     0.6680 C.ar  1 <1>  -0.1500 
 15 C       -2.5730     2.7150     1.0700 C.ar  1 <1>  -0.1500 
 16 C       -2.5550     3.1570    -1.2800 C.ar  1 <1>  -0.1500 
 17 O        1.3780     3.4730     2.4300 O.2   1 <1>  -0.5700 
 18 N        1.5170     4.6450     0.5010 N.am  1 <1>  -0.6600 
 19 C       -1.3180    -2.8180     1.5650 C.ar  1 <1>  -0.1500 
 20 C       -3.2120     3.1990    -0.0610 C.ar  1 <1>  -0.1430 
 21 C        1.1280     5.9250     1.1450 C.3   1 <1>   0.1400 
 22 C        1.7700     4.7220    -0.9630 C.3   1 <1>   0.1400 
 23 C       -4.6130     3.7720     0.0380 C.3   1 <1>  -0.0970 
 24 C       -0.3840     6.1100     1.0240 C.3   1 <1>  -0.2400 
 25 C        3.2430     5.0380    -1.2050 C.3   1 <1>  -0.2400 
 26 H        2.6760     2.1760    -0.0040 H     1 <1>   0.0800 
 27 H        1.9190     1.3830     1.3370 H     1 <1>   0.0800 
 28 H        1.8140    -1.7910     0.8810 H     1 <1>   0.1500 
 29 H       -1.8680    -0.5310    -0.8450 H     1 <1>   0.1500 
 30 H       -0.8120     1.8250     1.8660 H     1 <1>   0.1500 
 31 H       -0.7730     2.6080    -2.3150 H     1 <1>   0.1500 
 32 H        0.6010    -3.3470     2.3350 H     1 <1>   0.1500 
 33 H       -3.0830    -2.0870     0.6070 H     1 <1>   0.1500 
 34 H       -3.0680     2.7430     2.0250 H     1 <1>   0.1500 
 35 H       -3.0360     3.5290    -2.1670 H     1 <1>   0.1500 
 36 H       -1.8520    -3.5010     2.2030 H     1 <1>   0.1500 
 37 H        1.6430     6.7450     0.6730 H     1 <1>   0.0800 
 38 H        1.4080     5.9130     2.1850 H     1 <1>   0.0800 
 39 H        1.1530     5.4910    -1.3970 H     1 <1>   0.0800 
 40 H        1.5140     3.7960    -1.4460 H     1 <1>   0.0800 
 41 H       -5.1720     3.2650     0.8050 H     1 <1>   0.0800 
 42 H       -5.1350     3.6560    -0.8940 H     1 <1>   0.0800 
 43 H       -4.5610     4.8180     0.2800 H     1 <1>   0.0800 
 44 H       -0.6850     6.1380    -0.0070 H     1 <1>   0.0800 
 45 H       -0.6750     7.0310     1.4940 H     1 <1>   0.0800 
 46 H       -0.8910     5.3000     1.5180 H     1 <1>   0.0800 
 47 H        3.5020     5.9830    -0.7630 H     1 <1>   0.0800 
 48 H        3.4310     5.0940    -2.2620 H     1 <1>   0.0800 
 49 H        3.8660     4.2670    -0.7900 H     1 <1>   0.0800 
@<TRIPOS>BOND
  1   1   2  2   
  2   1   3  2   
  3   1   4  am  
  4   1   5  1   
  5   4   6  1   
  6   4   7  1   
  7   5   8  ar  
  8   5   9  ar  
  9   6  10  ar  
 10   6  11  ar  
 11   7  12  1   
 12   7  26  1   
 13   7  27  1   
 14   8  13  ar  
 15   8  28  1   
 16   9  14  ar  
 17   9  29  1   
 18  10  15  ar  
 19  10  30  1   
 20  11  16  ar  
 21  11  31  1   
 22  12  17  2   
 23  12  18  am  
 24  13  19  ar  
 25  13  32  1   
 26  14  19  ar  
 27  14  33  1   
 28  15  20  ar  
 29  15  34  1   
 30  16  20  ar  
 31  16  35  1   
 32  18  21  1   
 33  18  22  1   
 34  19  36  1   
 35  20  23  1   
 36  21  24  1   
 37  21  37  1   
 38  21  38  1   
 39  22  25  1   
 40  22  39  1   
 41  22  40  1   
 42  23  41  1   
 43  23  42  1   
 44  23  43  1   
 45  24  44  1   
 46  24  45  1   
 47  24  46  1   
 48  25  47  1   
 49  25  48  1   
 50  25  49  1   
@<TRIPOS>SUBSTRUCTURE
  1 ****   6 GROUP 4 **** **** 0

# MOE 2024.06 (io_trps.svl 2023.06)
