@<TRIPOS>MOLECULE
NONAME
48 50 1 0 0 
SMALL
USER_CHARGES


@<TRIPOS>ATOM
  1 S        0.1890     0.2440     1.0250 S.o2  1 <1>   1.4470 
  2 O        0.6030     0.1500     2.4070 O.2   1 <1>  -0.6500 
  3 O        0.2490     1.5060     0.3240 O.2   1 <1>  -0.6500 
  4 N        1.2000    -0.7500     0.1300 N.am  1 <1>  -0.9140 
  5 C       -1.4360    -0.5350     0.8140 C.ar  1 <1>  -0.0090 
  6 C        2.5470    -0.8900     0.6440 C.3   1 <1>   0.2760 
  7 C       -2.5700     0.2190     0.5400 C.ar  1 <1>  -0.1500 
  8 C       -1.5850    -1.9110     0.9390 C.ar  1 <1>  -0.1500 
  9 C        3.3650     0.3750     0.3900 C.3   1 <1>  -0.1600 
 10 C        3.2610    -1.9200    -0.2240 C.3   1 <1>  -0.1600 
 11 C       -3.8240    -0.3620     0.3900 C.ar  1 <1>   0.1170 
 12 C       -2.8190    -2.5180     0.7840 C.ar  1 <1>  -0.1500 
 13 C        3.7780     0.3170    -1.0850 C.3   1 <1>  -0.1600 
 14 C        3.7250    -1.1650    -1.4770 C.3   1 <1>  -0.1600 
 15 N       -4.9880     0.3770     0.1120 N.am  1 <1>  -0.5470 
 16 C       -3.9430    -1.7510     0.5050 C.ar  1 <1>   0.0820 
 17 C       -5.3080     1.7090     0.2170 C.2   1 <1>   0.5440 
 18 O       -5.1860    -2.2910     0.3300 O.3   1 <1>  -0.3630 
 19 O       -4.5170     2.4900     0.7070 O.2   1 <1>  -0.5700 
 20 C       -6.6110     2.1660    -0.2330 C.ar  1 <1>   0.0860 
 21 C       -5.4210    -3.6690     0.5210 C.3   1 <1>   0.0400 
 22 C       -7.2980     1.5350    -1.2740 C.ar  1 <1>  -0.1500 
 23 C       -7.2320     3.2630     0.3680 C.ar  1 <1>  -0.1500 
 24 C       -8.5470     1.9680    -1.6820 C.ar  1 <1>  -0.1500 
 25 C       -8.4800     3.7020    -0.0370 C.ar  1 <1>  -0.1500 
 26 C       -9.1410     3.0520    -1.0630 C.ar  1 <1>  -0.1500 
 27 H        1.2970    -0.2600    -0.7560 H     1 <1>   0.4200 
 28 H        2.5400    -1.1860     1.6810 H     1 <1>   0.0800 
 29 H       -2.4630     1.2850     0.4400 H     1 <1>   0.1500 
 30 H       -0.7200    -2.5140     1.1590 H     1 <1>   0.1500 
 31 H        4.2530     0.3240     0.9960 H     1 <1>   0.0800 
 32 H        2.8490     1.2840     0.6410 H     1 <1>   0.0800 
 33 H        2.6340    -2.7630    -0.4560 H     1 <1>   0.0800 
 34 H        4.1260    -2.2730     0.3100 H     1 <1>   0.0800 
 35 H       -2.8770    -3.5860     0.8840 H     1 <1>   0.1500 
 36 H        4.7630     0.7280    -1.2250 H     1 <1>   0.0800 
 37 H        3.0810     0.8780    -1.6830 H     1 <1>   0.0800 
 38 H        3.0150    -1.3050    -2.2740 H     1 <1>   0.0800 
 39 H        4.6880    -1.5210    -1.8040 H     1 <1>   0.0800 
 40 H       -5.7810    -0.2370    -0.0810 H     1 <1>   0.3700 
 41 H       -6.4690    -3.8550     0.3690 H     1 <1>   0.0800 
 42 H       -5.1470    -3.9340     1.5280 H     1 <1>   0.0800 
 43 H       -4.8440    -4.2260    -0.1960 H     1 <1>   0.0800 
 44 H       -6.8490     0.6990    -1.7800 H     1 <1>   0.1500 
 45 H       -6.7210     3.7760     1.1650 H     1 <1>   0.1500 
 46 H       -9.0570     1.4650    -2.4860 H     1 <1>   0.1500 
 47 H       -8.9350     4.5490     0.4460 H     1 <1>   0.1500 
 48 H      -10.1130     3.3910    -1.3790 H     1 <1>   0.1500 
@<TRIPOS>BOND
  1   1   2  2   
  2   1   3  2   
  3   1   4  am  
  4   1   5  1   
  5   4   6  1   
  6   4  27  1   
  7   5   7  ar  
  8   5   8  ar  
  9   6   9  1   
 10   6  10  1   
 11   6  28  1   
 12   7  11  ar  
 13   7  29  1   
 14   8  12  ar  
 15   8  30  1   
 16   9  13  1   
 17   9  31  1   
 18   9  32  1   
 19  10  14  1   
 20  10  33  1   
 21  10  34  1   
 22  11  15  1   
 23  11  16  ar  
 24  12  16  ar  
 25  12  35  1   
 26  13  14  1   
 27  13  36  1   
 28  13  37  1   
 29  14  38  1   
 30  14  39  1   
 31  15  17  am  
 32  15  40  1   
 33  16  18  1   
 34  17  19  2   
 35  17  20  1   
 36  18  21  1   
 37  20  22  ar  
 38  20  23  ar  
 39  21  41  1   
 40  21  42  1   
 41  21  43  1   
 42  22  24  ar  
 43  22  44  1   
 44  23  25  ar  
 45  23  45  1   
 46  24  26  ar  
 47  24  46  1   
 48  25  26  ar  
 49  25  47  1   
 50  26  48  1   
@<TRIPOS>SUBSTRUCTURE
  1 ****   7 GROUP 4 **** **** 0

# MOE 2024.06 (io_trps.svl 2023.06)
