@<TRIPOS>MOLECULE
NONAME
49 51 1 0 0 
SMALL
USER_CHARGES


@<TRIPOS>ATOM
  1 O       -1.9510    -2.6320    -0.6820 O.3   1 <1>  -0.3630 
  2 C       -3.2850    -2.4360    -0.5060 C.ar  1 <1>   0.0830 
  3 C       -1.0460    -2.6030     0.4000 C.3   1 <1>   0.1200 
  4 C       -4.0900    -2.4450    -1.6420 C.ar  1 <1>  -0.1440 
  5 C       -3.8610    -2.2310     0.7460 C.ar  1 <1>  -0.1500 
  6 C        0.3650    -2.8490    -0.1480 C.3   1 <1>   0.2000 
  7 C       -5.4550    -2.2490    -1.5110 C.ar  1 <1>  -0.1500 
  8 C       -3.4930    -2.6660    -3.0250 C.3   1 <1>  -0.0960 
  9 C       -5.2270    -2.0370     0.8690 C.ar  1 <1>  -0.1430 
 10 O        0.3470    -3.9940    -0.9450 O.3   1 <1>  -0.6800 
 11 C        1.4170    -3.0330     0.9680 C.3   1 <1>   0.3430 
 12 C       -6.0200    -2.0450    -0.2650 C.ar  1 <1>  -0.1500 
 13 C       -5.8560    -1.8120     2.2330 C.3   1 <1>  -0.0970 
 14 N        2.5900    -3.8050     0.4570 N.4   1 <1>  -0.9590 
 15 C        3.3120    -4.5580     1.5180 C.3   1 <1>   0.4860 
 16 C        3.5280    -3.0010    -0.3750 C.3   1 <1>   0.3430 
 17 C        4.4640    -5.3570     0.9280 C.ar  1 <1>  -0.1430 
 18 C        4.4390    -3.9350    -1.1740 C.3   1 <1>  -0.0170 
 19 C        5.0010    -5.0620    -0.3210 C.ar  1 <1>  -0.1430 
 20 C        4.9950    -6.4030     1.6690 C.ar  1 <1>  -0.1500 
 21 C        6.0580    -5.8120    -0.8110 C.ar  1 <1>  -0.1500 
 22 C        6.0500    -7.1480     1.1750 C.ar  1 <1>  -0.1500 
 23 C        6.5830    -6.8520    -0.0650 C.ar  1 <1>  -0.1500 
 24 H       -1.3260    -3.3750     1.0960 H     1 <1>   0.0800 
 25 H       -1.1120    -1.6380     0.8720 H     1 <1>   0.0800 
 26 H       -3.2680    -2.2180     1.6380 H     1 <1>   0.1500 
 27 H        0.6420    -2.0190    -0.7750 H     1 <1>   0.0800 
 28 H       -6.0900    -2.2520    -2.3790 H     1 <1>   0.1500 
 29 H       -2.7490    -1.9170    -3.2250 H     1 <1>   0.0800 
 30 H       -4.2490    -2.6080    -3.7870 H     1 <1>   0.0800 
 31 H       -3.0340    -3.6370    -3.0720 H     1 <1>   0.0800 
 32 H       -0.4880    -3.9880    -1.4720 H     1 <1>   0.4000 
 33 H        0.9530    -3.5830     1.7700 H     1 <1>   0.0800 
 34 H        1.7240    -2.0760     1.3560 H     1 <1>   0.0800 
 35 H       -7.0820    -1.8930    -0.1840 H     1 <1>   0.1500 
 36 H       -5.2760    -2.2890     3.0020 H     1 <1>   0.0800 
 37 H       -6.8510    -2.2200     2.2580 H     1 <1>   0.0800 
 38 H       -5.9090    -0.7580     2.4390 H     1 <1>   0.0800 
 39 H        2.1670    -4.5070    -0.1810 H     1 <1>   0.4500 
 40 H        2.6330    -5.2320     2.0130 H     1 <1>   0.0800 
 41 H        3.7050    -3.8720     2.2510 H     1 <1>   0.0800 
 42 H        4.1300    -2.3730     0.2610 H     1 <1>   0.0800 
 43 H        2.9800    -2.3750    -1.0600 H     1 <1>   0.0800 
 44 H        5.2450    -3.3590    -1.5940 H     1 <1>   0.0800 
 45 H        3.8820    -4.3580    -1.9910 H     1 <1>   0.0800 
 46 H        4.5980    -6.6530     2.6390 H     1 <1>   0.1500 
 47 H        6.4820    -5.5970    -1.7770 H     1 <1>   0.1500 
 48 H        6.4600    -7.9590     1.7540 H     1 <1>   0.1500 
 49 H        7.4040    -7.4320    -0.4500 H     1 <1>   0.1500 
@<TRIPOS>BOND
  1   1   2  1   
  2   1   3  1   
  3   2   4  ar  
  4   2   5  ar  
  5   3   6  1   
  6   3  24  1   
  7   3  25  1   
  8   4   7  ar  
  9   4   8  1   
 10   5   9  ar  
 11   5  26  1   
 12   6  10  1   
 13   6  11  1   
 14   6  27  1   
 15   7  12  ar  
 16   7  28  1   
 17   8  29  1   
 18   8  30  1   
 19   8  31  1   
 20   9  12  ar  
 21   9  13  1   
 22  10  32  1   
 23  11  14  1   
 24  11  33  1   
 25  11  34  1   
 26  12  35  1   
 27  13  36  1   
 28  13  37  1   
 29  13  38  1   
 30  14  15  1   
 31  14  16  1   
 32  14  39  1   
 33  15  17  1   
 34  15  40  1   
 35  15  41  1   
 36  16  18  1   
 37  16  42  1   
 38  16  43  1   
 39  17  19  ar  
 40  17  20  ar  
 41  18  19  1   
 42  18  44  1   
 43  18  45  1   
 44  19  21  ar  
 45  20  22  ar  
 46  20  46  1   
 47  21  23  ar  
 48  21  47  1   
 49  22  23  ar  
 50  22  48  1   
 51  23  49  1   
@<TRIPOS>SUBSTRUCTURE
  1 ****   6 GROUP 4 **** **** 0

# MOE 2024.06 (io_trps.svl 2023.06)
