@<TRIPOS>MOLECULE
NONAME
41 42 1 0 0 
SMALL
USER_CHARGES


@<TRIPOS>ATOM
  1 S       -0.1720    -1.0800    -1.3150 S.o2  1 <1>   1.4470 
  2 O        0.1410    -2.0160    -2.3740 O.2   1 <1>  -0.6500 
  3 O       -0.0740     0.3360    -1.5940 O.2   1 <1>  -0.6500 
  4 N        0.9110    -1.3900    -0.0490 N.am  1 <1>  -0.8490 
  5 C       -1.7950    -1.4640    -0.5750 C.ar  1 <1>  -0.0090 
  6 C        0.7780    -0.4280     1.0580 C.3   1 <1>   0.1960 
  7 C        2.3010    -1.3870    -0.5260 C.3   1 <1>   0.1960 
  8 C       -2.2260    -2.7640    -0.2920 C.ar  1 <1>  -0.1440 
  9 C       -2.6400    -0.4150    -0.2350 C.ar  1 <1>  -0.1500 
 10 C        1.7910    -0.7310     2.1760 C.3   1 <1>   0.1200 
 11 C        3.2840    -1.6590     0.6280 C.3   1 <1>   0.1200 
 12 C       -3.4620    -2.9730     0.3010 C.ar  1 <1>  -0.1500 
 13 C       -1.3690    -3.9830    -0.6110 C.3   1 <1>  -0.0960 
 14 C       -3.8820    -0.6010     0.3630 C.ar  1 <1>   0.0860 
 15 O        3.0950    -0.7410     1.6680 O.3   1 <1>  -0.5600 
 16 C       -4.2760    -1.9080     0.6260 C.ar  1 <1>  -0.1500 
 17 C       -4.7140     0.5350     0.7120 C.2   1 <1>   0.5440 
 18 O       -4.2350     1.4230     1.3920 O.2   1 <1>  -0.5700 
 19 N       -6.0260     0.6400     0.2920 N.am  1 <1>  -0.6600 
 20 C       -6.9260     1.7070     0.8130 C.3   1 <1>   0.0600 
 21 C       -6.6080    -0.1730    -0.8110 C.3   1 <1>   0.0600 
 22 H       -0.2170    -0.4770     1.4680 H     1 <1>   0.0800 
 23 H        0.9440     0.5770     0.7050 H     1 <1>   0.0800 
 24 H        2.5360    -0.4360    -0.9750 H     1 <1>   0.0800 
 25 H        2.4280    -2.1490    -1.2770 H     1 <1>   0.0800 
 26 H       -2.3310     0.5990    -0.4320 H     1 <1>   0.1500 
 27 H        1.5860    -1.6890     2.6210 H     1 <1>   0.0800 
 28 H        1.7410     0.0250     2.9390 H     1 <1>   0.0800 
 29 H        4.2980    -1.5620     0.2840 H     1 <1>   0.0800 
 30 H        3.1430    -2.6530     1.0160 H     1 <1>   0.0800 
 31 H       -3.7980    -3.9730     0.5180 H     1 <1>   0.1500 
 32 H       -1.2970    -4.1160    -1.6770 H     1 <1>   0.0800 
 33 H       -1.7920    -4.8770    -0.1910 H     1 <1>   0.0800 
 34 H       -0.3790    -3.8660    -0.2080 H     1 <1>   0.0800 
 35 H       -5.2290    -2.0820     1.0960 H     1 <1>   0.1500 
 36 H       -6.5330     2.1230     1.7250 H     1 <1>   0.0800 
 37 H       -7.9000     1.2980     1.0180 H     1 <1>   0.0800 
 38 H       -7.0140     2.4930     0.0850 H     1 <1>   0.0800 
 39 H       -5.8400    -0.6990    -1.3500 H     1 <1>   0.0800 
 40 H       -7.1240     0.4690    -1.5030 H     1 <1>   0.0800 
 41 H       -7.3060    -0.8860    -0.4060 H     1 <1>   0.0800 
@<TRIPOS>BOND
  1   1   2  2   
  2   1   3  2   
  3   1   4  am  
  4   1   5  1   
  5   4   6  1   
  6   4   7  1   
  7   5   8  ar  
  8   5   9  ar  
  9   6  10  1   
 10   6  22  1   
 11   6  23  1   
 12   7  11  1   
 13   7  24  1   
 14   7  25  1   
 15   8  12  ar  
 16   8  13  1   
 17   9  14  ar  
 18   9  26  1   
 19  10  15  1   
 20  10  27  1   
 21  10  28  1   
 22  11  15  1   
 23  11  29  1   
 24  11  30  1   
 25  12  16  ar  
 26  12  31  1   
 27  13  32  1   
 28  13  33  1   
 29  13  34  1   
 30  14  16  ar  
 31  14  17  1   
 32  16  35  1   
 33  17  18  2   
 34  17  19  am  
 35  19  20  1   
 36  19  21  1   
 37  20  36  1   
 38  20  37  1   
 39  20  38  1   
 40  21  39  1   
 41  21  40  1   
 42  21  41  1   
@<TRIPOS>SUBSTRUCTURE
  1 ****   5 GROUP 4 **** **** 0

# MOE 2024.06 (io_trps.svl 2023.06)
