@<TRIPOS>MOLECULE
NONAME
31 32 1 0 0 
SMALL
USER_CHARGES


@<TRIPOS>ATOM
  1 CL      -0.3020     0.3350    -0.2820 Cl    1 <1>  -0.1770 
  2 C       -1.2270    -1.1230     0.0150 C.ar  1 <1>   0.1770 
  3 C       -0.8270    -2.1020     0.9270 C.ar  1 <1>   0.0830 
  4 C       -2.4110    -1.2530    -0.6880 C.ar  1 <1>  -0.1500 
  5 O        0.3150    -2.0830     1.6600 O.3   1 <1>  -0.3630 
  6 C       -1.6570    -3.1930     1.1250 C.ar  1 <1>  -0.1500 
  7 C       -3.2410    -2.3520    -0.5000 C.ar  1 <1>  -0.0090 
  8 C        1.5390    -1.6820     1.0840 C.3   1 <1>   0.0400 
  9 C       -2.8420    -3.3150     0.4190 C.ar  1 <1>  -0.1500 
 10 S       -4.7960    -2.5260    -1.4170 S.o2  1 <1>   1.4470 
 11 O       -5.1350    -1.2750    -2.0620 O.2   1 <1>  -0.6500 
 12 O       -4.7530    -3.7400    -2.2020 O.2   1 <1>  -0.6500 
 13 N       -5.9340    -2.7790    -0.1890 N.am  1 <1>  -0.8490 
 14 C       -6.2470    -1.6040     0.6060 C.3   1 <1>   0.1960 
 15 C       -7.2090    -3.2570    -0.6920 C.3   1 <1>   0.1960 
 16 C       -7.5250    -1.9830     1.3440 C.3   1 <1>  -0.1600 
 17 C       -8.1830    -3.0450     0.4620 C.3   1 <1>  -0.1600 
 18 H       -2.6910    -0.4840    -1.3880 H     1 <1>   0.1500 
 19 H       -1.3660    -3.9500     1.8330 H     1 <1>   0.1500 
 20 H        2.3330    -2.1880     1.6020 H     1 <1>   0.0800 
 21 H        1.6510    -0.6200     1.2070 H     1 <1>   0.0800 
 22 H        1.5510    -1.9520     0.0420 H     1 <1>   0.0800 
 23 H       -3.4720    -4.1750     0.5830 H     1 <1>   0.1500 
 24 H       -6.4420    -0.7570    -0.0340 H     1 <1>   0.0800 
 25 H       -5.4450    -1.3660     1.2850 H     1 <1>   0.0800 
 26 H       -7.1450    -4.2930    -0.9830 H     1 <1>   0.0800 
 27 H       -7.5130    -2.6650    -1.5420 H     1 <1>   0.0800 
 28 H       -8.1560    -1.1240     1.4870 H     1 <1>   0.0800 
 29 H       -7.2740    -2.4000     2.3030 H     1 <1>   0.0800 
 30 H       -8.3040    -3.9630     1.0090 H     1 <1>   0.0800 
 31 H       -9.1420    -2.7260     0.0930 H     1 <1>   0.0800 
@<TRIPOS>BOND
  1   1   2  1   
  2   2   3  ar  
  3   2   4  ar  
  4   3   5  1   
  5   3   6  ar  
  6   4   7  ar  
  7   4  18  1   
  8   5   8  1   
  9   6   9  ar  
 10   6  19  1   
 11   7   9  ar  
 12   7  10  1   
 13   8  20  1   
 14   8  21  1   
 15   8  22  1   
 16   9  23  1   
 17  10  11  2   
 18  10  12  2   
 19  10  13  am  
 20  13  14  1   
 21  13  15  1   
 22  14  16  1   
 23  14  24  1   
 24  14  25  1   
 25  15  17  1   
 26  15  26  1   
 27  15  27  1   
 28  16  17  1   
 29  16  28  1   
 30  16  29  1   
 31  17  30  1   
 32  17  31  1   
@<TRIPOS>SUBSTRUCTURE
  1 ****   7 GROUP 4 **** **** 0

# MOE 2024.06 (io_trps.svl 2023.06)
