@<TRIPOS>MOLECULE
NONAME
42 43 1 0 0 
SMALL
USER_CHARGES


@<TRIPOS>ATOM
  1 O       -8.5400     2.1330     0.0660 O.3   1 <1>  -0.3630 
  2 C       -9.8710     2.0530     0.3030 C.ar  1 <1>   0.0830 
  3 C       -7.6900     2.9330     0.8610 C.3   1 <1>   0.2640 
  4 C      -10.5870     1.1720    -0.4890 C.ar  1 <1>  -0.1500 
  5 C      -10.5360     2.7910     1.2770 C.ar  1 <1>  -0.1500 
  6 C       -6.2550     2.7530     0.3930 C.ar  1 <1>  -0.1440 
  7 C      -11.9520     1.0230    -0.3210 C.ar  1 <1>  -0.1500 
  8 C      -11.9020     2.6440     1.4460 C.ar  1 <1>  -0.1500 
  9 C       -5.6530     1.5060     0.4530 C.ar  1 <1>  -0.1500 
 10 C       -5.5270     3.8310    -0.0900 C.ar  1 <1>  -0.1500 
 11 C      -12.6180     1.7640     0.6450 C.ar  1 <1>  -0.1430 
 12 C       -4.3420     1.3380     0.0410 C.ar  1 <1>  -0.1500 
 13 C       -4.2160     3.6620    -0.5020 C.ar  1 <1>  -0.1500 
 14 C      -14.1120     1.6200     0.8120 C.3   1 <1>   0.4860 
 15 C       -3.6160     2.4160    -0.4390 C.ar  1 <1>  -0.1430 
 16 N      -14.7240     2.5700    -0.1390 N.4   1 <1>  -0.9060 
 17 C       -2.1790     2.2310    -0.8900 C.3   1 <1>  -0.0970 
 18 C      -16.2140     2.5350    -0.1210 C.3   1 <1>   0.3430 
 19 C      -16.8170     3.5290    -1.1210 C.3   1 <1>   0.1200 
 20 O      -18.1910     3.4190    -1.0320 O.3   1 <1>  -0.6800 
 21 H       -7.7840     2.6160     1.8850 H     1 <1>   0.0800 
 22 H       -7.9990     3.9580     0.7610 H     1 <1>   0.0800 
 23 H      -10.0610     0.6030    -1.2360 H     1 <1>   0.1500 
 24 H      -10.0070     3.4800     1.9100 H     1 <1>   0.1500 
 25 H      -12.4740     0.3210    -0.9500 H     1 <1>   0.1500 
 26 H      -12.3920     3.2230     2.2110 H     1 <1>   0.1500 
 27 H       -6.2080     0.6600     0.8180 H     1 <1>   0.1500 
 28 H       -5.9750     4.8070    -0.1500 H     1 <1>   0.1500 
 29 H       -3.8920     0.3630     0.0950 H     1 <1>   0.1500 
 30 H       -3.6650     4.5080    -0.8730 H     1 <1>   0.1500 
 31 H      -14.3990     1.8550     1.8240 H     1 <1>   0.0800 
 32 H      -14.4130     0.6090     0.5880 H     1 <1>   0.0800 
 33 H      -14.3600     2.3460    -1.0740 H     1 <1>   0.4500 
 34 H      -14.3710     3.5070     0.0880 H     1 <1>   0.4500 
 35 H       -2.0340     1.2420    -1.2860 H     1 <1>   0.0800 
 36 H       -1.5160     2.3730    -0.0560 H     1 <1>   0.0800 
 37 H       -1.9310     2.9430    -1.6570 H     1 <1>   0.0800 
 38 H      -16.5730     2.7830     0.8660 H     1 <1>   0.0800 
 39 H      -16.5600     1.5450    -0.3710 H     1 <1>   0.0800 
 40 H      -16.5290     3.2920    -2.1320 H     1 <1>   0.0800 
 41 H      -16.5480     4.5430    -0.8790 H     1 <1>   0.0800 
 42 H      -18.6490     4.0310    -1.6490 H     1 <1>   0.4000 
@<TRIPOS>BOND
  1   1   2  1   
  2   1   3  1   
  3   2   4  ar  
  4   2   5  ar  
  5   3   6  1   
  6   3  21  1   
  7   3  22  1   
  8   4   7  ar  
  9   4  23  1   
 10   5   8  ar  
 11   5  24  1   
 12   6   9  ar  
 13   6  10  ar  
 14   7  11  ar  
 15   7  25  1   
 16   8  11  ar  
 17   8  26  1   
 18   9  12  ar  
 19   9  27  1   
 20  10  13  ar  
 21  10  28  1   
 22  11  14  1   
 23  12  15  ar  
 24  12  29  1   
 25  13  15  ar  
 26  13  30  1   
 27  14  16  1   
 28  14  31  1   
 29  14  32  1   
 30  15  17  1   
 31  16  18  1   
 32  16  33  1   
 33  16  34  1   
 34  17  35  1   
 35  17  36  1   
 36  17  37  1   
 37  18  19  1   
 38  18  38  1   
 39  18  39  1   
 40  19  20  1   
 41  19  40  1   
 42  19  41  1   
 43  20  42  1   
@<TRIPOS>SUBSTRUCTURE
  1 ****   2 GROUP 4 **** **** 0

# MOE 2024.06 (io_trps.svl 2023.06)
