@<TRIPOS>MOLECULE
NONAME
35 36 1 0 0 
SMALL
USER_CHARGES


@<TRIPOS>ATOM
  1 S        0.3850    -0.5760    -0.5550 S.o2  1 <1>   1.4470 
  2 O        0.6820    -1.9300    -0.1600 O.2   1 <1>  -0.6500 
  3 O        0.9030    -0.0340    -1.7850 O.2   1 <1>  -0.6500 
  4 N        1.1790     0.3170     0.5880 N.am  1 <1>  -0.9780 
  5 C       -1.3630    -0.1640    -0.3010 C.ar  1 <1>  -0.0090 
  6 C       -1.9340     0.9510    -0.8960 C.ar  1 <1>  -0.1500 
  7 C       -2.1710    -0.9420     0.5200 C.ar  1 <1>  -0.1500 
  8 C       -3.2670     1.3110    -0.7010 C.ar  1 <1>   0.0860 
  9 C       -3.4990    -0.6210     0.7290 C.ar  1 <1>  -0.1500 
 10 C       -4.0570     0.5000     0.1210 C.ar  1 <1>   0.0830 
 11 C       -3.7810     2.4940    -1.3560 C.2   1 <1>   0.5440 
 12 O       -5.3560     0.8410     0.2930 O.3   1 <1>  -0.3620 
 13 O       -3.8860     2.5060    -2.5690 O.2   1 <1>  -0.5700 
 14 N       -4.0920     3.6350    -0.6540 N.am  1 <1>  -0.6600 
 15 C       -6.2810     0.0200     0.9690 C.3   1 <1>   0.0400 
 16 C       -4.6020     4.8620    -1.3000 C.3   1 <1>   0.1400 
 17 C       -3.9430     3.8160     0.8050 C.3   1 <1>   0.1400 
 18 C       -4.5010     5.9340    -0.2210 C.3   1 <1>  -0.1600 
 19 C       -4.5910     5.1660     1.0950 C.3   1 <1>  -0.1600 
 20 H        1.8070     0.8930     0.0320 H     1 <1>   0.4200 
 21 H        1.7660    -0.3720     1.0520 H     1 <1>   0.4200 
 22 H       -1.3330     1.5700    -1.5410 H     1 <1>   0.1500 
 23 H       -1.7530    -1.8120     1.0000 H     1 <1>   0.1500 
 24 H       -4.0830    -1.2560     1.3680 H     1 <1>   0.1500 
 25 H       -7.2470     0.4880     0.9080 H     1 <1>   0.0800 
 26 H       -5.9840    -0.0700     1.9990 H     1 <1>   0.0800 
 27 H       -6.3120    -0.9420     0.4890 H     1 <1>   0.0800 
 28 H       -5.6270     4.7030    -1.5870 H     1 <1>   0.0800 
 29 H       -4.0170     5.1100    -2.1700 H     1 <1>   0.0800 
 30 H       -2.8960     3.8380     1.0520 H     1 <1>   0.0800 
 31 H       -4.4320     3.0260     1.3480 H     1 <1>   0.0800 
 32 H       -5.2750     6.6730    -0.3210 H     1 <1>   0.0800 
 33 H       -3.5420     6.4160    -0.3000 H     1 <1>   0.0800 
 34 H       -4.1020     5.6780     1.9050 H     1 <1>   0.0800 
 35 H       -5.6230     5.0070     1.3530 H     1 <1>   0.0800 
@<TRIPOS>BOND
  1   1   2  2   
  2   1   3  2   
  3   1   4  am  
  4   1   5  1   
  5   4  20  1   
  6   4  21  1   
  7   5   6  ar  
  8   5   7  ar  
  9   6   8  ar  
 10   6  22  1   
 11   7   9  ar  
 12   7  23  1   
 13   8  10  ar  
 14   8  11  1   
 15   9  10  ar  
 16   9  24  1   
 17  10  12  1   
 18  11  13  2   
 19  11  14  am  
 20  12  15  1   
 21  14  16  1   
 22  14  17  1   
 23  15  25  1   
 24  15  26  1   
 25  15  27  1   
 26  16  18  1   
 27  16  28  1   
 28  16  29  1   
 29  17  19  1   
 30  17  30  1   
 31  17  31  1   
 32  18  19  1   
 33  18  32  1   
 34  18  33  1   
 35  19  34  1   
 36  19  35  1   
@<TRIPOS>SUBSTRUCTURE
  1 ****   8 GROUP 4 **** **** 0

# MOE 2024.06 (io_trps.svl 2023.06)
