@<TRIPOS>MOLECULE
NONAME
36 36 1 0 0 
SMALL
USER_CHARGES


@<TRIPOS>ATOM
  1 S       -0.6130    -0.2420    -0.2440 S.3   1 <1>  -0.4600 
  2 C        0.8920     0.6540     0.2070 C.3   1 <1>   0.1500 
  3 C       -1.9430     0.9370     0.0990 C.3   1 <1>   0.0700 
  4 C        1.2170     1.6280    -0.9250 C.3   1 <1>  -0.2400 
  5 C        1.9870    -0.3910     0.4020 C.3   1 <1>  -0.2400 
  6 C       -3.2710     0.2280    -0.1600 C.3   1 <1>  -0.1600 
  7 C       -4.4490     1.1640     0.1090 C.3   1 <1>   0.1200 
  8 O       -5.6390     0.4560    -0.1450 O.3   1 <1>  -0.3630 
  9 C       -6.8550     1.0380     0.0110 C.ar  1 <1>   0.0820 
 10 C       -7.9610     0.2540    -0.2650 C.ar  1 <1>  -0.1500 
 11 C       -7.0360     2.3560     0.4260 C.ar  1 <1>  -0.1500 
 12 C       -9.2420     0.7610    -0.1340 C.ar  1 <1>   0.0820 
 13 C       -8.3150     2.8690     0.5580 C.ar  1 <1>  -0.1500 
 14 O      -10.2660    -0.0800    -0.4260 O.3   1 <1>  -0.3630 
 15 C       -9.4170     2.0790     0.2810 C.ar  1 <1>  -0.1500 
 16 C      -11.6090     0.3370    -0.3260 C.3   1 <1>   0.0400 
 17 H        0.6940     1.1750     1.1280 H     1 <1>   0.0800 
 18 H       -1.8080     1.7790    -0.5570 H     1 <1>   0.0800 
 19 H       -1.8470     1.2400     1.1270 H     1 <1>   0.0800 
 20 H        1.3330     1.0940    -1.8520 H     1 <1>   0.0800 
 21 H        2.1320     2.1490    -0.7110 H     1 <1>   0.0800 
 22 H        0.4310     2.3520    -1.0360 H     1 <1>   0.0800 
 23 H        2.1420    -0.9450    -0.5070 H     1 <1>   0.0800 
 24 H        1.7060    -1.0750     1.1820 H     1 <1>   0.0800 
 25 H        2.9100     0.0860     0.6790 H     1 <1>   0.0800 
 26 H       -3.3460    -0.6310     0.4830 H     1 <1>   0.0800 
 27 H       -3.3040    -0.0980    -1.1850 H     1 <1>   0.0800 
 28 H       -4.4160     2.0160    -0.5480 H     1 <1>   0.0800 
 29 H       -4.4570     1.4810     1.1370 H     1 <1>   0.0800 
 30 H       -7.8240    -0.7620    -0.5850 H     1 <1>   0.1500 
 31 H       -6.2010     2.9920     0.6480 H     1 <1>   0.1500 
 32 H       -8.4530     3.8870     0.8790 H     1 <1>   0.1500 
 33 H      -10.3970     2.5030     0.3920 H     1 <1>   0.1500 
 34 H      -12.2370    -0.4900    -0.6040 H     1 <1>   0.0800 
 35 H      -11.7700     1.1610    -0.9990 H     1 <1>   0.0800 
 36 H      -11.8100     0.6230     0.6920 H     1 <1>   0.0800 
@<TRIPOS>BOND
  1   1   2  1   
  2   1   3  1   
  3   2   4  1   
  4   2   5  1   
  5   2  17  1   
  6   3   6  1   
  7   3  18  1   
  8   3  19  1   
  9   4  20  1   
 10   4  21  1   
 11   4  22  1   
 12   5  23  1   
 13   5  24  1   
 14   5  25  1   
 15   6   7  1   
 16   6  26  1   
 17   6  27  1   
 18   7   8  1   
 19   7  28  1   
 20   7  29  1   
 21   8   9  1   
 22   9  10  ar  
 23   9  11  ar  
 24  10  12  ar  
 25  10  30  1   
 26  11  13  ar  
 27  11  31  1   
 28  12  14  1   
 29  12  15  ar  
 30  13  15  ar  
 31  13  32  1   
 32  14  16  1   
 33  15  33  1   
 34  16  34  1   
 35  16  35  1   
 36  16  36  1   
@<TRIPOS>SUBSTRUCTURE
  1 ****   8 GROUP 4 **** **** 0

# MOE 2024.06 (io_trps.svl 2023.06)
