@<TRIPOS>MOLECULE
NONAME
47 49 1 0 0 
SMALL
USER_CHARGES


@<TRIPOS>ATOM
  1 F       -1.5340     1.1790    -1.4880 F     1 <1>  -0.1900 
  2 C       -1.0190     2.1080    -0.7250 C.ar  1 <1>   0.1900 
  3 C       -1.6730     2.4660     0.4490 C.ar  1 <1>  -0.1440 
  4 C        0.1700     2.6900    -1.1350 C.ar  1 <1>  -0.1500 
  5 C       -1.0910     3.4470     1.2430 C.ar  1 <1>  -0.1500 
  6 C       -2.9810     1.8060     0.8580 C.3   1 <1>   0.2540 
  7 C        0.7400     3.6730    -0.3420 C.ar  1 <1>  -0.1500 
  8 C        0.0960     4.0290     0.8310 C.ar  1 <1>   0.1900 
  9 N       -4.0990     2.3240     0.0450 N.3   1 <1>  -0.8100 
 10 F        0.6290     4.9550     1.5810 F     1 <1>  -0.1900 
 11 C       -4.3670     3.7590     0.2650 C.3   1 <1>   0.1100 
 12 C       -5.3160     1.5090     0.2030 C.3   1 <1>   0.1100 
 13 C       -5.4680     4.2670    -0.6870 C.3   1 <1>   0.3430 
 14 C       -6.4290     1.9860    -0.7510 C.3   1 <1>   0.3430 
 15 N       -6.7260     3.4520    -0.5760 N.4   1 <1>  -0.9590 
 16 C       -7.7620     3.9300    -1.5140 C.3   1 <1>   0.4810 
 17 C       -9.0800     3.3680    -1.0420 C.2   1 <1>  -0.2880 
 18 C      -10.0180     4.0660    -0.3800 C.2   1 <1>  -0.1780 
 19 C      -11.2950     3.5900     0.1050 C.ar  1 <1>   0.0280 
 20 C      -11.9800     4.3090     1.0820 C.ar  1 <1>  -0.1500 
 21 C      -11.8860     2.4210    -0.3700 C.ar  1 <1>  -0.1500 
 22 C      -13.1980     3.8760     1.5730 C.ar  1 <1>  -0.1500 
 23 C      -13.1040     1.9820     0.1170 C.ar  1 <1>  -0.1500 
 24 C      -13.7620     2.7090     1.0920 C.ar  1 <1>  -0.1500 
 25 H        0.6350     2.3770    -2.0530 H     1 <1>   0.1500 
 26 H       -1.5390     3.7630     2.1670 H     1 <1>   0.1500 
 27 H       -3.1740     1.9740     1.9040 H     1 <1>   0.0800 
 28 H       -2.8870     0.7430     0.7050 H     1 <1>   0.0800 
 29 H        1.6610     4.1530    -0.6210 H     1 <1>   0.1500 
 30 H       -4.6580     3.9300     1.2880 H     1 <1>   0.0800 
 31 H       -3.4730     4.3280     0.0740 H     1 <1>   0.0800 
 32 H       -5.0870     0.4810    -0.0270 H     1 <1>   0.0800 
 33 H       -5.6630     1.5520     1.2220 H     1 <1>   0.0800 
 34 H       -5.0880     4.2110    -1.6940 H     1 <1>   0.0800 
 35 H       -5.6760     5.3010    -0.4670 H     1 <1>   0.0800 
 36 H       -7.3180     1.4050    -0.5710 H     1 <1>   0.0800 
 37 H       -6.1070     1.8000    -1.7620 H     1 <1>   0.0800 
 38 H       -7.1100     3.5760     0.3690 H     1 <1>   0.4500 
 39 H       -7.8090     5.0070    -1.4860 H     1 <1>   0.0800 
 40 H       -7.5480     3.6190    -2.5250 H     1 <1>   0.0800 
 41 H       -9.2040     2.3290    -1.2900 H     1 <1>   0.1500 
 42 H       -9.8500     5.1060    -0.1520 H     1 <1>   0.1500 
 43 H      -11.5590     5.2190     1.4690 H     1 <1>   0.1500 
 44 H      -11.4030     1.8430    -1.1350 H     1 <1>   0.1500 
 45 H      -13.7100     4.4460     2.3290 H     1 <1>   0.1500 
 46 H      -13.5450     1.0760    -0.2630 H     1 <1>   0.1500 
 47 H      -14.7100     2.3700     1.4730 H     1 <1>   0.1500 
@<TRIPOS>BOND
  1   1   2  1   
  2   2   3  ar  
  3   2   4  ar  
  4   3   5  ar  
  5   3   6  1   
  6   4   7  ar  
  7   4  25  1   
  8   5   8  ar  
  9   5  26  1   
 10   6   9  1   
 11   6  27  1   
 12   6  28  1   
 13   7   8  ar  
 14   7  29  1   
 15   8  10  1   
 16   9  11  1   
 17   9  12  1   
 18  11  13  1   
 19  11  30  1   
 20  11  31  1   
 21  12  14  1   
 22  12  32  1   
 23  12  33  1   
 24  13  15  1   
 25  13  34  1   
 26  13  35  1   
 27  14  15  1   
 28  14  36  1   
 29  14  37  1   
 30  15  16  1   
 31  15  38  1   
 32  16  17  1   
 33  16  39  1   
 34  16  40  1   
 35  17  18  2   
 36  17  41  1   
 37  18  19  1   
 38  18  42  1   
 39  19  20  ar  
 40  19  21  ar  
 41  20  22  ar  
 42  20  43  1   
 43  21  23  ar  
 44  21  44  1   
 45  22  24  ar  
 46  22  45  1   
 47  23  24  ar  
 48  23  46  1   
 49  24  47  1   
@<TRIPOS>SUBSTRUCTURE
  1 ****  15 GROUP 4 **** **** 0

# MOE 2024.06 (io_trps.svl 2023.06)
