@<TRIPOS>MOLECULE
NONAME
46 46 1 0 0 
SMALL
USER_CHARGES


@<TRIPOS>ATOM
  1 S       -1.1530     1.2900     1.7000 S.o2  1 <1>   1.4470 
  2 O       -2.2900     2.1870     1.7250 O.2   1 <1>  -0.6500 
  3 O       -0.9920     0.3450     2.7830 O.2   1 <1>  -0.6500 
  4 N       -1.2580     0.4190     0.2470 N.am  1 <1>  -0.8490 
  5 C        0.3750     2.2600     1.5420 C.ar  1 <1>  -0.0090 
  6 C       -1.5980     1.2680    -0.8940 C.3   1 <1>   0.1960 
  7 C       -2.1280    -0.7530     0.3570 C.3   1 <1>   0.1960 
  8 C        1.4190     1.8510     0.7220 C.ar  1 <1>  -0.1500 
  9 C        0.5400     3.4370     2.2610 C.ar  1 <1>  -0.1500 
 10 C       -1.0890     0.6310    -2.1850 C.3   1 <1>  -0.2400 
 11 C       -1.2520    -1.9910     0.5100 C.3   1 <1>  -0.2400 
 12 C        2.5860     2.5920     0.5880 C.ar  1 <1>   0.1170 
 13 C        1.7010     4.1840     2.1640 C.ar  1 <1>  -0.1500 
 14 N        3.6360     2.2020    -0.2610 N.am  1 <1>  -0.5470 
 15 C        2.7320     3.7660     1.3310 C.ar  1 <1>   0.0830 
 16 C        3.6750     1.3960    -1.3630 C.2   1 <1>   0.5690 
 17 O        3.9040     4.4540     1.1960 O.3   1 <1>  -0.3630 
 18 O        2.7080     0.8260    -1.8070 O.2   1 <1>  -0.5700 
 19 C        5.0170     1.2280    -2.0780 C.3   1 <1>  -0.0190 
 20 C        4.1250     5.6700     1.8770 C.3   1 <1>   0.0400 
 21 C        6.0710     0.5620    -1.1760 C.3   1 <1>  -0.2400 
 22 C        5.5520     2.5640    -2.6220 C.3   1 <1>  -0.2400 
 23 H       -1.1200     2.2280    -0.7900 H     1 <1>   0.0800 
 24 H       -2.6630     1.4340    -0.9360 H     1 <1>   0.0800 
 25 H       -2.7350    -0.8670    -0.5250 H     1 <1>   0.0800 
 26 H       -2.7940    -0.6590     1.2000 H     1 <1>   0.0800 
 27 H        1.3170     0.9290     0.1770 H     1 <1>   0.1500 
 28 H       -0.2550     3.7710     2.9070 H     1 <1>   0.1500 
 29 H       -0.0280     0.4660    -2.1180 H     1 <1>   0.0800 
 30 H       -1.2750     1.2930    -3.0110 H     1 <1>   0.0800 
 31 H       -1.5810    -0.3030    -2.3840 H     1 <1>   0.0800 
 32 H       -0.5940    -2.0850    -0.3360 H     1 <1>   0.0800 
 33 H       -1.8690    -2.8690     0.5670 H     1 <1>   0.0800 
 34 H       -0.6660    -1.9280     1.4090 H     1 <1>   0.0800 
 35 H        1.7780     5.0830     2.7460 H     1 <1>   0.1500 
 36 H        4.4930     2.7230    -0.0770 H     1 <1>   0.3700 
 37 H        4.8470     0.5760    -2.9190 H     1 <1>   0.0800 
 38 H        5.1000     6.0330     1.6080 H     1 <1>   0.0800 
 39 H        4.0820     5.4900     2.9370 H     1 <1>   0.0800 
 40 H        3.3760     6.3810     1.5750 H     1 <1>   0.0800 
 41 H        6.3050     1.1850    -0.3310 H     1 <1>   0.0800 
 42 H        6.9740     0.3790    -1.7300 H     1 <1>   0.0800 
 43 H        5.6980    -0.3800    -0.8140 H     1 <1>   0.0800 
 44 H        5.7790     3.2460    -1.8210 H     1 <1>   0.0800 
 45 H        4.8160     3.0190    -3.2610 H     1 <1>   0.0800 
 46 H        6.4460     2.4010    -3.1980 H     1 <1>   0.0800 
@<TRIPOS>BOND
  1   1   2  2   
  2   1   3  2   
  3   1   4  am  
  4   1   5  1   
  5   4   6  1   
  6   4   7  1   
  7   5   8  ar  
  8   5   9  ar  
  9   6  10  1   
 10   6  23  1   
 11   6  24  1   
 12   7  11  1   
 13   7  25  1   
 14   7  26  1   
 15   8  12  ar  
 16   8  27  1   
 17   9  13  ar  
 18   9  28  1   
 19  10  29  1   
 20  10  30  1   
 21  10  31  1   
 22  11  32  1   
 23  11  33  1   
 24  11  34  1   
 25  12  14  1   
 26  12  15  ar  
 27  13  15  ar  
 28  13  35  1   
 29  14  16  am  
 30  14  36  1   
 31  15  17  1   
 32  16  18  2   
 33  16  19  1   
 34  17  20  1   
 35  19  21  1   
 36  19  22  1   
 37  19  37  1   
 38  20  38  1   
 39  20  39  1   
 40  20  40  1   
 41  21  41  1   
 42  21  42  1   
 43  21  43  1   
 44  22  44  1   
 45  22  45  1   
 46  22  46  1   
@<TRIPOS>SUBSTRUCTURE
  1 ****   8 GROUP 4 **** **** 0

# MOE 2024.06 (io_trps.svl 2023.06)
