@<TRIPOS>MOLECULE
NONAME
39 39 1 0 0 
SMALL
USER_CHARGES


@<TRIPOS>ATOM
  1 F       -1.2860    -0.7050    -1.7440 F     1 <1>  -0.3400 
  2 C       -2.0090    -0.1500    -0.7730 C.3   1 <1>   1.0200 
  3 F       -1.3100     0.9040    -0.3620 F     1 <1>  -0.3400 
  4 F       -3.0660     0.3550    -1.3970 F     1 <1>  -0.3400 
  5 C       -2.3610    -1.1610     0.3700 C.3   1 <1>   0.4990 
  6 N       -2.9980    -0.6940     1.6760 N.am  1 <1>  -0.7300 
  7 C       -1.0130    -1.8040     0.7020 C.2   1 <1>   0.5690 
  8 C       -3.1110    -2.4030    -0.1370 C.2   1 <1>  -0.1240 
  9 C       -3.6770     0.4010     2.0840 C.2   1 <1>   0.5690 
 10 O       -0.0880    -1.2070     1.2040 O.2   1 <1>  -0.5700 
 11 N       -1.0360    -3.1440     0.4010 N.am  1 <1>  -0.4690 
 12 C       -2.2880    -3.4800    -0.0760 C.2   1 <1>  -0.0290 
 13 C       -4.4640    -2.2500    -0.5770 C.2   1 <1>   0.7060 
 14 O       -3.9480     0.4900     3.2510 O.2   1 <1>  -0.5700 
 15 C       -4.1140     1.5220     1.1740 C.3   1 <1>  -0.1790 
 16 C        0.1290    -4.0650     0.5570 C.3   1 <1>   0.2200 
 17 C       -2.5830    -4.9300    -0.4460 C.3   1 <1>  -0.1020 
 18 O       -5.1180    -1.2490    -0.3790 O.2   1 <1>  -0.5700 
 19 O       -5.0340    -3.2470    -1.2580 O.3   1 <1>  -0.4300 
 20 C        0.5030    -4.2070     2.0330 C.3   1 <1>  -0.2400 
 21 C        1.3100    -3.5890    -0.2900 C.3   1 <1>  -0.2400 
 22 C       -6.3620    -3.1610    -1.7390 C.3   1 <1>   0.0400 
 23 H       -2.7750    -1.3140     2.4570 H     1 <1>   0.3700 
 24 H       -3.2640     2.0550     0.7970 H     1 <1>   0.0800 
 25 H       -4.7170     2.2140     1.7330 H     1 <1>   0.0800 
 26 H       -4.7110     1.1470     0.3670 H     1 <1>   0.0800 
 27 H       -0.1410    -5.0420     0.1980 H     1 <1>   0.0800 
 28 H       -2.3600    -5.5730     0.3870 H     1 <1>   0.0800 
 29 H       -1.9800    -5.2240    -1.2860 H     1 <1>   0.0800 
 30 H       -3.6110    -5.0900    -0.7010 H     1 <1>   0.0800 
 31 H        0.8620    -3.2750     2.4320 H     1 <1>   0.0800 
 32 H        1.2840    -4.9380     2.1410 H     1 <1>   0.0800 
 33 H       -0.3480    -4.5330     2.6020 H     1 <1>   0.0800 
 34 H        1.7010    -2.6560     0.0750 H     1 <1>   0.0800 
 35 H        1.0090    -3.4700    -1.3150 H     1 <1>   0.0800 
 36 H        2.1010    -4.3160    -0.2520 H     1 <1>   0.0800 
 37 H       -6.6000    -4.0770    -2.2510 H     1 <1>   0.0800 
 38 H       -6.4340    -2.3280    -2.4180 H     1 <1>   0.0800 
 39 H       -7.0280    -3.0190    -0.9050 H     1 <1>   0.0800 
@<TRIPOS>BOND
  1   1   2  1   
  2   2   3  1   
  3   2   4  1   
  4   2   5  1   
  5   5   6  1   
  6   5   7  1   
  7   5   8  1   
  8   6   9  am  
  9   6  23  1   
 10   7  10  2   
 11   7  11  am  
 12   8  12  2   
 13   8  13  1   
 14   9  14  2   
 15   9  15  1   
 16  11  12  1   
 17  11  16  1   
 18  12  17  1   
 19  13  18  2   
 20  13  19  1   
 21  15  24  1   
 22  15  25  1   
 23  15  26  1   
 24  16  20  1   
 25  16  21  1   
 26  16  27  1   
 27  17  28  1   
 28  17  29  1   
 29  17  30  1   
 30  19  22  1   
 31  20  31  1   
 32  20  32  1   
 33  20  33  1   
 34  21  34  1   
 35  21  35  1   
 36  21  36  1   
 37  22  37  1   
 38  22  38  1   
 39  22  39  1   
@<TRIPOS>SUBSTRUCTURE
  1 ****   5 GROUP 4 **** **** 0

# MOE 2024.06 (io_trps.svl 2023.06)
