@<TRIPOS>MOLECULE
NONAME
60 62 1 0 0 
SMALL
USER_CHARGES


@<TRIPOS>ATOM
  1 O       -2.7210     4.0670    -0.1240 O.2   1 <1>  -0.5700 
  2 C       -2.6220     5.1730    -0.6190 C.2   1 <1>   0.5440 
  3 N       -3.7460     5.7150    -1.1800 N.am  1 <1>  -0.7300 
  4 C       -1.3540     5.8830    -0.6240 C.ar  1 <1>   0.0860 
  5 C       -5.0440     5.0050    -1.3360 C.3   1 <1>   0.1400 
  6 C       -0.1480     5.1870    -0.6050 C.ar  1 <1>  -0.1500 
  7 C       -1.2880     7.2770    -0.6460 C.ar  1 <1>  -0.1500 
  8 C       -5.6590     4.6460     0.0350 C.3   1 <1>   0.3430 
  9 C        1.0950     5.8160    -0.6240 C.ar  1 <1>   0.0860 
 10 C       -0.0720     7.9330    -0.6580 C.ar  1 <1>  -0.1500 
 11 N       -6.1130     3.2180     0.1260 N.4   1 <1>  -0.9590 
 12 C        2.3220     5.0370    -0.6180 C.2   1 <1>   0.5440 
 13 C        1.1050     7.2110    -0.6460 C.ar  1 <1>  -0.1500 
 14 C       -6.9930     3.0080     1.3260 C.3   1 <1>   0.3430 
 15 C       -4.9290     2.2840     0.2080 C.3   1 <1>   0.3430 
 16 O        2.3600     3.9270    -0.1240 O.2   1 <1>  -0.5700 
 17 N        3.4740     5.5170    -1.1790 N.am  1 <1>  -0.7300 
 18 C       -7.3630     1.5220     1.5000 C.3   1 <1>   0.1200 
 19 C       -5.3670     0.8260     0.4450 C.3   1 <1>   0.1200 
 20 C        4.7330     4.7380    -1.3340 C.3   1 <1>   0.1400 
 21 O       -6.2070     0.7390     1.5620 O.3   1 <1>  -0.5600 
 22 C        5.3250     4.3450     0.0380 C.3   1 <1>   0.3430 
 23 N        5.7000     2.8940     0.1280 N.4   1 <1>  -0.9590 
 24 C        4.4670     2.0260     0.2090 C.3   1 <1>   0.3430 
 25 C        6.5660     2.6360     1.3290 C.3   1 <1>   0.3430 
 26 C        4.8240     0.5460     0.4460 C.3   1 <1>   0.1200 
 27 C        6.8540     1.1320     1.5030 C.3   1 <1>   0.1200 
 28 O        5.6570     0.4120     1.5630 O.3   1 <1>  -0.5600 
 29 H       -3.6330     6.5640    -1.7430 H     1 <1>   0.3700 
 30 H       -4.8750     4.1170    -1.9200 H     1 <1>   0.0800 
 31 H       -5.7260     5.6400    -1.8750 H     1 <1>   0.0800 
 32 H       -0.1770     4.1100    -0.5760 H     1 <1>   0.1500 
 33 H       -2.1920     7.8600    -0.6430 H     1 <1>   0.1500 
 34 H       -6.4950     5.3020     0.2140 H     1 <1>   0.0800 
 35 H       -4.9230     4.8290     0.8010 H     1 <1>   0.0800 
 36 H       -0.0430     9.0100    -0.6700 H     1 <1>   0.1500 
 37 H       -6.6520     2.9700    -0.7120 H     1 <1>   0.4500 
 38 H        2.0400     7.7440    -0.6420 H     1 <1>   0.1500 
 39 H       -7.8950     3.5900     1.2290 H     1 <1>   0.0800 
 40 H       -6.4800     3.3350     2.2150 H     1 <1>   0.0800 
 41 H       -4.2860     2.5830     1.0210 H     1 <1>   0.0800 
 42 H       -4.3450     2.3400    -0.6960 H     1 <1>   0.0800 
 43 H        3.4080     6.3720    -1.7410 H     1 <1>   0.3700 
 44 H       -7.9760     1.1730     0.6870 H     1 <1>   0.0800 
 45 H       -7.9010     1.3800     2.4210 H     1 <1>   0.0800 
 46 H       -4.5050     0.2100     0.6370 H     1 <1>   0.0800 
 47 H       -5.8850     0.4310    -0.4110 H     1 <1>   0.0800 
 48 H        5.4480     5.3350    -1.8720 H     1 <1>   0.0800 
 49 H        4.5160     3.8610    -1.9180 H     1 <1>   0.0800 
 50 H        4.6000     4.5680     0.8030 H     1 <1>   0.0800 
 51 H        6.1960     4.9540     0.2180 H     1 <1>   0.0800 
 52 H        6.2260     2.6170    -0.7090 H     1 <1>   0.4500 
 53 H        3.8890     2.1140    -0.6960 H     1 <1>   0.0800 
 54 H        3.8410     2.3590     1.0210 H     1 <1>   0.0800 
 55 H        6.0710     2.9890     2.2180 H     1 <1>   0.0800 
 56 H        7.4990     3.1670     1.2340 H     1 <1>   0.0800 
 57 H        5.3210     0.1240    -0.4100 H     1 <1>   0.0800 
 58 H        3.9300    -0.0220     0.6360 H     1 <1>   0.0800 
 59 H        7.3830     0.9600     2.4240 H     1 <1>   0.0800 
 60 H        7.4480     0.7500     0.6900 H     1 <1>   0.0800 
@<TRIPOS>BOND
  1   1   2  2   
  2   2   3  am  
  3   2   4  1   
  4   3   5  1   
  5   3  29  1   
  6   4   6  ar  
  7   4   7  ar  
  8   5   8  1   
  9   5  30  1   
 10   5  31  1   
 11   6   9  ar  
 12   6  32  1   
 13   7  10  ar  
 14   7  33  1   
 15   8  11  1   
 16   8  34  1   
 17   8  35  1   
 18   9  12  1   
 19   9  13  ar  
 20  10  13  ar  
 21  10  36  1   
 22  11  14  1   
 23  11  15  1   
 24  11  37  1   
 25  12  16  2   
 26  12  17  am  
 27  13  38  1   
 28  14  18  1   
 29  14  39  1   
 30  14  40  1   
 31  15  19  1   
 32  15  41  1   
 33  15  42  1   
 34  17  20  1   
 35  17  43  1   
 36  18  21  1   
 37  18  44  1   
 38  18  45  1   
 39  19  21  1   
 40  19  46  1   
 41  19  47  1   
 42  20  22  1   
 43  20  48  1   
 44  20  49  1   
 45  22  23  1   
 46  22  50  1   
 47  22  51  1   
 48  23  24  1   
 49  23  25  1   
 50  23  52  1   
 51  24  26  1   
 52  24  53  1   
 53  24  54  1   
 54  25  27  1   
 55  25  55  1   
 56  25  56  1   
 57  26  28  1   
 58  26  57  1   
 59  26  58  1   
 60  27  28  1   
 61  27  59  1   
 62  27  60  1   
@<TRIPOS>SUBSTRUCTURE
  1 ****   6 GROUP 4 **** **** 0

# MOE 2024.06 (io_trps.svl 2023.06)
