@<TRIPOS>MOLECULE
NONAME
53 55 1 0 0 
SMALL
USER_CHARGES


@<TRIPOS>ATOM
  1 S       -0.0620    -0.1820     0.2760 S.o2  1 <1>   1.4470 
  2 O        0.1970    -0.5650     1.6420 O.2   1 <1>  -0.6500 
  3 O        0.1560    -1.1030    -0.8160 O.2   1 <1>  -0.6500 
  4 N       -1.7250     0.2680     0.2380 N.am  1 <1>  -0.7570 
  5 C        0.7210     1.4090    -0.0950 C.ar  1 <1>  -0.0090 
  6 C       -2.8260    -0.5650     0.4060 C.ar  1 <1>   0.1990 
  7 C        0.9830     1.7940    -1.4040 C.ar  1 <1>  -0.1500 
  8 C        1.0430     2.3030     0.9190 C.ar  1 <1>  -0.1500 
  9 C       -4.0320    -0.0440     0.9190 C.ar  1 <1>   0.0860 
 10 C       -2.7630    -1.9190     0.0750 C.ar  1 <1>  -0.1500 
 11 C        1.5500     3.0230    -1.6930 C.ar  1 <1>  -0.1500 
 12 C        1.6100     3.5350     0.6380 C.ar  1 <1>  -0.1500 
 13 C       -4.1930     1.3650     1.2310 C.2   1 <1>   0.5440 
 14 C       -5.1000    -0.9230     1.1230 C.ar  1 <1>  -0.1500 
 15 C       -3.8400    -2.7590     0.2670 C.ar  1 <1>  -0.1500 
 16 C        1.8680     3.9010    -0.6710 C.ar  1 <1>  -0.1430 
 17 O       -3.2660     2.0300     1.6640 O.2   1 <1>  -0.5700 
 18 N       -5.3860     2.0270     1.0210 N.am  1 <1>  -0.6600 
 19 C       -5.0130    -2.2610     0.8000 C.ar  1 <1>  -0.1500 
 20 C        2.4910     5.2500    -0.9800 C.3   1 <1>  -0.0970 
 21 C       -5.7040     3.2730     1.7820 C.3   1 <1>   0.1400 
 22 C       -6.1590     1.8660    -0.2470 C.3   1 <1>   0.1400 
 23 C       -5.5430     4.5100     0.8810 C.3   1 <1>   0.3430 
 24 C       -6.0370     3.1310    -1.1250 C.3   1 <1>   0.3430 
 25 N       -6.3710     4.4000    -0.3760 N.4   1 <1>  -0.9590 
 26 C       -6.1940     5.6130    -1.2170 C.3   1 <1>   0.3430 
 27 C       -7.2970     5.6790    -2.2660 C.3   1 <1>  -0.2400 
 28 H       -1.8240     1.1250     0.7930 H     1 <1>   0.4200 
 29 H        0.7420     1.1210    -2.2110 H     1 <1>   0.1500 
 30 H        0.8520     2.0340     1.9450 H     1 <1>   0.1500 
 31 H       -1.8650    -2.3370    -0.3390 H     1 <1>   0.1500 
 32 H        1.7430     3.2920    -2.7170 H     1 <1>   0.1500 
 33 H        1.8500     4.2060     1.4450 H     1 <1>   0.1500 
 34 H       -6.0160    -0.5510     1.5480 H     1 <1>   0.1500 
 35 H       -3.7640    -3.8020     0.0070 H     1 <1>   0.1500 
 36 H       -5.8500    -2.9210     0.9640 H     1 <1>   0.1500 
 37 H        3.0220     5.2170    -1.9140 H     1 <1>   0.0800 
 38 H        3.1860     5.5270    -0.2070 H     1 <1>   0.0800 
 39 H        1.7240     6.0010    -1.0430 H     1 <1>   0.0800 
 40 H       -5.0520     3.3660     2.6350 H     1 <1>   0.0800 
 41 H       -6.7120     3.2180     2.1550 H     1 <1>   0.0800 
 42 H       -7.1930     1.6800    -0.0130 H     1 <1>   0.0800 
 43 H       -5.7910     1.0210    -0.8030 H     1 <1>   0.0800 
 44 H       -4.5000     4.6040     0.6240 H     1 <1>   0.0800 
 45 H       -5.8280     5.3880     1.4350 H     1 <1>   0.0800 
 46 H       -6.6870     3.0250    -1.9780 H     1 <1>   0.0800 
 47 H       -5.0250     3.1890    -1.4910 H     1 <1>   0.0800 
 48 H       -7.3600     4.3560    -0.0960 H     1 <1>   0.4500 
 49 H       -5.2260     5.5990    -1.6940 H     1 <1>   0.0800 
 50 H       -6.2500     6.4960    -0.5980 H     1 <1>   0.0800 
 51 H       -7.2250     4.8680    -2.9680 H     1 <1>   0.0800 
 52 H       -7.2000     6.5960    -2.8190 H     1 <1>   0.0800 
 53 H       -8.2690     5.6750    -1.8040 H     1 <1>   0.0800 
@<TRIPOS>BOND
  1   1   2  2   
  2   1   3  2   
  3   1   4  am  
  4   1   5  1   
  5   4   6  1   
  6   4  28  1   
  7   5   7  ar  
  8   5   8  ar  
  9   6   9  ar  
 10   6  10  ar  
 11   7  11  ar  
 12   7  29  1   
 13   8  12  ar  
 14   8  30  1   
 15   9  13  1   
 16   9  14  ar  
 17  10  15  ar  
 18  10  31  1   
 19  11  16  ar  
 20  11  32  1   
 21  12  16  ar  
 22  12  33  1   
 23  13  17  2   
 24  13  18  am  
 25  14  19  ar  
 26  14  34  1   
 27  15  19  ar  
 28  15  35  1   
 29  16  20  1   
 30  18  21  1   
 31  18  22  1   
 32  19  36  1   
 33  20  37  1   
 34  20  38  1   
 35  20  39  1   
 36  21  23  1   
 37  21  40  1   
 38  21  41  1   
 39  22  24  1   
 40  22  42  1   
 41  22  43  1   
 42  23  25  1   
 43  23  44  1   
 44  23  45  1   
 45  24  25  1   
 46  24  46  1   
 47  24  47  1   
 48  25  26  1   
 49  25  48  1   
 50  26  27  1   
 51  26  49  1   
 52  26  50  1   
 53  27  51  1   
 54  27  52  1   
 55  27  53  1   
@<TRIPOS>SUBSTRUCTURE
  1 ****   4 GROUP 4 **** **** 0

# MOE 2024.06 (io_trps.svl 2023.06)
