@<TRIPOS>MOLECULE
NONAME
41 41 1 0 0 
SMALL
USER_CHARGES


@<TRIPOS>ATOM
  1 O       -1.0620    -0.3580     0.3030 O.2   1 <1>  -0.5700 
  2 C       -0.8920    -0.9160    -0.7610 C.2   1 <1>   0.6160 
  3 N       -0.2940    -2.1410    -0.8210 N.am  1 <1>  -0.7300 
  4 C       -1.3220    -0.2940    -1.9890 C.2   1 <1>  -0.1360 
  5 C        0.2050    -3.0150     0.2630 C.3   1 <1>   0.3000 
  6 C       -1.9410     0.8920    -2.1370 C.2   1 <1>  -0.3000 
  7 C       -0.9930    -3.4520     1.1530 C.3   1 <1>  -0.1600 
  8 C        0.7870    -4.2600    -0.4350 C.3   1 <1>  -0.1600 
  9 C        1.2650    -2.2880     1.1430 C.3   1 <1>  -0.1600 
 10 C       -1.7380    -4.7300     0.7110 C.3   1 <1>  -0.1600 
 11 C       -0.2250    -5.0610    -1.2870 C.3   1 <1>  -0.1600 
 12 C        2.6520    -1.8320     0.6090 C.3   1 <1>  -0.0800 
 13 C       -1.6780    -4.9400    -0.8020 C.3   1 <1>  -0.1600 
 14 C        2.5920    -1.0520    -0.7180 C.3   1 <1>  -0.1600 
 15 C        3.6880    -2.9720     0.5760 C.3   1 <1>  -0.2400 
 16 C        3.9240    -0.3930    -1.1020 C.3   1 <1>  -0.2400 
 17 H       -0.2690    -2.6130    -1.7190 H     1 <1>   0.3700 
 18 H       -1.1010    -0.8800    -2.8600 H     1 <1>   0.1500 
 19 H       -2.2400     1.3080    -3.0820 H     1 <1>   0.1500 
 20 H       -2.1920     1.5310    -1.3070 H     1 <1>   0.1500 
 21 H       -1.6980    -2.6440     1.2280 H     1 <1>   0.0800 
 22 H       -0.6490    -3.6330     2.1550 H     1 <1>   0.0800 
 23 H        1.1820    -4.9100     0.3270 H     1 <1>   0.0800 
 24 H        1.6030    -3.9790    -1.0700 H     1 <1>   0.0800 
 25 H        1.4630    -2.9200     1.9890 H     1 <1>   0.0800 
 26 H        0.7890    -1.4190     1.5590 H     1 <1>   0.0800 
 27 H       -2.7630    -4.6780     1.0350 H     1 <1>   0.0800 
 28 H       -1.2890    -5.5830     1.1920 H     1 <1>   0.0800 
 29 H        0.0680    -6.0970    -1.2700 H     1 <1>   0.0800 
 30 H       -0.1770    -4.7360    -2.3120 H     1 <1>   0.0800 
 31 H        3.0160    -1.1380     1.3490 H     1 <1>   0.0800 
 32 H       -2.1560    -4.1040    -1.2840 H     1 <1>   0.0800 
 33 H       -2.2260    -5.8260    -1.0730 H     1 <1>   0.0800 
 34 H        1.8530    -0.2750    -0.6230 H     1 <1>   0.0800 
 35 H        2.2860    -1.7040    -1.5160 H     1 <1>   0.0800 
 36 H        3.5720    -3.5950    -0.2890 H     1 <1>   0.0800 
 37 H        4.6820    -2.5640     0.5530 H     1 <1>   0.0800 
 38 H        3.6110    -3.5830     1.4570 H     1 <1>   0.0800 
 39 H        4.2750     0.2370    -0.3040 H     1 <1>   0.0800 
 40 H        3.7890     0.2140    -1.9790 H     1 <1>   0.0800 
 41 H        4.6720    -1.1340    -1.3180 H     1 <1>   0.0800 
@<TRIPOS>BOND
  1   1   2  2   
  2   2   3  am  
  3   2   4  1   
  4   3   5  1   
  5   3  17  1   
  6   4   6  2   
  7   4  18  1   
  8   5   7  1   
  9   5   8  1   
 10   5   9  1   
 11   6  19  1   
 12   6  20  1   
 13   7  10  1   
 14   7  21  1   
 15   7  22  1   
 16   8  11  1   
 17   8  23  1   
 18   8  24  1   
 19   9  12  1   
 20   9  25  1   
 21   9  26  1   
 22  10  13  1   
 23  10  27  1   
 24  10  28  1   
 25  11  13  1   
 26  11  29  1   
 27  11  30  1   
 28  12  14  1   
 29  12  15  1   
 30  12  31  1   
 31  13  32  1   
 32  13  33  1   
 33  14  16  1   
 34  14  34  1   
 35  14  35  1   
 36  15  36  1   
 37  15  37  1   
 38  15  38  1   
 39  16  39  1   
 40  16  40  1   
 41  16  41  1   
@<TRIPOS>SUBSTRUCTURE
  1 ****   3 GROUP 4 **** **** 0

# MOE 2024.06 (io_trps.svl 2023.06)
