@<TRIPOS>MOLECULE
NONAME
43 45 1 0 0 
SMALL
USER_CHARGES


@<TRIPOS>ATOM
  1 BR       1.1180    -4.0660     1.0250 Br    1 <1>  -0.0570 
  2 C       -0.7510    -4.3860     0.6700 C.2   1 <1>   0.0570 
  3 C       -1.4910    -5.3100     1.3020 C.2   1 <1>  -0.1100 
  4 C       -1.4150    -3.6060    -0.3240 C.2   1 <1>  -0.1500 
  5 S       -3.1290    -5.2530     0.6640 S.3   1 <1>  -0.0800 
  6 C       -2.7150    -3.9440    -0.4500 C.2   1 <1>  -0.1400 
  7 C       -3.8150    -3.4290    -1.3540 C.3   1 <1>   0.5230 
  8 N       -4.4950    -2.2780    -0.6990 N.4   1 <1>  -0.9590 
  9 C       -5.2580    -2.6910     0.5400 C.3   1 <1>   0.3430 
 10 C       -5.3970    -1.5490    -1.6630 C.3   1 <1>   0.3430 
 11 C       -5.9760    -1.5110     1.2270 C.3   1 <1>   0.2090 
 12 C       -6.0930    -0.3300    -1.0230 C.3   1 <1>   0.2090 
 13 N       -6.7620    -0.6950     0.2560 N.pl3 1 <1>  -0.8380 
 14 C       -8.1460    -0.8620     0.2270 C.ar  1 <1>   0.1000 
 15 C       -8.9970     0.1640     0.6380 C.ar  1 <1>  -0.1430 
 16 C       -8.6990    -2.0580    -0.2210 C.ar  1 <1>  -0.1500 
 17 C      -10.3680    -0.0210     0.5900 C.ar  1 <1>  -0.1500 
 18 C       -8.4380     1.4870     1.1410 C.3   1 <1>  -0.0970 
 19 C      -10.0690    -2.2430    -0.2660 C.ar  1 <1>  -0.1430 
 20 C      -10.9030    -1.2160     0.1410 C.ar  1 <1>  -0.1500 
 21 C      -10.6730    -3.5480    -0.7540 C.3   1 <1>  -0.0970 
 22 H       -1.2610    -6.0250     2.0720 H     1 <1>   0.1500 
 23 H       -0.8720    -2.8560    -0.8730 H     1 <1>   0.1500 
 24 H       -4.5180    -4.2180    -1.5680 H     1 <1>   0.0800 
 25 H       -3.3730    -3.1050    -2.2830 H     1 <1>   0.0800 
 26 H       -3.7610    -1.6280    -0.3910 H     1 <1>   0.4500 
 27 H       -4.5880    -3.1410     1.2530 H     1 <1>   0.0800 
 28 H       -5.9990    -3.4270     0.2780 H     1 <1>   0.0800 
 29 H       -6.1640    -2.2180    -2.0160 H     1 <1>   0.0800 
 30 H       -4.8320    -1.2140    -2.5180 H     1 <1>   0.0800 
 31 H       -5.2540    -0.8780     1.7120 H     1 <1>   0.0800 
 32 H       -6.6360    -1.8900     1.9900 H     1 <1>   0.0800 
 33 H       -6.8250     0.0640    -1.7080 H     1 <1>   0.0800 
 34 H       -5.3740     0.4480    -0.8350 H     1 <1>   0.0800 
 35 H       -8.0530    -2.8500    -0.5380 H     1 <1>   0.1500 
 36 H      -11.0340     0.7640     0.9040 H     1 <1>   0.1500 
 37 H       -7.7780     1.3110     1.9700 H     1 <1>   0.0800 
 38 H       -9.2250     2.1440     1.4650 H     1 <1>   0.0800 
 39 H       -7.8870     1.9720     0.3570 H     1 <1>   0.0800 
 40 H      -11.9710    -1.3410     0.1120 H     1 <1>   0.1500 
 41 H       -9.9120    -4.2850    -0.9350 H     1 <1>   0.0800 
 42 H      -11.2140    -3.3790    -1.6680 H     1 <1>   0.0800 
 43 H      -11.3540    -3.9340    -0.0170 H     1 <1>   0.0800 
@<TRIPOS>BOND
  1   1   2  1   
  2   2   3  2   
  3   2   4  1   
  4   3   5  1   
  5   3  22  1   
  6   4   6  2   
  7   4  23  1   
  8   5   6  1   
  9   6   7  1   
 10   7   8  1   
 11   7  24  1   
 12   7  25  1   
 13   8   9  1   
 14   8  10  1   
 15   8  26  1   
 16   9  11  1   
 17   9  27  1   
 18   9  28  1   
 19  10  12  1   
 20  10  29  1   
 21  10  30  1   
 22  11  13  1   
 23  11  31  1   
 24  11  32  1   
 25  12  13  1   
 26  12  33  1   
 27  12  34  1   
 28  13  14  1   
 29  14  15  ar  
 30  14  16  ar  
 31  15  17  ar  
 32  15  18  1   
 33  16  19  ar  
 34  16  35  1   
 35  17  20  ar  
 36  17  36  1   
 37  18  37  1   
 38  18  38  1   
 39  18  39  1   
 40  19  20  ar  
 41  19  21  1   
 42  20  40  1   
 43  21  41  1   
 44  21  42  1   
 45  21  43  1   
@<TRIPOS>SUBSTRUCTURE
  1 ****   9 GROUP 4 **** **** 0

# MOE 2024.06 (io_trps.svl 2023.06)
