@<TRIPOS>MOLECULE
NONAME
38 39 1 0 0 
SMALL
USER_CHARGES


@<TRIPOS>ATOM
  1 CL      -1.9420    -0.6800     2.4090 Cl    1 <1>  -0.1770 
  2 C       -2.8330    -0.2850     0.9580 C.ar  1 <1>   0.1770 
  3 C       -3.0130    -1.2260    -0.0430 C.ar  1 <1>   0.1770 
  4 C       -3.3570     0.9880     0.8240 C.ar  1 <1>  -0.1500 
  5 CL      -2.3530    -2.8380     0.1130 Cl    1 <1>  -0.1770 
  6 C       -3.7190    -0.9020    -1.1860 C.ar  1 <1>  -0.1500 
  7 C       -4.0650     1.3250    -0.3230 C.ar  1 <1>  -0.1440 
  8 C       -4.2440     0.3740    -1.3210 C.ar  1 <1>  -0.1500 
  9 C       -4.6500     2.7220    -0.4900 C.3   1 <1>   0.3530 
 10 N       -6.1300     2.6950    -0.3980 N.pl3 1 <1>  -0.8690 
 11 C       -6.9120     1.8250     0.2900 C.2   1 <1>  -0.0500 
 12 C       -8.2910     1.8350     0.3460 C.2   1 <1>   0.0290 
 13 C       -8.9660     0.8400     1.1240 C.2   1 <1>   0.4950 
 14 C       -9.0850     2.8090    -0.3510 C.2   1 <1>   0.4950 
 15 O       -8.3890    -0.0030     1.7710 O.2   1 <1>  -0.5700 
 16 C      -10.4820     0.7840     1.2000 C.3   1 <1>  -0.0990 
 17 O       -8.6350     3.7140    -1.0210 O.2   1 <1>  -0.5700 
 18 C      -10.6040     2.7760    -0.2770 C.3   1 <1>  -0.0990 
 19 C      -11.1700     1.3700    -0.0400 C.3   1 <1>   0.0000 
 20 C      -12.6840     1.4590     0.2040 C.3   1 <1>  -0.2400 
 21 C      -10.9280     0.4730    -1.2680 C.3   1 <1>  -0.2400 
 22 H       -3.2120     1.7020     1.6150 H     1 <1>   0.1500 
 23 H       -3.8580    -1.6390    -1.9560 H     1 <1>   0.1500 
 24 H       -4.8050     0.6300    -2.2050 H     1 <1>   0.1500 
 25 H       -4.3660     3.1100    -1.4530 H     1 <1>   0.0800 
 26 H       -4.2640     3.3850     0.2660 H     1 <1>   0.0800 
 27 H       -6.6040     3.4540    -0.9220 H     1 <1>   0.4000 
 28 H       -6.3910     1.0550     0.8420 H     1 <1>   0.1500 
 29 H      -10.7860    -0.2400     1.3320 H     1 <1>   0.0800 
 30 H      -10.7830     1.3230     2.0810 H     1 <1>   0.0800 
 31 H      -10.9050     3.4360     0.5170 H     1 <1>   0.0800 
 32 H      -11.0040     3.1750    -1.1930 H     1 <1>   0.0800 
 33 H      -13.0960     0.4810     0.3860 H     1 <1>   0.0800 
 34 H      -13.1820     1.8790    -0.6520 H     1 <1>   0.0800 
 35 H      -12.9020     2.0790     1.0570 H     1 <1>   0.0800 
 36 H       -9.8820     0.3670    -1.4930 H     1 <1>   0.0800 
 37 H      -11.4130     0.8860    -2.1360 H     1 <1>   0.0800 
 38 H      -11.3310    -0.5110    -1.1000 H     1 <1>   0.0800 
@<TRIPOS>BOND
  1   1   2  1   
  2   2   3  ar  
  3   2   4  ar  
  4   3   5  1   
  5   3   6  ar  
  6   4   7  ar  
  7   4  22  1   
  8   6   8  ar  
  9   6  23  1   
 10   7   8  ar  
 11   7   9  1   
 12   8  24  1   
 13   9  10  1   
 14   9  25  1   
 15   9  26  1   
 16  10  11  1   
 17  10  27  1   
 18  11  12  2   
 19  11  28  1   
 20  12  13  1   
 21  12  14  1   
 22  13  15  2   
 23  13  16  1   
 24  14  17  2   
 25  14  18  1   
 26  16  19  1   
 27  16  29  1   
 28  16  30  1   
 29  18  19  1   
 30  18  31  1   
 31  18  32  1   
 32  19  20  1   
 33  19  21  1   
 34  20  33  1   
 35  20  34  1   
 36  20  35  1   
 37  21  36  1   
 38  21  37  1   
 39  21  38  1   
@<TRIPOS>SUBSTRUCTURE
  1 ****  11 GROUP 4 **** **** 0

# MOE 2024.06 (io_trps.svl 2023.06)
