@<TRIPOS>MOLECULE
NONAME
48 50 1 0 0 
SMALL
USER_CHARGES


@<TRIPOS>ATOM
  1 S       -0.4670    -0.0380     0.3780 S.o2  1 <1>   1.4470 
  2 O       -0.4830    -1.4800     0.4760 O.2   1 <1>  -0.6500 
  3 O       -0.7350     0.7620     1.5510 O.2   1 <1>  -0.6500 
  4 N       -1.6610     0.3860    -0.7170 N.am  1 <1>  -0.9140 
  5 C        1.0450     0.5380    -0.4410 C.ar  1 <1>  -0.0090 
  6 C       -3.0000    -0.0510    -0.3340 C.3   1 <1>   0.1960 
  7 C        1.9800    -0.3560    -0.9490 C.ar  1 <1>  -0.1500 
  8 C        1.2940     1.8980    -0.5960 C.ar  1 <1>  -0.1500 
  9 C       -4.0470     1.0990    -0.2420 C.3   1 <1>   0.1440 
 10 C        3.1280     0.0880    -1.5840 C.ar  1 <1>  -0.1500 
 11 C        2.4380     2.3510    -1.2300 C.ar  1 <1>  -0.1500 
 12 C       -5.3840     0.3920     0.0870 C.ar  1 <1>  -0.1430 
 13 C       -3.7140     2.1000     0.9000 C.3   1 <1>  -0.1600 
 14 C       -4.1290     1.9080    -1.5640 C.3   1 <1>  -0.1600 
 15 C        3.3580     1.4440    -1.7240 C.ar  1 <1>  -0.1500 
 16 C       -6.4010     0.2150    -0.8500 C.ar  1 <1>  -0.1500 
 17 C       -5.5880    -0.1230     1.3650 C.ar  1 <1>  -0.1500 
 18 C       -2.9310     3.3530     0.4780 C.3   1 <1>   0.1200 
 19 C       -2.9660     2.8880    -1.8200 C.3   1 <1>   0.1200 
 20 C       -7.5800    -0.4320    -0.5190 C.ar  1 <1>  -0.1500 
 21 C       -6.7640    -0.7690     1.7000 C.ar  1 <1>  -0.1500 
 22 O       -2.1970     3.0900    -0.6710 O.3   1 <1>  -0.5600 
 23 C       -7.7700    -0.9280     0.7650 C.ar  1 <1>   0.0830 
 24 O       -8.8920    -1.5720     1.1720 O.3   1 <1>  -0.3620 
 25 C       -9.9720    -1.7900     0.2920 C.3   1 <1>   0.0400 
 26 H       -1.6930     1.4120    -0.6400 H     1 <1>   0.4200 
 27 H       -2.9650    -0.5640     0.6140 H     1 <1>   0.0800 
 28 H       -3.3350    -0.7700    -1.0610 H     1 <1>   0.0800 
 29 H        1.8070    -1.4150    -0.8470 H     1 <1>   0.1500 
 30 H        0.5820     2.6120    -0.2160 H     1 <1>   0.1500 
 31 H        3.8400    -0.6220    -1.9680 H     1 <1>   0.1500 
 32 H        2.6120     3.4080    -1.3370 H     1 <1>   0.1500 
 33 H       -3.1740     1.6010     1.6840 H     1 <1>   0.0800 
 34 H       -4.6290     2.4510     1.3430 H     1 <1>   0.0800 
 35 H       -5.0280     2.4970    -1.5470 H     1 <1>   0.0800 
 36 H       -4.2010     1.2410    -2.4050 H     1 <1>   0.0800 
 37 H        4.2490     1.7930    -2.2170 H     1 <1>   0.1500 
 38 H       -6.3050     0.5690    -1.8590 H     1 <1>   0.1500 
 39 H       -4.8300    -0.0310     2.1230 H     1 <1>   0.1500 
 40 H       -2.2440     3.6460     1.2550 H     1 <1>   0.0800 
 41 H       -3.5960     4.1750     0.2740 H     1 <1>   0.0800 
 42 H       -3.3360     3.8430    -2.1530 H     1 <1>   0.0800 
 43 H       -2.3080     2.4940    -2.5750 H     1 <1>   0.0800 
 44 H       -8.3360    -0.5410    -1.2730 H     1 <1>   0.1500 
 45 H       -6.9080    -1.1590     2.6910 H     1 <1>   0.1500 
 46 H      -10.7410    -2.3130     0.8300 H     1 <1>   0.0800 
 47 H       -9.6320    -2.3890    -0.5350 H     1 <1>   0.0800 
 48 H      -10.3440    -0.8390    -0.0460 H     1 <1>   0.0800 
@<TRIPOS>BOND
  1   1   2  2   
  2   1   3  2   
  3   1   4  am  
  4   1   5  1   
  5   4   6  1   
  6   4  26  1   
  7   5   7  ar  
  8   5   8  ar  
  9   6   9  1   
 10   6  27  1   
 11   6  28  1   
 12   7  10  ar  
 13   7  29  1   
 14   8  11  ar  
 15   8  30  1   
 16   9  12  1   
 17   9  13  1   
 18   9  14  1   
 19  10  15  ar  
 20  10  31  1   
 21  11  15  ar  
 22  11  32  1   
 23  12  16  ar  
 24  12  17  ar  
 25  13  18  1   
 26  13  33  1   
 27  13  34  1   
 28  14  19  1   
 29  14  35  1   
 30  14  36  1   
 31  15  37  1   
 32  16  20  ar  
 33  16  38  1   
 34  17  21  ar  
 35  17  39  1   
 36  18  22  1   
 37  18  40  1   
 38  18  41  1   
 39  19  22  1   
 40  19  42  1   
 41  19  43  1   
 42  20  23  ar  
 43  20  44  1   
 44  21  23  ar  
 45  21  45  1   
 46  23  24  1   
 47  24  25  1   
 48  25  46  1   
 49  25  47  1   
 50  25  48  1   
@<TRIPOS>SUBSTRUCTURE
  1 ****   6 GROUP 4 **** **** 0

# MOE 2024.06 (io_trps.svl 2023.06)
