@<TRIPOS>MOLECULE
NONAME
41 42 1 0 0 
SMALL
USER_CHARGES


@<TRIPOS>ATOM
  1 O       -9.8220    -0.1250    -0.4100 O.3   1 <1>  -0.3630 
  2 C      -11.1690    -0.0810    -0.5910 C.ar  1 <1>   0.0830 
  3 C       -8.9840     0.9270    -0.8100 C.3   1 <1>   0.1200 
  4 C      -11.9320    -1.1170    -0.0540 C.ar  1 <1>  -0.1440 
  5 C      -11.8010     0.9520    -1.2810 C.ar  1 <1>  -0.1500 
  6 C       -7.5690     0.5650    -0.3640 C.3   1 <1>  -0.1600 
  7 C      -13.3090    -1.1020    -0.2090 C.ar  1 <1>  -0.1500 
  8 C      -11.2880    -2.2720     0.7060 C.3   1 <1>  -0.0160 
  9 C      -13.1760     0.9540    -1.4300 C.ar  1 <1>  -0.1500 
 10 C       -6.5830     1.6700    -0.7360 C.3   1 <1>   0.3430 
 11 C      -13.9310    -0.0720    -0.8930 C.ar  1 <1>  -0.1500 
 12 C      -11.0860    -1.9050     2.1780 C.3   1 <1>  -0.2400 
 13 N       -5.2000     1.2700    -0.3590 N.4   1 <1>  -0.9590 
 14 C       -4.9630     1.1960     1.1060 C.3   1 <1>   0.3430 
 15 C       -4.1670     2.1930    -0.8870 C.3   1 <1>   0.3430 
 16 C       -3.4490     1.2670     1.2500 C.3   1 <1>  -0.1600 
 17 C       -2.9330     1.9010    -0.0450 C.3   1 <1>  -0.1600 
 18 H       -9.3270     1.8290    -0.3310 H     1 <1>   0.0800 
 19 H       -9.0490     1.0190    -1.8810 H     1 <1>   0.0800 
 20 H      -11.2480     1.7620    -1.7120 H     1 <1>   0.1500 
 21 H       -7.2850    -0.3530    -0.8480 H     1 <1>   0.0800 
 22 H       -7.5820     0.4220     0.7010 H     1 <1>   0.0800 
 23 H      -13.9080    -1.8940     0.2060 H     1 <1>   0.1500 
 24 H      -10.3430    -2.5250     0.2600 H     1 <1>   0.0800 
 25 H      -11.9150    -3.1450     0.6390 H     1 <1>   0.0800 
 26 H      -13.6610     1.7530    -1.9630 H     1 <1>   0.1500 
 27 H       -6.8520     2.5860    -0.2350 H     1 <1>   0.0800 
 28 H       -6.6310     1.8390    -1.8000 H     1 <1>   0.0800 
 29 H      -15.0010    -0.0720    -1.0060 H     1 <1>   0.1500 
 30 H      -10.4420    -1.0480     2.2590 H     1 <1>   0.0800 
 31 H      -10.6390    -2.7270     2.7070 H     1 <1>   0.0800 
 32 H      -12.0310    -1.6700     2.6330 H     1 <1>   0.0800 
 33 H       -5.0050     0.3370    -0.7470 H     1 <1>   0.4500 
 34 H       -5.3620     0.2880     1.5320 H     1 <1>   0.0800 
 35 H       -5.4110     2.0470     1.5930 H     1 <1>   0.0800 
 36 H       -4.4750     3.2150    -0.7290 H     1 <1>   0.0800 
 37 H       -3.9820     2.0310    -1.9370 H     1 <1>   0.0800 
 38 H       -3.0460     0.2760     1.3700 H     1 <1>   0.0800 
 39 H       -3.1820     1.8500     2.1150 H     1 <1>   0.0800 
 40 H       -2.3830     2.8070     0.1440 H     1 <1>   0.0800 
 41 H       -2.2890     1.2150    -0.5690 H     1 <1>   0.0800 
@<TRIPOS>BOND
  1   1   2  1   
  2   1   3  1   
  3   2   4  ar  
  4   2   5  ar  
  5   3   6  1   
  6   3  18  1   
  7   3  19  1   
  8   4   7  ar  
  9   4   8  1   
 10   5   9  ar  
 11   5  20  1   
 12   6  10  1   
 13   6  21  1   
 14   6  22  1   
 15   7  11  ar  
 16   7  23  1   
 17   8  12  1   
 18   8  24  1   
 19   8  25  1   
 20   9  11  ar  
 21   9  26  1   
 22  10  13  1   
 23  10  27  1   
 24  10  28  1   
 25  11  29  1   
 26  12  30  1   
 27  12  31  1   
 28  12  32  1   
 29  13  14  1   
 30  13  15  1   
 31  13  33  1   
 32  14  16  1   
 33  14  34  1   
 34  14  35  1   
 35  15  17  1   
 36  15  36  1   
 37  15  37  1   
 38  16  17  1   
 39  16  38  1   
 40  16  39  1   
 41  17  40  1   
 42  17  41  1   
@<TRIPOS>SUBSTRUCTURE
  1 ****   3 GROUP 4 **** **** 0

# MOE 2024.06 (io_trps.svl 2023.06)
