@<TRIPOS>MOLECULE
NONAME
50 51 1 0 0 
SMALL
USER_CHARGES


@<TRIPOS>ATOM
  1 CL       3.3910    -0.5600     1.3440 Cl    1 <1>  -0.1770 
  2 C        2.8640     1.0350     0.8310 C.ar  1 <1>   0.1770 
  3 C        3.4100     1.6090    -0.3170 C.ar  1 <1>   0.0830 
  4 C        1.9150     1.7050     1.5890 C.ar  1 <1>  -0.1440 
  5 O        4.3370     0.9560    -1.0620 O.3   1 <1>  -0.3630 
  6 C        3.0150     2.8850    -0.7040 C.ar  1 <1>  -0.1440 
  7 C        1.5210     2.9710     1.1870 C.ar  1 <1>  -0.1500 
  8 C        1.3110     1.0820     2.8400 C.3   1 <1>  -0.0960 
  9 C        3.9090    -0.1740    -1.8010 C.3   1 <1>   0.1200 
 10 C        2.0670     3.5540     0.0550 C.ar  1 <1>  -0.1500 
 11 C        3.6030     3.5530    -1.9390 C.3   1 <1>  -0.0970 
 12 C        4.8310    -1.3770    -1.5240 C.3   1 <1>   0.3430 
 13 N        6.2560    -0.9640    -1.3060 N.4   1 <1>  -0.9590 
 14 C        7.2200    -1.9430    -1.8790 C.3   1 <1>   0.3430 
 15 C        6.5170    -0.6970     0.1400 C.3   1 <1>   0.3430 
 16 C        8.6390    -1.3910    -1.7530 C.3   1 <1>  -0.1600 
 17 C        7.9210    -0.1230     0.3100 C.3   1 <1>  -0.1600 
 18 C        8.9970    -1.0440    -0.2930 C.3   1 <1>  -0.0190 
 19 C       10.3780    -0.4060    -0.1690 C.2   1 <1>   0.6590 
 20 O       10.8510     0.2600    -1.0520 O.2   1 <1>  -0.5700 
 21 O       11.0060    -0.6210     0.9770 O.3   1 <1>  -0.4300 
 22 C       12.2810    -0.0770     1.2290 C.3   1 <1>   0.1200 
 23 C       12.7090    -0.5030     2.6290 C.3   1 <1>  -0.2400 
 24 H        0.7860     3.5170     1.7540 H     1 <1>   0.1500 
 25 H        0.8220     0.1570     2.5940 H     1 <1>   0.0800 
 26 H        0.5860     1.7390     3.2870 H     1 <1>   0.0800 
 27 H        2.0810     0.8870     3.5650 H     1 <1>   0.0800 
 28 H        3.9450     0.0910    -2.8420 H     1 <1>   0.0800 
 29 H        2.8900    -0.4140    -1.5480 H     1 <1>   0.0800 
 30 H        1.7450     4.5410    -0.2300 H     1 <1>   0.1500 
 31 H        4.6750     3.5790    -1.8670 H     1 <1>   0.0800 
 32 H        3.2460     4.5620    -2.0390 H     1 <1>   0.0800 
 33 H        3.3250     3.0050    -2.8210 H     1 <1>   0.0800 
 34 H        4.7630    -2.0510    -2.3620 H     1 <1>   0.0800 
 35 H        4.4690    -1.9070    -0.6580 H     1 <1>   0.0800 
 36 H        6.3780    -0.0590    -1.7850 H     1 <1>   0.4500 
 37 H        6.9960    -2.1180    -2.9190 H     1 <1>   0.0800 
 38 H        7.1470    -2.8800    -1.3510 H     1 <1>   0.0800 
 39 H        6.4230    -1.6100     0.7060 H     1 <1>   0.0800 
 40 H        5.7980     0.0120     0.5210 H     1 <1>   0.0800 
 41 H        8.7310    -0.5170    -2.3750 H     1 <1>   0.0800 
 42 H        9.3360    -2.1210    -2.1260 H     1 <1>   0.0800 
 43 H        8.1160     0.0150     1.3600 H     1 <1>   0.0800 
 44 H        7.9650     0.8480    -0.1530 H     1 <1>   0.0800 
 45 H        9.0200    -1.9600     0.2730 H     1 <1>   0.0800 
 46 H       12.2170     0.9960     1.1540 H     1 <1>   0.0800 
 47 H       12.9660    -0.4500     0.4850 H     1 <1>   0.0800 
 48 H       12.0130    -0.1320     3.3600 H     1 <1>   0.0800 
 49 H       13.6810    -0.1000     2.8490 H     1 <1>   0.0800 
 50 H       12.7620    -1.5750     2.6920 H     1 <1>   0.0800 
@<TRIPOS>BOND
  1   1   2  1   
  2   2   3  ar  
  3   2   4  ar  
  4   3   5  1   
  5   3   6  ar  
  6   4   7  ar  
  7   4   8  1   
  8   5   9  1   
  9   6  10  ar  
 10   6  11  1   
 11   7  10  ar  
 12   7  24  1   
 13   8  25  1   
 14   8  26  1   
 15   8  27  1   
 16   9  12  1   
 17   9  28  1   
 18   9  29  1   
 19  10  30  1   
 20  11  31  1   
 21  11  32  1   
 22  11  33  1   
 23  12  13  1   
 24  12  34  1   
 25  12  35  1   
 26  13  14  1   
 27  13  15  1   
 28  13  36  1   
 29  14  16  1   
 30  14  37  1   
 31  14  38  1   
 32  15  17  1   
 33  15  39  1   
 34  15  40  1   
 35  16  18  1   
 36  16  41  1   
 37  16  42  1   
 38  17  18  1   
 39  17  43  1   
 40  17  44  1   
 41  18  19  1   
 42  18  45  1   
 43  19  20  2   
 44  19  21  1   
 45  21  22  1   
 46  22  23  1   
 47  22  46  1   
 48  22  47  1   
 49  23  48  1   
 50  23  49  1   
 51  23  50  1   
@<TRIPOS>SUBSTRUCTURE
  1 ****  15 GROUP 4 **** **** 0

# MOE 2024.06 (io_trps.svl 2023.06)
