@<TRIPOS>MOLECULE
NONAME
42 44 1 0 0 
SMALL
USER_CHARGES


@<TRIPOS>ATOM
  1 O       -0.3870     0.3840     1.2580 O.2   1 <1>  -0.5700 
  2 C       -0.9220     1.3570     0.7630 C.2   1 <1>   0.6900 
  3 N       -2.2900     1.4680     0.7680 N.am  1 <1>  -0.6600 
  4 N       -0.1800     2.3590     0.2020 N.am  1 <1>  -0.5470 
  5 C       -3.1400     0.3100     1.2010 C.3   1 <1>   0.1400 
  6 C       -3.0340     2.6610     0.2450 C.3   1 <1>   0.1400 
  7 C        1.1950     2.4580    -0.0480 C.ar  1 <1>   0.1170 
  8 C       -4.3910     0.1470     0.3210 C.3   1 <1>   0.2090 
  9 C       -4.5220     2.6710     0.6380 C.3   1 <1>   0.2090 
 10 C        2.0020     1.3470    -0.2680 C.ar  1 <1>  -0.1500 
 11 C        1.7770     3.7190    -0.1060 C.ar  1 <1>  -0.1500 
 12 N       -5.2080     1.4020     0.2450 N.pl3 1 <1>  -0.8380 
 13 C        3.3520     1.4830    -0.5370 C.ar  1 <1>   0.0820 
 14 C        3.1260     3.8680    -0.3730 C.ar  1 <1>  -0.1500 
 15 C       -6.5220     1.3730    -0.1660 C.ar  1 <1>   0.7200 
 16 O        4.0540     0.3390    -0.7410 O.3   1 <1>  -0.3630 
 17 C        3.9180     2.7540    -0.5890 C.ar  1 <1>  -0.1500 
 18 N       -6.9650     0.2310    -0.6910 N.ar  1 <1>  -0.6200 
 19 N       -7.2350     2.4870    -0.0010 N.ar  1 <1>  -0.6200 
 20 C        5.4470     0.3610    -0.9550 C.3   1 <1>   0.0400 
 21 C       -8.2170     0.2160    -1.0770 C.ar  1 <1>   0.1600 
 22 C       -8.4830     2.4410    -0.3960 C.ar  1 <1>   0.1600 
 23 C       -9.0330     1.3120    -0.9500 C.ar  1 <1>  -0.1500 
 24 H       -0.7280     3.1670    -0.0570 H     1 <1>   0.3700 
 25 H       -3.4440     0.4590     2.2220 H     1 <1>   0.0800 
 26 H       -2.5740    -0.6050     1.1590 H     1 <1>   0.0800 
 27 H       -2.9670     2.6680    -0.8290 H     1 <1>   0.0800 
 28 H       -2.5780     3.5600     0.6210 H     1 <1>   0.0800 
 29 H       -4.9940    -0.6490     0.7220 H     1 <1>   0.0800 
 30 H       -4.0890    -0.1340    -0.6720 H     1 <1>   0.0800 
 31 H       -4.9920     3.5130     0.1610 H     1 <1>   0.0800 
 32 H       -4.6120     2.8030     1.7020 H     1 <1>   0.0800 
 33 H        1.5810     0.3600    -0.2340 H     1 <1>   0.1500 
 34 H        1.1730     4.5920     0.0620 H     1 <1>   0.1500 
 35 H        3.5630     4.8510    -0.4120 H     1 <1>   0.1500 
 36 H        4.9620     2.8940    -0.7950 H     1 <1>   0.1500 
 37 H        5.7830    -0.6540    -1.0630 H     1 <1>   0.0800 
 38 H        5.9230     0.8170    -0.1050 H     1 <1>   0.0800 
 39 H        5.6520     0.9120    -1.8560 H     1 <1>   0.0800 
 40 H       -8.6010    -0.6940    -1.5060 H     1 <1>   0.1500 
 41 H       -9.0840     3.3270    -0.2740 H     1 <1>   0.1500 
 42 H      -10.0580     1.2870    -1.2700 H     1 <1>   0.1500 
@<TRIPOS>BOND
  1   1   2  2   
  2   2   3  am  
  3   2   4  am  
  4   3   5  1   
  5   3   6  1   
  6   4   7  1   
  7   4  24  1   
  8   5   8  1   
  9   5  25  1   
 10   5  26  1   
 11   6   9  1   
 12   6  27  1   
 13   6  28  1   
 14   7  10  ar  
 15   7  11  ar  
 16   8  12  1   
 17   8  29  1   
 18   8  30  1   
 19   9  12  1   
 20   9  31  1   
 21   9  32  1   
 22  10  13  ar  
 23  10  33  1   
 24  11  14  ar  
 25  11  34  1   
 26  12  15  1   
 27  13  16  1   
 28  13  17  ar  
 29  14  17  ar  
 30  14  35  1   
 31  15  18  ar  
 32  15  19  ar  
 33  16  20  1   
 34  17  36  1   
 35  18  21  ar  
 36  19  22  ar  
 37  20  37  1   
 38  20  38  1   
 39  20  39  1   
 40  21  23  ar  
 41  21  40  1   
 42  22  23  ar  
 43  22  41  1   
 44  23  42  1   
@<TRIPOS>SUBSTRUCTURE
  1 ****   3 GROUP 4 **** **** 0

# MOE 2024.06 (io_trps.svl 2023.06)
