@<TRIPOS>MOLECULE
NONAME
44 45 1 0 0 
SMALL
USER_CHARGES


@<TRIPOS>ATOM
  1 O        0.4330    -1.7970     1.9050 O.3   1 <1>  -0.3630 
  2 C       -0.4290    -1.4790     0.9040 C.ar  1 <1>   0.0830 
  3 C        1.1870    -0.7860     2.5600 C.3   1 <1>   0.1200 
  4 C       -0.4960    -2.3140    -0.2110 C.ar  1 <1>  -0.1440 
  5 C       -1.1860    -0.3140     0.9600 C.ar  1 <1>  -0.1500 
  6 C        1.9170     0.1090     1.5370 C.3   1 <1>   0.3430 
  7 C       -1.2850    -1.9330    -1.2920 C.ar  1 <1>  -0.1440 
  8 C        0.2640    -3.6410    -0.2580 C.3   1 <1>  -0.0970 
  9 C       -1.9680     0.0590    -0.1160 C.ar  1 <1>  -0.1440 
 10 N        2.3820    -0.6850     0.3600 N.4   1 <1>  -0.9590 
 11 C       -2.0040    -0.7490    -1.2370 C.ar  1 <1>  -0.1500 
 12 C       -1.4010    -2.7930    -2.5450 C.3   1 <1>  -0.0970 
 13 C       -2.7990     1.3300    -0.0770 C.3   1 <1>  -0.0970 
 14 C        3.6790    -1.3770     0.5950 C.3   1 <1>   0.3430 
 15 C        2.3570     0.1150    -0.8940 C.3   1 <1>   0.3430 
 16 C        3.9870    -2.3060    -0.5810 C.3   1 <1>  -0.1600 
 17 C        2.6340    -0.8000    -2.0870 C.3   1 <1>  -0.1600 
 18 C        3.9540    -1.5660    -1.9240 C.3   1 <1>  -0.1600 
 19 H        1.9010    -1.2810     3.1940 H     1 <1>   0.0800 
 20 H        0.5300    -0.2080     3.1850 H     1 <1>   0.0800 
 21 H       -1.1800     0.3000     1.8400 H     1 <1>   0.1500 
 22 H        2.7420     0.6210     2.0050 H     1 <1>   0.0800 
 23 H        1.2170     0.8570     1.2020 H     1 <1>   0.0800 
 24 H        0.8590    -3.8100     0.6200 H     1 <1>   0.0800 
 25 H        0.9080    -3.6760    -1.1160 H     1 <1>   0.0800 
 26 H       -0.4410    -4.4510    -0.3270 H     1 <1>   0.0800 
 27 H        1.6560    -1.4180     0.2440 H     1 <1>   0.4500 
 28 H       -2.6180    -0.4570    -2.0720 H     1 <1>   0.1500 
 29 H       -1.7930    -3.7610    -2.2930 H     1 <1>   0.0800 
 30 H       -0.4390    -2.9130    -3.0090 H     1 <1>   0.0800 
 31 H       -2.0640    -2.3440    -3.2630 H     1 <1>   0.0800 
 32 H       -2.5460     1.9340     0.7760 H     1 <1>   0.0800 
 33 H       -3.8430     1.0770    -0.0180 H     1 <1>   0.0800 
 34 H       -2.6350     1.9090    -0.9680 H     1 <1>   0.0800 
 35 H        3.6310    -1.9540     1.5040 H     1 <1>   0.0800 
 36 H        4.4670    -0.6480     0.6920 H     1 <1>   0.0800 
 37 H        3.1040     0.8900    -0.8500 H     1 <1>   0.0800 
 38 H        1.3880     0.5740    -1.0170 H     1 <1>   0.0800 
 39 H        3.2770    -3.1140    -0.5900 H     1 <1>   0.0800 
 40 H        4.9620    -2.7410    -0.4380 H     1 <1>   0.0800 
 41 H        2.6730    -0.2060    -2.9830 H     1 <1>   0.0800 
 42 H        1.8170    -1.4920    -2.1980 H     1 <1>   0.0800 
 43 H        4.0710    -2.2690    -2.7330 H     1 <1>   0.0800 
 44 H        4.7780    -0.8730    -1.9730 H     1 <1>   0.0800 
@<TRIPOS>BOND
  1   1   2  1   
  2   1   3  1   
  3   2   4  ar  
  4   2   5  ar  
  5   3   6  1   
  6   3  19  1   
  7   3  20  1   
  8   4   7  ar  
  9   4   8  1   
 10   5   9  ar  
 11   5  21  1   
 12   6  10  1   
 13   6  22  1   
 14   6  23  1   
 15   7  11  ar  
 16   7  12  1   
 17   8  24  1   
 18   8  25  1   
 19   8  26  1   
 20   9  11  ar  
 21   9  13  1   
 22  10  14  1   
 23  10  15  1   
 24  10  27  1   
 25  11  28  1   
 26  12  29  1   
 27  12  30  1   
 28  12  31  1   
 29  13  32  1   
 30  13  33  1   
 31  13  34  1   
 32  14  16  1   
 33  14  35  1   
 34  14  36  1   
 35  15  17  1   
 36  15  37  1   
 37  15  38  1   
 38  16  18  1   
 39  16  39  1   
 40  16  40  1   
 41  17  18  1   
 42  17  41  1   
 43  17  42  1   
 44  18  43  1   
 45  18  44  1   
@<TRIPOS>SUBSTRUCTURE
  1 ****   2 GROUP 4 **** **** 0

# MOE 2024.06 (io_trps.svl 2023.06)
