@<TRIPOS>MOLECULE
NONAME
40 40 1 0 0 
SMALL
USER_CHARGES


@<TRIPOS>ATOM
  1 S        0.9970     0.9520     1.1650 S.o2  1 <1>   1.3330 
  2 O        2.2490     1.2710     1.8100 O.2   1 <1>  -0.6500 
  3 O        0.9000    -0.2090     0.3160 O.2   1 <1>  -0.6500 
  4 N        0.5770     2.3440     0.2280 N.am  1 <1>  -0.6930 
  5 C       -0.2850     0.9120     2.3990 C.3   1 <1>  -0.1350 
  6 C       -0.6330     2.4080    -0.4560 C.ar  1 <1>   0.1990 
  7 C        1.7180     3.1290    -0.3380 C.3   1 <1>   0.2570 
  8 C       -1.6460     3.2920    -0.0690 C.ar  1 <1>  -0.1440 
  9 C       -0.8440     1.5790    -1.5520 C.ar  1 <1>  -0.1500 
 10 C        2.6400     2.3380    -1.2750 C.2   1 <1>   0.5690 
 11 C       -2.8410     3.3110    -0.7720 C.ar  1 <1>  -0.1500 
 12 C       -1.4900     4.2550     1.1060 C.3   1 <1>  -0.0170 
 13 C       -2.0380     1.6050    -2.2470 C.ar  1 <1>  -0.1500 
 14 O        2.5380     2.4970    -2.4690 O.2   1 <1>  -0.5700 
 15 N        3.5610     1.4900    -0.7490 N.am  1 <1>  -0.7300 
 16 C       -3.0400     2.4720    -1.8550 C.ar  1 <1>  -0.1500 
 17 C       -1.0930     5.6500     0.6160 C.3   1 <1>  -0.2400 
 18 C        4.4210     0.5930    -1.5260 C.3   1 <1>   0.2780 
 19 C        5.7440     0.4910    -0.7990 C.2   1 <1>  -0.2880 
 20 C        6.2450    -0.6230    -0.2540 C.2   1 <1>  -0.3000 
 21 H       -0.1330     0.0790     3.0570 H     1 <1>   0.0800 
 22 H       -1.2450     0.8110     1.9310 H     1 <1>   0.0800 
 23 H       -0.2720     1.8140     2.9770 H     1 <1>   0.0800 
 24 H        2.3080     3.5220     0.4700 H     1 <1>   0.0800 
 25 H        1.3270     3.9630    -0.8910 H     1 <1>   0.0800 
 26 H       -0.0630     0.9070    -1.8620 H     1 <1>   0.1500 
 27 H       -3.6270     3.9860    -0.4830 H     1 <1>   0.1500 
 28 H       -0.7510     3.9000     1.8010 H     1 <1>   0.0800 
 29 H       -2.4220     4.3190     1.6390 H     1 <1>   0.0800 
 30 H       -2.1830     0.9540    -3.0910 H     1 <1>   0.1500 
 31 H        3.5500     1.2960     0.2620 H     1 <1>   0.3700 
 32 H       -3.9720     2.4970    -2.3930 H     1 <1>   0.1500 
 33 H       -0.9940     6.3210     1.4510 H     1 <1>   0.0800 
 34 H       -1.8420     6.0380    -0.0520 H     1 <1>   0.0800 
 35 H       -0.1550     5.6090     0.0930 H     1 <1>   0.0800 
 36 H        4.5670     0.9810    -2.5200 H     1 <1>   0.0800 
 37 H        3.9520    -0.3730    -1.5950 H     1 <1>   0.0800 
 38 H        6.2560     1.4380    -0.7600 H     1 <1>   0.1500 
 39 H        7.1900    -0.6670     0.2600 H     1 <1>   0.1500 
 40 H        5.7540    -1.5810    -0.2740 H     1 <1>   0.1500 
@<TRIPOS>BOND
  1   1   2  2   
  2   1   3  2   
  3   1   4  am  
  4   1   5  1   
  5   4   6  1   
  6   4   7  1   
  7   5  21  1   
  8   5  22  1   
  9   5  23  1   
 10   6   8  ar  
 11   6   9  ar  
 12   7  10  1   
 13   7  24  1   
 14   7  25  1   
 15   8  11  ar  
 16   8  12  1   
 17   9  13  ar  
 18   9  26  1   
 19  10  14  2   
 20  10  15  am  
 21  11  16  ar  
 22  11  27  1   
 23  12  17  1   
 24  12  28  1   
 25  12  29  1   
 26  13  16  ar  
 27  13  30  1   
 28  15  18  1   
 29  15  31  1   
 30  16  32  1   
 31  17  33  1   
 32  17  34  1   
 33  17  35  1   
 34  18  19  1   
 35  18  36  1   
 36  18  37  1   
 37  19  20  2   
 38  19  38  1   
 39  20  39  1   
 40  20  40  1   
@<TRIPOS>SUBSTRUCTURE
  1 ****   4 GROUP 4 **** **** 0

# MOE 2024.06 (io_trps.svl 2023.06)
