@<TRIPOS>MOLECULE
NONAME
29 29 1 0 0 
SMALL
USER_CHARGES


@<TRIPOS>ATOM
  1 O       -2.5180    -0.5080     0.0910 O.co2 1 <1>  -0.9000 
  2 C       -1.8170    -0.7920     1.0730 C.2   1 <1>   0.9060 
  3 O       -2.2670    -0.9130     2.2050 O.co2 1 <1>  -0.9000 
  4 C       -0.4200    -1.2930     0.8000 C.3   1 <1>  -0.1860 
  5 C       -0.6780    -2.7230     0.3070 C.3   1 <1>   0.4230 
  6 C        0.3740    -0.3220    -0.1120 C.3   1 <1>  -0.1600 
  7 N       -1.4300    -2.6600    -0.9570 N.4   1 <1>  -0.8530 
  8 C        0.5020    -3.6950     0.1040 C.3   1 <1>  -0.1600 
  9 C        1.9040    -0.4190     0.0020 C.3   1 <1>  -0.1600 
 10 C        1.7750    -3.4310     0.9300 C.3   1 <1>  -0.1600 
 11 C        2.5320    -1.5900    -0.7650 C.3   1 <1>  -0.1600 
 12 C        2.9100    -2.7960     0.1120 C.3   1 <1>  -0.1600 
 13 H        0.0520    -1.3190     1.7620 H     1 <1>   0.0800 
 14 H       -1.3180    -3.1660     1.0560 H     1 <1>   0.0800 
 15 H        0.0620    -0.3980    -1.1380 H     1 <1>   0.0800 
 16 H        0.1120     0.6760     0.2010 H     1 <1>   0.0800 
 17 H       -0.8350    -2.3460    -1.7210 H     1 <1>   0.4500 
 18 H       -2.1280    -1.8880    -0.8060 H     1 <1>   0.4500 
 19 H       -1.9410    -3.5140    -1.1680 H     1 <1>   0.4500 
 20 H        0.1400    -4.6680     0.3870 H     1 <1>   0.0800 
 21 H        0.7700    -3.7660    -0.9350 H     1 <1>   0.0800 
 22 H        2.3040     0.4880    -0.4200 H     1 <1>   0.0800 
 23 H        2.2070    -0.4300     1.0350 H     1 <1>   0.0800 
 24 H        1.5710    -2.8430     1.8050 H     1 <1>   0.0800 
 25 H        2.1430    -4.3760     1.2950 H     1 <1>   0.0800 
 26 H        1.8990    -1.8880    -1.5810 H     1 <1>   0.0800 
 27 H        3.4450    -1.2350    -1.2120 H     1 <1>   0.0800 
 28 H        3.6910    -2.4980     0.7910 H     1 <1>   0.0800 
 29 H        3.3310    -3.5510    -0.5310 H     1 <1>   0.0800 
@<TRIPOS>BOND
  1   1   2  ar  
  2   2   3  ar  
  3   2   4  1   
  4   4   5  1   
  5   4   6  1   
  6   4  13  1   
  7   5   7  1   
  8   5   8  1   
  9   5  14  1   
 10   6   9  1   
 11   6  15  1   
 12   6  16  1   
 13   7  17  1   
 14   7  18  1   
 15   7  19  1   
 16   8  10  1   
 17   8  20  1   
 18   8  21  1   
 19   9  11  1   
 20   9  22  1   
 21   9  23  1   
 22  10  12  1   
 23  10  24  1   
 24  10  25  1   
 25  11  12  1   
 26  11  26  1   
 27  11  27  1   
 28  12  28  1   
 29  12  29  1   
@<TRIPOS>SUBSTRUCTURE
  1 ****   4 GROUP 4 **** **** 0

# MOE 2024.06 (io_trps.svl 2023.06)
