@<TRIPOS>MOLECULE
NONAME
36 35 1 0 0 
SMALL
USER_CHARGES


@<TRIPOS>ATOM
  1 P        0.1150     0.9290    -0.3600 P.3   1 <1>   1.2420 
  2 O        0.4830     1.2710    -1.7340 O.2   1 <1>  -0.7000 
  3 O       -0.8370    -0.3610    -0.2710 O.3   1 <1>  -0.5510 
  4 O       -0.7760     2.0710     0.3350 O.3   1 <1>  -0.5510 
  5 C        1.4750     0.6280     0.7960 C.3   1 <1>   0.1100 
  6 C       -2.0250    -0.3760    -0.9740 C.3   1 <1>   0.1200 
  7 C       -0.4480     3.4020     0.1590 C.3   1 <1>   0.1200 
  8 N        2.5450    -0.3880     0.5000 N.3   1 <1>  -0.8100 
  9 C       -2.6950    -1.7210    -0.7210 C.3   1 <1>  -0.2400 
 10 C       -1.4490     4.2350     0.9490 C.3   1 <1>  -0.2400 
 11 C        3.3000     0.0030    -0.7000 C.3   1 <1>   0.1100 
 12 C        2.0220    -1.7610     0.3820 C.3   1 <1>   0.1100 
 13 C        4.7120    -0.5730    -0.6370 C.3   1 <1>  -0.2400 
 14 C        1.4580    -2.2530     1.7130 C.3   1 <1>  -0.2400 
 15 H        1.0620     0.3860     1.7560 H     1 <1>   0.0800 
 16 H        1.9890     1.5580     0.9530 H     1 <1>   0.0800 
 17 H       -1.8070    -0.2440    -2.0210 H     1 <1>   0.0800 
 18 H       -2.6440     0.4340    -0.6250 H     1 <1>   0.0800 
 19 H       -0.5020     3.6330    -0.8930 H     1 <1>   0.0800 
 20 H        0.5550     3.5670     0.5160 H     1 <1>   0.0800 
 21 H       -2.0610    -2.5190    -1.0630 H     1 <1>   0.0800 
 22 H       -3.6260    -1.7690    -1.2560 H     1 <1>   0.0800 
 23 H       -2.8950    -1.8440     0.3280 H     1 <1>   0.0800 
 24 H       -2.4460     4.0550     0.5880 H     1 <1>   0.0800 
 25 H       -1.2260     5.2800     0.8320 H     1 <1>   0.0800 
 26 H       -1.3960     3.9870     1.9940 H     1 <1>   0.0800 
 27 H        3.3840     1.0760    -0.7440 H     1 <1>   0.0800 
 28 H        2.7920    -0.3260    -1.5930 H     1 <1>   0.0800 
 29 H        2.8230    -2.4230     0.1040 H     1 <1>   0.0800 
 30 H        1.2710    -1.8190    -0.3880 H     1 <1>   0.0800 
 31 H        5.1880    -0.2770     0.2810 H     1 <1>   0.0800 
 32 H        5.2900    -0.1930    -1.4600 H     1 <1>   0.0800 
 33 H        4.6990    -1.6440    -0.7040 H     1 <1>   0.0800 
 34 H        2.1740    -2.0920     2.4990 H     1 <1>   0.0800 
 35 H        1.2560    -3.3060     1.6450 H     1 <1>   0.0800 
 36 H        0.5360    -1.7570     1.9500 H     1 <1>   0.0800 
@<TRIPOS>BOND
  1   1   2  2   
  2   1   3  1   
  3   1   4  1   
  4   1   5  1   
  5   3   6  1   
  6   4   7  1   
  7   5   8  1   
  8   5  15  1   
  9   5  16  1   
 10   6   9  1   
 11   6  17  1   
 12   6  18  1   
 13   7  10  1   
 14   7  19  1   
 15   7  20  1   
 16   8  11  1   
 17   8  12  1   
 18   9  21  1   
 19   9  22  1   
 20   9  23  1   
 21  10  24  1   
 22  10  25  1   
 23  10  26  1   
 24  11  13  1   
 25  11  27  1   
 26  11  28  1   
 27  12  14  1   
 28  12  29  1   
 29  12  30  1   
 30  13  31  1   
 31  13  32  1   
 32  13  33  1   
 33  14  34  1   
 34  14  35  1   
 35  14  36  1   
@<TRIPOS>SUBSTRUCTURE
  1 ****   1 GROUP 4 **** **** 0

# MOE 2024.06 (io_trps.svl 2023.06)
