@<TRIPOS>MOLECULE
NONAME
45 46 1 0 0 
SMALL
USER_CHARGES


@<TRIPOS>ATOM
  1 O        8.4130     0.1720     0.7590 O.3   1 <1>  -0.3630 
  2 C        9.7450    -0.0560     0.6090 C.ar  1 <1>   0.0830 
  3 C        7.7850     1.3060     0.2010 C.3   1 <1>   0.1200 
  4 C       10.2800    -1.1770     1.2390 C.ar  1 <1>  -0.1440 
  5 C       10.5760     0.7760    -0.1390 C.ar  1 <1>  -0.1500 
  6 C        6.2980     1.2640     0.5720 C.3   1 <1>   0.2000 
  7 C       11.6320    -1.4480     1.1150 C.ar  1 <1>  -0.1500 
  8 C        9.4000    -2.1070     2.0630 C.3   1 <1>  -0.0960 
  9 C       11.9270     0.4980    -0.2600 C.ar  1 <1>  -0.1430 
 10 O        5.7830     0.0110     0.2340 O.3   1 <1>  -0.6800 
 11 C        5.4730     2.3550    -0.1420 C.3   1 <1>   0.3430 
 12 C       12.4510    -0.6160     0.3710 C.ar  1 <1>  -0.1500 
 13 C       12.8340     1.4050    -1.0730 C.3   1 <1>  -0.0970 
 14 N        4.0320     1.9580    -0.2100 N.4   1 <1>  -0.9590 
 15 C        3.3260     2.5460    -1.3820 C.3   1 <1>   0.3430 
 16 C        3.3100     2.1790     1.0750 C.3   1 <1>   0.3430 
 17 C        1.9290     1.9330    -1.5000 C.3   1 <1>  -0.1600 
 18 C        1.9140     1.5610     0.9920 C.3   1 <1>  -0.1600 
 19 C        1.1210     2.1000    -0.2060 C.3   1 <1>  -0.1600 
 20 H        7.9140     1.2730    -0.8670 H     1 <1>   0.0800 
 21 H        8.2560     2.1860     0.6040 H     1 <1>   0.0800 
 22 H       10.1930     1.6460    -0.6350 H     1 <1>   0.1500 
 23 H        6.2040     1.3790     1.6390 H     1 <1>   0.0800 
 24 H       12.0600    -2.3090     1.5970 H     1 <1>   0.1500 
 25 H        8.9240    -1.5540     2.8530 H     1 <1>   0.0800 
 26 H        9.9790    -2.8980     2.5030 H     1 <1>   0.0800 
 27 H        8.6450    -2.5430     1.4360 H     1 <1>   0.0800 
 28 H        6.4570    -0.6710     0.4700 H     1 <1>   0.4000 
 29 H        5.8570     2.4570    -1.1440 H     1 <1>   0.0800 
 30 H        5.5880     3.3030     0.3560 H     1 <1>   0.0800 
 31 H       13.4990    -0.8430     0.2880 H     1 <1>   0.1500 
 32 H       12.2780     1.9050    -1.8460 H     1 <1>   0.0800 
 33 H       13.6160     0.8320    -1.5380 H     1 <1>   0.0800 
 34 H       13.2790     2.1430    -0.4310 H     1 <1>   0.0800 
 35 H        4.0800     0.9290    -0.3410 H     1 <1>   0.4500 
 36 H        3.8800     2.3480    -2.2860 H     1 <1>   0.0800 
 37 H        3.2410     3.6130    -1.2590 H     1 <1>   0.0800 
 38 H        3.2250     3.2350     1.2700 H     1 <1>   0.0800 
 39 H        3.8530     1.7210     1.8870 H     1 <1>   0.0800 
 40 H        2.0190     0.8880    -1.7440 H     1 <1>   0.0800 
 41 H        1.4040     2.4070    -2.3110 H     1 <1>   0.0800 
 42 H        1.3780     1.7770     1.9000 H     1 <1>   0.0800 
 43 H        2.0040     0.4900     0.9200 H     1 <1>   0.0800 
 44 H        0.1840     1.5740    -0.2900 H     1 <1>   0.0800 
 45 H        0.8990     3.1430    -0.0520 H     1 <1>   0.0800 
@<TRIPOS>BOND
  1   1   2  1   
  2   1   3  1   
  3   2   4  ar  
  4   2   5  ar  
  5   3   6  1   
  6   3  20  1   
  7   3  21  1   
  8   4   7  ar  
  9   4   8  1   
 10   5   9  ar  
 11   5  22  1   
 12   6  10  1   
 13   6  11  1   
 14   6  23  1   
 15   7  12  ar  
 16   7  24  1   
 17   8  25  1   
 18   8  26  1   
 19   8  27  1   
 20   9  12  ar  
 21   9  13  1   
 22  10  28  1   
 23  11  14  1   
 24  11  29  1   
 25  11  30  1   
 26  12  31  1   
 27  13  32  1   
 28  13  33  1   
 29  13  34  1   
 30  14  15  1   
 31  14  16  1   
 32  14  35  1   
 33  15  17  1   
 34  15  36  1   
 35  15  37  1   
 36  16  18  1   
 37  16  38  1   
 38  16  39  1   
 39  17  19  1   
 40  17  40  1   
 41  17  41  1   
 42  18  19  1   
 43  18  42  1   
 44  18  43  1   
 45  19  44  1   
 46  19  45  1   
@<TRIPOS>SUBSTRUCTURE
  1 ****   3 GROUP 4 **** **** 0

# MOE 2024.06 (io_trps.svl 2023.06)
