@<TRIPOS>MOLECULE
NONAME
53 55 1 0 0 
SMALL
USER_CHARGES


@<TRIPOS>ATOM
  1 S       -0.0020    -0.0430     1.0360 S.o2  1 <1>   1.4470 
  2 O        0.2060    -0.6320     2.3430 O.2   1 <1>  -0.6500 
  3 O       -1.1080     0.8640     0.8240 O.2   1 <1>  -0.6500 
  4 N       -0.0770    -1.3350    -0.0700 N.am  1 <1>  -0.8490 
  5 C        1.5000     0.8600     0.5480 C.ar  1 <1>  -0.0090 
  6 C       -1.2530    -2.2180     0.1120 C.3   1 <1>   0.2760 
  7 C        1.1570    -2.1390     0.0270 C.3   1 <1>   0.1960 
  8 C        1.6810     1.2910    -0.7600 C.ar  1 <1>  -0.1500 
  9 C        2.5060     1.1500     1.4630 C.ar  1 <1>  -0.1500 
 10 C       -1.2550    -3.3230    -0.9630 C.3   1 <1>  -0.1600 
 11 C       -2.5880    -1.4730    -0.0090 C.3   1 <1>  -0.2400 
 12 C        1.2230    -3.1980    -1.0720 C.3   1 <1>  -0.1600 
 13 C        2.8260     1.9670    -1.1420 C.ar  1 <1>  -0.1500 
 14 C        3.6500     1.8290     1.0830 C.ar  1 <1>  -0.1500 
 15 C        0.0320    -4.1470    -0.9700 C.3   1 <1>  -0.1600 
 16 C        3.8460     2.2460    -0.2340 C.ar  1 <1>   0.0860 
 17 C        5.0510     2.9380    -0.6560 C.2   1 <1>   0.5440 
 18 O        5.0090     3.7400    -1.5660 O.2   1 <1>  -0.5700 
 19 N        6.2460     2.6470    -0.0390 N.am  1 <1>  -0.5470 
 20 C        7.5260     3.2120    -0.1770 C.ar  1 <1>   0.1170 
 21 C        8.6650     2.4320     0.0540 C.ar  1 <1>  -0.1430 
 22 C        7.6800     4.5540    -0.5120 C.ar  1 <1>  -0.1500 
 23 C        9.9200     3.0210    -0.0520 C.ar  1 <1>  -0.1500 
 24 C        8.5020     0.9480     0.4140 C.3   1 <1>  -0.0170 
 25 C        8.9320     5.1250    -0.6190 C.ar  1 <1>  -0.1500 
 26 C       10.0560     4.3570    -0.3870 C.ar  1 <1>  -0.1500 
 27 C        9.7950     0.1250     0.4800 C.3   1 <1>  -0.2400 
 28 H       -1.2050    -2.6800     1.0860 H     1 <1>   0.0800 
 29 H        1.2090    -2.6160     0.9930 H     1 <1>   0.0800 
 30 H        2.0240    -1.5120    -0.0790 H     1 <1>   0.0800 
 31 H        0.9100     1.0910    -1.4870 H     1 <1>   0.1500 
 32 H        2.3850     0.8430     2.4890 H     1 <1>   0.1500 
 33 H       -1.3920    -2.8680    -1.9290 H     1 <1>   0.0800 
 34 H       -2.0860    -3.9860    -0.7960 H     1 <1>   0.0800 
 35 H       -2.5780    -0.8160    -0.8600 H     1 <1>   0.0800 
 36 H       -2.7960    -0.9120     0.8820 H     1 <1>   0.0800 
 37 H       -3.3980    -2.1690    -0.1260 H     1 <1>   0.0800 
 38 H        2.1380    -3.7560    -0.9790 H     1 <1>   0.0800 
 39 H        1.2270    -2.7100    -2.0320 H     1 <1>   0.0800 
 40 H        2.9360     2.2910    -2.1640 H     1 <1>   0.1500 
 41 H        4.3950     2.0480     1.8290 H     1 <1>   0.1500 
 42 H        0.0300    -4.8310    -1.8020 H     1 <1>   0.0800 
 43 H        0.1000    -4.7200    -0.0610 H     1 <1>   0.0800 
 44 H        6.2250     1.8230     0.5540 H     1 <1>   0.3700 
 45 H        6.8130     5.1640    -0.6900 H     1 <1>   0.1500 
 46 H       10.8190     2.4600     0.1190 H     1 <1>   0.1500 
 47 H        7.8640     0.4890    -0.3220 H     1 <1>   0.0800 
 48 H        8.0110     0.8780     1.3680 H     1 <1>   0.0800 
 49 H        9.0300     6.1640    -0.8820 H     1 <1>   0.1500 
 50 H       11.0340     4.7970    -0.4670 H     1 <1>   0.1500 
 51 H       10.3160     0.1700    -0.4600 H     1 <1>   0.0800 
 52 H        9.5630    -0.9040     0.6900 H     1 <1>   0.0800 
 53 H       10.4370     0.4910     1.2620 H     1 <1>   0.0800 
@<TRIPOS>BOND
  1   1   2  2   
  2   1   3  2   
  3   1   4  am  
  4   1   5  1   
  5   4   6  1   
  6   4   7  1   
  7   5   8  ar  
  8   5   9  ar  
  9   6  10  1   
 10   6  11  1   
 11   6  28  1   
 12   7  12  1   
 13   7  29  1   
 14   7  30  1   
 15   8  13  ar  
 16   8  31  1   
 17   9  14  ar  
 18   9  32  1   
 19  10  15  1   
 20  10  33  1   
 21  10  34  1   
 22  11  35  1   
 23  11  36  1   
 24  11  37  1   
 25  12  15  1   
 26  12  38  1   
 27  12  39  1   
 28  13  16  ar  
 29  13  40  1   
 30  14  16  ar  
 31  14  41  1   
 32  15  42  1   
 33  15  43  1   
 34  16  17  1   
 35  17  18  2   
 36  17  19  am  
 37  19  20  1   
 38  19  44  1   
 39  20  21  ar  
 40  20  22  ar  
 41  21  23  ar  
 42  21  24  1   
 43  22  25  ar  
 44  22  45  1   
 45  23  26  ar  
 46  23  46  1   
 47  24  27  1   
 48  24  47  1   
 49  24  48  1   
 50  25  26  ar  
 51  25  49  1   
 52  26  50  1   
 53  27  51  1   
 54  27  52  1   
 55  27  53  1   
@<TRIPOS>SUBSTRUCTURE
  1 ****  16 GROUP 4 **** **** 0

# MOE 2024.06 (io_trps.svl 2023.06)
