@<TRIPOS>MOLECULE
NONAME
36 37 1 0 0 
SMALL
USER_CHARGES


@<TRIPOS>ATOM
  1 S        0.0750    -2.5370    -0.2220 S.3   1 <1>  -0.4600 
  2 C       -1.1410    -1.6210     0.7710 C.3   1 <1>   0.2140 
  3 C        1.4600    -2.8130     0.9430 C.3   1 <1>   0.1310 
  4 C       -1.3500    -0.2430     0.1600 C.ar  1 <1>  -0.1440 
  5 C        2.2630    -1.5450     1.2000 C.2   1 <1>   0.5690 
  6 C       -1.7370    -0.1150    -1.1690 C.ar  1 <1>  -0.1500 
  7 C       -1.1730     0.8930     0.9410 C.ar  1 <1>  -0.1500 
  8 O        2.8360    -1.4320     2.2560 O.2   1 <1>  -0.5700 
  9 N        2.3310    -0.5930     0.2370 N.am  1 <1>  -0.7300 
 10 C       -1.9450     1.1380    -1.7210 C.ar  1 <1>  -0.1500 
 11 C       -1.3800     2.1520     0.4020 C.ar  1 <1>  -0.1500 
 12 C        3.1900     0.6010     0.2520 C.3   1 <1>   0.2200 
 13 C       -1.7620     2.2500    -0.9220 C.ar  1 <1>   0.1900 
 14 C        2.3200     1.8440     0.1440 C.3   1 <1>  -0.1600 
 15 C        3.9980     0.6320    -1.0390 C.3   1 <1>  -0.1600 
 16 F       -1.9540     3.4350    -1.4370 F     1 <1>  -0.1900 
 17 C        1.9520     1.9540    -1.3390 C.3   1 <1>  -0.1600 
 18 C        3.0700     1.2340    -2.1030 C.3   1 <1>  -0.1600 
 19 H       -0.7660    -1.5590     1.7770 H     1 <1>   0.0800 
 20 H       -2.0540    -2.1890     0.7560 H     1 <1>   0.0800 
 21 H        2.0960    -3.5580     0.5030 H     1 <1>   0.0800 
 22 H        1.0460    -3.1880     1.8600 H     1 <1>   0.0800 
 23 H       -1.8760    -0.9930    -1.7780 H     1 <1>   0.1500 
 24 H       -0.8720     0.8050     1.9710 H     1 <1>   0.1500 
 25 H        1.7320    -0.6840    -0.5890 H     1 <1>   0.3700 
 26 H       -2.2430     1.2530    -2.7470 H     1 <1>   0.1500 
 27 H       -1.2480     3.0410     0.9910 H     1 <1>   0.1500 
 28 H        3.8160     0.6110     1.1310 H     1 <1>   0.0800 
 29 H        2.9100     2.6990     0.4230 H     1 <1>   0.0800 
 30 H        1.4630     1.7940     0.7890 H     1 <1>   0.0800 
 31 H        4.3670    -0.3420    -1.3120 H     1 <1>   0.0800 
 32 H        4.8380     1.2890    -0.8980 H     1 <1>   0.0800 
 33 H        1.8540     2.9820    -1.6430 H     1 <1>   0.0800 
 34 H        1.0180     1.4500    -1.5160 H     1 <1>   0.0800 
 35 H        2.6480     0.4530    -2.7130 H     1 <1>   0.0800 
 36 H        3.6110     1.9160    -2.7370 H     1 <1>   0.0800 
@<TRIPOS>BOND
  1   1   2  1   
  2   1   3  1   
  3   2   4  1   
  4   2  19  1   
  5   2  20  1   
  6   3   5  1   
  7   3  21  1   
  8   3  22  1   
  9   4   6  ar  
 10   4   7  ar  
 11   5   8  2   
 12   5   9  am  
 13   6  10  ar  
 14   6  23  1   
 15   7  11  ar  
 16   7  24  1   
 17   9  12  1   
 18   9  25  1   
 19  10  13  ar  
 20  10  26  1   
 21  11  13  ar  
 22  11  27  1   
 23  12  14  1   
 24  12  15  1   
 25  12  28  1   
 26  13  16  1   
 27  14  17  1   
 28  14  29  1   
 29  14  30  1   
 30  15  18  1   
 31  15  31  1   
 32  15  32  1   
 33  17  18  1   
 34  17  33  1   
 35  17  34  1   
 36  18  35  1   
 37  18  36  1   
@<TRIPOS>SUBSTRUCTURE
  1 ****   9 GROUP 4 **** **** 0

# MOE 2024.06 (io_trps.svl 2023.06)
