@<TRIPOS>MOLECULE
NONAME
41 42 1 0 0 
SMALL
USER_CHARGES


@<TRIPOS>ATOM
  1 O        7.1730    -4.6440    -0.5530 O.3   1 <1>  -0.3630 
  2 C        8.5260    -4.5800    -0.5010 C.ar  1 <1>   0.0830 
  3 C        6.4690    -5.8420    -0.3590 C.3   1 <1>   0.1200 
  4 C        9.1060    -3.3210    -0.3100 C.ar  1 <1>   0.0000 
  5 C        9.3290    -5.7110    -0.6240 C.ar  1 <1>  -0.1500 
  6 C        4.9980    -5.4600    -0.2070 C.3   1 <1>  -0.1600 
  7 C        8.3070    -2.1240    -0.1750 C.ar  1 <1>   0.0000 
  8 C       10.4930    -3.2360    -0.2420 C.ar  1 <1>  -0.1500 
  9 C       10.7050    -5.6000    -0.5520 C.ar  1 <1>  -0.1500 
 10 C        4.1330    -6.6910     0.0490 C.3   1 <1>   0.3430 
 11 C        7.5940    -1.6100    -1.2550 C.ar  1 <1>  -0.1500 
 12 C        8.2300    -1.4490     1.0400 C.ar  1 <1>  -0.1500 
 13 C       11.2880    -4.3600    -0.3600 C.ar  1 <1>  -0.1500 
 14 N        2.7240    -6.2850     0.3300 N.4   1 <1>  -0.9590 
 15 C        6.8300    -0.4630    -1.1280 C.ar  1 <1>  -0.1500 
 16 C        7.4670    -0.3030     1.1740 C.ar  1 <1>  -0.1500 
 17 C        1.9490    -7.4280     0.9050 C.3   1 <1>   0.2630 
 18 C        2.0320    -5.7460    -0.8850 C.3   1 <1>   0.2630 
 19 C        6.7660     0.1930     0.0890 C.ar  1 <1>  -0.1500 
 20 H        6.8470    -6.3130     0.5330 H     1 <1>   0.0800 
 21 H        6.6310    -6.4700    -1.2180 H     1 <1>   0.0800 
 22 H        8.9040    -6.6830    -0.7820 H     1 <1>   0.1500 
 23 H        4.6870    -4.9660    -1.1090 H     1 <1>   0.0800 
 24 H        4.9120    -4.7790     0.6220 H     1 <1>   0.0800 
 25 H       10.9490    -2.2720    -0.0970 H     1 <1>   0.1500 
 26 H       11.3250    -6.4750    -0.6470 H     1 <1>   0.1500 
 27 H        4.5290    -7.2210     0.9010 H     1 <1>   0.0800 
 28 H        4.1670    -7.3510    -0.8030 H     1 <1>   0.0800 
 29 H        7.6440    -2.1200    -2.2000 H     1 <1>   0.1500 
 30 H        8.7730    -1.8320     1.8850 H     1 <1>   0.1500 
 31 H       12.3600    -4.2710    -0.3050 H     1 <1>   0.1500 
 32 H        2.7570    -5.5330     1.0370 H     1 <1>   0.4500 
 33 H        6.2890    -0.0810    -1.9750 H     1 <1>   0.1500 
 34 H        7.4200     0.2050     2.1210 H     1 <1>   0.1500 
 35 H        1.8950    -8.2390     0.1960 H     1 <1>   0.0800 
 36 H        0.9460    -7.1150     1.1470 H     1 <1>   0.0800 
 37 H        2.4220    -7.7860     1.8050 H     1 <1>   0.0800 
 38 H        2.0080    -6.4900    -1.6650 H     1 <1>   0.0800 
 39 H        2.5460    -4.8740    -1.2570 H     1 <1>   0.0800 
 40 H        1.0190    -5.4660    -0.6450 H     1 <1>   0.0800 
 41 H        6.1740     1.0850     0.1900 H     1 <1>   0.1500 
@<TRIPOS>BOND
  1   1   2  1   
  2   1   3  1   
  3   2   4  ar  
  4   2   5  ar  
  5   3   6  1   
  6   3  20  1   
  7   3  21  1   
  8   4   7  1   
  9   4   8  ar  
 10   5   9  ar  
 11   5  22  1   
 12   6  10  1   
 13   6  23  1   
 14   6  24  1   
 15   7  11  ar  
 16   7  12  ar  
 17   8  13  ar  
 18   8  25  1   
 19   9  13  ar  
 20   9  26  1   
 21  10  14  1   
 22  10  27  1   
 23  10  28  1   
 24  11  15  ar  
 25  11  29  1   
 26  12  16  ar  
 27  12  30  1   
 28  13  31  1   
 29  14  17  1   
 30  14  18  1   
 31  14  32  1   
 32  15  19  ar  
 33  15  33  1   
 34  16  19  ar  
 35  16  34  1   
 36  17  35  1   
 37  17  36  1   
 38  17  37  1   
 39  18  38  1   
 40  18  39  1   
 41  18  40  1   
 42  19  41  1   
@<TRIPOS>SUBSTRUCTURE
  1 ****   1 GROUP 4 **** **** 0

# MOE 2024.06 (io_trps.svl 2023.06)
