@<TRIPOS>MOLECULE
NONAME
42 44 1 0 0 
SMALL
USER_CHARGES


@<TRIPOS>ATOM
  1 S        0.2540    -0.2150     0.2400 S.3   1 <1>  -0.2860 
  2 C       -1.3390    -1.0120     0.4100 C.2   1 <1>   0.2420 
  3 C        1.3240    -1.1960     1.4060 C.3   1 <1>   0.1310 
  4 N       -1.5670    -2.0350     1.1520 N.2   1 <1>  -0.3380 
  5 N       -2.4080    -0.5870    -0.2370 N.pl3 1 <1>   0.0330 
  6 C        2.7640    -0.7080     1.3980 C.2   1 <1>   0.5690 
  7 N       -2.8630    -2.3130     0.9910 N.2   1 <1>  -0.3380 
  8 C       -3.3660    -1.4390     0.1590 C.2   1 <1>   0.1330 
  9 O        3.4620    -0.9660     2.3480 O.2   1 <1>  -0.5700 
 10 N        3.2350    -0.0110     0.3300 N.am  1 <1>  -0.7300 
 11 C       -4.7380    -1.3810    -0.2960 C.ar  1 <1>   0.0530 
 12 C        4.5980     0.5200     0.1850 C.3   1 <1>   0.2200 
 13 C       -5.5450    -2.5180    -0.2580 C.ar  1 <1>  -0.1500 
 14 C       -5.3090    -0.2050    -0.7870 C.ar  1 <1>  -0.1500 
 15 C        4.5280     2.0490     0.1130 C.3   1 <1>  -0.1600 
 16 C        5.2270    -0.0690    -1.0820 C.3   1 <1>  -0.1600 
 17 C       -6.8550    -2.4900    -0.6990 C.ar  1 <1>  -0.1500 
 18 C       -6.6190    -0.1710    -1.2310 C.ar  1 <1>  -0.1500 
 19 C        5.9150     2.6560    -0.1480 C.3   1 <1>  -0.1600 
 20 C        6.6150     0.5340    -1.3450 C.3   1 <1>  -0.1600 
 21 C       -7.3950    -1.3150    -1.1890 C.ar  1 <1>  -0.1500 
 22 C        6.5500     2.0660    -1.4140 C.3   1 <1>  -0.1600 
 23 H        1.2770    -2.2240     1.0980 H     1 <1>   0.0800 
 24 H        0.9010    -1.0920     2.3880 H     1 <1>   0.0800 
 25 H       -2.4750     0.1920    -0.8890 H     1 <1>   0.2700 
 26 H        2.5920     0.2190    -0.4290 H     1 <1>   0.3700 
 27 H        5.1930     0.2340     1.0380 H     1 <1>   0.0800 
 28 H       -5.1360    -3.4380     0.1240 H     1 <1>   0.1500 
 29 H       -4.7340     0.7020    -0.8200 H     1 <1>   0.1500 
 30 H        4.1430     2.4290     1.0430 H     1 <1>   0.0800 
 31 H        3.8630     2.3430    -0.6800 H     1 <1>   0.0800 
 32 H        4.5930     0.1320    -1.9270 H     1 <1>   0.0800 
 33 H        5.3190    -1.1350    -0.9690 H     1 <1>   0.0800 
 34 H       -7.4550    -3.3830    -0.6590 H     1 <1>   0.1500 
 35 H       -7.0400     0.7450    -1.6070 H     1 <1>   0.1500 
 36 H        6.5540     2.4580     0.6960 H     1 <1>   0.0800 
 37 H        5.8280     3.7240    -0.2510 H     1 <1>   0.0800 
 38 H        7.0080     0.1470    -2.2690 H     1 <1>   0.0800 
 39 H        7.2850     0.2420    -0.5540 H     1 <1>   0.0800 
 40 H       -8.4150    -1.2910    -1.5330 H     1 <1>   0.1500 
 41 H        7.5430     2.4630    -1.5370 H     1 <1>   0.0800 
 42 H        5.9710     2.3600    -2.2730 H     1 <1>   0.0800 
@<TRIPOS>BOND
  1   1   2  1   
  2   1   3  1   
  3   2   4  2   
  4   2   5  1   
  5   3   6  1   
  6   3  23  1   
  7   3  24  1   
  8   4   7  1   
  9   5   8  1   
 10   5  25  1   
 11   6   9  2   
 12   6  10  am  
 13   7   8  2   
 14   8  11  1   
 15  10  12  1   
 16  10  26  1   
 17  11  13  ar  
 18  11  14  ar  
 19  12  15  1   
 20  12  16  1   
 21  12  27  1   
 22  13  17  ar  
 23  13  28  1   
 24  14  18  ar  
 25  14  29  1   
 26  15  19  1   
 27  15  30  1   
 28  15  31  1   
 29  16  20  1   
 30  16  32  1   
 31  16  33  1   
 32  17  21  ar  
 33  17  34  1   
 34  18  21  ar  
 35  18  35  1   
 36  19  22  1   
 37  19  36  1   
 38  19  37  1   
 39  20  22  1   
 40  20  38  1   
 41  20  39  1   
 42  21  40  1   
 43  22  41  1   
 44  22  42  1   
@<TRIPOS>SUBSTRUCTURE
  1 ****   1 GROUP 4 **** **** 0

# MOE 2024.06 (io_trps.svl 2023.06)
