@<TRIPOS>MOLECULE
NONAME
41 43 1 0 0 
SMALL
USER_CHARGES


@<TRIPOS>ATOM
  1 O       -0.3660     1.2290    -1.5730 O.2   1 <1>  -0.5700 
  2 C       -0.1710     2.4040    -1.3230 C.2   1 <1>   0.5440 
  3 N       -1.2210     3.2890    -1.4350 N.am  1 <1>  -0.6600 
  4 C        1.1500     2.8260    -0.9000 C.ar  1 <1>   0.0860 
  5 C       -1.2490     4.5770    -0.6840 C.3   1 <1>   0.4000 
  6 C       -2.5500     2.8370    -1.9470 C.3   1 <1>   0.1400 
  7 C        1.7600     2.2530     0.2160 C.ar  1 <1>  -0.1500 
  8 C        1.8550     3.8150    -1.5850 C.ar  1 <1>  -0.1500 
  9 C       -2.4510     4.6130     0.2490 C.2   1 <1>  -0.3320 
 10 C       -1.3170     5.7410    -1.6690 C.3   1 <1>  -0.2400 
 11 C       -3.5000     2.5730    -0.7770 C.3   1 <1>   0.0960 
 12 C        3.0090     2.6600     0.6460 C.ar  1 <1>  -0.1500 
 13 C        3.1040     4.2290    -1.1610 C.ar  1 <1>  -0.1500 
 14 N       -3.4680     3.7090     0.1670 N.pl3 1 <1>   0.0480 
 15 C       -2.7090     5.4840     1.2600 C.2   1 <1>  -0.1500 
 16 C        3.6910     3.6600    -0.0420 C.ar  1 <1>   0.0820 
 17 C       -4.3720     4.0210     1.1380 C.2   1 <1>  -0.3320 
 18 C       -3.9320     5.1090     1.8230 C.2   1 <1>  -0.1500 
 19 O        4.9110     4.1210     0.3110 O.3   1 <1>  -0.3630 
 20 C       -5.6500     3.2390     1.3790 C.3   1 <1>  -0.0600 
 21 C        5.6140     3.5910     1.4130 C.3   1 <1>   0.0400 
 22 H       -0.3610     4.6820    -0.0840 H     1 <1>   0.0800 
 23 H       -2.4460     1.9430    -2.5360 H     1 <1>   0.0800 
 24 H       -2.9670     3.5960    -2.5840 H     1 <1>   0.0800 
 25 H        1.2350     1.4770     0.7460 H     1 <1>   0.1500 
 26 H        1.4170     4.2570    -2.4620 H     1 <1>   0.1500 
 27 H       -2.2480     5.7300    -2.2040 H     1 <1>   0.0800 
 28 H       -1.2550     6.6670    -1.1280 H     1 <1>   0.0800 
 29 H       -0.5000     5.6950    -2.3630 H     1 <1>   0.0800 
 30 H       -3.1890     1.6860    -0.2560 H     1 <1>   0.0800 
 31 H       -4.5010     2.4340    -1.1380 H     1 <1>   0.0800 
 32 H        3.4350     2.1910     1.5120 H     1 <1>   0.1500 
 33 H        3.6370     4.9950    -1.6950 H     1 <1>   0.1500 
 34 H       -2.1110     6.3150     1.5910 H     1 <1>   0.1500 
 35 H       -4.4090     5.6080     2.6490 H     1 <1>   0.1500 
 36 H       -6.2780     3.2750     0.5070 H     1 <1>   0.0800 
 37 H       -6.1900     3.6610     2.2070 H     1 <1>   0.0800 
 38 H       -5.4190     2.2140     1.6080 H     1 <1>   0.0800 
 39 H        6.5560     4.1050     1.4860 H     1 <1>   0.0800 
 40 H        5.7820     2.5420     1.2480 H     1 <1>   0.0800 
 41 H        5.0380     3.7550     2.3060 H     1 <1>   0.0800 
@<TRIPOS>BOND
  1   1   2  2   
  2   2   3  am  
  3   2   4  1   
  4   3   5  1   
  5   3   6  1   
  6   4   7  ar  
  7   4   8  ar  
  8   5   9  1   
  9   5  10  1   
 10   5  22  1   
 11   6  11  1   
 12   6  23  1   
 13   6  24  1   
 14   7  12  ar  
 15   7  25  1   
 16   8  13  ar  
 17   8  26  1   
 18   9  14  1   
 19   9  15  2   
 20  10  27  1   
 21  10  28  1   
 22  10  29  1   
 23  11  14  1   
 24  11  30  1   
 25  11  31  1   
 26  12  16  ar  
 27  12  32  1   
 28  13  16  ar  
 29  13  33  1   
 30  14  17  1   
 31  15  18  1   
 32  15  34  1   
 33  16  19  1   
 34  17  18  2   
 35  17  20  1   
 36  18  35  1   
 37  19  21  1   
 38  20  36  1   
 39  20  37  1   
 40  20  38  1   
 41  21  39  1   
 42  21  40  1   
 43  21  41  1   
@<TRIPOS>SUBSTRUCTURE
  1 ****   5 GROUP 4 **** **** 0

# MOE 2024.06 (io_trps.svl 2023.06)
