@<TRIPOS>MOLECULE
NONAME
36 37 1 0 0 
SMALL
USER_CHARGES


@<TRIPOS>ATOM
  1 S        0.1200     0.1480     0.3530 S.3   1 <1>  -0.2860 
  2 C       -1.3540    -0.8600     0.5160 C.2   1 <1>   0.2420 
  3 C        1.4440    -0.9560     1.0410 C.3   1 <1>   0.1310 
  4 N       -1.3470    -2.0500     1.0030 N.2   1 <1>  -0.3380 
  5 N       -2.5610    -0.4410     0.1500 N.pl3 1 <1>   0.0480 
  6 C        2.8010    -0.2940     0.9120 C.2   1 <1>   0.6590 
  7 N       -2.6140    -2.4600     0.9720 N.2   1 <1>  -0.3380 
  8 C       -3.3340    -1.5000     0.4610 C.2   1 <1>   0.1330 
  9 C       -2.9540     0.8790    -0.3970 C.3   1 <1>   0.0960 
 10 O        3.4110     0.0910     1.8760 O.2   1 <1>  -0.5700 
 11 O        3.2810    -0.1800    -0.3200 O.3   1 <1>  -0.4300 
 12 C       -4.7600    -1.5480     0.2730 C.ar  1 <1>   0.0530 
 13 C       -3.4730     1.7920     0.7180 C.3   1 <1>  -0.2400 
 14 C        4.5290     0.4230    -0.5690 C.3   1 <1>   0.1200 
 15 C       -5.3330    -1.4990    -0.9980 C.ar  1 <1>   0.1600 
 16 C       -5.6230    -1.6390     1.3540 C.ar  1 <1>  -0.1500 
 17 C        4.7770     0.3960    -2.0740 C.3   1 <1>  -0.2400 
 18 N       -6.6280    -1.4920    -1.2640 N.ar  1 <1>  -0.6200 
 19 C       -6.9770    -1.6470     1.1010 C.ar  1 <1>  -0.1500 
 20 C       -7.4230    -1.5690    -0.2080 C.ar  1 <1>   0.1600 
 21 H        1.4160    -1.8760     0.4870 H     1 <1>   0.0800 
 22 H        1.2050    -1.1370     2.0720 H     1 <1>   0.0800 
 23 H       -3.7170     0.7410    -1.1420 H     1 <1>   0.0800 
 24 H       -2.1030     1.3320    -0.8730 H     1 <1>   0.0800 
 25 H       -4.3440     1.3650     1.1830 H     1 <1>   0.0800 
 26 H       -3.7430     2.7490     0.3080 H     1 <1>   0.0800 
 27 H       -2.7100     1.9460     1.4620 H     1 <1>   0.0800 
 28 H        5.2880    -0.1310    -0.0410 H     1 <1>   0.0800 
 29 H        4.4980     1.4350    -0.2000 H     1 <1>   0.0800 
 30 H       -4.6700    -1.4620    -1.8450 H     1 <1>   0.1500 
 31 H       -5.2360    -1.7020     2.3570 H     1 <1>   0.1500 
 32 H        4.7950    -0.6190    -2.4280 H     1 <1>   0.0800 
 33 H        5.7250     0.8520    -2.2930 H     1 <1>   0.0800 
 34 H        4.0060     0.9430    -2.5860 H     1 <1>   0.0800 
 35 H       -7.6850    -1.7150     1.9070 H     1 <1>   0.1500 
 36 H       -8.4830    -1.5730    -0.3960 H     1 <1>   0.1500 
@<TRIPOS>BOND
  1   1   2  1   
  2   1   3  1   
  3   2   4  2   
  4   2   5  1   
  5   3   6  1   
  6   3  21  1   
  7   3  22  1   
  8   4   7  1   
  9   5   8  1   
 10   5   9  1   
 11   6  10  2   
 12   6  11  1   
 13   7   8  2   
 14   8  12  1   
 15   9  13  1   
 16   9  23  1   
 17   9  24  1   
 18  11  14  1   
 19  12  15  ar  
 20  12  16  ar  
 21  13  25  1   
 22  13  26  1   
 23  13  27  1   
 24  14  17  1   
 25  14  28  1   
 26  14  29  1   
 27  15  18  ar  
 28  15  30  1   
 29  16  19  ar  
 30  16  31  1   
 31  17  32  1   
 32  17  33  1   
 33  17  34  1   
 34  18  20  ar  
 35  19  20  ar  
 36  19  35  1   
 37  20  36  1   
@<TRIPOS>SUBSTRUCTURE
  1 ****   2 GROUP 4 **** **** 0

# MOE 2024.06 (io_trps.svl 2023.06)
