@<TRIPOS>MOLECULE
NONAME
39 41 1 0 0 
SMALL
USER_CHARGES


@<TRIPOS>ATOM
  1 O        0.1830    -0.3720     1.0200 O.co2 1 <1>  -0.9000 
  2 C        0.8130    -1.0490     1.8410 C.2   1 <1>   0.9060 
  3 O        0.5790    -0.9990     3.0490 O.co2 1 <1>  -0.9000 
  4 C        1.9090    -1.9780     1.3720 C.3   1 <1>  -0.1860 
  5 C        3.2940    -1.3810     1.0180 C.3   1 <1>  -0.0190 
  6 C        1.5530    -2.7020     0.0680 C.3   1 <1>   0.2000 
  7 C        3.5040     0.1290     0.8930 C.2   1 <1>   0.5690 
  8 C        3.5210    -2.0110    -0.3600 C.3   1 <1>   0.2000 
  9 O        2.2480    -1.9750    -0.8800 O.3   1 <1>  -0.5600 
 10 C        2.3160    -4.0270    -0.0110 C.3   1 <1>  -0.1600 
 11 O        4.6110     0.5400     1.1590 O.2   1 <1>  -0.5700 
 12 N        2.5050     0.9460     0.4480 N.am  1 <1>  -0.5470 
 13 C        3.7440    -3.5270    -0.2650 C.3   1 <1>  -0.1600 
 14 C        2.4480     2.3250     0.2130 C.ar  1 <1>   0.1170 
 15 C        1.2080     2.9440     0.2500 C.ar  1 <1>  -0.1500 
 16 C        3.5640     3.1020    -0.0700 C.ar  1 <1>  -0.1500 
 17 C        1.0650     4.3030     0.0140 C.ar  1 <1>  -0.1430 
 18 C        3.4360     4.4590    -0.3070 C.ar  1 <1>  -0.1500 
 19 C        2.1910     5.0700    -0.2680 C.ar  1 <1>  -0.1430 
 20 C       -0.3270     4.9140     0.0750 C.3   1 <1>  -0.0970 
 21 C        2.0890     6.5650    -0.5340 C.3   1 <1>  -0.0970 
 22 H        2.0220    -2.7010     2.1570 H     1 <1>   0.0800 
 23 H        4.0300    -1.7450     1.7110 H     1 <1>   0.0800 
 24 H        0.5020    -2.7510    -0.1620 H     1 <1>   0.0800 
 25 H        4.2180    -1.4860    -0.9910 H     1 <1>   0.0800 
 26 H        1.9540    -4.6020    -0.8450 H     1 <1>   0.0800 
 27 H        2.2240    -4.6050     0.8910 H     1 <1>   0.0800 
 28 H        1.5740     0.4830     0.4180 H     1 <1>   0.3700 
 29 H        4.4230    -3.7810     0.5290 H     1 <1>   0.0800 
 30 H        4.1230    -3.9020    -1.1990 H     1 <1>   0.0800 
 31 H        0.3490     2.3330     0.4750 H     1 <1>   0.1500 
 32 H        4.5330     2.6430    -0.1070 H     1 <1>   0.1500 
 33 H        4.3180     5.0340    -0.5220 H     1 <1>   0.1500 
 34 H       -1.0620     4.1640     0.3080 H     1 <1>   0.0800 
 35 H       -0.5790     5.3520    -0.8730 H     1 <1>   0.0800 
 36 H       -0.3630     5.6690     0.8380 H     1 <1>   0.0800 
 37 H        1.6740     7.0610     0.3240 H     1 <1>   0.0800 
 38 H        1.4580     6.7440    -1.3850 H     1 <1>   0.0800 
 39 H        3.0570     6.9870    -0.7340 H     1 <1>   0.0800 
@<TRIPOS>BOND
  1   1   2  ar  
  2   2   3  ar  
  3   2   4  1   
  4   4   5  1   
  5   4   6  1   
  6   4  22  1   
  7   5   7  1   
  8   5   8  1   
  9   5  23  1   
 10   6   9  1   
 11   6  10  1   
 12   6  24  1   
 13   7  11  2   
 14   7  12  am  
 15   8   9  1   
 16   8  13  1   
 17   8  25  1   
 18  10  13  1   
 19  10  26  1   
 20  10  27  1   
 21  12  14  1   
 22  12  28  1   
 23  13  29  1   
 24  13  30  1   
 25  14  15  ar  
 26  14  16  ar  
 27  15  17  ar  
 28  15  31  1   
 29  16  18  ar  
 30  16  32  1   
 31  17  19  ar  
 32  17  20  1   
 33  18  19  ar  
 34  18  33  1   
 35  19  21  1   
 36  20  34  1   
 37  20  35  1   
 38  20  36  1   
 39  21  37  1   
 40  21  38  1   
 41  21  39  1   
@<TRIPOS>SUBSTRUCTURE
  1 ****  12 GROUP 4 **** **** 0

# MOE 2024.06 (io_trps.svl 2023.06)
