@<TRIPOS>MOLECULE
NONAME
39 40 1 0 0 
SMALL
USER_CHARGES


@<TRIPOS>ATOM
  1 S       -0.8430     0.2310     1.1540 S.3   1 <1>  -0.0800 
  2 C       -1.9050    -0.0720    -0.2230 C.2   1 <1>  -0.0450 
  3 C        0.0170     1.5040     0.3140 C.2   1 <1>  -0.1400 
  4 C       -2.9220    -1.0850    -0.1060 C.2   1 <1>   0.7150 
  5 C       -1.5630     0.7770    -1.2260 C.2   1 <1>  -0.1500 
  6 C       -0.4870     1.6610    -0.9250 C.2   1 <1>  -0.1500 
  7 C        1.1370     2.1850     1.0810 C.3   1 <1>   0.0200 
  8 O       -2.8680    -1.9640     0.7350 O.2   1 <1>  -0.5700 
  9 N       -4.0470    -1.0530    -0.9020 N.am  1 <1>  -0.6600 
 10 C        1.8160     3.2860     0.2620 C.3   1 <1>  -0.2400 
 11 C       -4.8270    -2.3090    -1.0980 C.3   1 <1>   0.1400 
 12 C       -4.9020     0.1670    -0.8840 C.3   1 <1>   0.1400 
 13 C       -5.8680    -2.4540     0.0280 C.3   1 <1>   0.3430 
 14 C       -5.9680     0.0420     0.2260 C.3   1 <1>   0.3430 
 15 N       -6.7600    -1.2410     0.1300 N.4   1 <1>  -0.9590 
 16 C       -7.7080    -1.3880     1.2560 C.3   1 <1>   0.4810 
 17 C       -8.8250    -0.3970     1.0260 C.2   1 <1>  -0.2880 
 18 C      -10.0470    -0.7050     0.5770 C.2   1 <1>  -0.3000 
 19 H       -2.0360     0.8070    -2.1920 H     1 <1>   0.1500 
 20 H       -0.1370     2.3730    -1.6530 H     1 <1>   0.1500 
 21 H        1.8670     1.4460     1.3600 H     1 <1>   0.0800 
 22 H        0.7330     2.6100     1.9840 H     1 <1>   0.0800 
 23 H        2.2450     2.8720    -0.6330 H     1 <1>   0.0800 
 24 H        2.5990     3.7430     0.8390 H     1 <1>   0.0800 
 25 H        1.1010     4.0430    -0.0090 H     1 <1>   0.0800 
 26 H       -4.1620    -3.1570    -1.0820 H     1 <1>   0.0800 
 27 H       -5.3120    -2.2910    -2.0590 H     1 <1>   0.0800 
 28 H       -5.3760     0.2910    -1.8420 H     1 <1>   0.0800 
 29 H       -4.3020     1.0430    -0.6990 H     1 <1>   0.0800 
 30 H       -5.3350    -2.5940     0.9550 H     1 <1>   0.0800 
 31 H       -6.4610    -3.3360    -0.1500 H     1 <1>   0.0800 
 32 H       -6.6330     0.8880     0.1710 H     1 <1>   0.0800 
 33 H       -5.4650     0.0810     1.1790 H     1 <1>   0.0800 
 34 H       -7.3410    -1.1910    -0.7170 H     1 <1>   0.4500 
 35 H       -7.2210    -1.2120     2.2030 H     1 <1>   0.0800 
 36 H       -8.1190    -2.3850     1.2580 H     1 <1>   0.0800 
 37 H       -8.5520     0.6150     1.2730 H     1 <1>   0.1500 
 38 H      -10.8310     0.0210     0.4280 H     1 <1>   0.1500 
 39 H      -10.3840    -1.6970     0.3220 H     1 <1>   0.1500 
@<TRIPOS>BOND
  1   1   2  1   
  2   1   3  1   
  3   2   4  1   
  4   2   5  2   
  5   3   6  2   
  6   3   7  1   
  7   4   8  2   
  8   4   9  am  
  9   5   6  1   
 10   5  19  1   
 11   6  20  1   
 12   7  10  1   
 13   7  21  1   
 14   7  22  1   
 15   9  11  1   
 16   9  12  1   
 17  10  23  1   
 18  10  24  1   
 19  10  25  1   
 20  11  13  1   
 21  11  26  1   
 22  11  27  1   
 23  12  14  1   
 24  12  28  1   
 25  12  29  1   
 26  13  15  1   
 27  13  30  1   
 28  13  31  1   
 29  14  15  1   
 30  14  32  1   
 31  14  33  1   
 32  15  16  1   
 33  15  34  1   
 34  16  17  1   
 35  16  35  1   
 36  16  36  1   
 37  17  18  2   
 38  17  37  1   
 39  18  38  1   
 40  18  39  1   
@<TRIPOS>SUBSTRUCTURE
  1 ****   4 GROUP 4 **** **** 0

# MOE 2024.06 (io_trps.svl 2023.06)
