@<TRIPOS>MOLECULE
NONAME
44 46 1 0 0 
SMALL
USER_CHARGES


@<TRIPOS>ATOM
  1 CL      -2.3090     0.6080     1.4680 Cl    1 <1>  -0.1770 
  2 C       -1.2900     1.9740     1.0860 C.ar  1 <1>   0.1770 
  3 C       -1.4750     2.6450    -0.1110 C.ar  1 <1>  -0.1440 
  4 C       -0.3260     2.3670     1.9990 C.ar  1 <1>  -0.1500 
  5 C       -0.6650     3.7390    -0.3690 C.ar  1 <1>   0.1770 
  6 C       -2.5220     2.1880    -1.1040 C.3   1 <1>   0.4870 
  7 C        0.4770     3.4610     1.7160 C.ar  1 <1>  -0.1500 
  8 CL      -0.8800     4.6370    -1.8500 Cl    1 <1>  -0.1770 
  9 C        0.3060     4.1510     0.5270 C.ar  1 <1>  -0.1500 
 10 N       -3.8730     2.5630    -0.6080 N.4   1 <1>  -0.9590 
 11 C       -4.9580     1.9000    -1.4190 C.3   1 <1>   0.3430 
 12 C       -4.0650     4.0630    -0.5750 C.3   1 <1>   0.3430 
 13 C       -6.3730     2.2890    -0.9430 C.3   1 <1>   0.2090 
 14 C       -5.4740     4.4710    -0.1000 C.3   1 <1>   0.2090 
 15 N       -6.5250     3.7710    -0.8940 N.pl3 1 <1>  -0.8380 
 16 C       -7.8230     4.2320    -0.7020 C.ar  1 <1>   0.1000 
 17 C       -8.4920     4.0400     0.5000 C.ar  1 <1>  -0.1500 
 18 C       -8.4730     4.9000    -1.7310 C.ar  1 <1>  -0.1500 
 19 C       -9.7830     4.5020     0.6780 C.ar  1 <1>   0.0830 
 20 C       -9.7650     5.3670    -1.5640 C.ar  1 <1>  -0.1500 
 21 O      -10.3510     4.2660     1.8890 O.3   1 <1>  -0.3620 
 22 C      -10.4240     5.1710    -0.3620 C.ar  1 <1>  -0.1500 
 23 C      -11.6640     4.6950     2.1740 C.3   1 <1>   0.0400 
 24 H       -0.2020     1.8230     2.9200 H     1 <1>   0.1500 
 25 H       -2.4560     1.1160    -1.2090 H     1 <1>   0.0800 
 26 H       -2.3450     2.6300    -2.0700 H     1 <1>   0.0800 
 27 H        1.2330     3.7730     2.4200 H     1 <1>   0.1500 
 28 H        0.9230     5.0040     0.2970 H     1 <1>   0.1500 
 29 H       -3.9500     2.2140     0.3580 H     1 <1>   0.4500 
 30 H       -4.8550     0.8290    -1.3680 H     1 <1>   0.0800 
 31 H       -4.8660     2.1930    -2.4520 H     1 <1>   0.0800 
 32 H       -3.9180     4.4670    -1.5630 H     1 <1>   0.0800 
 33 H       -3.3340     4.5150     0.0760 H     1 <1>   0.0800 
 34 H       -6.5610     1.8710     0.0310 H     1 <1>   0.0800 
 35 H       -7.1040     1.8830    -1.6220 H     1 <1>   0.0800 
 36 H       -5.5960     5.5350    -0.2160 H     1 <1>   0.0800 
 37 H       -5.5920     4.2380     0.9450 H     1 <1>   0.0800 
 38 H       -8.0130     3.5280     1.3100 H     1 <1>   0.1500 
 39 H       -7.9600     5.0510    -2.6620 H     1 <1>   0.1500 
 40 H      -10.2580     5.8830    -2.3690 H     1 <1>   0.1500 
 41 H      -11.4250     5.5420    -0.2570 H     1 <1>   0.1500 
 42 H      -11.9000     4.4010     3.1810 H     1 <1>   0.0800 
 43 H      -12.3440     4.2230     1.4870 H     1 <1>   0.0800 
 44 H      -11.7080     5.7670     2.0870 H     1 <1>   0.0800 
@<TRIPOS>BOND
  1   1   2  1   
  2   2   3  ar  
  3   2   4  ar  
  4   3   5  ar  
  5   3   6  1   
  6   4   7  ar  
  7   4  24  1   
  8   5   8  1   
  9   5   9  ar  
 10   6  10  1   
 11   6  25  1   
 12   6  26  1   
 13   7   9  ar  
 14   7  27  1   
 15   9  28  1   
 16  10  11  1   
 17  10  12  1   
 18  10  29  1   
 19  11  13  1   
 20  11  30  1   
 21  11  31  1   
 22  12  14  1   
 23  12  32  1   
 24  12  33  1   
 25  13  15  1   
 26  13  34  1   
 27  13  35  1   
 28  14  15  1   
 29  14  36  1   
 30  14  37  1   
 31  15  16  1   
 32  16  17  ar  
 33  16  18  ar  
 34  17  19  ar  
 35  17  38  1   
 36  18  20  ar  
 37  18  39  1   
 38  19  21  1   
 39  19  22  ar  
 40  20  22  ar  
 41  20  40  1   
 42  21  23  1   
 43  22  41  1   
 44  23  42  1   
 45  23  43  1   
 46  23  44  1   
@<TRIPOS>SUBSTRUCTURE
  1 ****  14 GROUP 4 **** **** 0

# MOE 2024.06 (io_trps.svl 2023.06)
