@<TRIPOS>MOLECULE
NONAME
52 54 1 0 0 
SMALL
USER_CHARGES


@<TRIPOS>ATOM
  1 O       -0.7370     1.8180     1.7850 O.2   1 <1>  -0.5700 
  2 C       -0.0960     1.9280     0.7670 C.2   1 <1>   0.5690 
  3 N       -0.6330     1.7070    -0.4700 N.am  1 <1>  -0.7300 
  4 C        1.3700     2.3790     0.8590 C.3   1 <1>   0.1710 
  5 C       -1.9960     1.2430    -0.8060 C.3   1 <1>   0.2200 
  6 N        2.3990     1.3000     0.8320 N.3   1 <1>  -0.8100 
  7 C       -3.0530     2.2570    -0.3520 C.3   1 <1>  -0.1600 
  8 C       -2.2590    -0.1510    -0.2220 C.3   1 <1>  -0.1600 
  9 C        2.3410     0.4620    -0.3910 C.3   1 <1>   0.1100 
 10 C        3.7560     1.8730     1.0010 C.3   1 <1>   0.1100 
 11 C       -4.4660     1.7720    -0.7100 C.3   1 <1>  -0.1600 
 12 C       -3.6720    -0.6370    -0.5800 C.3   1 <1>  -0.1600 
 13 C        3.4140    -0.6420    -0.3970 C.3   1 <1>   0.2090 
 14 C        4.8580     0.7960     1.0120 C.3   1 <1>   0.2090 
 15 C       -4.7350     0.3760    -0.1300 C.3   1 <1>  -0.1600 
 16 N        4.7660    -0.0500    -0.2080 N.pl3 1 <1>  -0.8380 
 17 C        5.9010    -0.7210    -0.6570 C.ar  1 <1>   0.1000 
 18 C        6.3240    -1.9640    -0.1690 C.ar  1 <1>  -0.1430 
 19 C        6.6520    -0.1030    -1.6500 C.ar  1 <1>  -0.1500 
 20 C        7.4680    -2.5490    -0.6880 C.ar  1 <1>  -0.1500 
 21 C        5.5680    -2.7080     0.9240 C.3   1 <1>  -0.0970 
 22 C        7.7920    -0.6920    -2.1610 C.ar  1 <1>  -0.1500 
 23 C        8.2020    -1.9210    -1.6790 C.ar  1 <1>  -0.1500 
 24 H       -0.0240     1.8210    -1.2780 H     1 <1>   0.3700 
 25 H        1.4710     2.9200     1.7830 H     1 <1>   0.0800 
 26 H        1.5600     3.0700     0.0580 H     1 <1>   0.0800 
 27 H       -2.0590     1.1660    -1.8780 H     1 <1>   0.0800 
 28 H       -2.8690     3.2070    -0.8210 H     1 <1>   0.0800 
 29 H       -2.9960     2.3880     0.7150 H     1 <1>   0.0800 
 30 H       -2.1680    -0.1170     0.8500 H     1 <1>   0.0800 
 31 H       -1.5330    -0.8460    -0.6030 H     1 <1>   0.0800 
 32 H        2.4770     1.0770    -1.2630 H     1 <1>   0.0800 
 33 H        1.3790    -0.0160    -0.4540 H     1 <1>   0.0800 
 34 H        3.8000     2.4160     1.9280 H     1 <1>   0.0800 
 35 H        3.9630     2.5600     0.1990 H     1 <1>   0.0800 
 36 H       -4.5760     1.7420    -1.7800 H     1 <1>   0.0800 
 37 H       -5.1920     2.4670    -0.3230 H     1 <1>   0.0800 
 38 H       -3.8560    -1.5850    -0.1050 H     1 <1>   0.0800 
 39 H       -3.7430    -0.7810    -1.6440 H     1 <1>   0.0800 
 40 H        3.3860    -1.1790    -1.3290 H     1 <1>   0.0800 
 41 H        3.2050    -1.3320     0.4010 H     1 <1>   0.0800 
 42 H        4.7420     0.1840     1.8880 H     1 <1>   0.0800 
 43 H        5.8260     1.2630     1.0510 H     1 <1>   0.0800 
 44 H       -5.7090     0.0380    -0.4390 H     1 <1>   0.0800 
 45 H       -4.7340     0.4340     0.9450 H     1 <1>   0.0800 
 46 H        6.3230     0.8500    -2.0190 H     1 <1>   0.1500 
 47 H        7.7990    -3.5050    -0.3230 H     1 <1>   0.1500 
 48 H        5.2620    -2.0300     1.6980 H     1 <1>   0.0800 
 49 H        6.1870    -3.4630     1.3720 H     1 <1>   0.0800 
 50 H        4.6990    -3.1800     0.5060 H     1 <1>   0.0800 
 51 H        8.3580    -0.1970    -2.9300 H     1 <1>   0.1500 
 52 H        9.0880    -2.3860    -2.0720 H     1 <1>   0.1500 
@<TRIPOS>BOND
  1   1   2  2   
  2   2   3  am  
  3   2   4  1   
  4   3   5  1   
  5   3  24  1   
  6   4   6  1   
  7   4  25  1   
  8   4  26  1   
  9   5   7  1   
 10   5   8  1   
 11   5  27  1   
 12   6   9  1   
 13   6  10  1   
 14   7  11  1   
 15   7  28  1   
 16   7  29  1   
 17   8  12  1   
 18   8  30  1   
 19   8  31  1   
 20   9  13  1   
 21   9  32  1   
 22   9  33  1   
 23  10  14  1   
 24  10  34  1   
 25  10  35  1   
 26  11  15  1   
 27  11  36  1   
 28  11  37  1   
 29  12  15  1   
 30  12  38  1   
 31  12  39  1   
 32  13  16  1   
 33  13  40  1   
 34  13  41  1   
 35  14  16  1   
 36  14  42  1   
 37  14  43  1   
 38  15  44  1   
 39  15  45  1   
 40  16  17  1   
 41  17  18  ar  
 42  17  19  ar  
 43  18  20  ar  
 44  18  21  1   
 45  19  22  ar  
 46  19  46  1   
 47  20  23  ar  
 48  20  47  1   
 49  21  48  1   
 50  21  49  1   
 51  21  50  1   
 52  22  23  ar  
 53  22  51  1   
 54  23  52  1   
@<TRIPOS>SUBSTRUCTURE
  1 ****   9 GROUP 4 **** **** 0

# MOE 2024.06 (io_trps.svl 2023.06)
