@<TRIPOS>MOLECULE
NONAME
44 45 1 0 0 
SMALL
USER_CHARGES


@<TRIPOS>ATOM
  1 O       -9.7650     4.2680     0.0760 O.3   1 <1>  -0.5600 
  2 C      -11.1190     4.2440    -0.2500 C.3   1 <1>   0.2640 
  3 C       -9.1500     3.0130     0.0910 C.3   1 <1>   0.1200 
  4 C      -11.6350     5.6720    -0.2750 C.ar  1 <1>  -0.1440 
  5 C       -7.6560     3.1990     0.3900 C.3   1 <1>   0.2000 
  6 C      -12.5490     6.1110     0.6720 C.ar  1 <1>  -0.1500 
  7 C      -11.1970     6.5520    -1.2540 C.ar  1 <1>  -0.1500 
  8 O       -7.1850     4.2170    -0.4300 O.3   1 <1>  -0.6800 
  9 C       -6.8460     1.8940     0.1890 C.3   1 <1>   0.1100 
 10 C      -13.0230     7.4110     0.6360 C.ar  1 <1>  -0.1500 
 11 C      -11.6710     7.8520    -1.2910 C.ar  1 <1>  -0.1500 
 12 N       -5.3810     2.0910     0.1090 N.3   1 <1>  -0.8100 
 13 C      -12.5850     8.2820    -0.3460 C.ar  1 <1>  -0.1500 
 14 C       -4.7760     2.7310     1.3030 C.3   1 <1>   0.1100 
 15 C       -4.6360     0.8800    -0.2930 C.3   1 <1>   0.1100 
 16 C       -3.2680     3.0160     1.0990 C.3   1 <1>   0.3430 
 17 C       -3.1420     1.1980    -0.5600 C.3   1 <1>   0.3430 
 18 N       -2.8480     2.6460    -0.2920 N.4   1 <1>  -0.9590 
 19 C       -1.4620     3.0650    -0.6410 C.3   1 <1>   0.2630 
 20 H      -11.6420     3.6600     0.4880 H     1 <1>   0.0800 
 21 H      -11.2350     3.7930    -1.2210 H     1 <1>   0.0800 
 22 H       -9.2790     2.5530    -0.8740 H     1 <1>   0.0800 
 23 H       -9.6130     2.4050     0.8490 H     1 <1>   0.0800 
 24 H       -7.5540     3.5320     1.4070 H     1 <1>   0.0800 
 25 H      -12.8940     5.4450     1.4420 H     1 <1>   0.1500 
 26 H      -10.4810     6.2240    -1.9870 H     1 <1>   0.1500 
 27 H       -7.9040     4.8870    -0.4800 H     1 <1>   0.4000 
 28 H       -7.1770     1.4420    -0.7310 H     1 <1>   0.0800 
 29 H       -7.0780     1.2100     0.9870 H     1 <1>   0.0800 
 30 H      -13.7320     7.7460     1.3730 H     1 <1>   0.1500 
 31 H      -11.3250     8.5280    -2.0540 H     1 <1>   0.1500 
 32 H      -12.9530     9.2930    -0.3740 H     1 <1>   0.1500 
 33 H       -4.9130     2.1050     2.1690 H     1 <1>   0.0800 
 34 H       -5.2670     3.6690     1.4960 H     1 <1>   0.0800 
 35 H       -5.0680     0.4740    -1.1920 H     1 <1>   0.0800 
 36 H       -4.7130     0.1290     0.4750 H     1 <1>   0.0800 
 37 H       -2.6960     2.4560     1.8190 H     1 <1>   0.0800 
 38 H       -3.0860     4.0640     1.2730 H     1 <1>   0.0800 
 39 H       -2.9160     0.9640    -1.5870 H     1 <1>   0.0800 
 40 H       -2.5260     0.5730     0.0650 H     1 <1>   0.0800 
 41 H       -3.5480     3.1400    -0.8770 H     1 <1>   0.4500 
 42 H       -0.7470     2.5480    -0.0220 H     1 <1>   0.0800 
 43 H       -1.3460     4.1260    -0.4940 H     1 <1>   0.0800 
 44 H       -1.2540     2.8380    -1.6750 H     1 <1>   0.0800 
@<TRIPOS>BOND
  1   1   2  1   
  2   1   3  1   
  3   2   4  1   
  4   2  20  1   
  5   2  21  1   
  6   3   5  1   
  7   3  22  1   
  8   3  23  1   
  9   4   6  ar  
 10   4   7  ar  
 11   5   8  1   
 12   5   9  1   
 13   5  24  1   
 14   6  10  ar  
 15   6  25  1   
 16   7  11  ar  
 17   7  26  1   
 18   8  27  1   
 19   9  12  1   
 20   9  28  1   
 21   9  29  1   
 22  10  13  ar  
 23  10  30  1   
 24  11  13  ar  
 25  11  31  1   
 26  12  14  1   
 27  12  15  1   
 28  13  32  1   
 29  14  16  1   
 30  14  33  1   
 31  14  34  1   
 32  15  17  1   
 33  15  35  1   
 34  15  36  1   
 35  16  18  1   
 36  16  37  1   
 37  16  38  1   
 38  17  18  1   
 39  17  39  1   
 40  17  40  1   
 41  18  19  1   
 42  18  41  1   
 43  19  42  1   
 44  19  43  1   
 45  19  44  1   
@<TRIPOS>SUBSTRUCTURE
  1 ****   8 GROUP 4 **** **** 0

# MOE 2024.06 (io_trps.svl 2023.06)
