@<TRIPOS>MOLECULE
NONAME
41 42 1 0 0 
SMALL
USER_CHARGES


@<TRIPOS>ATOM
  1 BR       0.7380    -0.7170     2.2060 Br    1 <1>  -0.0570 
  2 C       -0.7910    -1.4700     1.2830 C.2   1 <1>   0.0570 
  3 C       -0.7710    -2.5570     0.4060 C.2   1 <1>   0.2030 
  4 C       -2.0540    -1.0360     1.3990 C.2   1 <1>  -0.3020 
  5 N       -2.0150    -2.7770    -0.0010 N.2   1 <1>  -0.7070 
  6 C        0.4320    -3.2820     0.0280 C.2   1 <1>   0.7160 
  7 N       -2.7800    -1.8490     0.6060 N.pl3 1 <1>   0.3140 
  8 O        1.4760    -2.6990    -0.1990 O.2   1 <1>  -0.5700 
  9 N        0.5140    -4.6480    -0.0720 N.am  1 <1>  -0.5470 
 10 C       -4.2410    -1.7830     0.3980 C.3   1 <1>   0.0960 
 11 C       -0.4040    -5.6470     0.2360 C.ar  1 <1>   0.1170 
 12 C       -4.6080    -0.6830    -0.6040 C.3   1 <1>  -0.2400 
 13 C       -0.1240    -6.5590     1.2440 C.ar  1 <1>  -0.1500 
 14 C       -1.5960    -5.7900    -0.4630 C.ar  1 <1>  -0.1500 
 15 C       -1.0110    -7.5730     1.5480 C.ar  1 <1>  -0.1500 
 16 C       -2.4820    -6.8040    -0.1560 C.ar  1 <1>  -0.1500 
 17 C       -2.2180    -7.7280     0.8600 C.ar  1 <1>   0.0860 
 18 C       -3.1370    -8.7990     1.1920 C.2   1 <1>   0.6340 
 19 O       -2.9130    -9.6180     2.0620 O.2   1 <1>  -0.5700 
 20 O       -4.2800    -8.8820     0.5030 O.3   1 <1>  -0.4300 
 21 C       -5.2390    -9.8910     0.7220 C.3   1 <1>   0.2000 
 22 C       -4.8430   -11.1220    -0.0940 C.3   1 <1>  -0.2400 
 23 C       -6.5880    -9.3360     0.2740 C.3   1 <1>  -0.2400 
 24 H       -2.4650    -0.2290     1.9750 H     1 <1>   0.1500 
 25 H        1.4700    -4.9430    -0.2590 H     1 <1>   0.3700 
 26 H       -4.7130    -1.6000     1.3460 H     1 <1>   0.0800 
 27 H       -4.5710    -2.7390     0.0310 H     1 <1>   0.0800 
 28 H       -4.2960     0.2800    -0.2390 H     1 <1>   0.0800 
 29 H       -5.6730    -0.6640    -0.7520 H     1 <1>   0.0800 
 30 H       -4.1350    -0.8740    -1.5520 H     1 <1>   0.0800 
 31 H        0.7950    -6.4690     1.7960 H     1 <1>   0.1500 
 32 H       -1.8270    -5.0960    -1.2520 H     1 <1>   0.1500 
 33 H       -0.7710    -8.2660     2.3380 H     1 <1>   0.1500 
 34 H       -3.3980    -6.8810    -0.7170 H     1 <1>   0.1500 
 35 H       -5.2730   -10.1230     1.7750 H     1 <1>   0.0800 
 36 H       -4.7740   -10.8760    -1.1380 H     1 <1>   0.0800 
 37 H       -5.5790   -11.8950     0.0310 H     1 <1>   0.0800 
 38 H       -3.8970   -11.5020     0.2490 H     1 <1>   0.0800 
 39 H       -6.5610    -9.0760    -0.7690 H     1 <1>   0.0800 
 40 H       -6.8360    -8.4650     0.8530 H     1 <1>   0.0800 
 41 H       -7.3560   -10.0730     0.4250 H     1 <1>   0.0800 
@<TRIPOS>BOND
  1   1   2  1   
  2   2   3  1   
  3   2   4  2   
  4   3   5  2   
  5   3   6  1   
  6   4   7  1   
  7   4  24  1   
  8   5   7  1   
  9   6   8  2   
 10   6   9  am  
 11   7  10  1   
 12   9  11  1   
 13   9  25  1   
 14  10  12  1   
 15  10  26  1   
 16  10  27  1   
 17  11  13  ar  
 18  11  14  ar  
 19  12  28  1   
 20  12  29  1   
 21  12  30  1   
 22  13  15  ar  
 23  13  31  1   
 24  14  16  ar  
 25  14  32  1   
 26  15  17  ar  
 27  15  33  1   
 28  16  17  ar  
 29  16  34  1   
 30  17  18  1   
 31  18  19  2   
 32  18  20  1   
 33  20  21  1   
 34  21  22  1   
 35  21  23  1   
 36  21  35  1   
 37  22  36  1   
 38  22  37  1   
 39  22  38  1   
 40  23  39  1   
 41  23  40  1   
 42  23  41  1   
@<TRIPOS>SUBSTRUCTURE
  1 ****  14 GROUP 4 **** **** 0

# MOE 2024.06 (io_trps.svl 2023.06)
