@<TRIPOS>MOLECULE
NONAME
43 45 1 0 0 
SMALL
USER_CHARGES


@<TRIPOS>ATOM
  1 CL      -1.6540     1.8750     2.3900 Cl    1 <1>  -0.1770 
  2 C       -0.9490     2.2710     0.8400 C.ar  1 <1>   0.1770 
  3 C       -1.6970     2.1090    -0.3160 C.ar  1 <1>  -0.1440 
  4 C        0.3460     2.7520     0.8030 C.ar  1 <1>  -0.1500 
  5 C       -1.1200     2.4400    -1.5350 C.ar  1 <1>  -0.1500 
  6 C       -3.1160     1.5810    -0.2460 C.3   1 <1>   0.4870 
  7 C        0.9100     3.0820    -0.4160 C.ar  1 <1>  -0.1500 
  8 C        0.1770     2.9250    -1.5810 C.ar  1 <1>  -0.1500 
  9 N       -3.9850     2.5950     0.4100 N.4   1 <1>  -0.9590 
 10 C       -5.3720     2.0670     0.6690 C.3   1 <1>   0.3430 
 11 C       -4.0300     3.8980    -0.3530 C.3   1 <1>   0.3430 
 12 C       -6.2700     3.0920     1.3930 C.3   1 <1>   0.2090 
 13 C       -4.8990     4.9640     0.3450 C.3   1 <1>   0.2090 
 14 N       -6.2370     4.4240     0.7230 N.pl3 1 <1>  -0.8380 
 15 C       -7.3320     4.7850    -0.0600 C.ar  1 <1>   0.1000 
 16 C       -8.2700     5.7080     0.4050 C.ar  1 <1>  -0.1430 
 17 C       -7.5050     4.2260    -1.3230 C.ar  1 <1>  -0.1500 
 18 C       -9.3510     6.0510    -0.3900 C.ar  1 <1>  -0.1500 
 19 C       -8.1200     6.3450     1.7790 C.3   1 <1>  -0.0970 
 20 C       -8.5860     4.5730    -2.1110 C.ar  1 <1>  -0.1500 
 21 C       -9.5120     5.4880    -1.6440 C.ar  1 <1>  -0.1500 
 22 H        0.9070     2.8670     1.7150 H     1 <1>   0.1500 
 23 H       -1.6620     2.3220    -2.4590 H     1 <1>   0.1500 
 24 H       -3.1220     0.6650     0.3230 H     1 <1>   0.0800 
 25 H       -3.4780     1.3670    -1.2390 H     1 <1>   0.0800 
 26 H        1.9190     3.4580    -0.4610 H     1 <1>   0.1500 
 27 H        0.6250     3.1790    -2.5280 H     1 <1>   0.1500 
 28 H       -3.5550     2.7970     1.3240 H     1 <1>   0.4500 
 29 H       -5.3210     1.1700     1.2650 H     1 <1>   0.0800 
 30 H       -5.8440     1.8160    -0.2660 H     1 <1>   0.0800 
 31 H       -4.4370     3.7270    -1.3350 H     1 <1>   0.0800 
 32 H       -3.0330     4.2900    -0.4740 H     1 <1>   0.0800 
 33 H       -5.9460     3.2060     2.4130 H     1 <1>   0.0800 
 34 H       -7.2840     2.7290     1.4140 H     1 <1>   0.0800 
 35 H       -5.0270     5.8080    -0.3130 H     1 <1>   0.0800 
 36 H       -4.4010     5.3180     1.2300 H     1 <1>   0.0800 
 37 H       -6.7940     3.5170    -1.6940 H     1 <1>   0.1500 
 38 H      -10.0790     6.7620    -0.0390 H     1 <1>   0.1500 
 39 H       -8.1310     5.5830     2.5360 H     1 <1>   0.0800 
 40 H       -8.9170     7.0380     1.9770 H     1 <1>   0.0800 
 41 H       -7.1860     6.8740     1.8340 H     1 <1>   0.0800 
 42 H       -8.7130     4.1360    -3.0860 H     1 <1>   0.1500 
 43 H      -10.3560     5.7620    -2.2530 H     1 <1>   0.1500 
@<TRIPOS>BOND
  1   1   2  1   
  2   2   3  ar  
  3   2   4  ar  
  4   3   5  ar  
  5   3   6  1   
  6   4   7  ar  
  7   4  22  1   
  8   5   8  ar  
  9   5  23  1   
 10   6   9  1   
 11   6  24  1   
 12   6  25  1   
 13   7   8  ar  
 14   7  26  1   
 15   8  27  1   
 16   9  10  1   
 17   9  11  1   
 18   9  28  1   
 19  10  12  1   
 20  10  29  1   
 21  10  30  1   
 22  11  13  1   
 23  11  31  1   
 24  11  32  1   
 25  12  14  1   
 26  12  33  1   
 27  12  34  1   
 28  13  14  1   
 29  13  35  1   
 30  13  36  1   
 31  14  15  1   
 32  15  16  ar  
 33  15  17  ar  
 34  16  18  ar  
 35  16  19  1   
 36  17  20  ar  
 37  17  37  1   
 38  18  21  ar  
 39  18  38  1   
 40  19  39  1   
 41  19  40  1   
 42  19  41  1   
 43  20  21  ar  
 44  20  42  1   
 45  21  43  1   
@<TRIPOS>SUBSTRUCTURE
  1 ****  11 GROUP 4 **** **** 0

# MOE 2024.06 (io_trps.svl 2023.06)
