@<TRIPOS>MOLECULE
NONAME
41 42 1 0 0 
SMALL
USER_CHARGES


@<TRIPOS>ATOM
  1 O        0.4530     1.0600     1.2240 O.2   1 <1>  -0.5700 
  2 C        0.4900     1.9270     0.3780 C.2   1 <1>   0.5690 
  3 N        1.6540     2.1910    -0.3120 N.am  1 <1>  -0.6600 
  4 C       -0.8100     2.7090     0.1270 C.3   1 <1>  -0.0190 
  5 C        2.8820     1.4060    -0.0050 C.3   1 <1>   0.1400 
  6 C        1.7600     3.0820    -1.4980 C.3   1 <1>   0.1400 
  7 C       -1.2030     3.5330     1.3690 C.3   1 <1>  -0.1600 
  8 C       -1.9630     1.7720    -0.2820 C.3   1 <1>  -0.1600 
  9 C        3.5810     1.9180     1.2580 C.3   1 <1>  -0.1600 
 10 C        1.9190     4.5540    -1.1020 C.3   1 <1>  -0.1600 
 11 C       -2.5050     4.3140     1.1400 C.3   1 <1>  -0.1600 
 12 C       -3.2670     2.5490    -0.5140 C.3   1 <1>  -0.1600 
 13 C        4.3800     3.2210     1.0890 C.3   1 <1>  -0.1600 
 14 C        3.2950     4.9280    -0.5280 C.3   1 <1>  -0.1600 
 15 C       -3.6460     3.3750     0.7230 C.3   1 <1>  -0.1600 
 16 C        3.5250     4.4900     0.9300 C.3   1 <1>  -0.1600 
 17 H       -0.6720     3.4010    -0.6770 H     1 <1>   0.0800 
 18 H        3.5670     1.4220    -0.8340 H     1 <1>   0.0800 
 19 H        2.5970     0.3790     0.1540 H     1 <1>   0.0800 
 20 H        0.8780     2.9650    -2.1030 H     1 <1>   0.0800 
 21 H        2.5930     2.7870    -2.1120 H     1 <1>   0.0800 
 22 H       -0.4090     4.2180     1.6110 H     1 <1>   0.0800 
 23 H       -1.3290     2.8700     2.2080 H     1 <1>   0.0800 
 24 H       -2.1200     1.0420     0.4950 H     1 <1>   0.0800 
 25 H       -1.6940     1.2410    -1.1780 H     1 <1>   0.0800 
 26 H        4.2740     1.1550     1.5640 H     1 <1>   0.0800 
 27 H        2.8630     2.0190     2.0540 H     1 <1>   0.0800 
 28 H        1.1440     4.8440    -0.4160 H     1 <1>   0.0800 
 29 H        1.7770     5.1350    -1.9950 H     1 <1>   0.0800 
 30 H       -2.3510     5.0510     0.3710 H     1 <1>   0.0800 
 31 H       -2.7780     4.8310     2.0430 H     1 <1>   0.0800 
 32 H       -4.0610     1.8590    -0.7420 H     1 <1>   0.0800 
 33 H       -3.1480     3.2060    -1.3580 H     1 <1>   0.0800 
 34 H        5.0800     3.1250     0.2780 H     1 <1>   0.0800 
 35 H        4.9630     3.3420     1.9860 H     1 <1>   0.0800 
 36 H        3.3580     6.0030    -0.5490 H     1 <1>   0.0800 
 37 H        4.0780     4.5630    -1.1700 H     1 <1>   0.0800 
 38 H       -4.5300     3.9520     0.5150 H     1 <1>   0.0800 
 39 H       -3.8710     2.7090     1.5380 H     1 <1>   0.0800 
 40 H        4.0600     5.2890     1.4150 H     1 <1>   0.0800 
 41 H        2.5900     4.3860     1.4540 H     1 <1>   0.0800 
@<TRIPOS>BOND
  1   1   2  2   
  2   2   3  am  
  3   2   4  1   
  4   3   5  1   
  5   3   6  1   
  6   4   7  1   
  7   4   8  1   
  8   4  17  1   
  9   5   9  1   
 10   5  18  1   
 11   5  19  1   
 12   6  10  1   
 13   6  20  1   
 14   6  21  1   
 15   7  11  1   
 16   7  22  1   
 17   7  23  1   
 18   8  12  1   
 19   8  24  1   
 20   8  25  1   
 21   9  13  1   
 22   9  26  1   
 23   9  27  1   
 24  10  14  1   
 25  10  28  1   
 26  10  29  1   
 27  11  15  1   
 28  11  30  1   
 29  11  31  1   
 30  12  15  1   
 31  12  32  1   
 32  12  33  1   
 33  13  16  1   
 34  13  34  1   
 35  13  35  1   
 36  14  16  1   
 37  14  36  1   
 38  14  37  1   
 39  15  38  1   
 40  15  39  1   
 41  16  40  1   
 42  16  41  1   
@<TRIPOS>SUBSTRUCTURE
  1 ****   2 GROUP 4 **** **** 0

# MOE 2024.06 (io_trps.svl 2023.06)
