@<TRIPOS>MOLECULE
NONAME
31 32 1 0 0 
SMALL
USER_CHARGES


@<TRIPOS>ATOM
  1 S       -0.2540     0.2220    -1.0780 S.o2  1 <1>   1.4470 
  2 O       -0.4480     0.1210    -2.5070 O.2   1 <1>  -0.6500 
  3 O        0.0430     1.5210    -0.5120 O.2   1 <1>  -0.6500 
  4 N        1.1310    -0.6970    -0.8200 N.am  1 <1>  -0.7890 
  5 C       -1.5620    -0.6950    -0.2140 C.ar  1 <1>  -0.0090 
  6 C        1.8100    -0.4420     0.4300 C.3   1 <1>   0.1310 
  7 C       -2.6730    -0.0430     0.3130 C.ar  1 <1>   0.0830 
  8 C       -1.4990    -2.0800    -0.0960 C.ar  1 <1>  -0.1500 
  9 C        2.7990    -1.4570     0.8890 C.3   1 <1>  -0.2000 
 10 C        1.4960    -1.2890     1.6160 C.3   1 <1>  -0.2000 
 11 O       -2.7510     1.3000     0.1480 O.3   1 <1>  -0.3630 
 12 C       -3.6660    -0.7650     0.9730 C.ar  1 <1>  -0.1500 
 13 C       -2.4810    -2.8040     0.5580 C.ar  1 <1>  -0.1430 
 14 C       -3.8060     2.0720     0.6750 C.3   1 <1>   0.0400 
 15 C       -3.5660    -2.1380     1.0950 C.ar  1 <1>  -0.1500 
 16 C       -2.3700    -4.3140     0.6750 C.3   1 <1>  -0.0970 
 17 H        1.7440    -0.3950    -1.5730 H     1 <1>   0.4200 
 18 H        2.0550     0.5990     0.5870 H     1 <1>   0.1000 
 19 H       -0.6620    -2.6030    -0.5250 H     1 <1>   0.1500 
 20 H        3.6970    -1.1270     1.3800 H     1 <1>   0.1000 
 21 H        2.9480    -2.3410     0.2960 H     1 <1>   0.1000 
 22 H        0.7610    -2.0690     1.5340 H     1 <1>   0.1000 
 23 H        1.5070    -0.8310     2.5900 H     1 <1>   0.1000 
 24 H       -4.5250    -0.2790     1.3930 H     1 <1>   0.1500 
 25 H       -3.6220     3.1020     0.4250 H     1 <1>   0.0800 
 26 H       -3.8260     1.9550     1.7440 H     1 <1>   0.0800 
 27 H       -4.7310     1.7490     0.2320 H     1 <1>   0.0800 
 28 H       -4.3390    -2.6850     1.6060 H     1 <1>   0.1500 
 29 H       -1.3380    -4.6140     0.7160 H     1 <1>   0.0800 
 30 H       -2.8330    -4.7800    -0.1760 H     1 <1>   0.0800 
 31 H       -2.8580    -4.6590     1.5690 H     1 <1>   0.0800 
@<TRIPOS>BOND
  1   1   2  2   
  2   1   3  2   
  3   1   4  am  
  4   1   5  1   
  5   4   6  1   
  6   4  17  1   
  7   5   7  ar  
  8   5   8  ar  
  9   6   9  1   
 10   6  10  1   
 11   6  18  1   
 12   7  11  1   
 13   7  12  ar  
 14   8  13  ar  
 15   8  19  1   
 16   9  10  1   
 17   9  20  1   
 18   9  21  1   
 19  10  22  1   
 20  10  23  1   
 21  11  14  1   
 22  12  15  ar  
 23  12  24  1   
 24  13  15  ar  
 25  13  16  1   
 26  14  25  1   
 27  14  26  1   
 28  14  27  1   
 29  15  28  1   
 30  16  29  1   
 31  16  30  1   
 32  16  31  1   
@<TRIPOS>SUBSTRUCTURE
  1 ****   5 GROUP 4 **** **** 0

# MOE 2024.06 (io_trps.svl 2023.06)
