@<TRIPOS>MOLECULE
NONAME
51 53 1 0 0 
SMALL
USER_CHARGES


@<TRIPOS>ATOM
  1 BR       1.4540     0.0470    -0.2650 Br    1 <1>  -0.1110 
  2 C        0.4440    -1.5780    -0.4680 C.ar  1 <1>   0.1110 
  3 C       -0.5670    -1.8460     0.4330 C.ar  1 <1>  -0.1500 
  4 C        0.7550    -2.4310    -1.5080 C.ar  1 <1>  -0.1500 
  5 C       -1.3010    -3.0140     0.2850 C.ar  1 <1>  -0.1440 
  6 C        0.0240    -3.5980    -1.6500 C.ar  1 <1>  -0.1500 
  7 C       -1.0050    -3.8930    -0.7550 C.ar  1 <1>   0.0830 
  8 C       -2.4220    -3.3410     1.2520 C.3   1 <1>   0.4870 
  9 O       -1.7630    -5.0170    -0.8460 O.3   1 <1>  -0.3630 
 10 N       -3.6380    -2.5930     0.8410 N.4   1 <1>  -0.9590 
 11 C       -1.4080    -6.0700    -1.7210 C.3   1 <1>   0.0400 
 12 C       -4.7060    -2.6160     1.9010 C.3   1 <1>   0.3430 
 13 C       -4.1850    -3.1210    -0.4620 C.3   1 <1>   0.3430 
 14 C       -5.9630    -1.8310     1.4760 C.3   1 <1>   0.2090 
 15 C       -5.4390    -2.3560    -0.9250 C.3   1 <1>   0.2090 
 16 N       -6.4760    -2.2960     0.1520 N.pl3 1 <1>  -0.8380 
 17 C       -7.6750    -1.6850    -0.2420 C.ar  1 <1>   0.1000 
 18 C       -7.7900    -0.3200    -0.5670 C.ar  1 <1>   0.0830 
 19 C       -8.8060    -2.4860    -0.3100 C.ar  1 <1>  -0.1500 
 20 O       -6.6660     0.4610    -0.4990 O.3   1 <1>  -0.3630 
 21 C       -9.0280     0.1940    -0.9450 C.ar  1 <1>  -0.1500 
 22 C      -10.0310    -1.9670    -0.6870 C.ar  1 <1>  -0.1500 
 23 C       -6.6860     1.8100    -0.9030 C.3   1 <1>   0.1200 
 24 C      -10.1410    -0.6260    -1.0050 C.ar  1 <1>  -0.1500 
 25 C       -5.2730     2.3660    -0.7590 C.3   1 <1>  -0.2400 
 26 H       -0.7570    -1.1460     1.2280 H     1 <1>   0.1500 
 27 H        1.5520    -2.1860    -2.1890 H     1 <1>   0.1500 
 28 H        0.2720    -4.2580    -2.4620 H     1 <1>   0.1500 
 29 H       -2.1250    -3.0500     2.2460 H     1 <1>   0.0800 
 30 H       -2.6160    -4.4010     1.2510 H     1 <1>   0.0800 
 31 H       -3.3650    -1.6170     0.6740 H     1 <1>   0.4500 
 32 H       -2.0900    -6.8870    -1.5620 H     1 <1>   0.0800 
 33 H       -0.4040    -6.3880    -1.5000 H     1 <1>   0.0800 
 34 H       -1.4850    -5.7270    -2.7380 H     1 <1>   0.0800 
 35 H       -4.3270    -2.1950     2.8170 H     1 <1>   0.0800 
 36 H       -4.9990    -3.6340     2.0970 H     1 <1>   0.0800 
 37 H       -4.4440    -4.1610    -0.3510 H     1 <1>   0.0800 
 38 H       -3.4330    -3.0530    -1.2320 H     1 <1>   0.0800 
 39 H       -5.7330    -0.7810     1.4330 H     1 <1>   0.0800 
 40 H       -6.7350    -1.9660     2.2140 H     1 <1>   0.0800 
 41 H       -5.8590    -2.8490    -1.7850 H     1 <1>   0.0800 
 42 H       -5.1590    -1.3620    -1.2230 H     1 <1>   0.0800 
 43 H       -8.7200    -3.5270    -0.0630 H     1 <1>   0.1500 
 44 H       -9.1560     1.2290    -1.1970 H     1 <1>   0.1500 
 45 H      -10.8960    -2.6050    -0.7330 H     1 <1>   0.1500 
 46 H       -7.3710     2.3470    -0.2690 H     1 <1>   0.0800 
 47 H       -7.0100     1.8560    -1.9280 H     1 <1>   0.0800 
 48 H      -11.0950    -0.2210    -1.2980 H     1 <1>   0.1500 
 49 H       -4.9520     2.3070     0.2650 H     1 <1>   0.0800 
 50 H       -5.2590     3.3980    -1.0620 H     1 <1>   0.0800 
 51 H       -4.5930     1.8190    -1.3870 H     1 <1>   0.0800 
@<TRIPOS>BOND
  1   1   2  1   
  2   2   3  ar  
  3   2   4  ar  
  4   3   5  ar  
  5   3  26  1   
  6   4   6  ar  
  7   4  27  1   
  8   5   7  ar  
  9   5   8  1   
 10   6   7  ar  
 11   6  28  1   
 12   7   9  1   
 13   8  10  1   
 14   8  29  1   
 15   8  30  1   
 16   9  11  1   
 17  10  12  1   
 18  10  13  1   
 19  10  31  1   
 20  11  32  1   
 21  11  33  1   
 22  11  34  1   
 23  12  14  1   
 24  12  35  1   
 25  12  36  1   
 26  13  15  1   
 27  13  37  1   
 28  13  38  1   
 29  14  16  1   
 30  14  39  1   
 31  14  40  1   
 32  15  16  1   
 33  15  41  1   
 34  15  42  1   
 35  16  17  1   
 36  17  18  ar  
 37  17  19  ar  
 38  18  20  1   
 39  18  21  ar  
 40  19  22  ar  
 41  19  43  1   
 42  20  23  1   
 43  21  24  ar  
 44  21  44  1   
 45  22  24  ar  
 46  22  45  1   
 47  23  25  1   
 48  23  46  1   
 49  23  47  1   
 50  24  48  1   
 51  25  49  1   
 52  25  50  1   
 53  25  51  1   
@<TRIPOS>SUBSTRUCTURE
  1 ****  13 GROUP 4 **** **** 0

# MOE 2024.06 (io_trps.svl 2023.06)
