@<TRIPOS>MOLECULE
NONAME
37 39 1 0 0 
SMALL
USER_CHARGES


@<TRIPOS>ATOM
  1 S       -0.0350    -0.2810    -0.1150 S.3   1 <1>  -0.0800 
  2 C       -1.0550     1.1410    -0.0650 C.2   1 <1>   0.1240 
  3 C        1.3990     0.7390    -0.0370 C.2   1 <1>  -0.1400 
  4 N       -2.4080     1.1360    -0.0870 N.pl3 1 <1>  -0.5340 
  5 C       -0.3440     2.2940     0.0020 C.2   1 <1>  -0.0860 
  6 C        1.0750     2.0420     0.0080 C.2   1 <1>  -0.1810 
  7 C        2.7800     0.1240    -0.0280 C.3   1 <1>   0.0200 
  8 C       -3.0400     2.3320    -0.0370 C.2   1 <1>   0.6410 
  9 C       -1.1070     3.5060     0.0570 C.2   1 <1>   0.8670 
 10 C        2.1430     3.1240     0.0660 C.3   1 <1>   0.0210 
 11 C        3.8070     1.2000     0.3720 C.3   1 <1>  -0.1600 
 12 S       -4.8080     2.2160    -0.0730 S.3   1 <1>  -0.3710 
 13 N       -2.4800     3.4850     0.0320 N.2   1 <1>  -0.6610 
 14 O       -0.5650     4.5990     0.1290 O.2   1 <1>  -0.5700 
 15 C        3.5310     2.5560    -0.3150 C.3   1 <1>  -0.0800 
 16 C       -5.3760     3.9720     0.0090 C.3   1 <1>   0.0700 
 17 C        4.6370     3.5650     0.0190 C.3   1 <1>  -0.2400 
 18 C       -6.9050     3.9770    -0.0160 C.3   1 <1>  -0.1600 
 19 C       -7.4560     5.4050     0.0480 C.3   1 <1>  -0.2400 
 20 H       -2.9600     0.2790    -0.1380 H     1 <1>   0.4000 
 21 H        3.0000    -0.2510    -1.0120 H     1 <1>   0.0800 
 22 H        2.8170    -0.6950     0.6690 H     1 <1>   0.0800 
 23 H        2.1660     3.5270     1.0630 H     1 <1>   0.0800 
 24 H        1.8920     3.9220    -0.6110 H     1 <1>   0.0800 
 25 H        4.7950     0.8510     0.1230 H     1 <1>   0.0800 
 26 H        3.7650     1.3370     1.4390 H     1 <1>   0.0800 
 27 H        3.5370     2.3930    -1.3800 H     1 <1>   0.0800 
 28 H       -4.9600     4.4850    -0.8410 H     1 <1>   0.0800 
 29 H       -4.9890     4.3940     0.9200 H     1 <1>   0.0800 
 30 H        4.6770     3.7470     1.0780 H     1 <1>   0.0800 
 31 H        4.4540     4.4980    -0.4840 H     1 <1>   0.0800 
 32 H        5.5930     3.1910    -0.3020 H     1 <1>   0.0800 
 33 H       -7.2760     3.4130     0.8220 H     1 <1>   0.0800 
 34 H       -7.2470     3.5030    -0.9200 H     1 <1>   0.0800 
 35 H       -7.1390     5.8910     0.9550 H     1 <1>   0.0800 
 36 H       -8.5320     5.3860     0.0290 H     1 <1>   0.0800 
 37 H       -7.1100     5.9800    -0.7930 H     1 <1>   0.0800 
@<TRIPOS>BOND
  1   1   2  1   
  2   1   3  1   
  3   2   4  1   
  4   2   5  2   
  5   3   6  2   
  6   3   7  1   
  7   4   8  1   
  8   4  20  1   
  9   5   6  1   
 10   5   9  1   
 11   6  10  1   
 12   7  11  1   
 13   7  21  1   
 14   7  22  1   
 15   8  12  1   
 16   8  13  2   
 17   9  13  1   
 18   9  14  2   
 19  10  15  1   
 20  10  23  1   
 21  10  24  1   
 22  11  15  1   
 23  11  25  1   
 24  11  26  1   
 25  12  16  1   
 26  15  17  1   
 27  15  27  1   
 28  16  18  1   
 29  16  28  1   
 30  16  29  1   
 31  17  30  1   
 32  17  31  1   
 33  17  32  1   
 34  18  19  1   
 35  18  33  1   
 36  18  34  1   
 37  19  35  1   
 38  19  36  1   
 39  19  37  1   
@<TRIPOS>SUBSTRUCTURE
  1 ****   5 GROUP 4 **** **** 0

# MOE 2024.06 (io_trps.svl 2023.06)
