@<TRIPOS>MOLECULE
NONAME
28 28 1 0 0 
SMALL
USER_CHARGES


@<TRIPOS>ATOM
  1 O        0.1350     0.4590     0.5140 O.2   1 <1>  -0.5700 
  2 C        0.2780     1.5770     0.0780 C.2   1 <1>   0.6590 
  3 O        1.4740     2.1290    -0.1680 O.3   1 <1>  -0.0870 
  4 C       -0.9200     2.4830    -0.2300 C.3   1 <1>  -0.0190 
  5 N        2.6410     1.4890     0.0040 N.2   1 <1>  -0.5130 
  6 C       -1.1830     3.4690     0.9210 C.3   1 <1>  -0.2400 
  7 C       -2.2060     1.6950    -0.5410 C.3   1 <1>  -0.2400 
  8 C        3.7210     2.1440    -0.1840 C.2   1 <1>   0.4140 
  9 N        3.6660     3.4830    -0.5190 N.pl3 1 <1>  -0.8500 
 10 C        5.0260     1.5280    -0.0270 C.ar  1 <1>   0.0860 
 11 C        6.1750     2.0090    -0.6430 C.ar  1 <1>  -0.1500 
 12 C        5.2230     0.3990     0.7570 C.ar  1 <1>  -0.1500 
 13 C        7.3920     1.3850    -0.4440 C.ar  1 <1>   0.1600 
 14 C        6.4820    -0.1530     0.8930 C.ar  1 <1>   0.1600 
 15 N        7.5750     0.3180     0.3140 N.ar  1 <1>  -0.6200 
 16 H       -0.6690     3.0510    -1.1080 H     1 <1>   0.0800 
 17 H       -1.4380     2.9320     1.8190 H     1 <1>   0.0800 
 18 H       -1.9950     4.1300     0.6730 H     1 <1>   0.0800 
 19 H       -0.3070     4.0620     1.1160 H     1 <1>   0.0800 
 20 H       -2.5110     1.1200     0.3160 H     1 <1>   0.0800 
 21 H       -2.0350     1.0170    -1.3590 H     1 <1>   0.0800 
 22 H       -3.0050     2.3630    -0.8120 H     1 <1>   0.0800 
 23 H        2.7170     3.8490    -0.4370 H     1 <1>   0.4000 
 24 H        4.3430     4.0710    -0.0320 H     1 <1>   0.4000 
 25 H        6.1210     2.8660    -1.2880 H     1 <1>   0.1500 
 26 H        4.3870    -0.0510     1.2630 H     1 <1>   0.1500 
 27 H        8.2640     1.7820    -0.9370 H     1 <1>   0.1500 
 28 H        6.5990    -1.0280     1.5100 H     1 <1>   0.1500 
@<TRIPOS>BOND
  1   1   2  2   
  2   2   3  1   
  3   2   4  1   
  4   3   5  1   
  5   4   6  1   
  6   4   7  1   
  7   4  16  1   
  8   5   8  2   
  9   6  17  1   
 10   6  18  1   
 11   6  19  1   
 12   7  20  1   
 13   7  21  1   
 14   7  22  1   
 15   8   9  1   
 16   8  10  1   
 17   9  23  1   
 18   9  24  1   
 19  10  11  ar  
 20  10  12  ar  
 21  11  13  ar  
 22  11  25  1   
 23  12  14  ar  
 24  12  26  1   
 25  13  15  ar  
 26  13  27  1   
 27  14  15  ar  
 28  14  28  1   
@<TRIPOS>SUBSTRUCTURE
  1 ****   5 GROUP 4 **** **** 0

# MOE 2024.06 (io_trps.svl 2023.06)
