@<TRIPOS>MOLECULE
NONAME
41 42 1 0 0 
SMALL
USER_CHARGES


@<TRIPOS>ATOM
  1 O       -8.4040     0.9600     0.6510 O.3   1 <1>  -0.3630 
  2 C       -9.5960     1.5860     0.4860 C.ar  1 <1>   0.0830 
  3 C       -7.2850     1.2990    -0.1280 C.3   1 <1>   0.1200 
  4 C       -9.8230     2.5960    -0.4460 C.ar  1 <1>  -0.1500 
  5 C      -10.6330     1.1740     1.3060 C.ar  1 <1>  -0.1500 
  6 C       -6.1350     0.4010     0.3290 C.3   1 <1>   0.3430 
  7 C      -11.0750     3.1790    -0.5430 C.ar  1 <1>  -0.1500 
  8 C      -11.8820     1.7600     1.2050 C.ar  1 <1>  -0.1500 
  9 N       -4.8760     0.6750    -0.4290 N.4   1 <1>  -0.9060 
 10 C      -12.1130     2.7670     0.2800 C.ar  1 <1>  -0.1430 
 11 C       -3.7630    -0.1930     0.0160 C.3   1 <1>   0.3430 
 12 C      -13.4900     3.4140     0.1780 C.3   1 <1>   0.1270 
 13 C       -2.5330     0.1570    -0.8070 C.3   1 <1>  -0.2400 
 14 C      -14.6010     2.3840     0.0110 C.ar  1 <1>  -0.1430 
 15 C      -15.6830     2.3640     0.8800 C.ar  1 <1>  -0.1500 
 16 C      -14.5440     1.4570    -1.0190 C.ar  1 <1>  -0.1500 
 17 C      -16.6930     1.4300     0.7210 C.ar  1 <1>  -0.1500 
 18 C      -15.5520     0.5230    -1.1800 C.ar  1 <1>  -0.1500 
 19 C      -16.6280     0.5090    -0.3100 C.ar  1 <1>  -0.1500 
 20 H       -7.0620     2.3380     0.0450 H     1 <1>   0.0800 
 21 H       -7.5330     1.1210    -1.1600 H     1 <1>   0.0800 
 22 H       -9.0510     2.9450    -1.1020 H     1 <1>   0.1500 
 23 H      -10.4640     0.3930     2.0250 H     1 <1>   0.1500 
 24 H       -6.4260    -0.6280     0.1880 H     1 <1>   0.0800 
 25 H       -5.9670     0.5670     1.3810 H     1 <1>   0.0800 
 26 H      -11.2390     3.9590    -1.2670 H     1 <1>   0.1500 
 27 H      -12.6800     1.4270     1.8470 H     1 <1>   0.1500 
 28 H       -4.5960     1.6570    -0.3080 H     1 <1>   0.4500 
 29 H       -5.0280     0.5260    -1.4350 H     1 <1>   0.4500 
 30 H       -4.0170    -1.2310    -0.1300 H     1 <1>   0.0800 
 31 H       -3.5600    -0.0320     1.0640 H     1 <1>   0.0800 
 32 H      -13.5220     4.0860    -0.6600 H     1 <1>   0.0800 
 33 H      -13.6590     3.9970     1.0660 H     1 <1>   0.0800 
 34 H       -2.7040    -0.0210    -1.8540 H     1 <1>   0.0800 
 35 H       -1.7120    -0.4650    -0.4970 H     1 <1>   0.0800 
 36 H       -2.2440     1.1830    -0.6550 H     1 <1>   0.0800 
 37 H      -15.7470     3.0730     1.6860 H     1 <1>   0.1500 
 38 H      -13.7080     1.4580    -1.6970 H     1 <1>   0.1500 
 39 H      -17.5280     1.4200     1.3980 H     1 <1>   0.1500 
 40 H      -15.4980    -0.1940    -1.9800 H     1 <1>   0.1500 
 41 H      -17.4120    -0.2170    -0.4340 H     1 <1>   0.1500 
@<TRIPOS>BOND
  1   1   2  1   
  2   1   3  1   
  3   2   4  ar  
  4   2   5  ar  
  5   3   6  1   
  6   3  20  1   
  7   3  21  1   
  8   4   7  ar  
  9   4  22  1   
 10   5   8  ar  
 11   5  23  1   
 12   6   9  1   
 13   6  24  1   
 14   6  25  1   
 15   7  10  ar  
 16   7  26  1   
 17   8  10  ar  
 18   8  27  1   
 19   9  11  1   
 20   9  28  1   
 21   9  29  1   
 22  10  12  1   
 23  11  13  1   
 24  11  30  1   
 25  11  31  1   
 26  12  14  1   
 27  12  32  1   
 28  12  33  1   
 29  13  34  1   
 30  13  35  1   
 31  13  36  1   
 32  14  15  ar  
 33  14  16  ar  
 34  15  17  ar  
 35  15  37  1   
 36  16  18  ar  
 37  16  38  1   
 38  17  19  ar  
 39  17  39  1   
 40  18  19  ar  
 41  18  40  1   
 42  19  41  1   
@<TRIPOS>SUBSTRUCTURE
  1 ****   2 GROUP 4 **** **** 0

# MOE 2024.06 (io_trps.svl 2023.06)
