@<TRIPOS>MOLECULE
Structure2536
26 27 1 0 0 
SMALL
USER_CHARGES


@<TRIPOS>ATOM
  1 F       -0.3970    -0.3370     1.5520 F     1 <1>  -0.1900 
  2 C       -1.5440    -0.8260     1.1620 C.ar  1 <1>   0.1900 
  3 C       -2.1290    -0.3180     0.0180 C.ar  1 <1>  -0.1500 
  4 C       -2.1280    -1.8320     1.9080 C.ar  1 <1>  -0.1500 
  5 C       -3.3480    -0.8330    -0.3940 C.ar  1 <1>  -0.1500 
  6 C       -3.3460    -2.3410     1.4900 C.ar  1 <1>  -0.1500 
  7 C       -3.9640    -1.8420     0.3500 C.ar  1 <1>   0.0830 
  8 O       -5.1660    -2.3850     0.0310 O.3   1 <1>  -0.3630 
  9 C       -6.0490    -1.7730    -0.8870 C.3   1 <1>   0.2000 
 10 C       -6.6550    -0.5360    -0.2260 C.3   1 <1>   0.3430 
 11 C       -7.2540    -2.6910    -1.0210 C.3   1 <1>  -0.1600 
 12 N       -7.6600    -1.0790     0.7340 N.4   1 <1>  -0.9060 
 13 C       -8.1020    -2.4090     0.2190 C.3   1 <1>   0.3430 
 14 H       -1.6310     0.4590    -0.5350 H     1 <1>   0.1500 
 15 H       -1.6350    -2.2050     2.7880 H     1 <1>   0.1500 
 16 H       -3.7810    -0.4410    -1.2940 H     1 <1>   0.1500 
 17 H       -3.8160    -3.1300     2.0500 H     1 <1>   0.1500 
 18 H       -5.5460    -1.5940    -1.8220 H     1 <1>   0.0800 
 19 H       -7.1520     0.0580    -0.9760 H     1 <1>   0.0800 
 20 H       -5.9030     0.0600     0.2640 H     1 <1>   0.0800 
 21 H       -6.9720    -3.7270    -1.0940 H     1 <1>   0.0800 
 22 H       -7.8180    -2.4290    -1.8990 H     1 <1>   0.0800 
 23 H       -8.4450    -0.4350     0.8900 H     1 <1>   0.4500 
 24 H       -7.1850    -1.2300     1.6360 H     1 <1>   0.4500 
 25 H       -7.9200    -3.1680     0.9650 H     1 <1>   0.0800 
 26 H       -9.1510    -2.4050    -0.0310 H     1 <1>   0.0800 
@<TRIPOS>BOND
  1   1   2  1   
  2   2   3  ar  
  3   2   4  ar  
  4   3   5  ar  
  5   3  14  1   
  6   4   6  ar  
  7   4  15  1   
  8   5   7  ar  
  9   5  16  1   
 10   6   7  ar  
 11   6  17  1   
 12   7   8  1   
 13   8   9  1   
 14   9  10  1   
 15   9  11  1   
 16   9  18  1   
 17  10  12  1   
 18  10  19  1   
 19  10  20  1   
 20  11  13  1   
 21  11  21  1   
 22  11  22  1   
 23  12  13  1   
 24  12  23  1   
 25  12  24  1   
 26  13  25  1   
 27  13  26  1   
@<TRIPOS>SUBSTRUCTURE
  1 ****   7 GROUP 4 **** **** 0

# MOE 2024.06 (io_trps.svl 2023.06)
