@<TRIPOS>MOLECULE
NONAME
38 39 1 0 0 
SMALL
USER_CHARGES


@<TRIPOS>ATOM
  1 S        1.2050    -1.3810     0.1180 S.3   1 <1>  -0.2860 
  2 C       -0.5490    -1.7460    -0.0070 C.2   1 <1>   0.2420 
  3 C        1.2060     0.3630     0.7690 C.3   1 <1>   0.1310 
  4 N       -1.4690    -0.8930     0.2660 N.2   1 <1>  -0.3380 
  5 N       -1.0160    -2.9330    -0.3920 N.pl3 1 <1>   0.0480 
  6 C        2.6170     0.9190     0.8800 C.2   1 <1>   0.5690 
  7 N       -2.6240    -1.5310     0.0580 N.2   1 <1>  -0.3380 
  8 C       -2.3430    -2.7350    -0.3270 C.2   1 <1>   0.0060 
  9 C       -0.2540    -4.1410    -0.7690 C.3   1 <1>   0.0160 
 10 O        2.8060     1.8280     1.6500 O.2   1 <1>  -0.5700 
 11 N        3.6040     0.3670     0.1050 N.am  1 <1>  -0.5470 
 12 C       -3.3670    -3.8120    -0.6710 C.3   1 <1>   0.0200 
 13 C        4.9640     0.6810    -0.0330 C.ar  1 <1>   0.1170 
 14 C       -4.8140    -3.3820    -0.4000 C.3   1 <1>  -0.2400 
 15 C        5.8220    -0.2850    -0.5450 C.ar  1 <1>  -0.1500 
 16 C        5.4940     1.9220     0.3040 C.ar  1 <1>  -0.1500 
 17 C        7.1820    -0.0410    -0.7160 C.ar  1 <1>  -0.1430 
 18 C        6.8400     2.1840     0.1400 C.ar  1 <1>  -0.1500 
 19 C        7.6800     1.2090    -0.3680 C.ar  1 <1>  -0.1500 
 20 C        8.1250    -1.1140    -1.2830 C.3   1 <1>   1.1630 
 21 F        9.2870    -1.1610    -0.6430 F     1 <1>  -0.3400 
 22 F        7.6170    -2.3400    -1.2200 F     1 <1>  -0.3400 
 23 F        8.4110    -0.8970    -2.5600 F     1 <1>  -0.3400 
 24 H        0.7330     0.3430     1.7330 H     1 <1>   0.0800 
 25 H        0.6230     0.9590     0.0920 H     1 <1>   0.0800 
 26 H        0.6450    -3.8530    -1.2830 H     1 <1>   0.0800 
 27 H       -0.8460    -4.7600    -1.4160 H     1 <1>   0.0800 
 28 H        0.0020    -4.6880     0.1200 H     1 <1>   0.0800 
 29 H        3.2980    -0.4560    -0.4150 H     1 <1>   0.3700 
 30 H       -3.1560    -4.6920    -0.0890 H     1 <1>   0.0800 
 31 H       -3.2700    -4.0650    -1.7110 H     1 <1>   0.0800 
 32 H       -4.9390    -3.1320     0.6390 H     1 <1>   0.0800 
 33 H       -5.4940    -4.1760    -0.6500 H     1 <1>   0.0800 
 34 H       -5.0610    -2.5170    -0.9910 H     1 <1>   0.0800 
 35 H        5.4120    -1.2440    -0.8090 H     1 <1>   0.1500 
 36 H        4.8560     2.6930     0.6960 H     1 <1>   0.1500 
 37 H        7.2340     3.1500     0.4080 H     1 <1>   0.1500 
 38 H        8.7280     1.4340    -0.4900 H     1 <1>   0.1500 
@<TRIPOS>BOND
  1   1   2  1   
  2   1   3  1   
  3   2   4  2   
  4   2   5  1   
  5   3   6  1   
  6   3  24  1   
  7   3  25  1   
  8   4   7  1   
  9   5   8  1   
 10   5   9  1   
 11   6  10  2   
 12   6  11  am  
 13   7   8  2   
 14   8  12  1   
 15   9  26  1   
 16   9  27  1   
 17   9  28  1   
 18  11  13  1   
 19  11  29  1   
 20  12  14  1   
 21  12  30  1   
 22  12  31  1   
 23  13  15  ar  
 24  13  16  ar  
 25  14  32  1   
 26  14  33  1   
 27  14  34  1   
 28  15  17  ar  
 29  15  35  1   
 30  16  18  ar  
 31  16  36  1   
 32  17  19  ar  
 33  17  20  1   
 34  18  19  ar  
 35  18  37  1   
 36  19  38  1   
 37  20  21  1   
 38  20  22  1   
 39  20  23  1   
@<TRIPOS>SUBSTRUCTURE
  1 ****  11 GROUP 4 **** **** 0

# MOE 2024.06 (io_trps.svl 2023.06)
