@<TRIPOS>MOLECULE
NONAME
44 45 1 0 0 
SMALL
USER_CHARGES


@<TRIPOS>ATOM
  1 BR      -0.1660     0.7090     0.8730 Br    1 <1>  -0.1110 
  2 C       -2.0470     0.5070     0.5430 C.ar  1 <1>   0.1110 
  3 C       -2.6660    -0.6770     0.8910 C.ar  1 <1>  -0.1500 
  4 C       -2.7410     1.5510    -0.0370 C.ar  1 <1>  -0.1500 
  5 C       -4.0220    -0.8100     0.6500 C.ar  1 <1>  -0.1500 
  6 C       -4.0960     1.3980    -0.2720 C.ar  1 <1>  -0.1500 
  7 C       -4.7720     0.2190     0.0690 C.ar  1 <1>   0.0860 
  8 C       -6.1980     0.0530    -0.1660 C.2   1 <1>   0.5440 
  9 O       -6.7140    -1.0480    -0.1690 O.2   1 <1>  -0.5700 
 10 N       -7.0110     1.1260    -0.3800 N.am  1 <1>  -0.7300 
 11 C       -8.4870     1.0500    -0.5680 C.3   1 <1>   0.2010 
 12 C       -9.1770     2.4190    -0.4890 C.2   1 <1>   0.5690 
 13 O       -8.4780     3.3970    -0.3290 O.2   1 <1>  -0.5700 
 14 N      -10.5440     2.5250    -0.5960 N.am  1 <1>  -0.6600 
 15 C      -11.4940     1.3780    -0.7560 C.3   1 <1>   0.1400 
 16 C      -11.2300     3.8550    -0.5110 C.3   1 <1>   0.1400 
 17 C      -12.5490     1.3760     0.3640 C.3   1 <1>   0.1400 
 18 C      -12.2830     3.8600     0.6080 C.3   1 <1>   0.1400 
 19 N      -13.2190     2.7060     0.4600 N.am  1 <1>  -0.6600 
 20 C      -14.5720     2.8840     0.3460 C.2   1 <1>   0.7800 
 21 O      -15.0940     3.9820     0.3810 O.2   1 <1>  -0.5700 
 22 O      -15.3300     1.7980     0.1850 O.3   1 <1>  -0.4300 
 23 C      -16.7290     1.9050     0.0630 C.3   1 <1>   0.1200 
 24 C      -17.2980     0.5010    -0.1140 C.3   1 <1>  -0.2400 
 25 H       -2.0980    -1.4730     1.3390 H     1 <1>   0.1500 
 26 H       -2.2290     2.4590    -0.3000 H     1 <1>   0.1500 
 27 H       -4.5170    -1.7290     0.9150 H     1 <1>   0.1500 
 28 H       -4.6340     2.2080    -0.7330 H     1 <1>   0.1500 
 29 H       -6.6770     2.0880    -0.2550 H     1 <1>   0.3700 
 30 H       -8.8960     0.4080     0.1910 H     1 <1>   0.0800 
 31 H       -8.6880     0.6130    -1.5300 H     1 <1>   0.0800 
 32 H      -10.9770     0.4370    -0.7500 H     1 <1>   0.0800 
 33 H      -11.9950     1.4700    -1.7040 H     1 <1>   0.0800 
 34 H      -11.7120     4.0640    -1.4500 H     1 <1>   0.0800 
 35 H      -10.5200     4.6420    -0.3270 H     1 <1>   0.0800 
 36 H      -12.0710     1.1580     1.3030 H     1 <1>   0.0800 
 37 H      -13.2660     0.5980     0.1720 H     1 <1>   0.0800 
 38 H      -12.8210     4.7920     0.5810 H     1 <1>   0.0800 
 39 H      -11.7880     3.7940     1.5610 H     1 <1>   0.0800 
 40 H      -16.9520     2.5240    -0.7910 H     1 <1>   0.0800 
 41 H      -17.1140     2.3690     0.9560 H     1 <1>   0.0800 
 42 H      -16.8960     0.0470    -1.0020 H     1 <1>   0.0800 
 43 H      -18.3670     0.5530    -0.2110 H     1 <1>   0.0800 
 44 H      -17.0610    -0.1060     0.7420 H     1 <1>   0.0800 
@<TRIPOS>BOND
  1   1   2  1   
  2   2   3  ar  
  3   2   4  ar  
  4   3   5  ar  
  5   3  25  1   
  6   4   6  ar  
  7   4  26  1   
  8   5   7  ar  
  9   5  27  1   
 10   6   7  ar  
 11   6  28  1   
 12   7   8  1   
 13   8   9  2   
 14   8  10  am  
 15  10  11  1   
 16  10  29  1   
 17  11  12  1   
 18  11  30  1   
 19  11  31  1   
 20  12  13  2   
 21  12  14  am  
 22  14  15  1   
 23  14  16  1   
 24  15  17  1   
 25  15  32  1   
 26  15  33  1   
 27  16  18  1   
 28  16  34  1   
 29  16  35  1   
 30  17  19  1   
 31  17  36  1   
 32  17  37  1   
 33  18  19  1   
 34  18  38  1   
 35  18  39  1   
 36  19  20  am  
 37  20  21  2   
 38  20  22  1   
 39  22  23  1   
 40  23  24  1   
 41  23  40  1   
 42  23  41  1   
 43  24  42  1   
 44  24  43  1   
 45  24  44  1   
@<TRIPOS>SUBSTRUCTURE
  1 ****  11 GROUP 4 **** **** 0

# MOE 2024.06 (io_trps.svl 2023.06)
