@<TRIPOS>MOLECULE
NONAME
33 34 1 0 0 
SMALL
USER_CHARGES


@<TRIPOS>ATOM
  1 O       -0.9010     0.0490     0.4630 O.2   1 <1>  -0.5700 
  2 C       -1.8680     0.7490     0.3210 C.2   1 <1>   0.6590 
  3 O       -3.0650     0.2460     0.5810 O.3   1 <1>  -0.4300 
  4 C       -1.7190     2.2110    -0.1380 C.3   1 <1>   0.1220 
  5 C       -4.2710     0.9580     0.4510 C.3   1 <1>   0.3800 
  6 C       -3.0610     2.7780    -0.6210 C.2   1 <1>   0.4480 
  7 C       -0.6930     2.3150    -1.2920 C.3   1 <1>  -0.2400 
  8 C       -1.1910     3.0500     1.0500 C.3   1 <1>  -0.2400 
  9 C       -5.4280    -0.0330     0.5390 C.2   1 <1>  -0.0400 
 10 C       -4.2400     1.8220    -0.8290 C.3   1 <1>   0.0610 
 11 O       -3.1810     3.9540    -0.8150 O.2   1 <1>  -0.5700 
 12 O       -5.5100    -1.0400    -0.3130 O.3   1 <1>  -0.2800 
 13 C       -6.4650    -0.0700     1.4060 C.2   1 <1>  -0.1500 
 14 C       -4.0410     1.0120    -2.1340 C.3   1 <1>  -0.2400 
 15 C       -5.5740     2.5970    -0.9670 C.3   1 <1>  -0.2400 
 16 C       -6.5890    -1.7330    -0.0120 C.2   1 <1>  -0.0100 
 17 C       -7.2280    -1.1860     1.0430 C.2   1 <1>  -0.1500 
 18 H       -4.3370     1.6100     1.3050 H     1 <1>   0.0800 
 19 H       -1.0060     1.7200    -2.1310 H     1 <1>   0.0800 
 20 H        0.2740     1.9650    -0.9730 H     1 <1>   0.0800 
 21 H       -0.5940     3.3370    -1.6170 H     1 <1>   0.0800 
 22 H       -1.8910     3.0300     1.8660 H     1 <1>   0.0800 
 23 H       -1.0430     4.0750     0.7550 H     1 <1>   0.0800 
 24 H       -0.2510     2.6580     1.3980 H     1 <1>   0.0800 
 25 H       -6.6930     0.5950     2.2200 H     1 <1>   0.1500 
 26 H       -3.8950     1.6810    -2.9640 H     1 <1>   0.0800 
 27 H       -3.1910     0.3570    -2.0740 H     1 <1>   0.0800 
 28 H       -4.9060     0.4090    -2.3450 H     1 <1>   0.0800 
 29 H       -5.7580     3.1980    -0.0940 H     1 <1>   0.0800 
 30 H       -6.4030     1.9240    -1.1000 H     1 <1>   0.0800 
 31 H       -5.5390     3.2530    -1.8200 H     1 <1>   0.0800 
 32 H       -6.8260    -2.6030    -0.6000 H     1 <1>   0.1500 
 33 H       -8.1300    -1.5140     1.5270 H     1 <1>   0.1500 
@<TRIPOS>BOND
  1   1   2  2   
  2   2   3  1   
  3   2   4  1   
  4   3   5  1   
  5   4   6  1   
  6   4   7  1   
  7   4   8  1   
  8   5   9  1   
  9   5  10  1   
 10   5  18  1   
 11   6  10  1   
 12   6  11  2   
 13   7  19  1   
 14   7  20  1   
 15   7  21  1   
 16   8  22  1   
 17   8  23  1   
 18   8  24  1   
 19   9  12  1   
 20   9  13  2   
 21  10  14  1   
 22  10  15  1   
 23  12  16  1   
 24  13  17  1   
 25  13  25  1   
 26  14  26  1   
 27  14  27  1   
 28  14  28  1   
 29  15  29  1   
 30  15  30  1   
 31  15  31  1   
 32  16  17  2   
 33  16  32  1   
 34  17  33  1   
@<TRIPOS>SUBSTRUCTURE
  1 ****   5 GROUP 4 **** **** 0

# MOE 2024.06 (io_trps.svl 2023.06)
