@<TRIPOS>MOLECULE
NONAME
44 45 1 0 0 
SMALL
USER_CHARGES


@<TRIPOS>ATOM
  1 O        0.2180    -0.7560    -0.6770 O.3   1 <1>  -0.3630 
  2 C       -1.0370    -1.0730    -0.2880 C.ar  1 <1>   0.0830 
  3 C        1.1850    -0.7560     0.3390 C.3   1 <1>   0.1200 
  4 C       -1.4500    -2.4030    -0.3100 C.ar  1 <1>  -0.1440 
  5 C       -1.9040    -0.0640     0.1250 C.ar  1 <1>  -0.1440 
  6 C        2.5170    -0.3660    -0.3000 C.3   1 <1>  -0.1600 
  7 C       -2.7270    -2.7190     0.1240 C.ar  1 <1>  -0.1500 
  8 C       -0.5380    -3.5160    -0.8070 C.3   1 <1>  -0.0960 
  9 C       -3.1760    -0.4040     0.5550 C.ar  1 <1>  -0.1500 
 10 C       -1.4940     1.4020     0.1080 C.3   1 <1>  -0.0970 
 11 C        3.6250    -0.3280     0.7500 C.3   1 <1>   0.3430 
 12 C       -3.5850    -1.7250     0.5590 C.ar  1 <1>  -0.1500 
 13 N        4.9410    -0.0600     0.1070 N.4   1 <1>  -0.9590 
 14 C        6.0580    -0.3920     1.0410 C.3   1 <1>   0.3430 
 15 C        5.0560     1.3430    -0.3990 C.3   1 <1>   0.3430 
 16 C        7.3970    -0.2610     0.3130 C.3   1 <1>  -0.1600 
 17 C        6.3750     1.5140    -1.1550 C.3   1 <1>  -0.1600 
 18 C        7.5820     1.1390    -0.2870 C.3   1 <1>  -0.1600 
 19 H        1.2240    -1.7420     0.7680 H     1 <1>   0.0800 
 20 H        0.8830    -0.0460     1.0900 H     1 <1>   0.0800 
 21 H        2.3960     0.6000    -0.7550 H     1 <1>   0.0800 
 22 H        2.7550    -1.0940    -1.0550 H     1 <1>   0.0800 
 23 H       -3.0630    -3.7410     0.1240 H     1 <1>   0.1500 
 24 H        0.1440    -3.8080    -0.0300 H     1 <1>   0.0800 
 25 H        0.0220    -3.1840    -1.6630 H     1 <1>   0.0800 
 26 H       -1.1150    -4.3760    -1.1000 H     1 <1>   0.0800 
 27 H       -3.8590     0.3590     0.8860 H     1 <1>   0.1500 
 28 H       -0.9090     1.6130    -0.7690 H     1 <1>   0.0800 
 29 H       -0.9150     1.6320     0.9820 H     1 <1>   0.0800 
 30 H       -2.3610     2.0380     0.0910 H     1 <1>   0.0800 
 31 H        3.6580    -1.2820     1.2510 H     1 <1>   0.0800 
 32 H        3.4100     0.4310     1.4860 H     1 <1>   0.0800 
 33 H       -4.5750    -1.9800     0.8950 H     1 <1>   0.1500 
 34 H        5.0340    -0.6830    -0.7060 H     1 <1>   0.4500 
 35 H        5.9480    -1.4010     1.4060 H     1 <1>   0.0800 
 36 H        6.0410     0.2790     1.8850 H     1 <1>   0.0800 
 37 H        5.0240     2.0340     0.4290 H     1 <1>   0.0800 
 38 H        4.2380     1.5710    -1.0620 H     1 <1>   0.0800 
 39 H        7.4590    -1.0050    -0.4620 H     1 <1>   0.0800 
 40 H        8.1960    -0.4570     1.0090 H     1 <1>   0.0800 
 41 H        6.4690     2.5390    -1.4700 H     1 <1>   0.0800 
 42 H        6.3580     0.9070    -2.0440 H     1 <1>   0.0800 
 43 H        8.4830     1.1670    -0.8790 H     1 <1>   0.0800 
 44 H        7.6920     1.8590     0.5070 H     1 <1>   0.0800 
@<TRIPOS>BOND
  1   1   2  1   
  2   1   3  1   
  3   2   4  ar  
  4   2   5  ar  
  5   3   6  1   
  6   3  19  1   
  7   3  20  1   
  8   4   7  ar  
  9   4   8  1   
 10   5   9  ar  
 11   5  10  1   
 12   6  11  1   
 13   6  21  1   
 14   6  22  1   
 15   7  12  ar  
 16   7  23  1   
 17   8  24  1   
 18   8  25  1   
 19   8  26  1   
 20   9  12  ar  
 21   9  27  1   
 22  10  28  1   
 23  10  29  1   
 24  10  30  1   
 25  11  13  1   
 26  11  31  1   
 27  11  32  1   
 28  12  33  1   
 29  13  14  1   
 30  13  15  1   
 31  13  34  1   
 32  14  16  1   
 33  14  35  1   
 34  14  36  1   
 35  15  17  1   
 36  15  37  1   
 37  15  38  1   
 38  16  18  1   
 39  16  39  1   
 40  16  40  1   
 41  17  18  1   
 42  17  41  1   
 43  17  42  1   
 44  18  43  1   
 45  18  44  1   
@<TRIPOS>SUBSTRUCTURE
  1 ****   3 GROUP 4 **** **** 0

# MOE 2024.06 (io_trps.svl 2023.06)
