@<TRIPOS>MOLECULE
NONAME
47 49 1 0 0 
SMALL
USER_CHARGES


@<TRIPOS>ATOM
  1 F        0.5720     0.8750    -0.7810 F     1 <1>  -0.3400 
  2 C        0.3690     2.0300    -0.1580 C.3   1 <1>   1.1640 
  3 F        1.2230     2.8950    -0.6880 F     1 <1>  -0.3400 
  4 F        0.7540     1.8490     1.0980 F     1 <1>  -0.3400 
  5 C       -1.0720     2.5190    -0.2480 C.ar  1 <1>  -0.1440 
  6 C       -1.3940     3.7380     0.3260 C.ar  1 <1>   0.1600 
  7 C       -2.0810     1.8030    -0.8770 C.ar  1 <1>  -0.1500 
  8 N       -2.5960     4.2880     0.3280 N.ar  1 <1>  -0.6200 
  9 C       -3.3350     2.3660    -0.8830 C.ar  1 <1>  -0.1500 
 10 C       -3.5550     3.5980    -0.2760 C.ar  1 <1>   0.4100 
 11 N       -4.8230     4.1410    -0.2810 N.pl3 1 <1>  -0.8380 
 12 C       -4.9530     5.6160    -0.4080 C.3   1 <1>   0.2090 
 13 C       -5.8180     3.5250     0.6280 C.3   1 <1>   0.2090 
 14 C       -6.3530     5.9590    -0.9140 C.3   1 <1>  -0.1600 
 15 C       -7.2310     3.8530     0.1430 C.3   1 <1>  -0.1600 
 16 C       -7.4260     5.3670     0.0000 C.3   1 <1>   0.1900 
 17 N       -8.7240     5.6690    -0.5900 N.3   1 <1>  -0.9000 
 18 C       -9.8790     5.4160     0.3020 C.3   1 <1>   0.2510 
 19 C      -10.7550     4.2200    -0.1010 C.2   1 <1>   0.5690 
 20 C      -10.8460     6.6050     0.2120 C.3   1 <1>  -0.0990 
 21 O      -10.3650     3.0800    -0.1600 O.2   1 <1>  -0.5700 
 22 N      -12.0200     4.6310    -0.3750 N.am  1 <1>  -0.4200 
 23 C      -12.1480     5.9740    -0.2160 C.2   1 <1>   0.5690 
 24 C      -13.1180     3.7340    -0.7940 C.3   1 <1>   0.1400 
 25 O      -13.1590     6.6060    -0.3770 O.2   1 <1>  -0.5700 
 26 C      -13.8520     3.2060     0.4380 C.3   1 <1>  -0.2400 
 27 H       -0.6180     4.3030     0.8180 H     1 <1>   0.1500 
 28 H       -1.9040     0.8500    -1.3470 H     1 <1>   0.1500 
 29 H       -4.1630     1.8740    -1.3570 H     1 <1>   0.1500 
 30 H       -4.2130     5.9840    -1.0990 H     1 <1>   0.0800 
 31 H       -4.7770     6.0730     0.5510 H     1 <1>   0.0800 
 32 H       -5.6690     3.9090     1.6230 H     1 <1>   0.0800 
 33 H       -5.6810     2.4570     0.6540 H     1 <1>   0.0800 
 34 H       -6.4590     5.5710    -1.9100 H     1 <1>   0.0800 
 35 H       -6.4620     7.0280    -0.9500 H     1 <1>   0.0800 
 36 H       -7.9290     3.4510     0.8530 H     1 <1>   0.0800 
 37 H       -7.3880     3.3670    -0.8030 H     1 <1>   0.0800 
 38 H       -7.3490     5.8380     0.9670 H     1 <1>   0.0800 
 39 H       -8.8190     5.0730    -1.4240 H     1 <1>   0.3600 
 40 H       -9.5560     5.2900     1.3210 H     1 <1>   0.0800 
 41 H      -10.5360     7.3310    -0.5170 H     1 <1>   0.0800 
 42 H      -10.9730     7.0740     1.1700 H     1 <1>   0.0800 
 43 H      -12.7120     2.9130    -1.3610 H     1 <1>   0.0800 
 44 H      -13.8020     4.2780    -1.4250 H     1 <1>   0.0800 
 45 H      -13.1790     2.6480     1.0640 H     1 <1>   0.0800 
 46 H      -14.6500     2.5550     0.1300 H     1 <1>   0.0800 
 47 H      -14.2760     4.0210     0.9980 H     1 <1>   0.0800 
@<TRIPOS>BOND
  1   1   2  1   
  2   2   3  1   
  3   2   4  1   
  4   2   5  1   
  5   5   6  ar  
  6   5   7  ar  
  7   6   8  ar  
  8   6  27  1   
  9   7   9  ar  
 10   7  28  1   
 11   8  10  ar  
 12   9  10  ar  
 13   9  29  1   
 14  10  11  1   
 15  11  12  1   
 16  11  13  1   
 17  12  14  1   
 18  12  30  1   
 19  12  31  1   
 20  13  15  1   
 21  13  32  1   
 22  13  33  1   
 23  14  16  1   
 24  14  34  1   
 25  14  35  1   
 26  15  16  1   
 27  15  36  1   
 28  15  37  1   
 29  16  17  1   
 30  16  38  1   
 31  17  18  1   
 32  17  39  1   
 33  18  19  1   
 34  18  20  1   
 35  18  40  1   
 36  19  21  2   
 37  19  22  am  
 38  20  23  1   
 39  20  41  1   
 40  20  42  1   
 41  22  23  am  
 42  22  24  1   
 43  23  25  2   
 44  24  26  1   
 45  24  43  1   
 46  24  44  1   
 47  26  45  1   
 48  26  46  1   
 49  26  47  1   
@<TRIPOS>SUBSTRUCTURE
  1 ****  13 GROUP 4 **** **** 0

# MOE 2024.06 (io_trps.svl 2023.06)
