@<TRIPOS>MOLECULE
NONAME
32 32 1 0 0 
SMALL
USER_CHARGES


@<TRIPOS>ATOM
  1 CL       0.3190     0.9290     1.5520 Cl    1 <1>  -0.1770 
  2 C        1.7350     1.5270     0.7140 C.ar  1 <1>   0.1770 
  3 C        1.8140     2.8560     0.3160 C.ar  1 <1>   0.0820 
  4 C        2.7600     0.6310     0.4670 C.ar  1 <1>  -0.1500 
  5 O        0.7710     3.6850     0.5670 O.3   1 <1>  -0.3630 
  6 C        2.9770     3.2920    -0.3340 C.ar  1 <1>   0.0820 
  7 C        3.9030     1.0590    -0.1920 C.ar  1 <1>  -0.1440 
  8 C       -0.2510     3.6970    -0.4030 C.3   1 <1>   0.1200 
  9 O        3.2200     4.5620    -0.7560 O.3   1 <1>  -0.3630 
 10 C        3.9950     2.3850    -0.5910 C.ar  1 <1>  -0.1500 
 11 C        5.0430     0.1030    -0.4650 C.3   1 <1>   0.4860 
 12 C       -1.3200     4.6870     0.0490 C.3   1 <1>  -0.2400 
 13 C        2.6990     5.6750    -0.0580 C.3   1 <1>   0.0400 
 14 N        6.0090     0.2660     0.6430 N.4   1 <1>  -0.9060 
 15 C        7.2190    -0.5970     0.5130 C.3   1 <1>   0.2630 
 16 H        2.6380    -0.3870     0.7940 H     1 <1>   0.1500 
 17 H       -0.6610     2.7050    -0.4850 H     1 <1>   0.0800 
 18 H        0.1770     3.9950    -1.3450 H     1 <1>   0.0800 
 19 H        4.8630     2.7510    -1.1130 H     1 <1>   0.1500 
 20 H        5.5050     0.3430    -1.4090 H     1 <1>   0.0800 
 21 H        4.6760    -0.9110    -0.5030 H     1 <1>   0.0800 
 22 H       -1.7270     4.3820     0.9960 H     1 <1>   0.0800 
 23 H       -2.1160     4.7170    -0.6730 H     1 <1>   0.0800 
 24 H       -0.9000     5.6730     0.1390 H     1 <1>   0.0800 
 25 H        3.2870     6.5370    -0.3150 H     1 <1>   0.0800 
 26 H        2.7580     5.4910     1.0000 H     1 <1>   0.0800 
 27 H        1.6800     5.8320    -0.3600 H     1 <1>   0.0800 
 28 H        5.5150     0.0750     1.5250 H     1 <1>   0.4500 
 29 H        6.2720     1.2600     0.6850 H     1 <1>   0.4500 
 30 H        6.9400    -1.6390     0.4990 H     1 <1>   0.0800 
 31 H        7.8860    -0.4330     1.3450 H     1 <1>   0.0800 
 32 H        7.7490    -0.3690    -0.3990 H     1 <1>   0.0800 
@<TRIPOS>BOND
  1   1   2  1   
  2   2   3  ar  
  3   2   4  ar  
  4   3   5  1   
  5   3   6  ar  
  6   4   7  ar  
  7   4  16  1   
  8   5   8  1   
  9   6   9  1   
 10   6  10  ar  
 11   7  10  ar  
 12   7  11  1   
 13   8  12  1   
 14   8  17  1   
 15   8  18  1   
 16   9  13  1   
 17  10  19  1   
 18  11  14  1   
 19  11  20  1   
 20  11  21  1   
 21  12  22  1   
 22  12  23  1   
 23  12  24  1   
 24  13  25  1   
 25  13  26  1   
 26  13  27  1   
 27  14  15  1   
 28  14  28  1   
 29  14  29  1   
 30  15  30  1   
 31  15  31  1   
 32  15  32  1   
@<TRIPOS>SUBSTRUCTURE
  1 ****   3 GROUP 4 **** **** 0

# MOE 2024.06 (io_trps.svl 2023.06)
