@<TRIPOS>MOLECULE
NONAME
39 41 1 0 0 
SMALL
USER_CHARGES


@<TRIPOS>ATOM
  1 CL      -2.0760     0.9960    -1.9400 Cl    1 <1>  -0.1770 
  2 C       -1.0630     2.1220    -1.0710 C.ar  1 <1>   0.1770 
  3 C       -1.3980     2.4740     0.2260 C.ar  1 <1>  -0.1440 
  4 C        0.0510     2.6510    -1.7030 C.ar  1 <1>  -0.1500 
  5 C       -0.5760     3.3850     0.8650 C.ar  1 <1>   0.1900 
  6 C       -2.6050     1.8830     0.9210 C.3   1 <1>   0.4860 
  7 C        0.8580     3.5580    -1.0330 C.ar  1 <1>  -0.1500 
  8 F       -0.8760     3.7520     2.0810 F     1 <1>  -0.1900 
  9 C        0.5440     3.9320     0.2650 C.ar  1 <1>  -0.1500 
 10 N       -3.8460     2.4610     0.3420 N.4   1 <1>  -0.9590 
 11 C       -3.9610     3.9430     0.6080 C.3   1 <1>   0.3430 
 12 C       -5.0740     1.7360     0.8280 C.3   1 <1>   0.3430 
 13 C       -5.2530     4.5480     0.0250 C.3   1 <1>   0.2090 
 14 C       -6.3730     2.3230     0.2390 C.3   1 <1>   0.2090 
 15 N       -6.4640     3.7950     0.4700 N.pl3 1 <1>  -0.8380 
 16 C       -7.6500     4.3540     0.0500 C.ar  1 <1>   0.4100 
 17 N       -7.8890     4.3050    -1.2540 N.ar  1 <1>  -0.6200 
 18 C       -8.5160     4.9260     0.9760 C.ar  1 <1>  -0.1500 
 19 C       -9.0320     4.8460    -1.6450 C.ar  1 <1>   0.1600 
 20 C       -9.7000     5.4850     0.5540 C.ar  1 <1>  -0.1500 
 21 C       -9.9560     5.4380    -0.8020 C.ar  1 <1>  -0.1500 
 22 H        0.2860     2.3550    -2.7120 H     1 <1>   0.1500 
 23 H       -2.5600     2.0860     1.9790 H     1 <1>   0.0800 
 24 H       -2.5980     0.8140     0.7820 H     1 <1>   0.0800 
 25 H        1.7280     3.9710    -1.5190 H     1 <1>   0.1500 
 26 H        1.1590     4.6350     0.8010 H     1 <1>   0.1500 
 27 H       -3.7970     2.3330    -0.6800 H     1 <1>   0.4500 
 28 H       -3.1150     4.4600     0.1870 H     1 <1>   0.0800 
 29 H       -3.9580     4.1200     1.6710 H     1 <1>   0.0800 
 30 H       -5.1340     1.8060     1.9010 H     1 <1>   0.0800 
 31 H       -5.0140     0.6930     0.5650 H     1 <1>   0.0800 
 32 H       -5.2020     4.5440    -1.0510 H     1 <1>   0.0800 
 33 H       -5.3410     5.5740     0.3420 H     1 <1>   0.0800 
 34 H       -7.2210     1.8430     0.6970 H     1 <1>   0.0800 
 35 H       -6.4150     2.1190    -0.8180 H     1 <1>   0.0800 
 36 H       -8.2460     4.9240     2.0140 H     1 <1>   0.1500 
 37 H       -9.2460     4.8170    -2.7000 H     1 <1>   0.1500 
 38 H      -10.3930     5.9360     1.2430 H     1 <1>   0.1500 
 39 H      -10.8630     5.8550    -1.2000 H     1 <1>   0.1500 
@<TRIPOS>BOND
  1   1   2  1   
  2   2   3  ar  
  3   2   4  ar  
  4   3   5  ar  
  5   3   6  1   
  6   4   7  ar  
  7   4  22  1   
  8   5   8  1   
  9   5   9  ar  
 10   6  10  1   
 11   6  23  1   
 12   6  24  1   
 13   7   9  ar  
 14   7  25  1   
 15   9  26  1   
 16  10  11  1   
 17  10  12  1   
 18  10  27  1   
 19  11  13  1   
 20  11  28  1   
 21  11  29  1   
 22  12  14  1   
 23  12  30  1   
 24  12  31  1   
 25  13  15  1   
 26  13  32  1   
 27  13  33  1   
 28  14  15  1   
 29  14  34  1   
 30  14  35  1   
 31  15  16  1   
 32  16  17  ar  
 33  16  18  ar  
 34  17  19  ar  
 35  18  20  ar  
 36  18  36  1   
 37  19  21  ar  
 38  19  37  1   
 39  20  21  ar  
 40  20  38  1   
 41  21  39  1   
@<TRIPOS>SUBSTRUCTURE
  1 ****  11 GROUP 4 **** **** 0

# MOE 2024.06 (io_trps.svl 2023.06)
