@<TRIPOS>MOLECULE
NONAME
33 33 1 0 0 
SMALL
USER_CHARGES


@<TRIPOS>ATOM
  1 S       -0.0590     0.2660     0.0960 S.o2  1 <1>   1.4470 
  2 O        0.1760     1.0330    -1.1050 O.2   1 <1>  -0.6500 
  3 O       -0.0110     0.9060     1.3910 O.2   1 <1>  -0.6500 
  4 N        1.1560    -0.8900     0.0700 N.am  1 <1>  -0.9140 
  5 C       -1.5740    -0.7160    -0.0600 C.ar  1 <1>  -0.0090 
  6 C        2.4010    -0.4060     0.6270 C.3   1 <1>   0.1960 
  7 C       -1.8460    -1.7490     0.8280 C.ar  1 <1>  -0.1500 
  8 C       -2.5030    -0.4600    -1.0620 C.ar  1 <1>  -0.1500 
  9 C        3.4630    -1.4740     0.4080 C.3   1 <1>  -0.2400 
 10 C       -3.0030    -2.5010     0.7220 C.ar  1 <1>  -0.1500 
 11 C       -3.6630    -1.2070    -1.1740 C.ar  1 <1>  -0.1500 
 12 C       -3.9190    -2.2330    -0.2800 C.ar  1 <1>  -0.1430 
 13 C       -5.1930    -3.0530    -0.3850 C.3   1 <1>  -0.0170 
 14 C       -6.2720    -2.4770     0.5380 C.3   1 <1>  -0.0990 
 15 C       -7.5390    -3.2980     0.4720 C.2   1 <1>   0.5690 
 16 O       -7.5560    -4.4050     0.9400 O.2   1 <1>  -0.5700 
 17 N       -8.6360    -2.7920    -0.1140 N.am  1 <1>  -0.8000 
 18 H        1.3170    -1.0390    -0.9240 H     1 <1>   0.4200 
 19 H        2.2800    -0.2200     1.6820 H     1 <1>   0.0800 
 20 H        2.6930     0.5140     0.1440 H     1 <1>   0.0800 
 21 H       -1.1410    -1.9660     1.6130 H     1 <1>   0.1500 
 22 H       -2.3180     0.3360    -1.7640 H     1 <1>   0.1500 
 23 H        3.1710    -2.3910     0.8890 H     1 <1>   0.0800 
 24 H        4.3940    -1.1480     0.8350 H     1 <1>   0.0800 
 25 H        3.6130    -1.6500    -0.6420 H     1 <1>   0.0800 
 26 H       -3.1870    -3.2960     1.4260 H     1 <1>   0.1500 
 27 H       -4.3630    -0.9840    -1.9600 H     1 <1>   0.1500 
 28 H       -4.9890    -4.0740    -0.1090 H     1 <1>   0.0800 
 29 H       -5.5470    -3.0570    -1.4020 H     1 <1>   0.0800 
 30 H       -6.4790    -1.4590     0.2660 H     1 <1>   0.0800 
 31 H       -5.9180    -2.4860     1.5530 H     1 <1>   0.0800 
 32 H       -9.4840    -3.3600    -0.1450 H     1 <1>   0.3700 
 33 H       -8.6990    -1.8590    -0.5180 H     1 <1>   0.3700 
@<TRIPOS>BOND
  1   1   2  2   
  2   1   3  2   
  3   1   4  am  
  4   1   5  1   
  5   4   6  1   
  6   4  18  1   
  7   5   7  ar  
  8   5   8  ar  
  9   6   9  1   
 10   6  19  1   
 11   6  20  1   
 12   7  10  ar  
 13   7  21  1   
 14   8  11  ar  
 15   8  22  1   
 16   9  23  1   
 17   9  24  1   
 18   9  25  1   
 19  10  12  ar  
 20  10  26  1   
 21  11  12  ar  
 22  11  27  1   
 23  12  13  1   
 24  13  14  1   
 25  13  28  1   
 26  13  29  1   
 27  14  15  1   
 28  14  30  1   
 29  14  31  1   
 30  15  16  2   
 31  15  17  am  
 32  17  32  1   
 33  17  33  1   
@<TRIPOS>SUBSTRUCTURE
  1 ****   7 GROUP 4 **** **** 0

# MOE 2024.06 (io_trps.svl 2023.06)
