@<TRIPOS>MOLECULE
NONAME
43 44 1 0 0 
SMALL
USER_CHARGES


@<TRIPOS>ATOM
  1 S        0.0190    -0.1450     0.7410 S.o2  1 <1>   1.4470 
  2 O       -0.2010    -0.6090     2.0920 O.2   1 <1>  -0.6500 
  3 O        0.1030    -1.0950    -0.3450 O.2   1 <1>  -0.6500 
  4 N       -1.3390     0.8160     0.3920 N.am  1 <1>  -0.8490 
  5 C        1.3940     1.0330     0.6620 C.ar  1 <1>  -0.0090 
  6 C       -2.5080    -0.0380     0.0830 C.3   1 <1>   0.1960 
  7 C       -1.6680     1.7530     1.4880 C.3   1 <1>   0.1960 
  8 C        2.0310     1.4770     1.8160 C.ar  1 <1>  -0.1500 
  9 C        1.8270     1.5440    -0.5570 C.ar  1 <1>  -0.1500 
 10 C       -3.8180     0.7650    -0.1160 C.3   1 <1>   0.3430 
 11 C       -2.8640     2.6740     1.1370 C.3   1 <1>   0.3430 
 12 C        3.0550     2.4050     1.7550 C.ar  1 <1>  -0.1500 
 13 C        2.8530     2.4710    -0.6280 C.ar  1 <1>  -0.1500 
 14 N       -3.5720     2.2480    -0.1250 N.4   1 <1>  -0.9590 
 15 C        3.4730     2.9110     0.5360 C.ar  1 <1>   0.0830 
 16 C       -4.8060     3.0260    -0.4250 C.3   1 <1>   0.3430 
 17 O        4.4780     3.8180     0.5620 O.3   1 <1>  -0.3630 
 18 C       -4.4560     4.4760    -0.7680 C.3   1 <1>  -0.1600 
 19 C        5.0240     4.3480    -0.6260 C.3   1 <1>   0.0400 
 20 C       -5.7080     5.2560    -1.1890 C.3   1 <1>  -0.2400 
 21 H       -2.6560    -0.7590     0.8710 H     1 <1>   0.0800 
 22 H       -2.3100    -0.5950    -0.8180 H     1 <1>   0.0800 
 23 H       -0.8140     2.3700     1.7130 H     1 <1>   0.0800 
 24 H       -1.9070     1.2020     2.3840 H     1 <1>   0.0800 
 25 H        1.7280     1.0920     2.7760 H     1 <1>   0.1500 
 26 H        1.3560     1.2070    -1.4660 H     1 <1>   0.1500 
 27 H       -4.5020     0.5150     0.6790 H     1 <1>   0.0800 
 28 H       -4.2750     0.4590    -1.0430 H     1 <1>   0.0800 
 29 H       -2.4970     3.6810     1.0210 H     1 <1>   0.0800 
 30 H       -3.5540     2.6770     1.9640 H     1 <1>   0.0800 
 31 H        3.5430     2.7420     2.6530 H     1 <1>   0.1500 
 32 H        3.1560     2.8370    -1.5920 H     1 <1>   0.1500 
 33 H       -2.8870     2.3960    -0.8820 H     1 <1>   0.4500 
 34 H       -5.4760     3.0010     0.4200 H     1 <1>   0.0800 
 35 H       -5.3130     2.5860    -1.2690 H     1 <1>   0.0800 
 36 H       -3.7500     4.4980    -1.5800 H     1 <1>   0.0800 
 37 H       -4.0230     4.9700     0.0830 H     1 <1>   0.0800 
 38 H        5.8160     5.0230    -0.3560 H     1 <1>   0.0800 
 39 H        4.2560     4.8800    -1.1570 H     1 <1>   0.0800 
 40 H        5.4180     3.5420    -1.2190 H     1 <1>   0.0800 
 41 H       -6.1610     4.8140    -2.0600 H     1 <1>   0.0800 
 42 H       -5.4450     6.2720    -1.4290 H     1 <1>   0.0800 
 43 H       -6.4340     5.2770    -0.3940 H     1 <1>   0.0800 
@<TRIPOS>BOND
  1   1   2  2   
  2   1   3  2   
  3   1   4  am  
  4   1   5  1   
  5   4   6  1   
  6   4   7  1   
  7   5   8  ar  
  8   5   9  ar  
  9   6  10  1   
 10   6  21  1   
 11   6  22  1   
 12   7  11  1   
 13   7  23  1   
 14   7  24  1   
 15   8  12  ar  
 16   8  25  1   
 17   9  13  ar  
 18   9  26  1   
 19  10  14  1   
 20  10  27  1   
 21  10  28  1   
 22  11  14  1   
 23  11  29  1   
 24  11  30  1   
 25  12  15  ar  
 26  12  31  1   
 27  13  15  ar  
 28  13  32  1   
 29  14  16  1   
 30  14  33  1   
 31  15  17  1   
 32  16  18  1   
 33  16  34  1   
 34  16  35  1   
 35  17  19  1   
 36  18  20  1   
 37  18  36  1   
 38  18  37  1   
 39  19  38  1   
 40  19  39  1   
 41  19  40  1   
 42  20  41  1   
 43  20  42  1   
 44  20  43  1   
@<TRIPOS>SUBSTRUCTURE
  1 ****   4 GROUP 4 **** **** 0

# MOE 2024.06 (io_trps.svl 2023.06)
