@<TRIPOS>MOLECULE
NONAME
50 52 1 0 0 
SMALL
USER_CHARGES


@<TRIPOS>ATOM
  1 CL       0.1970    -0.5230    -1.9200 Cl    1 <1>  -0.1770 
  2 C        0.2690    -1.8710    -0.8080 C.ar  1 <1>   0.1770 
  3 C       -0.8240    -2.1730    -0.0060 C.ar  1 <1>  -0.1440 
  4 C        1.4330    -2.6130    -0.7570 C.ar  1 <1>  -0.1500 
  5 C       -0.7250    -3.2500     0.8630 C.ar  1 <1>  -0.1500 
  6 C       -2.1020    -1.3500    -0.0690 C.3   1 <1>  -0.0960 
  7 C        1.5290    -3.6910     0.1130 C.ar  1 <1>   0.1000 
  8 C        0.4400    -3.9970     0.9180 C.ar  1 <1>  -0.1500 
  9 N        2.6820    -4.4610     0.1970 N.pl3 1 <1>  -0.8380 
 10 C        3.0350    -5.2590    -1.0140 C.3   1 <1>   0.2090 
 11 C        3.8740    -3.7970     0.7980 C.3   1 <1>   0.2090 
 12 C        4.1830    -6.2430    -0.7140 C.3   1 <1>   0.1100 
 13 C        5.0030    -4.8140     1.0550 C.3   1 <1>   0.1100 
 14 N        5.3820    -5.5570    -0.1770 N.3   1 <1>  -0.8100 
 15 C        6.4700    -6.5410     0.1120 C.3   1 <1>   0.1710 
 16 C        7.8430    -5.8970     0.3120 C.2   1 <1>   0.5690 
 17 O        8.6810    -6.4840     0.9540 O.2   1 <1>  -0.5700 
 18 N        8.0200    -4.6690    -0.2600 N.am  1 <1>  -0.5470 
 19 C        9.0910    -3.7620    -0.2900 C.ar  1 <1>   0.1170 
 20 C       10.3650    -4.0670     0.1790 C.ar  1 <1>  -0.1500 
 21 C        8.8680    -2.4950    -0.8170 C.ar  1 <1>  -0.1500 
 22 C       11.3870    -3.1350     0.1290 C.ar  1 <1>  -0.1500 
 23 C        9.8850    -1.5590    -0.8690 C.ar  1 <1>  -0.1500 
 24 C       11.1490    -1.8680    -0.3970 C.ar  1 <1>   0.0830 
 25 O       12.0910    -0.8920    -0.4830 O.3   1 <1>  -0.3630 
 26 C       13.4050    -1.1120    -0.0200 C.3   1 <1>   0.0400 
 27 H        2.2590    -2.3540    -1.3880 H     1 <1>   0.1500 
 28 H       -1.5510    -3.5140     1.4990 H     1 <1>   0.1500 
 29 H       -2.5120    -1.3850    -1.0630 H     1 <1>   0.0800 
 30 H       -1.8910    -0.3250     0.1820 H     1 <1>   0.0800 
 31 H       -2.8380    -1.7250     0.6180 H     1 <1>   0.0800 
 32 H        0.5190    -4.8320     1.5890 H     1 <1>   0.1500 
 33 H        3.3340    -4.5990    -1.8090 H     1 <1>   0.0800 
 34 H        2.1690    -5.8080    -1.3400 H     1 <1>   0.0800 
 35 H        3.5900    -3.3350     1.7270 H     1 <1>   0.0800 
 36 H        4.2320    -3.0280     0.1360 H     1 <1>   0.0800 
 37 H        4.4420    -6.7560    -1.6240 H     1 <1>   0.0800 
 38 H        3.8310    -6.9740    -0.0060 H     1 <1>   0.0800 
 39 H        4.6710    -5.5050     1.8110 H     1 <1>   0.0800 
 40 H        5.8570    -4.2860     1.4420 H     1 <1>   0.0800 
 41 H        6.5620    -7.2210    -0.7160 H     1 <1>   0.0800 
 42 H        6.2240    -7.1180     0.9860 H     1 <1>   0.0800 
 43 H        7.1510    -4.3500    -0.6980 H     1 <1>   0.3700 
 44 H       10.5700    -5.0400     0.5860 H     1 <1>   0.1500 
 45 H        7.8940    -2.2360    -1.1880 H     1 <1>   0.1500 
 46 H       12.3530    -3.4130     0.5030 H     1 <1>   0.1500 
 47 H        9.7060    -0.5800    -1.2770 H     1 <1>   0.1500 
 48 H       13.9700    -0.2120    -0.1820 H     1 <1>   0.0800 
 49 H       13.8400    -1.9230    -0.5770 H     1 <1>   0.0800 
 50 H       13.3710    -1.3380     1.0310 H     1 <1>   0.0800 
@<TRIPOS>BOND
  1   1   2  1   
  2   2   3  ar  
  3   2   4  ar  
  4   3   5  ar  
  5   3   6  1   
  6   4   7  ar  
  7   4  27  1   
  8   5   8  ar  
  9   5  28  1   
 10   6  29  1   
 11   6  30  1   
 12   6  31  1   
 13   7   8  ar  
 14   7   9  1   
 15   8  32  1   
 16   9  10  1   
 17   9  11  1   
 18  10  12  1   
 19  10  33  1   
 20  10  34  1   
 21  11  13  1   
 22  11  35  1   
 23  11  36  1   
 24  12  14  1   
 25  12  37  1   
 26  12  38  1   
 27  13  14  1   
 28  13  39  1   
 29  13  40  1   
 30  14  15  1   
 31  15  16  1   
 32  15  41  1   
 33  15  42  1   
 34  16  17  2   
 35  16  18  am  
 36  18  19  1   
 37  18  43  1   
 38  19  20  ar  
 39  19  21  ar  
 40  20  22  ar  
 41  20  44  1   
 42  21  23  ar  
 43  21  45  1   
 44  22  24  ar  
 45  22  46  1   
 46  23  24  ar  
 47  23  47  1   
 48  24  25  1   
 49  25  26  1   
 50  26  48  1   
 51  26  49  1   
 52  26  50  1   
@<TRIPOS>SUBSTRUCTURE
  1 ****  13 GROUP 4 **** **** 0

# MOE 2024.06 (io_trps.svl 2023.06)
