@<TRIPOS>MOLECULE
NONAME
41 43 1 0 0 
SMALL
USER_CHARGES


@<TRIPOS>ATOM
  1 CL      -0.7710    -0.0590    -1.6790 Cl    1 <1>  -0.1770 
  2 C        0.4990     1.1220    -1.4500 C.ar  1 <1>   0.1770 
  3 C        0.2160     2.3610    -0.8790 C.ar  1 <1>   0.0830 
  4 C        1.7820     0.7990    -1.8520 C.ar  1 <1>  -0.1500 
  5 O       -1.0340     2.6900    -0.4890 O.3   1 <1>  -0.3630 
  6 C        1.2320     3.2930    -0.7220 C.ar  1 <1>  -0.1500 
  7 C        2.7810     1.7380    -1.6790 C.ar  1 <1>   0.1770 
  8 C       -1.4480     2.1940     0.7780 C.3   1 <1>   0.1810 
  9 C        2.5220     2.9800    -1.1220 C.ar  1 <1>  -0.1500 
 10 CL       4.4080     1.3510    -2.1760 Cl    1 <1>  -0.1770 
 11 C       -2.8830     2.6010     1.0780 C.2   1 <1>   0.5690 
 12 O       -3.2190     2.7170     2.2390 O.2   1 <1>  -0.5700 
 13 N       -3.7360     2.8310     0.0440 N.am  1 <1>  -0.4300 
 14 N       -5.1880     3.0130     0.1640 N.am  1 <1>  -0.4300 
 15 C       -6.1230     2.0350     0.0420 C.2   1 <1>   0.6300 
 16 O       -5.8560     0.9170    -0.3450 O.2   1 <1>  -0.5700 
 17 C       -7.5630     2.3690     0.4000 C.3   1 <1>  -0.1000 
 18 C       -8.5290     2.8400    -0.6390 C.3   1 <1>  -0.1950 
 19 C       -8.0550     3.7850     0.4310 C.3   1 <1>  -0.1950 
 20 C      -10.0120     3.1390    -0.8450 C.3   1 <1>  -0.0650 
 21 C       -7.8830     5.1430    -0.2470 C.3   1 <1>  -0.0650 
 22 C      -10.1020     4.5590    -1.4510 C.3   1 <1>  -0.1600 
 23 C       -9.2960     5.6220    -0.6560 C.3   1 <1>  -0.1600 
 24 H        1.9970    -0.1580    -2.2900 H     1 <1>   0.1500 
 25 H        1.0120     4.2550    -0.2930 H     1 <1>   0.1500 
 26 H       -0.7950     2.5960     1.5300 H     1 <1>   0.0800 
 27 H       -1.3770     1.1220     0.7740 H     1 <1>   0.0800 
 28 H        3.3220     3.6890    -1.0060 H     1 <1>   0.1500 
 29 H       -3.3660     2.7360    -0.9100 H     1 <1>   0.3700 
 30 H       -5.5070     3.9230     0.5070 H     1 <1>   0.3700 
 31 H       -7.9460     1.6770     1.1280 H     1 <1>   0.1000 
 32 H       -8.0580     2.8290    -1.6090 H     1 <1>   0.1000 
 33 H       -8.6440     3.9380     1.3220 H     1 <1>   0.1000 
 34 H      -10.5430     3.0960     0.0910 H     1 <1>   0.0800 
 35 H      -10.4470     2.4170    -1.5150 H     1 <1>   0.0800 
 36 H       -7.2540     5.0600    -1.1180 H     1 <1>   0.0800 
 37 H       -7.4360     5.8480     0.4320 H     1 <1>   0.0800 
 38 H      -11.1340     4.8600    -1.5140 H     1 <1>   0.0800 
 39 H       -9.7160     4.5230    -2.4550 H     1 <1>   0.0800 
 40 H       -9.2190     6.5250    -1.2360 H     1 <1>   0.0800 
 41 H       -9.8450     5.8610     0.2390 H     1 <1>   0.0800 
@<TRIPOS>BOND
  1   1   2  1   
  2   2   3  ar  
  3   2   4  ar  
  4   3   5  1   
  5   3   6  ar  
  6   4   7  ar  
  7   4  24  1   
  8   5   8  1   
  9   6   9  ar  
 10   6  25  1   
 11   7   9  ar  
 12   7  10  1   
 13   8  11  1   
 14   8  26  1   
 15   8  27  1   
 16   9  28  1   
 17  11  12  2   
 18  11  13  am  
 19  13  14  1   
 20  13  29  1   
 21  14  15  am  
 22  14  30  1   
 23  15  16  2   
 24  15  17  1   
 25  17  18  1   
 26  17  19  1   
 27  17  31  1   
 28  18  19  1   
 29  18  20  1   
 30  18  32  1   
 31  19  21  1   
 32  19  33  1   
 33  20  22  1   
 34  20  34  1   
 35  20  35  1   
 36  21  23  1   
 37  21  36  1   
 38  21  37  1   
 39  22  23  1   
 40  22  38  1   
 41  22  39  1   
 42  23  40  1   
 43  23  41  1   
@<TRIPOS>SUBSTRUCTURE
  1 ****  13 GROUP 4 **** **** 0

# MOE 2024.06 (io_trps.svl 2023.06)
