@<TRIPOS>MOLECULE
NONAME
46 48 1 0 0 
SMALL
USER_CHARGES


@<TRIPOS>ATOM
  1 F       -1.4320     0.8740     0.8900 F     1 <1>  -0.1900 
  2 C       -0.8460     2.0120     0.6280 C.ar  1 <1>   0.1900 
  3 C       -1.3860     2.8220    -0.3550 C.ar  1 <1>  -0.1440 
  4 C        0.2800     2.3640     1.3530 C.ar  1 <1>  -0.1500 
  5 C       -0.7460     4.0270    -0.5830 C.ar  1 <1>   0.1900 
  6 C       -2.6070     2.4080    -1.1440 C.3   1 <1>   0.4860 
  7 C        0.8970     3.5790     1.0930 C.ar  1 <1>  -0.1500 
  8 F       -1.2340     4.8320    -1.4880 F     1 <1>  -0.1900 
  9 C        0.3810     4.4200     0.1180 C.ar  1 <1>  -0.1500 
 10 N       -3.8040     2.4680    -0.2640 N.4   1 <1>  -0.9590 
 11 C       -5.0060     1.8340    -0.9160 C.3   1 <1>   0.3430 
 12 C       -4.1130     3.8820     0.1710 C.3   1 <1>   0.3430 
 13 C       -6.2480     1.8490    -0.0020 C.3   1 <1>   0.2090 
 14 C       -5.3530     3.9720     1.0860 C.3   1 <1>   0.2090 
 15 N       -6.5130     3.2160     0.5290 N.pl3 1 <1>  -0.8380 
 16 C       -7.5790     3.9210    -0.0320 C.ar  1 <1>   0.1000 
 17 C       -8.8810     3.7960     0.4670 C.ar  1 <1>  -0.1430 
 18 C       -7.3490     4.7480    -1.1260 C.ar  1 <1>  -0.1500 
 19 C       -9.9260     4.4800    -0.1500 C.ar  1 <1>  -0.1430 
 20 C       -9.1530     2.9100     1.6850 C.3   1 <1>  -0.0970 
 21 C       -8.3830     5.4350    -1.7260 C.ar  1 <1>  -0.1500 
 22 C       -9.6690     5.2970    -1.2390 C.ar  1 <1>  -0.1500 
 23 C      -11.3670     4.3640     0.3310 C.3   1 <1>  -0.0970 
 24 H        0.6680     1.7000     2.1070 H     1 <1>   0.1500 
 25 H       -2.4660     1.4010    -1.5030 H     1 <1>   0.0800 
 26 H       -2.7380     3.0560    -1.9960 H     1 <1>   0.0800 
 27 H        1.7760     3.8680     1.6460 H     1 <1>   0.1500 
 28 H        0.8490     5.3670    -0.0960 H     1 <1>   0.1500 
 29 H       -3.5830     1.9240     0.5820 H     1 <1>   0.4500 
 30 H       -4.7850     0.8140    -1.1850 H     1 <1>   0.0800 
 31 H       -5.2520     2.3690    -1.8190 H     1 <1>   0.0800 
 32 H       -4.2940     4.4930    -0.6970 H     1 <1>   0.0800 
 33 H       -3.2680     4.3020     0.6930 H     1 <1>   0.0800 
 34 H       -6.1070     1.1720     0.8210 H     1 <1>   0.0800 
 35 H       -7.1050     1.5100    -0.5600 H     1 <1>   0.0800 
 36 H       -5.6290     5.0050     1.2170 H     1 <1>   0.0800 
 37 H       -5.1160     3.5780     2.0590 H     1 <1>   0.0800 
 38 H       -6.3590     4.8570    -1.5170 H     1 <1>   0.1500 
 39 H       -8.2780     2.8050     2.2980 H     1 <1>   0.0800 
 40 H       -9.4660     1.9350     1.3600 H     1 <1>   0.0800 
 41 H       -9.9190     3.3330     2.3080 H     1 <1>   0.0800 
 42 H       -8.1970     6.0750    -2.5710 H     1 <1>   0.1500 
 43 H      -10.4690     5.8340    -1.7170 H     1 <1>   0.1500 
 44 H      -11.6400     3.3310     0.4490 H     1 <1>   0.0800 
 45 H      -12.0470     4.8070    -0.3750 H     1 <1>   0.0800 
 46 H      -11.4810     4.8700     1.2720 H     1 <1>   0.0800 
@<TRIPOS>BOND
  1   1   2  1   
  2   2   3  ar  
  3   2   4  ar  
  4   3   5  ar  
  5   3   6  1   
  6   4   7  ar  
  7   4  24  1   
  8   5   8  1   
  9   5   9  ar  
 10   6  10  1   
 11   6  25  1   
 12   6  26  1   
 13   7   9  ar  
 14   7  27  1   
 15   9  28  1   
 16  10  11  1   
 17  10  12  1   
 18  10  29  1   
 19  11  13  1   
 20  11  30  1   
 21  11  31  1   
 22  12  14  1   
 23  12  32  1   
 24  12  33  1   
 25  13  15  1   
 26  13  34  1   
 27  13  35  1   
 28  14  15  1   
 29  14  36  1   
 30  14  37  1   
 31  15  16  1   
 32  16  17  ar  
 33  16  18  ar  
 34  17  19  ar  
 35  17  20  1   
 36  18  21  ar  
 37  18  38  1   
 38  19  22  ar  
 39  19  23  1   
 40  20  39  1   
 41  20  40  1   
 42  20  41  1   
 43  21  22  ar  
 44  21  42  1   
 45  22  43  1   
 46  23  44  1   
 47  23  45  1   
 48  23  46  1   
@<TRIPOS>SUBSTRUCTURE
  1 ****  12 GROUP 4 **** **** 0

# MOE 2024.06 (io_trps.svl 2023.06)
