@<TRIPOS>MOLECULE
NONAME
57 59 1 0 0 
SMALL
USER_CHARGES


@<TRIPOS>ATOM
  1 F        9.7960    -3.3800     0.4860 F     1 <1>  -0.1900 
  2 C       10.1190    -2.1190     0.3150 C.ar  1 <1>   0.1900 
  3 C        9.1290    -1.1950    -0.0430 C.ar  1 <1>   0.1000 
  4 C       11.4410    -1.7670     0.5010 C.ar  1 <1>  -0.1500 
  5 N        7.7770    -1.5130    -0.2410 N.pl3 1 <1>  -0.8380 
  6 C        9.5330     0.1230    -0.2100 C.ar  1 <1>  -0.1500 
  7 C       11.8110    -0.4430     0.3270 C.ar  1 <1>  -0.1500 
  8 C        7.0380    -1.9370     0.9870 C.3   1 <1>   0.2090 
  9 C        7.4950    -2.3790    -1.4250 C.3   1 <1>   0.2090 
 10 C       10.8560     0.4970    -0.0280 C.ar  1 <1>  -0.1500 
 11 C        5.5210    -2.0250     0.7160 C.3   1 <1>   0.3430 
 12 C        5.9790    -2.4710    -1.6970 C.3   1 <1>   0.3430 
 13 N        5.1980    -2.8890    -0.4770 N.4   1 <1>  -0.9590 
 14 C        3.7290    -3.0080    -0.7310 C.3   1 <1>   0.3430 
 15 C        3.0860    -3.9960     0.2670 C.3   1 <1>   0.2000 
 16 O        3.9920    -5.0270     0.5310 O.3   1 <1>  -0.6800 
 17 C        1.7790    -4.6030    -0.2570 C.3   1 <1>   0.1200 
 18 O        1.3640    -5.6090     0.6430 O.3   1 <1>  -0.3630 
 19 C        0.2230    -6.3120     0.4350 C.ar  1 <1>   0.0830 
 20 C       -0.1210    -7.2440     1.4000 C.ar  1 <1>  -0.1500 
 21 C       -0.6010    -6.1450    -0.6740 C.ar  1 <1>  -0.1500 
 22 C       -1.2710    -8.0020     1.2650 C.ar  1 <1>  -0.1500 
 23 C       -1.7500    -6.9070    -0.8030 C.ar  1 <1>  -0.1500 
 24 C       -2.0970    -7.8420     0.1620 C.ar  1 <1>  -0.1430 
 25 C       -3.3620    -8.6870     0.0300 C.3   1 <1>   0.0630 
 26 C       -3.3030    -9.5680    -1.2230 C.3   1 <1>  -0.2400 
 27 C       -4.6120    -7.8030     0.0160 C.3   1 <1>  -0.2400 
 28 H       12.1660    -2.5120     0.7770 H     1 <1>   0.1500 
 29 H        8.8010     0.8600    -0.4850 H     1 <1>   0.1500 
 30 H       12.8360    -0.1450     0.4670 H     1 <1>   0.1500 
 31 H        7.2200    -1.2230     1.7720 H     1 <1>   0.0800 
 32 H        7.4010    -2.8940     1.3210 H     1 <1>   0.0800 
 33 H        7.8930    -3.3660    -1.2600 H     1 <1>   0.0800 
 34 H        7.9880    -1.9660    -2.2890 H     1 <1>   0.0800 
 35 H       11.1440     1.5250    -0.1640 H     1 <1>   0.1500 
 36 H        5.1550    -1.0260     0.5480 H     1 <1>   0.0800 
 37 H        5.0350    -2.4170     1.5940 H     1 <1>   0.0800 
 38 H        5.8100    -3.1710    -2.4980 H     1 <1>   0.0800 
 39 H        5.6410    -1.5020    -2.0250 H     1 <1>   0.0800 
 40 H        5.4760    -3.8560    -0.2180 H     1 <1>   0.4500 
 41 H        3.5730    -3.3940    -1.7250 H     1 <1>   0.0800 
 42 H        3.2480    -2.0460    -0.6700 H     1 <1>   0.0800 
 43 H        2.8860    -3.4920     1.1970 H     1 <1>   0.0800 
 44 H        3.4980    -5.7700     0.9540 H     1 <1>   0.4000 
 45 H        1.9260    -5.0530    -1.2240 H     1 <1>   0.0800 
 46 H        1.0050    -3.8570    -0.3110 H     1 <1>   0.0800 
 47 H        0.5110    -7.3760     2.2580 H     1 <1>   0.1500 
 48 H       -0.3750    -5.4370    -1.4460 H     1 <1>   0.1500 
 49 H       -1.5170    -8.7200     2.0280 H     1 <1>   0.1500 
 50 H       -2.3770    -6.7680    -1.6650 H     1 <1>   0.1500 
 51 H       -3.4320    -9.3390     0.8850 H     1 <1>   0.0800 
 52 H       -3.2830    -8.9670    -2.1130 H     1 <1>   0.0800 
 53 H       -4.1610   -10.2150    -1.2630 H     1 <1>   0.0800 
 54 H       -2.4160   -10.1750    -1.2000 H     1 <1>   0.0800 
 55 H       -4.6210    -7.1640    -0.8480 H     1 <1>   0.0800 
 56 H       -4.6330    -7.1870     0.8980 H     1 <1>   0.0800 
 57 H       -5.4990    -8.4110     0.0040 H     1 <1>   0.0800 
@<TRIPOS>BOND
  1   1   2  1   
  2   2   3  ar  
  3   2   4  ar  
  4   3   5  1   
  5   3   6  ar  
  6   4   7  ar  
  7   4  28  1   
  8   5   8  1   
  9   5   9  1   
 10   6  10  ar  
 11   6  29  1   
 12   7  10  ar  
 13   7  30  1   
 14   8  11  1   
 15   8  31  1   
 16   8  32  1   
 17   9  12  1   
 18   9  33  1   
 19   9  34  1   
 20  10  35  1   
 21  11  13  1   
 22  11  36  1   
 23  11  37  1   
 24  12  13  1   
 25  12  38  1   
 26  12  39  1   
 27  13  14  1   
 28  13  40  1   
 29  14  15  1   
 30  14  41  1   
 31  14  42  1   
 32  15  16  1   
 33  15  17  1   
 34  15  43  1   
 35  16  44  1   
 36  17  18  1   
 37  17  45  1   
 38  17  46  1   
 39  18  19  1   
 40  19  20  ar  
 41  19  21  ar  
 42  20  22  ar  
 43  20  47  1   
 44  21  23  ar  
 45  21  48  1   
 46  22  24  ar  
 47  22  49  1   
 48  23  24  ar  
 49  23  50  1   
 50  24  25  1   
 51  25  26  1   
 52  25  27  1   
 53  25  51  1   
 54  26  52  1   
 55  26  53  1   
 56  26  54  1   
 57  27  55  1   
 58  27  56  1   
 59  27  57  1   
@<TRIPOS>SUBSTRUCTURE
  1 ****  15 GROUP 4 **** **** 0

# MOE 2024.06 (io_trps.svl 2023.06)
