@<TRIPOS>MOLECULE
NONAME
38 39 1 0 0 
SMALL
USER_CHARGES


@<TRIPOS>ATOM
  1 S       -0.6460    -0.3340     0.9040 S.3   1 <1>  -0.3320 
  2 C        0.9140     0.4140     0.4620 C.ar  1 <1>   0.7220 
  3 C       -0.7940    -1.8000    -0.2160 C.3   1 <1>   0.0700 
  4 N        1.6010    -0.1980    -0.4930 N.ar  1 <1>  -0.6200 
  5 N        1.2190     1.5050     1.1440 N.ar  1 <1>  -0.6200 
  6 C       -2.0800    -2.5650     0.0990 C.3   1 <1>   0.1200 
  7 C        2.7430     0.3780    -0.7950 C.ar  1 <1>   0.1600 
  8 C        2.3670     2.0520     0.8150 C.ar  1 <1>   0.1600 
  9 O       -3.1960    -1.7870    -0.2770 O.3   1 <1>  -0.3620 
 10 C        3.1770     1.5200    -0.1610 C.ar  1 <1>  -0.1500 
 11 C       -4.4610    -2.2570    -0.1250 C.ar  1 <1>   0.0830 
 12 C       -4.7680    -3.5010     0.4220 C.ar  1 <1>  -0.1500 
 13 C       -5.4880    -1.4290    -0.5500 C.ar  1 <1>  -0.1500 
 14 C       -6.0890    -3.8990     0.5310 C.ar  1 <1>  -0.1500 
 15 C       -6.8090    -1.8270    -0.4410 C.ar  1 <1>  -0.1500 
 16 C       -7.1150    -3.0720     0.1030 C.ar  1 <1>   0.0830 
 17 O       -8.3800    -3.5450     0.2490 O.3   1 <1>  -0.3630 
 18 C       -9.4930    -2.7760    -0.1470 C.3   1 <1>   0.1200 
 19 C      -10.7600    -3.5800     0.1510 C.3   1 <1>  -0.1600 
 20 C      -12.0200    -2.8080    -0.2540 C.3   1 <1>  -0.2400 
 21 H        0.0700    -2.4140    -0.0380 H     1 <1>   0.0800 
 22 H       -0.7860    -1.4440    -1.2310 H     1 <1>   0.0800 
 23 H       -2.1440    -2.7720     1.1530 H     1 <1>   0.0800 
 24 H       -2.1080    -3.4810    -0.4620 H     1 <1>   0.0800 
 25 H        3.3470    -0.0710    -1.5650 H     1 <1>   0.1500 
 26 H        2.6670     2.9450     1.3380 H     1 <1>   0.1500 
 27 H        4.1120     1.9790    -0.4190 H     1 <1>   0.1500 
 28 H       -4.0010    -4.1670     0.7660 H     1 <1>   0.1500 
 29 H       -5.2400    -0.4690    -0.9680 H     1 <1>   0.1500 
 30 H       -6.3360    -4.8570     0.9510 H     1 <1>   0.1500 
 31 H       -7.5770    -1.1590    -0.7810 H     1 <1>   0.1500 
 32 H       -9.4100    -2.5760    -1.2010 H     1 <1>   0.0800 
 33 H       -9.4870    -1.8570     0.4110 H     1 <1>   0.0800 
 34 H      -10.7990    -3.7980     1.2040 H     1 <1>   0.0800 
 35 H      -10.7230    -4.5090    -0.3920 H     1 <1>   0.0800 
 36 H      -12.0850    -1.8810     0.2890 H     1 <1>   0.0800 
 37 H      -12.8960    -3.3940    -0.0340 H     1 <1>   0.0800 
 38 H      -12.0090    -2.5940    -1.3080 H     1 <1>   0.0800 
@<TRIPOS>BOND
  1   1   2  1   
  2   1   3  1   
  3   2   4  ar  
  4   2   5  ar  
  5   3   6  1   
  6   3  21  1   
  7   3  22  1   
  8   4   7  ar  
  9   5   8  ar  
 10   6   9  1   
 11   6  23  1   
 12   6  24  1   
 13   7  10  ar  
 14   7  25  1   
 15   8  10  ar  
 16   8  26  1   
 17   9  11  1   
 18  10  27  1   
 19  11  12  ar  
 20  11  13  ar  
 21  12  14  ar  
 22  12  28  1   
 23  13  15  ar  
 24  13  29  1   
 25  14  16  ar  
 26  14  30  1   
 27  15  16  ar  
 28  15  31  1   
 29  16  17  1   
 30  17  18  1   
 31  18  19  1   
 32  18  32  1   
 33  18  33  1   
 34  19  20  1   
 35  19  34  1   
 36  19  35  1   
 37  20  36  1   
 38  20  37  1   
 39  20  38  1   
@<TRIPOS>SUBSTRUCTURE
  1 ****   9 GROUP 4 **** **** 0

# MOE 2024.06 (io_trps.svl 2023.06)
