@<TRIPOS>MOLECULE
NONAME
47 49 1 0 0 
SMALL
USER_CHARGES


@<TRIPOS>ATOM
  1 N        0.6130     2.7520     0.5790 N.4   1 <1>  -0.9590 
  2 C       -0.8690     3.0420     0.5020 C.3   1 <1>   0.3430 
  3 C        1.3560     3.9700     1.0540 C.3   1 <1>   0.2630 
  4 C        1.2130     2.3040    -0.7250 C.3   1 <1>   0.2630 
  5 C       -1.7610     1.8000     0.2050 C.3   1 <1>   0.3430 
  6 N       -3.2370     2.0960     0.1860 N.4   1 <1>  -0.9060 
  7 C       -4.0600     0.8800    -0.0960 C.3   1 <1>   0.3430 
  8 C       -5.5670     1.2010    -0.1090 C.3   1 <1>   0.0000 
  9 C       -6.0470     1.7460     1.2620 C.3   1 <1>  -0.1600 
 10 C       -6.3350    -0.1090    -0.4060 C.3   1 <1>  -0.1600 
 11 C       -5.9210     2.2340    -1.2100 C.3   1 <1>  -0.1600 
 12 C       -7.5650     2.0050     1.2370 C.3   1 <1>  -0.0800 
 13 C       -7.8530     0.1390    -0.4340 C.3   1 <1>  -0.0800 
 14 C       -7.4390     2.4940    -1.2370 C.3   1 <1>  -0.0800 
 15 C       -8.3000     0.6880     0.9320 C.3   1 <1>  -0.1600 
 16 C       -7.8890     3.0300     0.1350 C.3   1 <1>  -0.1600 
 17 C       -8.1760     1.1740    -1.5270 C.3   1 <1>  -0.1600 
 18 H        0.7990     2.0150     1.2840 H     1 <1>   0.4500 
 19 H       -1.0360     3.7830    -0.2630 H     1 <1>   0.0800 
 20 H       -1.1810     3.4630     1.4440 H     1 <1>   0.0800 
 21 H        1.2350     4.7840     0.3570 H     1 <1>   0.0800 
 22 H        2.4100     3.7560     1.1450 H     1 <1>   0.0800 
 23 H        0.9920     4.2860     2.0190 H     1 <1>   0.0800 
 24 H        1.0760     3.0580    -1.4840 H     1 <1>   0.0800 
 25 H        0.7610     1.3850    -1.0620 H     1 <1>   0.0800 
 26 H        2.2720     2.1320    -0.6090 H     1 <1>   0.0800 
 27 H       -1.5690     1.0520     0.9570 H     1 <1>   0.0800 
 28 H       -1.4770     1.3920    -0.7520 H     1 <1>   0.0800 
 29 H       -3.4900     2.7920    -0.5310 H     1 <1>   0.4500 
 30 H       -3.5730     2.4710     1.0860 H     1 <1>   0.4500 
 31 H       -3.8750     0.1280     0.6560 H     1 <1>   0.0800 
 32 H       -3.7890     0.4660    -1.0540 H     1 <1>   0.0800 
 33 H       -5.5570     2.6700     1.5070 H     1 <1>   0.0800 
 34 H       -5.8290     1.0360     2.0420 H     1 <1>   0.0800 
 35 H       -6.1190    -0.8490     0.3450 H     1 <1>   0.0800 
 36 H       -6.0320    -0.5130    -1.3580 H     1 <1>   0.0800 
 37 H       -5.6150     1.8700    -2.1760 H     1 <1>   0.0800 
 38 H       -5.4280     3.1730    -1.0370 H     1 <1>   0.0800 
 39 H       -7.8890     2.3850     2.1920 H     1 <1>   0.0800 
 40 H       -8.3730    -0.7820    -0.6430 H     1 <1>   0.0800 
 41 H       -7.6770     3.2130    -2.0020 H     1 <1>   0.0800 
 42 H       -9.3630     0.8590     0.9230 H     1 <1>   0.0800 
 43 H       -8.0980    -0.0350     1.7030 H     1 <1>   0.0800 
 44 H       -7.4010     3.9660     0.3450 H     1 <1>   0.0800 
 45 H       -8.9490     3.2190     0.1190 H     1 <1>   0.0800 
 46 H       -9.2380     1.3490    -1.5570 H     1 <1>   0.0800 
 47 H       -7.8850     0.7930    -2.4910 H     1 <1>   0.0800 
@<TRIPOS>BOND
  1   1   2  1   
  2   1   3  1   
  3   1   4  1   
  4   1  18  1   
  5   2   5  1   
  6   2  19  1   
  7   2  20  1   
  8   3  21  1   
  9   3  22  1   
 10   3  23  1   
 11   4  24  1   
 12   4  25  1   
 13   4  26  1   
 14   5   6  1   
 15   5  27  1   
 16   5  28  1   
 17   6   7  1   
 18   6  29  1   
 19   6  30  1   
 20   7   8  1   
 21   7  31  1   
 22   7  32  1   
 23   8   9  1   
 24   8  10  1   
 25   8  11  1   
 26   9  12  1   
 27   9  33  1   
 28   9  34  1   
 29  10  13  1   
 30  10  35  1   
 31  10  36  1   
 32  11  14  1   
 33  11  37  1   
 34  11  38  1   
 35  12  15  1   
 36  12  16  1   
 37  12  39  1   
 38  13  15  1   
 39  13  17  1   
 40  13  40  1   
 41  14  16  1   
 42  14  17  1   
 43  14  41  1   
 44  15  42  1   
 45  15  43  1   
 46  16  44  1   
 47  16  45  1   
 48  17  46  1   
 49  17  47  1   
@<TRIPOS>SUBSTRUCTURE
  1 ****   7 GROUP 4 **** **** 0

# MOE 2024.06 (io_trps.svl 2023.06)
