@<TRIPOS>MOLECULE
NONAME
37 38 1 0 0 
SMALL
USER_CHARGES


@<TRIPOS>ATOM
  1 S       -0.2750     0.5850     1.2660 S.o2  1 <1>   1.4470 
  2 O        0.1570     0.7960     2.6300 O.2   1 <1>  -0.6500 
  3 O       -0.9610    -0.6380     0.9130 O.2   1 <1>  -0.6500 
  4 N       -1.3580     1.8450     0.9230 N.am  1 <1>  -0.8490 
  5 C        1.0960     0.8520     0.1060 C.ar  1 <1>  -0.0090 
  6 C       -2.6310     1.6370     1.6810 C.3   1 <1>   0.2570 
  7 C       -0.7700     3.1580     1.2250 C.3   1 <1>   0.1960 
  8 C        2.3760     1.1580     0.5580 C.ar  1 <1>  -0.1500 
  9 C        0.8940     0.7700    -1.2670 C.ar  1 <1>  -0.1500 
 10 C       -3.8900     2.0770     0.9300 C.2   1 <1>   0.5690 
 11 C       -1.5860     4.2910     0.6040 C.3   1 <1>  -0.2400 
 12 C        3.4160     1.3780    -0.3280 C.ar  1 <1>  -0.1500 
 13 C        1.9290     0.9900    -2.1600 C.ar  1 <1>  -0.1500 
 14 O       -4.8340     2.4950     1.5600 O.2   1 <1>  -0.5700 
 15 N       -3.8870     1.9860    -0.4270 N.am  1 <1>  -0.5790 
 16 C        3.1920     1.2950    -1.6900 C.ar  1 <1>  -0.1500 
 17 C       -4.9800     2.3580    -1.3340 C.3   1 <1>   0.0490 
 18 C       -6.2450     1.5650    -1.2800 C.3   1 <1>  -0.2000 
 19 C       -5.3140     1.4080    -2.4390 C.3   1 <1>  -0.2000 
 20 H       -2.5910     2.1450     2.6280 H     1 <1>   0.0800 
 21 H       -2.7760     0.5930     1.8980 H     1 <1>   0.0800 
 22 H        0.2220     3.2120     0.8090 H     1 <1>   0.0800 
 23 H       -0.6840     3.2990     2.2910 H     1 <1>   0.0800 
 24 H        2.5630     1.2230     1.6180 H     1 <1>   0.1500 
 25 H       -0.0870     0.5290    -1.6400 H     1 <1>   0.1500 
 26 H       -1.7440     4.1100    -0.4440 H     1 <1>   0.0800 
 27 H       -1.0470     5.2150     0.7090 H     1 <1>   0.0800 
 28 H       -2.5320     4.4090     1.0990 H     1 <1>   0.0800 
 29 H        4.4000     1.6120     0.0420 H     1 <1>   0.1500 
 30 H        1.7510     0.9210    -3.2200 H     1 <1>   0.1500 
 31 H       -3.0050     1.7140    -0.8650 H     1 <1>   0.3700 
 32 H        4.0000     1.4650    -2.3810 H     1 <1>   0.1500 
 33 H       -5.0470     3.4200    -1.5080 H     1 <1>   0.1000 
 34 H       -7.1780     2.0790    -1.4320 H     1 <1>   0.1000 
 35 H       -6.3190     0.7840    -0.5430 H     1 <1>   0.1000 
 36 H       -4.7630     0.4890    -2.5280 H     1 <1>   0.1000 
 37 H       -5.6230     1.8030    -3.3910 H     1 <1>   0.1000 
@<TRIPOS>BOND
  1   1   2  2   
  2   1   3  2   
  3   1   4  am  
  4   1   5  1   
  5   4   6  1   
  6   4   7  1   
  7   5   8  ar  
  8   5   9  ar  
  9   6  10  1   
 10   6  20  1   
 11   6  21  1   
 12   7  11  1   
 13   7  22  1   
 14   7  23  1   
 15   8  12  ar  
 16   8  24  1   
 17   9  13  ar  
 18   9  25  1   
 19  10  14  2   
 20  10  15  am  
 21  11  26  1   
 22  11  27  1   
 23  11  28  1   
 24  12  16  ar  
 25  12  29  1   
 26  13  16  ar  
 27  13  30  1   
 28  15  17  1   
 29  15  31  1   
 30  16  32  1   
 31  17  18  1   
 32  17  19  1   
 33  17  33  1   
 34  18  19  1   
 35  18  34  1   
 36  18  35  1   
 37  19  36  1   
 38  19  37  1   
@<TRIPOS>SUBSTRUCTURE
  1 ****   4 GROUP 4 **** **** 0

# MOE 2024.06 (io_trps.svl 2023.06)
