@<TRIPOS>MOLECULE
NONAME
44 46 1 0 0 
SMALL
USER_CHARGES


@<TRIPOS>ATOM
  1 O        0.2070     0.1100    -0.1450 O.2   1 <1>  -0.5700 
  2 C        0.7170     1.2050     0.0020 C.2   1 <1>   0.5440 
  3 N       -0.0690     2.3220     0.1230 N.am  1 <1>  -0.5470 
  4 C        2.1630     1.3450     0.0330 C.ar  1 <1>   0.0860 
  5 C       -1.4480     2.5690     0.1940 C.ar  1 <1>   0.1170 
  6 C        2.9870     0.4020    -0.5830 C.ar  1 <1>  -0.1500 
  7 C        2.7940     2.4170     0.6710 C.ar  1 <1>  -0.1500 
  8 C       -1.8290     3.9170     0.2660 C.ar  1 <1>   0.1000 
  9 C       -2.4220     1.5790     0.2020 C.ar  1 <1>  -0.1500 
 10 C        4.3650     0.5240    -0.5740 C.ar  1 <1>  -0.1500 
 11 C        4.1710     2.5430     0.6810 C.ar  1 <1>  -0.1500 
 12 N       -0.8450     4.9280     0.2610 N.pl3 1 <1>  -0.8380 
 13 C       -3.1810     4.2320     0.3370 C.ar  1 <1>  -0.1500 
 14 C       -3.7640     1.9100     0.2760 C.ar  1 <1>  -0.1500 
 15 C        4.9680     1.5980     0.0580 C.ar  1 <1>  -0.1430 
 16 C       -0.8280     5.8280     1.4440 C.3   1 <1>   0.2090 
 17 C       -0.7840     5.7460    -0.9800 C.3   1 <1>   0.2090 
 18 C       -4.1440     3.2390     0.3420 C.ar  1 <1>  -0.1500 
 19 C        6.4820     1.7350     0.0680 C.3   1 <1>  -0.0170 
 20 C       -1.0340     7.2330     0.8960 C.3   1 <1>  -0.1600 
 21 C       -0.4830     7.1670    -0.5220 C.3   1 <1>  -0.1600 
 22 C        6.9580     2.5340    -1.1460 C.3   1 <1>  -0.2400 
 23 H        0.4180     3.2220     0.1380 H     1 <1>   0.3700 
 24 H        2.5330    -0.4400    -1.0770 H     1 <1>   0.1500 
 25 H        2.2040     3.1610     1.1740 H     1 <1>   0.1500 
 26 H       -2.1390     0.5440     0.1510 H     1 <1>   0.1500 
 27 H        4.9660    -0.2230    -1.0630 H     1 <1>   0.1500 
 28 H        4.6250     3.3830     1.1790 H     1 <1>   0.1500 
 29 H       -3.4790     5.2620     0.3860 H     1 <1>   0.1500 
 30 H       -4.5070     1.1330     0.2800 H     1 <1>   0.1500 
 31 H        0.1350     5.7530     1.9200 H     1 <1>   0.0800 
 32 H       -1.5920     5.5640     2.1570 H     1 <1>   0.0800 
 33 H       -1.7310     5.7100    -1.4910 H     1 <1>   0.0800 
 34 H       -0.0150     5.3760    -1.6360 H     1 <1>   0.0800 
 35 H       -5.1870     3.4980     0.3980 H     1 <1>   0.1500 
 36 H        6.9340     0.7580     0.0570 H     1 <1>   0.0800 
 37 H        6.7960     2.2280     0.9720 H     1 <1>   0.0800 
 38 H       -0.5380     7.9740     1.4970 H     1 <1>   0.0800 
 39 H       -2.0880     7.4470     0.8710 H     1 <1>   0.0800 
 40 H       -0.9290     7.8980    -1.1720 H     1 <1>   0.0800 
 41 H        0.5830     7.3100    -0.5090 H     1 <1>   0.0800 
 42 H        6.6610     2.0410    -2.0550 H     1 <1>   0.0800 
 43 H        8.0290     2.6240    -1.1340 H     1 <1>   0.0800 
 44 H        6.5260     3.5200    -1.1340 H     1 <1>   0.0800 
@<TRIPOS>BOND
  1   1   2  2   
  2   2   3  am  
  3   2   4  1   
  4   3   5  1   
  5   3  23  1   
  6   4   6  ar  
  7   4   7  ar  
  8   5   8  ar  
  9   5   9  ar  
 10   6  10  ar  
 11   6  24  1   
 12   7  11  ar  
 13   7  25  1   
 14   8  12  1   
 15   8  13  ar  
 16   9  14  ar  
 17   9  26  1   
 18  10  15  ar  
 19  10  27  1   
 20  11  15  ar  
 21  11  28  1   
 22  12  16  1   
 23  12  17  1   
 24  13  18  ar  
 25  13  29  1   
 26  14  18  ar  
 27  14  30  1   
 28  15  19  1   
 29  16  20  1   
 30  16  31  1   
 31  16  32  1   
 32  17  21  1   
 33  17  33  1   
 34  17  34  1   
 35  18  35  1   
 36  19  22  1   
 37  19  36  1   
 38  19  37  1   
 39  20  21  1   
 40  20  38  1   
 41  20  39  1   
 42  21  40  1   
 43  21  41  1   
 44  22  42  1   
 45  22  43  1   
 46  22  44  1   
@<TRIPOS>SUBSTRUCTURE
  1 ****   3 GROUP 4 **** **** 0

# MOE 2024.06 (io_trps.svl 2023.06)
