@<TRIPOS>MOLECULE
NONAME
41 43 1 0 0 
SMALL
USER_CHARGES


@<TRIPOS>ATOM
  1 S       -0.3840    -0.1620    -1.6100 S.3   1 <1>  -0.0800 
  2 C        0.3740     1.1840    -0.7470 C.2   1 <1>   0.1040 
  3 C       -1.9280     0.2220    -0.8940 C.2   1 <1>  -0.1400 
  4 N        1.7290     1.4410    -0.8990 N.am  1 <1>  -0.4940 
  5 C       -0.5430     1.8570     0.0250 C.2   1 <1>  -0.0860 
  6 C       -1.8530     1.2680    -0.0880 C.2   1 <1>  -0.1810 
  7 C       -3.2630    -0.4290    -1.0510 C.3   1 <1>   0.0200 
  8 C        2.7240     0.8460    -1.6370 C.2   1 <1>   0.5690 
  9 C       -0.2370     3.0010     0.8380 C.2   1 <1>   0.8060 
 10 C       -3.2110     1.5570     0.5040 C.3   1 <1>   0.0210 
 11 C       -4.1240     0.4630    -0.1220 C.3   1 <1>  -0.1600 
 12 O        2.5590    -0.1190    -2.3390 O.2   1 <1>  -0.5700 
 13 C        4.1190     1.4460    -1.5880 C.3   1 <1>   0.1310 
 14 O        0.8720     3.5030     0.8850 O.2   1 <1>  -0.5700 
 15 O       -1.2130     3.5440     1.5800 O.3   1 <1>  -0.4300 
 16 S        4.3890     2.4380    -0.0380 S.3   1 <1>  -0.3310 
 17 C       -0.9800     4.6680     2.4070 C.3   1 <1>   0.0400 
 18 C        6.0420     3.0820    -0.2160 C.ar  1 <1>   0.7220 
 19 N        6.4560     3.8270     0.7940 N.ar  1 <1>  -0.6200 
 20 N        6.6730     2.7490    -1.3310 N.ar  1 <1>  -0.6200 
 21 C        7.6720     4.3040     0.6630 C.ar  1 <1>   0.1670 
 22 C        7.8870     3.2420    -1.4290 C.ar  1 <1>   0.1600 
 23 C        8.4380     4.0340    -0.4480 C.ar  1 <1>  -0.1500 
 24 C        8.1940     5.1650     1.7930 C.3   1 <1>  -0.0970 
 25 H        2.0640     2.2280    -0.3270 H     1 <1>   0.3700 
 26 H       -3.2300    -1.4490    -0.7110 H     1 <1>   0.0800 
 27 H       -3.5920    -0.3810    -2.0740 H     1 <1>   0.0800 
 28 H       -3.5400     2.5440     0.2270 H     1 <1>   0.0800 
 29 H       -3.1790     1.4700     1.5760 H     1 <1>   0.0800 
 30 H       -4.5640    -0.1350     0.6560 H     1 <1>   0.0800 
 31 H       -4.9130     0.9260    -0.6880 H     1 <1>   0.0800 
 32 H        4.2680     2.1060    -2.4220 H     1 <1>   0.0800 
 33 H        4.8600     0.6680    -1.6010 H     1 <1>   0.0800 
 34 H       -1.8990     4.9220     2.9030 H     1 <1>   0.0800 
 35 H       -0.6500     5.4900     1.7940 H     1 <1>   0.0800 
 36 H       -0.2240     4.4180     3.1310 H     1 <1>   0.0800 
 37 H        8.4570     3.0090    -2.3130 H     1 <1>   0.1500 
 38 H        9.4320     4.4250    -0.5520 H     1 <1>   0.1500 
 39 H        8.2010     4.5970     2.7050 H     1 <1>   0.0800 
 40 H        7.5510     6.0170     1.9230 H     1 <1>   0.0800 
 41 H        9.1910     5.5100     1.5900 H     1 <1>   0.0800 
@<TRIPOS>BOND
  1   1   2  1   
  2   1   3  1   
  3   2   4  1   
  4   2   5  2   
  5   3   6  2   
  6   3   7  1   
  7   4   8  am  
  8   4  25  1   
  9   5   6  1   
 10   5   9  1   
 11   6  10  1   
 12   7  11  1   
 13   7  26  1   
 14   7  27  1   
 15   8  12  2   
 16   8  13  1   
 17   9  14  2   
 18   9  15  1   
 19  10  11  1   
 20  10  28  1   
 21  10  29  1   
 22  11  30  1   
 23  11  31  1   
 24  13  16  1   
 25  13  32  1   
 26  13  33  1   
 27  15  17  1   
 28  16  18  1   
 29  17  34  1   
 30  17  35  1   
 31  17  36  1   
 32  18  19  ar  
 33  18  20  ar  
 34  19  21  ar  
 35  20  22  ar  
 36  21  23  ar  
 37  21  24  1   
 38  22  23  ar  
 39  22  37  1   
 40  23  38  1   
 41  24  39  1   
 42  24  40  1   
 43  24  41  1   
@<TRIPOS>SUBSTRUCTURE
  1 ****   4 GROUP 4 **** **** 0

# MOE 2024.06 (io_trps.svl 2023.06)
