@<TRIPOS>MOLECULE
NONAME
43 45 1 0 0 
SMALL
USER_CHARGES


@<TRIPOS>ATOM
  1 O       -1.7490     0.4340    -2.9110 O.2   1 <1>  -0.5700 
  2 C       -1.2260     0.9680    -1.9620 C.2   1 <1>   0.5690 
  3 N       -1.5400     0.6260    -0.6910 N.am  1 <1>  -0.7300 
  4 C       -0.1800     2.0650    -2.1920 C.3   1 <1>   0.1710 
  5 C       -2.5360    -0.3790    -0.2890 C.3   1 <1>   0.3200 
  6 N        0.8240     2.2070    -1.0970 N.3   1 <1>  -0.8100 
  7 C       -3.1040    -0.0010     1.0660 C.2   1 <1>  -0.0400 
  8 C        1.6090     3.4510    -1.2650 C.3   1 <1>   0.1100 
  9 C        1.7490     1.0450    -1.0720 C.3   1 <1>   0.1100 
 10 O       -2.2960     0.0550     2.1090 O.3   1 <1>  -0.2800 
 11 C       -4.3670     0.3110     1.4310 C.2   1 <1>  -0.1500 
 12 C        2.6680     3.6250    -0.1590 C.3   1 <1>   0.2090 
 13 C        2.8120     1.1700     0.0370 C.3   1 <1>   0.2090 
 14 C       -3.0200     0.4000     3.1550 C.2   1 <1>  -0.0100 
 15 C       -4.3120     0.5740     2.8050 C.2   1 <1>  -0.1500 
 16 N        3.5770     2.4440    -0.0950 N.pl3 1 <1>  -0.8380 
 17 C        4.6890     2.5750     0.7280 C.ar  1 <1>   0.1000 
 18 C        5.9560     2.6140     0.1650 C.ar  1 <1>  -0.1500 
 19 C        4.5680     2.6680     2.1110 C.ar  1 <1>  -0.1500 
 20 C        7.0810     2.7430     0.9590 C.ar  1 <1>  -0.1500 
 21 C        5.6890     2.7970     2.9100 C.ar  1 <1>  -0.1500 
 22 C        6.9490     2.8350     2.3350 C.ar  1 <1>  -0.1500 
 23 H       -1.0360     1.0870     0.0730 H     1 <1>   0.3700 
 24 H       -0.7180     2.9900    -2.2950 H     1 <1>   0.0800 
 25 H        0.3210     1.8710    -3.1230 H     1 <1>   0.0800 
 26 H       -2.0630    -1.3430    -0.2260 H     1 <1>   0.0800 
 27 H       -3.3220    -0.4250    -1.0230 H     1 <1>   0.0800 
 28 H        0.9450     4.2970    -1.2400 H     1 <1>   0.0800 
 29 H        2.1090     3.4440    -2.2180 H     1 <1>   0.0800 
 30 H        2.2540     0.9580    -2.0190 H     1 <1>   0.0800 
 31 H        1.1910     0.1400    -0.9090 H     1 <1>   0.0800 
 32 H       -5.2530     0.3600     0.8220 H     1 <1>   0.1500 
 33 H        2.1730     3.7520     0.7880 H     1 <1>   0.0800 
 34 H        3.2510     4.5080    -0.3550 H     1 <1>   0.0800 
 35 H        3.4940     0.3410    -0.0250 H     1 <1>   0.0800 
 36 H        2.3270     1.1360     0.9960 H     1 <1>   0.0800 
 37 H       -2.5360     0.4980     4.1120 H     1 <1>   0.1500 
 38 H       -5.1460     0.8550     3.4230 H     1 <1>   0.1500 
 39 H        6.0450     2.5410    -0.9030 H     1 <1>   0.1500 
 40 H        3.5910     2.6390     2.5540 H     1 <1>   0.1500 
 41 H        8.0570     2.7720     0.5090 H     1 <1>   0.1500 
 42 H        5.5840     2.8680     3.9780 H     1 <1>   0.1500 
 43 H        7.8220     2.9350     2.9550 H     1 <1>   0.1500 
@<TRIPOS>BOND
  1   1   2  2   
  2   2   3  am  
  3   2   4  1   
  4   3   5  1   
  5   3  23  1   
  6   4   6  1   
  7   4  24  1   
  8   4  25  1   
  9   5   7  1   
 10   5  26  1   
 11   5  27  1   
 12   6   8  1   
 13   6   9  1   
 14   7  10  1   
 15   7  11  2   
 16   8  12  1   
 17   8  28  1   
 18   8  29  1   
 19   9  13  1   
 20   9  30  1   
 21   9  31  1   
 22  10  14  1   
 23  11  15  1   
 24  11  32  1   
 25  12  16  1   
 26  12  33  1   
 27  12  34  1   
 28  13  16  1   
 29  13  35  1   
 30  13  36  1   
 31  14  15  2   
 32  14  37  1   
 33  15  38  1   
 34  16  17  1   
 35  17  18  ar  
 36  17  19  ar  
 37  18  20  ar  
 38  18  39  1   
 39  19  21  ar  
 40  19  40  1   
 41  20  22  ar  
 42  20  41  1   
 43  21  22  ar  
 44  21  42  1   
 45  22  43  1   
@<TRIPOS>SUBSTRUCTURE
  1 ****   6 GROUP 4 **** **** 0

# MOE 2024.06 (io_trps.svl 2023.06)
