@<TRIPOS>MOLECULE
NONAME
34 37 1 0 0 
SMALL
USER_CHARGES


@<TRIPOS>ATOM
  1 CL       0.6170     0.4360     0.2670 Cl    1 <1>  -0.1770 
  2 C       -1.0370     0.9920     0.1880 C.ar  1 <1>   0.1770 
  3 C       -2.0540     0.1590     0.6180 C.ar  1 <1>  -0.1500 
  4 C       -1.3080     2.2550    -0.3000 C.ar  1 <1>  -0.1500 
  5 C       -3.3630     0.6040     0.5530 C.ar  1 <1>  -0.1500 
  6 C       -2.6210     2.6910    -0.3590 C.ar  1 <1>  -0.1500 
  7 C       -3.6670     1.8710     0.0630 C.ar  1 <1>   0.1170 
  8 N       -5.0120     2.2700     0.0300 N.am  1 <1>  -0.5470 
  9 C       -5.6490     3.2640    -0.6550 C.2   1 <1>   0.6300 
 10 O       -5.1070     4.0080    -1.4340 O.2   1 <1>  -0.5700 
 11 C       -7.1450     3.4050    -0.4230 C.3   1 <1>  -0.1000 
 12 C       -7.6920     4.6270     0.2540 C.3   1 <1>  -0.1950 
 13 C       -7.7300     3.2920     0.9590 C.3   1 <1>  -0.1950 
 14 C       -9.1480     5.1240     0.3300 C.3   1 <1>   0.0150 
 15 C       -9.2080     3.1430     1.3710 C.3   1 <1>   0.0150 
 16 C       -9.5530     4.5890     1.6940 C.3   1 <1>  -0.1600 
 17 C      -10.0400     4.2740    -0.5920 C.3   1 <1>  -0.1600 
 18 C      -10.0800     2.9070     0.1250 C.3   1 <1>  -0.1600 
 19 H       -1.8170    -0.8200     0.9940 H     1 <1>   0.1500 
 20 H       -0.5030     2.8870    -0.6280 H     1 <1>   0.1500 
 21 H       -4.1550    -0.0440     0.8840 H     1 <1>   0.1500 
 22 H       -2.8250     3.6770    -0.7350 H     1 <1>   0.1500 
 23 H       -5.6420     1.7110     0.6010 H     1 <1>   0.3700 
 24 H       -7.6840     3.0090    -1.2610 H     1 <1>   0.1000 
 25 H       -6.9850     5.3530     0.6190 H     1 <1>   0.1000 
 26 H       -7.0650     3.2020     1.8010 H     1 <1>   0.1000 
 27 H       -9.2580     6.1870     0.2040 H     1 <1>   0.0800 
 28 H       -9.3770     2.4460     2.1730 H     1 <1>   0.0800 
 29 H      -10.5990     4.7330     1.9070 H     1 <1>   0.0800 
 30 H       -8.9520     4.9910     2.4920 H     1 <1>   0.0800 
 31 H       -9.6380     4.2100    -1.5880 H     1 <1>   0.0800 
 32 H      -11.0290     4.6960    -0.6420 H     1 <1>   0.0800 
 33 H      -11.0890     2.6730     0.4170 H     1 <1>   0.0800 
 34 H       -9.6990     2.1090    -0.4870 H     1 <1>   0.0800 
@<TRIPOS>BOND
  1   1   2  1   
  2   2   3  ar  
  3   2   4  ar  
  4   3   5  ar  
  5   3  19  1   
  6   4   6  ar  
  7   4  20  1   
  8   5   7  ar  
  9   5  21  1   
 10   6   7  ar  
 11   6  22  1   
 12   7   8  1   
 13   8   9  am  
 14   8  23  1   
 15   9  10  2   
 16   9  11  1   
 17  11  12  1   
 18  11  13  1   
 19  11  24  1   
 20  12  13  1   
 21  12  14  1   
 22  12  25  1   
 23  13  15  1   
 24  13  26  1   
 25  14  16  1   
 26  14  17  1   
 27  14  27  1   
 28  15  16  1   
 29  15  18  1   
 30  15  28  1   
 31  16  29  1   
 32  16  30  1   
 33  17  18  1   
 34  17  31  1   
 35  17  32  1   
 36  18  33  1   
 37  18  34  1   
@<TRIPOS>SUBSTRUCTURE
  1 ****   8 GROUP 4 **** **** 0

# MOE 2024.06 (io_trps.svl 2023.06)
