@<TRIPOS>MOLECULE
NONAME
38 40 1 0 0 
SMALL
USER_CHARGES


@<TRIPOS>ATOM
  1 CL      -0.1650     0.5140     0.7410 Cl    1 <1>  -0.1770 
  2 C       -1.5500    -0.5120     0.4650 C.ar  1 <1>   0.1770 
  3 C       -1.3750    -1.8780     0.3770 C.ar  1 <1>  -0.1500 
  4 C       -2.7980     0.0670     0.3400 C.ar  1 <1>  -0.1500 
  5 C       -2.4720    -2.7050     0.1580 C.ar  1 <1>   0.1170 
  6 C       -3.8990    -0.7420     0.1200 C.ar  1 <1>  -0.1500 
  7 N       -2.3820    -4.1050     0.0580 N.am  1 <1>  -0.5470 
  8 C       -3.7410    -2.1240     0.0290 C.ar  1 <1>   0.0830 
  9 C       -1.3630    -5.0170     0.1590 C.2   1 <1>   0.7150 
 10 O       -4.7910    -2.9730    -0.1860 O.3   1 <1>  -0.3630 
 11 O       -0.2220    -4.6520     0.3640 O.2   1 <1>  -0.5700 
 12 C       -1.6570    -6.4200     0.0190 C.2   1 <1>  -0.0450 
 13 C       -6.1270    -2.5030    -0.1950 C.3   1 <1>   0.1200 
 14 S       -3.3240    -6.9450    -0.2650 S.3   1 <1>  -0.0800 
 15 C       -0.8620    -7.5200     0.0640 C.2   1 <1>  -0.1500 
 16 C       -7.0800    -3.6870    -0.3710 C.3   1 <1>   0.2000 
 17 C       -2.8620    -8.6320    -0.3100 C.2   1 <1>  -0.1100 
 18 C       -1.5370    -8.7620    -0.1210 C.2   1 <1>  -0.1500 
 19 O       -8.3890    -3.2350    -0.2620 O.3   1 <1>  -0.5600 
 20 C       -6.9660    -4.7630     0.7000 C.3   1 <1>  -0.1600 
 21 C       -9.2380    -4.2850     0.0800 C.3   1 <1>   0.1200 
 22 C       -8.3660    -5.3520     0.7390 C.3   1 <1>  -0.1600 
 23 H       -0.3850    -2.2760     0.4810 H     1 <1>   0.1500 
 24 H       -2.9010     1.1350     0.4130 H     1 <1>   0.1500 
 25 H       -4.8620    -0.2760     0.0220 H     1 <1>   0.1500 
 26 H       -3.2930    -4.5320    -0.1170 H     1 <1>   0.3700 
 27 H       -6.2410    -1.8170    -1.0140 H     1 <1>   0.0800 
 28 H       -6.3190    -2.0130     0.7430 H     1 <1>   0.0800 
 29 H        0.2030    -7.4860     0.2260 H     1 <1>   0.1500 
 30 H       -6.9700    -4.1140    -1.3540 H     1 <1>   0.0800 
 31 H       -3.6380    -9.3590    -0.4750 H     1 <1>   0.1500 
 32 H       -0.9980    -9.6940    -0.1030 H     1 <1>   0.1500 
 33 H       -6.7270    -4.3110     1.6470 H     1 <1>   0.0800 
 34 H       -6.2140    -5.4920     0.4550 H     1 <1>   0.0800 
 35 H       -9.6980    -4.6540    -0.8200 H     1 <1>   0.0800 
 36 H       -9.9910    -3.9070     0.7510 H     1 <1>   0.0800 
 37 H       -8.6860    -5.5530     1.7460 H     1 <1>   0.0800 
 38 H       -8.4170    -6.2620     0.1670 H     1 <1>   0.0800 
@<TRIPOS>BOND
  1   1   2  1   
  2   2   3  ar  
  3   2   4  ar  
  4   3   5  ar  
  5   3  23  1   
  6   4   6  ar  
  7   4  24  1   
  8   5   7  1   
  9   5   8  ar  
 10   6   8  ar  
 11   6  25  1   
 12   7   9  am  
 13   7  26  1   
 14   8  10  1   
 15   9  11  2   
 16   9  12  1   
 17  10  13  1   
 18  12  14  1   
 19  12  15  2   
 20  13  16  1   
 21  13  27  1   
 22  13  28  1   
 23  14  17  1   
 24  15  18  1   
 25  15  29  1   
 26  16  19  1   
 27  16  20  1   
 28  16  30  1   
 29  17  18  2   
 30  17  31  1   
 31  18  32  1   
 32  19  21  1   
 33  20  22  1   
 34  20  33  1   
 35  20  34  1   
 36  21  22  1   
 37  21  35  1   
 38  21  36  1   
 39  22  37  1   
 40  22  38  1   
@<TRIPOS>SUBSTRUCTURE
  1 ****   7 GROUP 4 **** **** 0

# MOE 2024.06 (io_trps.svl 2023.06)
