@<TRIPOS>MOLECULE
NONAME
40 42 1 0 0 
SMALL
USER_CHARGES


@<TRIPOS>ATOM
  1 O       -0.2230    -0.3000    -0.9510 O.2   1 <1>  -0.5700 
  2 C       -0.1290    -1.3610    -0.3630 C.2   1 <1>   0.6900 
  3 N       -1.2430    -2.1400    -0.1680 N.am  1 <1>  -0.6600 
  4 N        1.0730    -1.8000     0.1170 N.am  1 <1>  -0.5470 
  5 C       -2.5940    -1.5750    -0.4690 C.3   1 <1>   0.1400 
  6 C       -1.1880    -3.5780     0.2410 C.3   1 <1>   0.1400 
  7 C        2.3670    -1.2590     0.0620 C.ar  1 <1>   0.1170 
  8 C       -3.6750    -2.2620     0.3810 C.3   1 <1>  -0.0800 
  9 C       -2.3740    -4.3620    -0.3400 C.3   1 <1>  -0.0800 
 10 C        3.4480    -2.1280     0.2030 C.ar  1 <1>  -0.1500 
 11 C        2.6150     0.1090    -0.1080 C.ar  1 <1>  -0.1500 
 12 C       -3.7260    -3.7820     0.1220 C.3   1 <1>  -0.1600 
 13 C       -5.0510    -1.6240     0.1490 C.3   1 <1>  -0.2400 
 14 C       -2.2790    -5.8530     0.0080 C.3   1 <1>  -0.2400 
 15 C        4.7250    -1.6100     0.1650 C.ar  1 <1>   0.0830 
 16 C        3.9080     0.6150    -0.1470 C.ar  1 <1>  -0.1500 
 17 O        5.8870    -2.2640     0.2780 O.3   1 <1>  -0.3630 
 18 C        4.9520    -0.2770    -0.0060 C.ar  1 <1>   0.0830 
 19 C        6.9180    -1.2840     0.1660 C.3   1 <1>   0.4000 
 20 O        6.2680    -0.0270    -0.0090 O.3   1 <1>  -0.3630 
 21 H        1.0020    -2.6980     0.5770 H     1 <1>   0.3700 
 22 H       -2.8050    -1.7090    -1.5160 H     1 <1>   0.0800 
 23 H       -2.5950    -0.5170    -0.2610 H     1 <1>   0.0800 
 24 H       -1.2070    -3.6370     1.3160 H     1 <1>   0.0800 
 25 H       -0.2740    -4.0220    -0.1140 H     1 <1>   0.0800 
 26 H       -3.4110    -2.1000     1.4130 H     1 <1>   0.0800 
 27 H       -2.3160    -4.2740    -1.4130 H     1 <1>   0.0800 
 28 H        3.3050    -3.1830     0.3360 H     1 <1>   0.1500 
 29 H        1.7910     0.7920    -0.2090 H     1 <1>   0.1500 
 30 H       -4.4580    -4.0050    -0.6350 H     1 <1>   0.0800 
 31 H       -4.0480    -4.2620     1.0300 H     1 <1>   0.0800 
 32 H       -5.3490    -1.7290    -0.8800 H     1 <1>   0.0800 
 33 H       -5.0210    -0.5770     0.3920 H     1 <1>   0.0800 
 34 H       -5.7900    -2.0960     0.7720 H     1 <1>   0.0800 
 35 H       -2.3040    -5.9990     1.0740 H     1 <1>   0.0800 
 36 H       -1.3630    -6.2690    -0.3750 H     1 <1>   0.0800 
 37 H       -3.1020    -6.3900    -0.4310 H     1 <1>   0.0800 
 38 H        4.1000     1.6630    -0.2800 H     1 <1>   0.1500 
 39 H        7.5270    -1.4980    -0.6940 H     1 <1>   0.0800 
 40 H        7.4990    -1.2670     1.0710 H     1 <1>   0.0800 
@<TRIPOS>BOND
  1   1   2  2   
  2   2   3  am  
  3   2   4  am  
  4   3   5  1   
  5   3   6  1   
  6   4   7  1   
  7   4  21  1   
  8   5   8  1   
  9   5  22  1   
 10   5  23  1   
 11   6   9  1   
 12   6  24  1   
 13   6  25  1   
 14   7  10  ar  
 15   7  11  ar  
 16   8  12  1   
 17   8  13  1   
 18   8  26  1   
 19   9  12  1   
 20   9  14  1   
 21   9  27  1   
 22  10  15  ar  
 23  10  28  1   
 24  11  16  ar  
 25  11  29  1   
 26  12  30  1   
 27  12  31  1   
 28  13  32  1   
 29  13  33  1   
 30  13  34  1   
 31  14  35  1   
 32  14  36  1   
 33  14  37  1   
 34  15  17  1   
 35  15  18  ar  
 36  16  18  ar  
 37  16  38  1   
 38  17  19  1   
 39  18  20  1   
 40  19  20  1   
 41  19  39  1   
 42  19  40  1   
@<TRIPOS>SUBSTRUCTURE
  1 ****   4 GROUP 4 **** **** 0

# MOE 2024.06 (io_trps.svl 2023.06)
