@<TRIPOS>MOLECULE
NONAME
55 57 1 0 0 
SMALL
USER_CHARGES


@<TRIPOS>ATOM
  1 O       -1.0290    -0.0850    -0.5940 O.3   1 <1>  -0.3630 
  2 C       -1.8270     0.8410     0.0080 C.ar  1 <1>   0.0830 
  3 C        0.0150    -0.6250     0.1880 C.3   1 <1>   0.0400 
  4 C       -1.7900     2.1790    -0.4040 C.ar  1 <1>   0.0830 
  5 C       -2.6760     0.4730     1.0560 C.ar  1 <1>   0.0820 
  6 O       -1.0200     2.6370    -1.4330 O.3   1 <1>  -0.3630 
  7 C       -2.5450     3.1360     0.2660 C.ar  1 <1>  -0.1430 
  8 O       -2.8090    -0.8070     1.4800 O.3   1 <1>  -0.3630 
  9 C       -3.4230     1.4330     1.7150 C.ar  1 <1>  -0.1500 
 10 C       -0.9500     1.8940    -2.6370 C.3   1 <1>   0.0400 
 11 C       -3.3590     2.7570     1.3270 C.ar  1 <1>  -0.1500 
 12 C       -2.4560     4.5900    -0.1840 C.3   1 <1>   0.7100 
 13 C       -3.4350    -1.7020     0.5880 C.3   1 <1>   0.0400 
 14 N       -1.5660     5.2960     0.7850 N.4   1 <1>  -0.9590 
 15 C       -3.8390     5.2460    -0.2690 C.ar  1 <1>  -0.1430 
 16 C       -1.6360     6.7740     0.6300 C.3   1 <1>   0.3430 
 17 C       -0.1610     4.7960     0.6820 C.3   1 <1>   0.2630 
 18 C       -4.1120     6.4900     0.2870 C.ar  1 <1>  -0.1430 
 19 C       -4.8560     4.5820    -0.9390 C.ar  1 <1>  -0.1500 
 20 C       -3.0290     7.2720     1.0110 C.3   1 <1>  -0.0170 
 21 C       -5.3820     7.0350     0.1810 C.ar  1 <1>  -0.1500 
 22 C       -6.1300     5.1100    -1.0550 C.ar  1 <1>   0.0830 
 23 C       -6.4060     6.3650    -0.4840 C.ar  1 <1>   0.0830 
 24 O       -6.9930     4.3070    -1.7420 O.3   1 <1>  -0.3620 
 25 O       -7.6520     6.9120    -0.5880 O.3   1 <1>  -0.3620 
 26 C       -8.3720     4.5710    -1.8730 C.3   1 <1>   0.0400 
 27 C       -7.9730     8.1930    -0.0910 C.3   1 <1>   0.0400 
 28 H        0.6120    -1.2610    -0.4400 H     1 <1>   0.0800 
 29 H       -0.4010    -1.2000     0.9950 H     1 <1>   0.0800 
 30 H        0.6150     0.1810     0.5730 H     1 <1>   0.0800 
 31 H       -4.0600     1.1300     2.5290 H     1 <1>   0.1500 
 32 H       -0.7040     2.5670    -3.4380 H     1 <1>   0.0800 
 33 H       -1.9030     1.4300    -2.8260 H     1 <1>   0.0800 
 34 H       -0.1810     1.1480    -2.5450 H     1 <1>   0.0800 
 35 H       -3.9630     3.4790     1.8530 H     1 <1>   0.1500 
 36 H       -2.0160     4.6350    -1.1660 H     1 <1>   0.0800 
 37 H       -3.5570    -2.6460     1.0890 H     1 <1>   0.0800 
 38 H       -2.8190    -1.8290    -0.2840 H     1 <1>   0.0800 
 39 H       -4.3960    -1.3050     0.3130 H     1 <1>   0.0800 
 40 H       -1.9470     5.0380     1.7030 H     1 <1>   0.4500 
 41 H       -1.4290     7.0420    -0.3940 H     1 <1>   0.0800 
 42 H       -0.9040     7.2500     1.2610 H     1 <1>   0.0800 
 43 H        0.2310     4.9750    -0.3060 H     1 <1>   0.0800 
 44 H       -0.1240     3.7340     0.8730 H     1 <1>   0.0800 
 45 H        0.4700     5.2920     1.4030 H     1 <1>   0.0800 
 46 H       -4.6790     3.6200    -1.3910 H     1 <1>   0.1500 
 47 H       -3.1030     8.3150     0.7590 H     1 <1>   0.0800 
 48 H       -3.1700     7.1810     2.0740 H     1 <1>   0.0800 
 49 H       -5.5610     7.9950     0.6270 H     1 <1>   0.1500 
 50 H       -8.8240     3.7440    -2.3890 H     1 <1>   0.0800 
 51 H       -8.5020     5.4730    -2.4440 H     1 <1>   0.0800 
 52 H       -8.8030     4.6700    -0.8920 H     1 <1>   0.0800 
 53 H       -9.0030     8.3920    -0.3250 H     1 <1>   0.0800 
 54 H       -7.3440     8.9230    -0.5710 H     1 <1>   0.0800 
 55 H       -7.8350     8.2010     0.9750 H     1 <1>   0.0800 
@<TRIPOS>BOND
  1   1   2  1   
  2   1   3  1   
  3   2   4  ar  
  4   2   5  ar  
  5   3  28  1   
  6   3  29  1   
  7   3  30  1   
  8   4   6  1   
  9   4   7  ar  
 10   5   8  1   
 11   5   9  ar  
 12   6  10  1   
 13   7  11  ar  
 14   7  12  1   
 15   8  13  1   
 16   9  11  ar  
 17   9  31  1   
 18  10  32  1   
 19  10  33  1   
 20  10  34  1   
 21  11  35  1   
 22  12  14  1   
 23  12  15  1   
 24  12  36  1   
 25  13  37  1   
 26  13  38  1   
 27  13  39  1   
 28  14  16  1   
 29  14  17  1   
 30  14  40  1   
 31  15  18  ar  
 32  15  19  ar  
 33  16  20  1   
 34  16  41  1   
 35  16  42  1   
 36  17  43  1   
 37  17  44  1   
 38  17  45  1   
 39  18  20  1   
 40  18  21  ar  
 41  19  22  ar  
 42  19  46  1   
 43  20  47  1   
 44  20  48  1   
 45  21  23  ar  
 46  21  49  1   
 47  22  23  ar  
 48  22  24  1   
 49  23  25  1   
 50  24  26  1   
 51  25  27  1   
 52  26  50  1   
 53  26  51  1   
 54  26  52  1   
 55  27  53  1   
 56  27  54  1   
 57  27  55  1   
@<TRIPOS>SUBSTRUCTURE
  1 ****   7 GROUP 4 **** **** 0

# MOE 2024.06 (io_trps.svl 2023.06)
