@<TRIPOS>MOLECULE
NONAME
57 60 1 0 0 
SMALL
USER_CHARGES


@<TRIPOS>ATOM
  1 O       -2.3770    -1.3700    -2.2580 O.2   1 <1>  -0.5700 
  2 C       -2.9290    -1.4740    -1.1810 C.2   1 <1>   0.7060 
  3 O       -4.1090    -0.8770    -1.0400 O.3   1 <1>  -0.2330 
  4 C       -2.3830    -2.1990    -0.0670 C.2   1 <1>  -0.1240 
  5 C       -4.8210    -0.8910     0.1070 C.ar  1 <1>   0.0820 
  6 C       -3.0700    -2.2830     1.1050 C.2   1 <1>  -0.1670 
  7 C       -1.0190    -2.8520    -0.3400 C.3   1 <1>   0.0390 
  8 C       -4.3270    -1.5850     1.2230 C.ar  1 <1>   0.0280 
  9 C       -6.0350    -0.2100     0.1350 C.ar  1 <1>  -0.1440 
 10 C       -2.6020    -3.0970     2.3150 C.3   1 <1>  -0.1020 
 11 C       -1.1240    -4.1260    -1.1590 C.2   1 <1>   0.6590 
 12 C       -5.1000    -1.5440     2.3890 C.ar  1 <1>  -0.1500 
 13 C       -6.7890    -0.2220     1.3010 C.ar  1 <1>   0.0820 
 14 C       -6.5130     0.5290    -1.1160 C.3   1 <1>  -0.0960 
 15 O       -0.1790    -4.5480    -1.7730 O.2   1 <1>  -0.5700 
 16 O       -2.2910    -4.7630    -1.1370 O.3   1 <1>  -0.4300 
 17 C       -6.3060    -0.8790     2.4300 C.ar  1 <1>  -0.1500 
 18 O       -7.9870     0.4040     1.3080 O.3   1 <1>  -0.3630 
 19 C       -2.5010    -5.9480    -1.8760 C.3   1 <1>   0.0400 
 20 C       -9.0440    -0.0500     2.1420 C.3   1 <1>   0.1810 
 21 C      -10.4010     0.3850     1.5940 C.2   1 <1>   0.5690 
 22 O      -11.0580     1.1300     2.2850 O.2   1 <1>  -0.5700 
 23 N      -10.8700    -0.0690     0.3850 N.am  1 <1>  -0.6600 
 24 C      -12.2130     0.3580    -0.1040 C.3   1 <1>   0.2840 
 25 C      -10.1060    -0.9170    -0.5730 C.3   1 <1>   0.1400 
 26 C      -12.9190    -0.7120    -0.9380 C.ar  1 <1>  -0.1430 
 27 C      -10.8810    -2.2040    -0.8460 C.3   1 <1>  -0.0170 
 28 C      -12.3030    -1.9070    -1.2930 C.ar  1 <1>  -0.1430 
 29 C      -14.2200    -0.4700    -1.3550 C.ar  1 <1>  -0.1500 
 30 C      -12.9900    -2.8400    -2.0550 C.ar  1 <1>  -0.1500 
 31 C      -14.9020    -1.4020    -2.1160 C.ar  1 <1>  -0.1500 
 32 C      -14.2860    -2.5890    -2.4670 C.ar  1 <1>  -0.1500 
 33 H       -0.4910    -3.0760     0.5630 H     1 <1>   0.0800 
 34 H       -0.3940    -2.1640    -0.8800 H     1 <1>   0.0800 
 35 H       -2.3260    -2.4370     3.1180 H     1 <1>   0.0800 
 36 H       -1.7700    -3.7370     2.1010 H     1 <1>   0.0800 
 37 H       -3.3960    -3.7400     2.6500 H     1 <1>   0.0800 
 38 H       -4.7620    -2.0320     3.2840 H     1 <1>   0.1500 
 39 H       -5.7170     1.1320    -1.5150 H     1 <1>   0.0800 
 40 H       -7.3420     1.1810    -0.9120 H     1 <1>   0.0800 
 41 H       -6.8110    -0.1820    -1.8650 H     1 <1>   0.0800 
 42 H       -6.8620    -0.8670     3.3490 H     1 <1>   0.1500 
 43 H       -3.5110    -6.2790    -1.7100 H     1 <1>   0.0800 
 44 H       -1.8040    -6.6960    -1.5400 H     1 <1>   0.0800 
 45 H       -2.3460    -5.7380    -2.9200 H     1 <1>   0.0800 
 46 H       -8.8970     0.3660     3.1220 H     1 <1>   0.0800 
 47 H       -9.0130    -1.1220     2.1920 H     1 <1>   0.0800 
 48 H      -12.0930     1.2450    -0.7010 H     1 <1>   0.0800 
 49 H      -12.8420     0.6070     0.7340 H     1 <1>   0.0800 
 50 H       -9.1320    -1.1660    -0.1970 H     1 <1>   0.0800 
 51 H       -9.9790    -0.3720    -1.4930 H     1 <1>   0.0800 
 52 H      -10.9090    -2.8000     0.0490 H     1 <1>   0.0800 
 53 H      -10.3680    -2.7650    -1.6050 H     1 <1>   0.0800 
 54 H      -14.7110     0.4500    -1.0870 H     1 <1>   0.1500 
 55 H      -12.5200    -3.7670    -2.3300 H     1 <1>   0.1500 
 56 H      -15.9110    -1.2050    -2.4340 H     1 <1>   0.1500 
 57 H      -14.8150    -3.3160    -3.0580 H     1 <1>   0.1500 
@<TRIPOS>BOND
  1   1   2  2   
  2   2   3  1   
  3   2   4  1   
  4   3   5  1   
  5   4   6  2   
  6   4   7  1   
  7   5   8  ar  
  8   5   9  ar  
  9   6   8  1   
 10   6  10  1   
 11   7  11  1   
 12   7  33  1   
 13   7  34  1   
 14   8  12  ar  
 15   9  13  ar  
 16   9  14  1   
 17  10  35  1   
 18  10  36  1   
 19  10  37  1   
 20  11  15  2   
 21  11  16  1   
 22  12  17  ar  
 23  12  38  1   
 24  13  17  ar  
 25  13  18  1   
 26  14  39  1   
 27  14  40  1   
 28  14  41  1   
 29  16  19  1   
 30  17  42  1   
 31  18  20  1   
 32  19  43  1   
 33  19  44  1   
 34  19  45  1   
 35  20  21  1   
 36  20  46  1   
 37  20  47  1   
 38  21  22  2   
 39  21  23  am  
 40  23  24  1   
 41  23  25  1   
 42  24  26  1   
 43  24  48  1   
 44  24  49  1   
 45  25  27  1   
 46  25  50  1   
 47  25  51  1   
 48  26  28  ar  
 49  26  29  ar  
 50  27  28  1   
 51  27  52  1   
 52  27  53  1   
 53  28  30  ar  
 54  29  31  ar  
 55  29  54  1   
 56  30  32  ar  
 57  30  55  1   
 58  31  32  ar  
 59  31  56  1   
 60  32  57  1   
@<TRIPOS>SUBSTRUCTURE
  1 ****   9 GROUP 4 **** **** 0

# MOE 2024.06 (io_trps.svl 2023.06)
