@<TRIPOS>MOLECULE
NONAME
55 57 1 0 0 
SMALL
USER_CHARGES


@<TRIPOS>ATOM
  1 F        1.6100     0.8360     3.4380 F     1 <1>  -0.3400 
  2 C        2.0450     0.2860     2.3110 C.3   1 <1>   1.1640 
  3 F        2.5010    -0.9180     2.6380 F     1 <1>  -0.3400 
  4 F        0.9710     0.0860     1.5570 F     1 <1>  -0.3400 
  5 C        3.0910     1.1600     1.6010 C.ar  1 <1>  -0.1440 
  6 C        4.2860     0.6290     1.1280 C.ar  1 <1>  -0.1500 
  7 C        2.8500     2.5180     1.4150 C.ar  1 <1>  -0.1500 
  8 C        5.2280     1.4210     0.4860 C.ar  1 <1>   0.1000 
  9 C        3.7810     3.3200     0.7770 C.ar  1 <1>  -0.1500 
 10 N        6.4090     0.8480     0.0320 N.pl3 1 <1>  -0.8380 
 11 C        4.9630     2.7740     0.3160 C.ar  1 <1>  -0.1500 
 12 C        7.6490     1.2160     0.7780 C.3   1 <1>   0.2090 
 13 C        6.5820     0.7700    -1.4470 C.3   1 <1>   0.2090 
 14 C        8.8160     0.2800     0.3980 C.3   1 <1>   0.3430 
 15 C        7.7510    -0.1690    -1.8120 C.3   1 <1>   0.3430 
 16 N        9.0310     0.1910    -1.0980 N.4   1 <1>  -0.9590 
 17 C       10.1350    -0.7470    -1.4350 C.3   1 <1>   0.4860 
 18 C       11.4240    -0.1750    -0.8810 C.ar  1 <1>  -0.1430 
 19 C       11.9980    -0.7110     0.2600 C.ar  1 <1>  -0.1500 
 20 C       12.0400     0.8970    -1.5080 C.ar  1 <1>  -0.1500 
 21 C       13.1610    -0.1750     0.7850 C.ar  1 <1>   0.0830 
 22 C       13.2030     1.4500    -0.9990 C.ar  1 <1>   0.0830 
 23 O       13.6380    -0.7740     1.9070 O.3   1 <1>  -0.3630 
 24 C       13.7650     0.9310     0.1750 C.ar  1 <1>   0.0830 
 25 O       13.6990     2.5010    -1.7060 O.3   1 <1>  -0.3630 
 26 C       14.9840    -1.2060     1.9120 C.3   1 <1>   0.0400 
 27 O       14.8620     1.5080     0.7330 O.3   1 <1>  -0.3630 
 28 C       15.0950     2.6470    -1.8730 C.3   1 <1>   0.0400 
 29 C       14.6020     2.3810     1.8090 C.3   1 <1>   0.0400 
 30 H        4.5100    -0.4160     1.2480 H     1 <1>   0.1500 
 31 H        1.9320     2.9600     1.7690 H     1 <1>   0.1500 
 32 H        3.5800     4.3690     0.6410 H     1 <1>   0.1500 
 33 H        5.6810     3.4020    -0.1770 H     1 <1>   0.1500 
 34 H        7.4610     1.1400     1.8360 H     1 <1>   0.0800 
 35 H        7.9140     2.2370     0.5630 H     1 <1>   0.0800 
 36 H        6.7640     1.7540    -1.8440 H     1 <1>   0.0800 
 37 H        5.6730     0.3980    -1.8890 H     1 <1>   0.0800 
 38 H        8.5960    -0.6990     0.7890 H     1 <1>   0.0800 
 39 H        9.7150     0.6320     0.8780 H     1 <1>   0.0800 
 40 H        7.9030    -0.1400    -2.8780 H     1 <1>   0.0800 
 41 H        7.4620    -1.1730    -1.5470 H     1 <1>   0.0800 
 42 H        9.3310     1.1230    -1.4100 H     1 <1>   0.4500 
 43 H       10.2230    -0.8520    -2.5040 H     1 <1>   0.0800 
 44 H        9.9460    -1.7190    -1.0080 H     1 <1>   0.0800 
 45 H       11.5600    -1.5540     0.7660 H     1 <1>   0.1500 
 46 H       11.6360     1.3260    -2.4080 H     1 <1>   0.1500 
 47 H       15.6240    -0.3720     2.1300 H     1 <1>   0.0800 
 48 H       15.0930    -1.9540     2.6760 H     1 <1>   0.0800 
 49 H       15.2250    -1.6240     0.9500 H     1 <1>   0.0800 
 50 H       15.2680     3.2450    -2.7490 H     1 <1>   0.0800 
 51 H       15.5420     1.6770    -1.9950 H     1 <1>   0.0800 
 52 H       15.5000     3.1450    -1.0110 H     1 <1>   0.0800 
 53 H       15.5390     2.7780     2.1560 H     1 <1>   0.0800 
 54 H       13.9690     3.1790     1.4630 H     1 <1>   0.0800 
 55 H       14.1190     1.8320     2.5990 H     1 <1>   0.0800 
@<TRIPOS>BOND
  1   1   2  1   
  2   2   3  1   
  3   2   4  1   
  4   2   5  1   
  5   5   6  ar  
  6   5   7  ar  
  7   6   8  ar  
  8   6  30  1   
  9   7   9  ar  
 10   7  31  1   
 11   8  10  1   
 12   8  11  ar  
 13   9  11  ar  
 14   9  32  1   
 15  10  12  1   
 16  10  13  1   
 17  11  33  1   
 18  12  14  1   
 19  12  34  1   
 20  12  35  1   
 21  13  15  1   
 22  13  36  1   
 23  13  37  1   
 24  14  16  1   
 25  14  38  1   
 26  14  39  1   
 27  15  16  1   
 28  15  40  1   
 29  15  41  1   
 30  16  17  1   
 31  16  42  1   
 32  17  18  1   
 33  17  43  1   
 34  17  44  1   
 35  18  19  ar  
 36  18  20  ar  
 37  19  21  ar  
 38  19  45  1   
 39  20  22  ar  
 40  20  46  1   
 41  21  23  1   
 42  21  24  ar  
 43  22  24  ar  
 44  22  25  1   
 45  23  26  1   
 46  24  27  1   
 47  25  28  1   
 48  26  47  1   
 49  26  48  1   
 50  26  49  1   
 51  27  29  1   
 52  28  50  1   
 53  28  51  1   
 54  28  52  1   
 55  29  53  1   
 56  29  54  1   
 57  29  55  1   
@<TRIPOS>SUBSTRUCTURE
  1 ****  14 GROUP 4 **** **** 0

# MOE 2024.06 (io_trps.svl 2023.06)
