@<TRIPOS>MOLECULE
NONAME
42 44 1 0 0 
SMALL
USER_CHARGES


@<TRIPOS>ATOM
  1 O        0.7320    -1.7300     1.9010 O.2   1 <1>  -0.5700 
  2 C        0.9900    -1.8240     0.7140 C.2   1 <1>   0.5440 
  3 N       -0.0240    -2.1370    -0.1740 N.am  1 <1>  -0.6600 
  4 C        2.3690    -1.6720     0.2940 C.ar  1 <1>   0.0860 
  5 C       -1.4540    -2.0780     0.2540 C.3   1 <1>   0.2200 
  6 C        0.2620    -2.5220    -1.5880 C.3   1 <1>   0.0600 
  7 C        2.7930    -0.6440    -0.5830 C.ar  1 <1>   0.0820 
  8 C        3.3310    -2.5410     0.7580 C.ar  1 <1>  -0.1500 
  9 C       -2.0160    -3.4930     0.4460 C.3   1 <1>  -0.1600 
 10 C       -2.3110    -1.2620    -0.7280 C.3   1 <1>  -0.1600 
 11 O        1.9050     0.2530    -1.0450 O.3   1 <1>  -0.5330 
 12 C        4.1030    -0.5340    -0.9680 C.ar  1 <1>  -0.1500 
 13 C        4.6830    -2.4580     0.3820 C.ar  1 <1>   0.0000 
 14 C       -3.4830    -3.4460     0.9020 C.3   1 <1>  -0.1600 
 15 C       -3.7740    -1.2100    -0.2630 C.3   1 <1>  -0.1600 
 16 C        5.0790    -1.4340    -0.5050 C.ar  1 <1>   0.0000 
 17 C        5.6590    -3.3580     0.8550 C.ar  1 <1>  -0.1500 
 18 C       -4.3430    -2.6230    -0.0690 C.3   1 <1>  -0.1600 
 19 C        6.4340    -1.3530    -0.8860 C.ar  1 <1>  -0.1500 
 20 C        6.9670    -3.2570     0.4680 C.ar  1 <1>  -0.1500 
 21 C        7.3590    -2.2430    -0.4140 C.ar  1 <1>  -0.1500 
 22 H       -1.5110    -1.5760     1.2060 H     1 <1>   0.0800 
 23 H        1.2590    -2.9150    -1.6810 H     1 <1>   0.0800 
 24 H        0.1690    -1.6570    -2.2210 H     1 <1>   0.0800 
 25 H       -0.4270    -3.2770    -1.9190 H     1 <1>   0.0800 
 26 H        3.0390    -3.3190     1.4420 H     1 <1>   0.1500 
 27 H       -1.4290    -4.0030     1.1890 H     1 <1>   0.0800 
 28 H       -1.9560    -4.0420    -0.4750 H     1 <1>   0.0800 
 29 H       -2.2840    -1.7070    -1.7060 H     1 <1>   0.0800 
 30 H       -1.9190    -0.2630    -0.7910 H     1 <1>   0.0800 
 31 H        2.3010     0.9820    -1.5550 H     1 <1>   0.4500 
 32 H        4.4160     0.2480    -1.6340 H     1 <1>   0.1500 
 33 H       -3.5330    -3.0040     1.8830 H     1 <1>   0.0800 
 34 H       -3.8710    -4.4470     0.9720 H     1 <1>   0.0800 
 35 H       -4.3650    -0.6780    -0.9880 H     1 <1>   0.0800 
 36 H       -3.8320    -0.6720     0.6680 H     1 <1>   0.0800 
 37 H        5.3530    -4.1350     1.5330 H     1 <1>   0.1500 
 38 H       -5.3480    -2.5570     0.3100 H     1 <1>   0.0800 
 39 H       -4.3820    -3.1240    -1.0210 H     1 <1>   0.0800 
 40 H        6.7330    -0.5720    -1.5620 H     1 <1>   0.1500 
 41 H        7.7070    -3.9480     0.8330 H     1 <1>   0.1500 
 42 H        8.3920    -2.1770    -0.7080 H     1 <1>   0.1500 
@<TRIPOS>BOND
  1   1   2  2   
  2   2   3  am  
  3   2   4  1   
  4   3   5  1   
  5   3   6  1   
  6   4   7  ar  
  7   4   8  ar  
  8   5   9  1   
  9   5  10  1   
 10   5  22  1   
 11   6  23  1   
 12   6  24  1   
 13   6  25  1   
 14   7  11  1   
 15   7  12  ar  
 16   8  13  ar  
 17   8  26  1   
 18   9  14  1   
 19   9  27  1   
 20   9  28  1   
 21  10  15  1   
 22  10  29  1   
 23  10  30  1   
 24  11  31  1   
 25  12  16  ar  
 26  12  32  1   
 27  13  16  ar  
 28  13  17  ar  
 29  14  18  1   
 30  14  33  1   
 31  14  34  1   
 32  15  18  1   
 33  15  35  1   
 34  15  36  1   
 35  16  19  ar  
 36  17  20  ar  
 37  17  37  1   
 38  18  38  1   
 39  18  39  1   
 40  19  21  ar  
 41  19  40  1   
 42  20  21  ar  
 43  20  41  1   
 44  21  42  1   
@<TRIPOS>SUBSTRUCTURE
  1 ****   4 GROUP 4 **** **** 0

# MOE 2024.06 (io_trps.svl 2023.06)
