@<TRIPOS>MOLECULE
NONAME
43 45 1 0 0 
SMALL
USER_CHARGES


@<TRIPOS>ATOM
  1 O       -0.4410     0.9870    -2.0470 O.2   1 <1>  -0.5700 
  2 C       -0.6570    -0.2000    -2.0090 C.2   1 <1>   0.5690 
  3 N        0.2300    -1.1210    -1.5220 N.am  1 <1>  -0.5470 
  4 C       -2.0130    -0.6940    -2.5120 C.3   1 <1>   0.1810 
  5 C        1.4910    -0.9920    -0.9170 C.ar  1 <1>   0.1170 
  6 O       -2.2000    -2.0950    -2.3210 O.3   1 <1>  -0.3630 
  7 C        1.9220    -1.9480     0.0100 C.ar  1 <1>  -0.1430 
  8 C        2.3280     0.0710    -1.2330 C.ar  1 <1>  -0.1500 
  9 C       -2.3900    -2.6470    -1.0950 C.ar  1 <1>   0.0830 
 10 C        3.1710    -1.8140     0.6120 C.ar  1 <1>  -0.1440 
 11 C        1.0000    -3.1170     0.3820 C.3   1 <1>  -0.0170 
 12 C        3.5670     0.1980    -0.6390 C.ar  1 <1>  -0.1500 
 13 C       -2.4970    -1.9100     0.0820 C.ar  1 <1>  -0.1500 
 14 C       -2.4510    -4.0300    -1.0410 C.ar  1 <1>  -0.1500 
 15 C        3.9860    -0.7430     0.2800 C.ar  1 <1>  -0.1500 
 16 C        3.6980    -2.8150     1.6340 C.3   1 <1>  -0.0170 
 17 C        1.7000    -4.2430     1.1500 C.3   1 <1>  -0.1600 
 18 C       -2.6460    -2.5540     1.2990 C.ar  1 <1>  -0.1430 
 19 C       -2.6050    -4.6750     0.1720 C.ar  1 <1>  -0.1500 
 20 C        2.5870    -3.6660     2.2530 C.3   1 <1>  -0.1600 
 21 C       -2.7010    -3.9380     1.3390 C.ar  1 <1>  -0.1500 
 22 C       -2.7470    -1.7430     2.5790 C.3   1 <1>  -0.0970 
 23 H       -0.1600    -2.0630    -1.4830 H     1 <1>   0.3700 
 24 H       -2.0750    -0.5050    -3.5670 H     1 <1>   0.0800 
 25 H       -2.8110    -0.1670    -2.0250 H     1 <1>   0.0800 
 26 H        2.0130     0.8070    -1.9490 H     1 <1>   0.1500 
 27 H        0.5620    -3.5440    -0.5010 H     1 <1>   0.0800 
 28 H        0.2050    -2.7280     0.9930 H     1 <1>   0.0800 
 29 H        4.2030     1.0280    -0.8930 H     1 <1>   0.1500 
 30 H       -2.4590    -0.8360     0.0740 H     1 <1>   0.1500 
 31 H       -2.3770    -4.5970    -1.9520 H     1 <1>   0.1500 
 32 H        4.9530    -0.6370     0.7390 H     1 <1>   0.1500 
 33 H        4.2180    -2.2940     2.4180 H     1 <1>   0.0800 
 34 H        4.4040    -3.4600     1.1410 H     1 <1>   0.0800 
 35 H        2.3050    -4.8160     0.4680 H     1 <1>   0.0800 
 36 H        0.9610    -4.8990     1.5740 H     1 <1>   0.0800 
 37 H       -2.6530    -5.7500     0.2090 H     1 <1>   0.1500 
 38 H        1.9920    -3.0560     2.9110 H     1 <1>   0.0800 
 39 H        3.0210    -4.4620     2.8320 H     1 <1>   0.0800 
 40 H       -2.8210    -4.4480     2.2790 H     1 <1>   0.1500 
 41 H       -2.0900    -0.8930     2.5350 H     1 <1>   0.0800 
 42 H       -2.4710    -2.3400     3.4290 H     1 <1>   0.0800 
 43 H       -3.7560    -1.3970     2.7120 H     1 <1>   0.0800 
@<TRIPOS>BOND
  1   1   2  2   
  2   2   3  am  
  3   2   4  1   
  4   3   5  1   
  5   3  23  1   
  6   4   6  1   
  7   4  24  1   
  8   4  25  1   
  9   5   7  ar  
 10   5   8  ar  
 11   6   9  1   
 12   7  10  ar  
 13   7  11  1   
 14   8  12  ar  
 15   8  26  1   
 16   9  13  ar  
 17   9  14  ar  
 18  10  15  ar  
 19  10  16  1   
 20  11  17  1   
 21  11  27  1   
 22  11  28  1   
 23  12  15  ar  
 24  12  29  1   
 25  13  18  ar  
 26  13  30  1   
 27  14  19  ar  
 28  14  31  1   
 29  15  32  1   
 30  16  20  1   
 31  16  33  1   
 32  16  34  1   
 33  17  20  1   
 34  17  35  1   
 35  17  36  1   
 36  18  21  ar  
 37  18  22  1   
 38  19  21  ar  
 39  19  37  1   
 40  20  38  1   
 41  20  39  1   
 42  21  40  1   
 43  22  41  1   
 44  22  42  1   
 45  22  43  1   
@<TRIPOS>SUBSTRUCTURE
  1 ****  11 GROUP 4 **** **** 0

# MOE 2024.06 (io_trps.svl 2023.06)
