@<TRIPOS>MOLECULE
NONAME
33 33 1 0 0 
SMALL
USER_CHARGES


@<TRIPOS>ATOM
  1 S        0.3210     0.3160    -0.5490 S.o2  1 <1>   1.3330 
  2 O        1.6730     0.1210    -1.0220 O.2   1 <1>  -0.6500 
  3 O       -0.1930    -0.5170     0.5080 O.2   1 <1>  -0.6500 
  4 N        0.2250     1.9630    -0.0340 N.am  1 <1>  -0.6930 
  5 C       -0.7820     0.2840    -1.9450 C.3   1 <1>  -0.1350 
  6 C       -0.9760     2.5000     0.4180 C.ar  1 <1>   0.1990 
  7 C        1.4870     2.5870     0.4730 C.3   1 <1>   0.2570 
  8 C       -1.7070     3.4200    -0.3450 C.ar  1 <1>  -0.1440 
  9 C       -1.4590     2.1080     1.6600 C.ar  1 <1>  -0.1500 
 10 C        2.0970     1.9010     1.7030 C.2   1 <1>   0.5690 
 11 C       -2.9150     3.9110     0.1440 C.ar  1 <1>  -0.1440 
 12 C       -1.2000     3.8950    -1.7090 C.3   1 <1>  -0.0970 
 13 C       -2.6510     2.6020     2.1440 C.ar  1 <1>  -0.1500 
 14 O        2.0100     2.4240     2.7860 O.2   1 <1>  -0.5700 
 15 N        2.7550     0.7300     1.5780 N.am  1 <1>  -0.8000 
 16 C       -3.3780     3.5000     1.3850 C.ar  1 <1>  -0.1500 
 17 C       -3.7620     4.9030    -0.6440 C.3   1 <1>  -0.0970 
 18 H       -0.8020    -0.6980    -2.3750 H     1 <1>   0.0800 
 19 H       -0.4560     0.9820    -2.6900 H     1 <1>   0.0800 
 20 H       -1.7750     0.5450    -1.6350 H     1 <1>   0.0800 
 21 H        1.2880     3.6120     0.7310 H     1 <1>   0.0800 
 22 H        2.2180     2.5860    -0.3140 H     1 <1>   0.0800 
 23 H       -0.8920     1.4090     2.2500 H     1 <1>   0.1500 
 24 H       -0.1890     3.5930    -1.9020 H     1 <1>   0.0800 
 25 H       -1.2260     4.9680    -1.7590 H     1 <1>   0.0800 
 26 H       -1.8250     3.4960    -2.4870 H     1 <1>   0.0800 
 27 H       -3.0130     2.2890     3.1080 H     1 <1>   0.1500 
 28 H        3.0920     0.2440     2.4090 H     1 <1>   0.3700 
 29 H        2.7530     0.1930     0.7010 H     1 <1>   0.3700 
 30 H       -4.3080     3.8770     1.7740 H     1 <1>   0.1500 
 31 H       -3.2510     5.8460    -0.7180 H     1 <1>   0.0800 
 32 H       -4.7080     5.0720    -0.1610 H     1 <1>   0.0800 
 33 H       -3.9560     4.5270    -1.6320 H     1 <1>   0.0800 
@<TRIPOS>BOND
  1   1   2  2   
  2   1   3  2   
  3   1   4  am  
  4   1   5  1   
  5   4   6  1   
  6   4   7  1   
  7   5  18  1   
  8   5  19  1   
  9   5  20  1   
 10   6   8  ar  
 11   6   9  ar  
 12   7  10  1   
 13   7  21  1   
 14   7  22  1   
 15   8  11  ar  
 16   8  12  1   
 17   9  13  ar  
 18   9  23  1   
 19  10  14  2   
 20  10  15  am  
 21  11  16  ar  
 22  11  17  1   
 23  12  24  1   
 24  12  25  1   
 25  12  26  1   
 26  13  16  ar  
 27  13  27  1   
 28  15  28  1   
 29  15  29  1   
 30  16  30  1   
 31  17  31  1   
 32  17  32  1   
 33  17  33  1   
@<TRIPOS>SUBSTRUCTURE
  1 ****   6 GROUP 4 **** **** 0

# MOE 2024.06 (io_trps.svl 2023.06)
