@<TRIPOS>MOLECULE
NONAME
40 41 1 0 0 
SMALL
USER_CHARGES


@<TRIPOS>ATOM
  1 F       -2.1450     1.1370     3.2270 F     1 <1>  -0.1900 
  2 C       -2.9900     1.4190     2.2700 C.ar  1 <1>   0.1900 
  3 C       -2.8900     2.6390     1.6300 C.ar  1 <1>  -0.1500 
  4 C       -3.9520     0.4880     1.9310 C.ar  1 <1>  -0.1500 
  5 C       -3.7880     2.9310     0.6170 C.ar  1 <1>  -0.1500 
  6 C       -4.8420     0.7940     0.9160 C.ar  1 <1>  -0.1500 
  7 C       -4.7750     2.0180     0.2500 C.ar  1 <1>   0.1170 
  8 N       -5.6510     2.3580    -0.7910 N.am  1 <1>  -0.5470 
  9 C       -6.9420     1.9840    -1.0050 C.2   1 <1>   0.6900 
 10 O       -7.5660     1.3150    -0.2050 O.2   1 <1>  -0.5700 
 11 N       -7.5630     2.4180    -2.1300 N.am  1 <1>  -0.7300 
 12 C       -8.8790     1.9190    -2.6360 C.3   1 <1>   0.1400 
 13 C      -10.0800     2.5920    -1.9360 C.3   1 <1>   0.3430 
 14 N      -10.1370     2.2530    -0.4830 N.4   1 <1>  -0.9590 
 15 C      -10.8380     0.9660    -0.2160 C.3   1 <1>   0.3430 
 16 C      -10.6530     3.3740     0.3480 C.3   1 <1>   0.3430 
 17 C      -10.6790     0.5900     1.2580 C.3   1 <1>  -0.1600 
 18 C      -10.4810     3.0330     1.8290 C.3   1 <1>  -0.1600 
 19 C      -11.1630     1.7070     2.1900 C.3   1 <1>  -0.1600 
 20 H       -2.1270     3.3380     1.9220 H     1 <1>   0.1500 
 21 H       -3.9990    -0.4530     2.4500 H     1 <1>   0.1500 
 22 H       -3.7190     3.8780     0.1140 H     1 <1>   0.1500 
 23 H       -5.5890     0.0720     0.6400 H     1 <1>   0.1500 
 24 H       -5.2900     3.0510    -1.4390 H     1 <1>   0.3700 
 25 H       -6.9730     2.8560    -2.8410 H     1 <1>   0.3700 
 26 H       -8.9330     0.8510    -2.5050 H     1 <1>   0.0800 
 27 H       -8.9380     2.1190    -3.6920 H     1 <1>   0.0800 
 28 H      -10.9960     2.2870    -2.4140 H     1 <1>   0.0800 
 29 H       -9.9830     3.6570    -2.0580 H     1 <1>   0.0800 
 30 H       -9.1510     2.0830    -0.1880 H     1 <1>   0.4500 
 31 H      -10.4170     0.1840    -0.8270 H     1 <1>   0.0800 
 32 H      -11.8850     1.0630    -0.4530 H     1 <1>   0.0800 
 33 H      -11.6960     3.5380     0.1340 H     1 <1>   0.0800 
 34 H      -10.1100     4.2780     0.1250 H     1 <1>   0.0800 
 35 H       -9.6420     0.3730     1.4550 H     1 <1>   0.0800 
 36 H      -11.2370    -0.3090     1.4550 H     1 <1>   0.0800 
 37 H      -10.9000     3.8250     2.4250 H     1 <1>   0.0800 
 38 H       -9.4300     2.9770     2.0590 H     1 <1>   0.0800 
 39 H      -10.9410     1.4500     3.2130 H     1 <1>   0.0800 
 40 H      -12.2310     1.8140     2.1020 H     1 <1>   0.0800 
@<TRIPOS>BOND
  1   1   2  1   
  2   2   3  ar  
  3   2   4  ar  
  4   3   5  ar  
  5   3  20  1   
  6   4   6  ar  
  7   4  21  1   
  8   5   7  ar  
  9   5  22  1   
 10   6   7  ar  
 11   6  23  1   
 12   7   8  1   
 13   8   9  am  
 14   8  24  1   
 15   9  10  2   
 16   9  11  am  
 17  11  12  1   
 18  11  25  1   
 19  12  13  1   
 20  12  26  1   
 21  12  27  1   
 22  13  14  1   
 23  13  28  1   
 24  13  29  1   
 25  14  15  1   
 26  14  16  1   
 27  14  30  1   
 28  15  17  1   
 29  15  31  1   
 30  15  32  1   
 31  16  18  1   
 32  16  33  1   
 33  16  34  1   
 34  17  19  1   
 35  17  35  1   
 36  17  36  1   
 37  18  19  1   
 38  18  37  1   
 39  18  38  1   
 40  19  39  1   
 41  19  40  1   
@<TRIPOS>SUBSTRUCTURE
  1 ****  10 GROUP 4 **** **** 0

# MOE 2024.06 (io_trps.svl 2023.06)
