@<TRIPOS>MOLECULE
NONAME
30 31 1 0 0 
SMALL
USER_CHARGES


@<TRIPOS>ATOM
  1 O        0.1080     0.0740     0.1680 O.2   1 <1>  -0.5700 
  2 C       -0.1350     1.2530     0.2480 C.2   1 <1>   0.6300 
  3 N       -1.3860     1.7900     0.1850 N.am  1 <1>  -0.5470 
  4 C        1.0200     2.2240     0.4440 C.3   1 <1>  -0.1000 
  5 C       -2.6710     1.2480     0.0040 C.ar  1 <1>   0.1170 
  6 C        1.0890     3.5380    -0.2850 C.3   1 <1>  -0.2000 
  7 C        2.0310     2.4330    -0.6460 C.3   1 <1>  -0.2000 
  8 C       -3.7500     2.1360    -0.0820 C.ar  1 <1>   0.0820 
  9 C       -2.9180    -0.1170    -0.0900 C.ar  1 <1>  -0.1500 
 10 O       -3.4650     3.4700     0.0150 O.3   1 <1>  -0.3620 
 11 C       -5.0420     1.6500    -0.2600 C.ar  1 <1>  -0.1500 
 12 C       -4.2040    -0.5950    -0.2670 C.ar  1 <1>  -0.1500 
 13 C       -4.4790     4.4450    -0.0740 C.3   1 <1>   0.1200 
 14 C       -5.2650     0.2870    -0.3520 C.ar  1 <1>  -0.1500 
 15 C       -3.8250     5.8160     0.0620 C.3   1 <1>  -0.2400 
 16 H       -1.4160     2.8080     0.2570 H     1 <1>   0.3700 
 17 H        1.3950     2.1840     1.4500 H     1 <1>   0.1000 
 18 H        1.4770     4.3980     0.2340 H     1 <1>   0.1000 
 19 H        0.3270     3.7980    -1.0010 H     1 <1>   0.1000 
 20 H        1.8920     1.9050    -1.5740 H     1 <1>   0.1000 
 21 H        3.0680     2.5150    -0.3720 H     1 <1>   0.1000 
 22 H       -2.1080    -0.8200    -0.0250 H     1 <1>   0.1500 
 23 H       -5.8860     2.3070    -0.3290 H     1 <1>   0.1500 
 24 H       -4.3750    -1.6550    -0.3380 H     1 <1>   0.1500 
 25 H       -5.1840     4.2780     0.7220 H     1 <1>   0.0800 
 26 H       -4.9630     4.3470    -1.0310 H     1 <1>   0.0800 
 27 H       -6.2650    -0.0890    -0.4890 H     1 <1>   0.1500 
 28 H       -3.3320     5.8990     1.0140 H     1 <1>   0.0800 
 29 H       -4.5750     6.5840    -0.0030 H     1 <1>   0.0800 
 30 H       -3.1120     5.9670    -0.7290 H     1 <1>   0.0800 
@<TRIPOS>BOND
  1   1   2  2   
  2   2   3  am  
  3   2   4  1   
  4   3   5  1   
  5   3  16  1   
  6   4   6  1   
  7   4   7  1   
  8   4  17  1   
  9   5   8  ar  
 10   5   9  ar  
 11   6   7  1   
 12   6  18  1   
 13   6  19  1   
 14   7  20  1   
 15   7  21  1   
 16   8  10  1   
 17   8  11  ar  
 18   9  12  ar  
 19   9  22  1   
 20  10  13  1   
 21  11  14  ar  
 22  11  23  1   
 23  12  14  ar  
 24  12  24  1   
 25  13  15  1   
 26  13  25  1   
 27  13  26  1   
 28  14  27  1   
 29  15  28  1   
 30  15  29  1   
 31  15  30  1   
@<TRIPOS>SUBSTRUCTURE
  1 ****   3 GROUP 4 **** **** 0

# MOE 2024.06 (io_trps.svl 2023.06)
