@<TRIPOS>MOLECULE
NONAME
48 50 1 0 0 
SMALL
USER_CHARGES


@<TRIPOS>ATOM
  1 O       -1.2000    -0.2690     0.3190 O.2   1 <1>  -0.5700 
  2 C       -1.6000    -1.3970     0.1550 C.2   1 <1>   0.6900 
  3 N       -1.0800    -2.1750    -0.8250 N.am  1 <1>  -0.5390 
  4 N       -2.5780    -1.9000     0.9240 N.am  1 <1>  -0.7300 
  5 C       -1.5140    -3.4500    -1.1240 C.2   1 <1>  -0.0290 
  6 C       -3.2490    -3.1850     0.6540 C.3   1 <1>   0.5020 
  7 C       -2.5620    -4.0000    -0.4480 C.2   1 <1>  -0.1240 
  8 C       -0.7090    -4.1110    -2.2340 C.3   1 <1>  -0.1020 
  9 C       -4.6960    -2.8700     0.2870 C.ar  1 <1>  -0.1440 
 10 C       -3.1580    -5.2890    -0.6390 C.2   1 <1>   0.7060 
 11 C       -5.7390    -3.3120     1.0910 C.ar  1 <1>  -0.1500 
 12 C       -4.9920    -2.1430    -0.8590 C.ar  1 <1>  -0.1500 
 13 O       -3.0820    -5.9300    -1.6690 O.2   1 <1>  -0.5700 
 14 O       -3.8410    -5.8250     0.3820 O.3   1 <1>  -0.4300 
 15 C       -7.0500    -3.0320     0.7530 C.ar  1 <1>  -0.1500 
 16 C       -6.3040    -1.8660    -1.1930 C.ar  1 <1>  -0.1500 
 17 C       -4.5050    -7.0630     0.2570 C.3   1 <1>   0.1200 
 18 C       -7.3480    -2.3060    -0.3940 C.ar  1 <1>   0.1000 
 19 C       -5.2210    -7.3480     1.5730 C.3   1 <1>  -0.2400 
 20 N       -8.6560    -2.0150    -0.7570 N.pl3 1 <1>  -0.8380 
 21 C       -9.4890    -3.1710    -1.1970 C.3   1 <1>   0.2090 
 22 C       -9.4070    -1.1000     0.1500 C.3   1 <1>   0.2090 
 23 C      -10.8520    -2.6940    -1.7290 C.3   1 <1>   0.1200 
 24 C      -10.7760    -0.7320    -0.4530 C.3   1 <1>   0.1200 
 25 O      -11.5030    -1.8820    -0.7900 O.3   1 <1>  -0.5600 
 26 H       -0.3290    -1.7260    -1.3470 H     1 <1>   0.3700 
 27 H       -3.0940    -1.2350     1.4950 H     1 <1>   0.3700 
 28 H       -3.2260    -3.7510     1.5690 H     1 <1>   0.0800 
 29 H        0.3410    -3.9450    -2.0780 H     1 <1>   0.0800 
 30 H       -0.9890    -3.6920    -3.1840 H     1 <1>   0.0800 
 31 H       -0.8610    -5.1730    -2.2720 H     1 <1>   0.0800 
 32 H       -5.5360    -3.8800     1.9820 H     1 <1>   0.1500 
 33 H       -4.1990    -1.7890    -1.4960 H     1 <1>   0.1500 
 34 H       -7.8530    -3.3780     1.3760 H     1 <1>   0.1500 
 35 H       -6.5360    -1.3040    -2.0780 H     1 <1>   0.1500 
 36 H       -3.7730    -7.8230     0.0400 H     1 <1>   0.0800 
 37 H       -5.2070    -6.9930    -0.5570 H     1 <1>   0.0800 
 38 H       -4.5110    -7.3980     2.3800 H     1 <1>   0.0800 
 39 H       -5.7320    -8.2920     1.5090 H     1 <1>   0.0800 
 40 H       -5.9470    -6.5810     1.7740 H     1 <1>   0.0800 
 41 H       -9.6460    -3.8410    -0.3700 H     1 <1>   0.0800 
 42 H       -8.9680    -3.7080    -1.9710 H     1 <1>   0.0800 
 43 H       -8.8310    -0.2050     0.3070 H     1 <1>   0.0800 
 44 H       -9.5570    -1.5750     1.1030 H     1 <1>   0.0800 
 45 H      -11.4870    -3.5380    -1.9310 H     1 <1>   0.0800 
 46 H      -10.7210    -2.1330    -2.6380 H     1 <1>   0.0800 
 47 H      -10.6440    -0.1360    -1.3390 H     1 <1>   0.0800 
 48 H      -11.3560    -0.1730     0.2590 H     1 <1>   0.0800 
@<TRIPOS>BOND
  1   1   2  2   
  2   2   3  am  
  3   2   4  am  
  4   3   5  1   
  5   3  26  1   
  6   4   6  1   
  7   4  27  1   
  8   5   7  2   
  9   5   8  1   
 10   6   7  1   
 11   6   9  1   
 12   6  28  1   
 13   7  10  1   
 14   8  29  1   
 15   8  30  1   
 16   8  31  1   
 17   9  11  ar  
 18   9  12  ar  
 19  10  13  2   
 20  10  14  1   
 21  11  15  ar  
 22  11  32  1   
 23  12  16  ar  
 24  12  33  1   
 25  14  17  1   
 26  15  18  ar  
 27  15  34  1   
 28  16  18  ar  
 29  16  35  1   
 30  17  19  1   
 31  17  36  1   
 32  17  37  1   
 33  18  20  1   
 34  19  38  1   
 35  19  39  1   
 36  19  40  1   
 37  20  21  1   
 38  20  22  1   
 39  21  23  1   
 40  21  41  1   
 41  21  42  1   
 42  22  24  1   
 43  22  43  1   
 44  22  44  1   
 45  23  25  1   
 46  23  45  1   
 47  23  46  1   
 48  24  25  1   
 49  24  47  1   
 50  24  48  1   
@<TRIPOS>SUBSTRUCTURE
  1 ****   9 GROUP 4 **** **** 0

# MOE 2024.06 (io_trps.svl 2023.06)
