@<TRIPOS>MOLECULE
NONAME
41 42 1 0 0 
SMALL
USER_CHARGES


@<TRIPOS>ATOM
  1 S       -0.6440     0.8760    -0.7130 S.o2  1 <1>   1.4470 
  2 O       -1.4830     2.0480    -0.8650 O.2   1 <1>  -0.6500 
  3 O       -0.6960    -0.1480    -1.7310 O.2   1 <1>  -0.6500 
  4 N       -1.1200     0.1390     0.7390 N.am  1 <1>  -0.8490 
  5 C        1.0770     1.3550    -0.4040 C.ar  1 <1>  -0.0090 
  6 C       -2.3140    -0.7440     0.6090 C.3   1 <1>   0.2570 
  7 C       -1.2260     1.0500     1.8870 C.3   1 <1>   0.1160 
  8 C        2.0150     0.4140     0.0020 C.ar  1 <1>  -0.1500 
  9 C        1.5010     2.6690    -0.5600 C.ar  1 <1>  -0.1500 
 10 C       -3.7110    -0.0960     0.6300 C.2   1 <1>   0.5690 
 11 C        3.3330     0.7600     0.2540 C.ar  1 <1>  -0.1440 
 12 C        2.8120     3.0340    -0.3140 C.ar  1 <1>  -0.1500 
 13 O       -4.5640    -0.6280     1.3030 O.2   1 <1>  -0.5700 
 14 N       -3.9680     1.0380    -0.0790 N.am  1 <1>  -0.5790 
 15 C        3.7390     2.0810     0.0980 C.ar  1 <1>   0.0830 
 16 C        4.3240    -0.3070     0.6980 C.3   1 <1>  -0.0970 
 17 C       -5.2480     1.7520    -0.1390 C.3   1 <1>   0.0490 
 18 O        5.0380     2.3790     0.3570 O.3   1 <1>  -0.3630 
 19 C       -5.5920     2.4610    -1.4050 C.3   1 <1>  -0.2000 
 20 C       -5.2070     3.2430    -0.1850 C.3   1 <1>  -0.2000 
 21 C        5.5510     3.6820     0.1940 C.3   1 <1>   0.0400 
 22 H       -2.2880    -1.4410     1.4270 H     1 <1>   0.0800 
 23 H       -2.2370    -1.3360    -0.2860 H     1 <1>   0.0800 
 24 H       -0.2840     1.5460     2.0530 H     1 <1>   0.0800 
 25 H       -1.4760     0.4960     2.7770 H     1 <1>   0.0800 
 26 H       -1.9830     1.7980     1.7170 H     1 <1>   0.0800 
 27 H        1.6990    -0.6090     0.1210 H     1 <1>   0.1500 
 28 H        0.7950     3.4180    -0.8790 H     1 <1>   0.1500 
 29 H        3.0920     4.0620    -0.4470 H     1 <1>   0.1500 
 30 H       -3.1960     1.5110    -0.5710 H     1 <1>   0.3700 
 31 H        3.8540    -1.2690     0.7790 H     1 <1>   0.0800 
 32 H        4.7380    -0.0440     1.6550 H     1 <1>   0.0800 
 33 H        5.1270    -0.3750    -0.0150 H     1 <1>   0.0800 
 34 H       -6.0370     1.2690     0.4170 H     1 <1>   0.1000 
 35 H       -6.6200     2.4820    -1.7210 H     1 <1>   0.1000 
 36 H       -4.9040     2.4070    -2.2310 H     1 <1>   0.1000 
 37 H       -4.2510     3.7370    -0.1660 H     1 <1>   0.1000 
 38 H       -5.9730     3.7970     0.3260 H     1 <1>   0.1000 
 39 H        6.5960     3.6620     0.4460 H     1 <1>   0.0800 
 40 H        5.0290     4.3490     0.8570 H     1 <1>   0.0800 
 41 H        5.4280     3.9800    -0.8320 H     1 <1>   0.0800 
@<TRIPOS>BOND
  1   1   2  2   
  2   1   3  2   
  3   1   4  am  
  4   1   5  1   
  5   4   6  1   
  6   4   7  1   
  7   5   8  ar  
  8   5   9  ar  
  9   6  10  1   
 10   6  22  1   
 11   6  23  1   
 12   7  24  1   
 13   7  25  1   
 14   7  26  1   
 15   8  11  ar  
 16   8  27  1   
 17   9  12  ar  
 18   9  28  1   
 19  10  13  2   
 20  10  14  am  
 21  11  15  ar  
 22  11  16  1   
 23  12  15  ar  
 24  12  29  1   
 25  14  17  1   
 26  14  30  1   
 27  15  18  1   
 28  16  31  1   
 29  16  32  1   
 30  16  33  1   
 31  17  19  1   
 32  17  20  1   
 33  17  34  1   
 34  18  21  1   
 35  19  20  1   
 36  19  35  1   
 37  19  36  1   
 38  20  37  1   
 39  20  38  1   
 40  21  39  1   
 41  21  40  1   
 42  21  41  1   
@<TRIPOS>SUBSTRUCTURE
  1 ****   1 GROUP 4 **** **** 0

# MOE 2024.06 (io_trps.svl 2023.06)
