@<TRIPOS>MOLECULE
NONAME
40 42 1 0 0 
SMALL
USER_CHARGES


@<TRIPOS>ATOM
  1 S       -1.8790     0.8410     2.0020 S.3   1 <1>  -0.0800 
  2 C       -1.8100     0.7360     0.2480 C.2   1 <1>  -0.1400 
  3 C       -0.3760     1.7410     2.0510 C.2   1 <1>  -0.1100 
  4 C       -0.7070     1.3520    -0.2180 C.2   1 <1>  -0.1500 
  5 C       -2.9470     0.0100    -0.4380 C.3   1 <1>   0.5230 
  6 C        0.1080     1.9240     0.8090 C.2   1 <1>  -0.1500 
  7 N       -4.2150     0.7050    -0.1030 N.4   1 <1>  -0.9590 
  8 C       -5.4100    -0.0600    -0.5440 C.3   1 <1>   0.4860 
  9 C       -4.2610     2.1060    -0.6160 C.3   1 <1>   0.3430 
 10 C       -6.6780     0.6760    -0.1450 C.ar  1 <1>  -0.1430 
 11 C       -5.4130     2.8650     0.0470 C.3   1 <1>  -0.0170 
 12 C       -6.6910     2.0390     0.1190 C.ar  1 <1>  -0.1430 
 13 C       -7.8590    -0.0400    -0.0540 C.ar  1 <1>  -0.1500 
 14 C       -7.8790     2.6600     0.4680 C.ar  1 <1>  -0.1500 
 15 C       -9.0540     0.5650     0.2940 C.ar  1 <1>   0.0830 
 16 C       -9.0720     1.9450     0.5620 C.ar  1 <1>   0.0830 
 17 O      -10.1110    -0.2990     0.3310 O.3   1 <1>  -0.3620 
 18 O      -10.2360     2.5670     0.9110 O.3   1 <1>  -0.3620 
 19 C      -11.4370     0.0970     0.5980 C.3   1 <1>   0.0400 
 20 C      -10.3150     3.9450     1.2040 C.3   1 <1>   0.0400 
 21 H       -0.0040     2.0400     3.0170 H     1 <1>   0.1500 
 22 H       -0.4080     1.4380    -1.2500 H     1 <1>   0.1500 
 23 H       -2.9760    -1.0090    -0.0870 H     1 <1>   0.0800 
 24 H       -2.7900     0.0050    -1.5040 H     1 <1>   0.0800 
 25 H        1.0210     2.4440     0.5690 H     1 <1>   0.1500 
 26 H       -4.2590     0.7630     0.9230 H     1 <1>   0.4500 
 27 H       -5.4120    -1.0370    -0.0890 H     1 <1>   0.0800 
 28 H       -5.3980    -0.1810    -1.6150 H     1 <1>   0.0800 
 29 H       -4.4080     2.0970    -1.6840 H     1 <1>   0.0800 
 30 H       -3.3350     2.6180    -0.4040 H     1 <1>   0.0800 
 31 H       -5.5950     3.7710    -0.5040 H     1 <1>   0.0800 
 32 H       -5.1210     3.1460     1.0440 H     1 <1>   0.0800 
 33 H       -7.8800    -1.0980    -0.2540 H     1 <1>   0.1500 
 34 H       -7.8590     3.7140     0.6700 H     1 <1>   0.1500 
 35 H      -12.0670    -0.7720     0.5280 H     1 <1>   0.0800 
 36 H      -11.7380     0.8250    -0.1340 H     1 <1>   0.0800 
 37 H      -11.4870     0.5050     1.5910 H     1 <1>   0.0800 
 38 H      -11.3350     4.1750     1.4510 H     1 <1>   0.0800 
 39 H      -10.0170     4.5050     0.3360 H     1 <1>   0.0800 
 40 H       -9.6800     4.1610     2.0450 H     1 <1>   0.0800 
@<TRIPOS>BOND
  1   1   2  1   
  2   1   3  1   
  3   2   4  2   
  4   2   5  1   
  5   3   6  2   
  6   3  21  1   
  7   4   6  1   
  8   4  22  1   
  9   5   7  1   
 10   5  23  1   
 11   5  24  1   
 12   6  25  1   
 13   7   8  1   
 14   7   9  1   
 15   7  26  1   
 16   8  10  1   
 17   8  27  1   
 18   8  28  1   
 19   9  11  1   
 20   9  29  1   
 21   9  30  1   
 22  10  12  ar  
 23  10  13  ar  
 24  11  12  1   
 25  11  31  1   
 26  11  32  1   
 27  12  14  ar  
 28  13  15  ar  
 29  13  33  1   
 30  14  16  ar  
 31  14  34  1   
 32  15  16  ar  
 33  15  17  1   
 34  16  18  1   
 35  17  19  1   
 36  18  20  1   
 37  19  35  1   
 38  19  36  1   
 39  19  37  1   
 40  20  38  1   
 41  20  39  1   
 42  20  40  1   
@<TRIPOS>SUBSTRUCTURE
  1 ****  12 GROUP 4 **** **** 0

# MOE 2024.06 (io_trps.svl 2023.06)
