@<TRIPOS>MOLECULE
NONAME
41 44 1 0 0 
SMALL
USER_CHARGES


@<TRIPOS>ATOM
  1 O        0.2210    -0.4890     1.2470 O.2   1 <1>  -0.5700 
  2 C       -0.2490    -1.1420     0.3530 C.2   1 <1>   0.5690 
  3 N        0.2740    -2.2480    -0.2930 N.am  1 <1>  -0.2370 
  4 C       -1.5350    -0.8190    -0.3290 C.3   1 <1>  -0.0190 
  5 C        1.6070    -2.6950    -0.1880 C.ar  1 <1>   0.1170 
  6 C       -0.7080    -2.7960    -1.1040 C.2   1 <1>   0.5690 
  7 C       -2.8540    -0.0800    -0.1450 C.3   1 <1>   0.4180 
  8 C       -2.0200    -2.2250    -0.6540 C.3   1 <1>  -0.0190 
  9 C        1.9290    -3.9490     0.3380 C.ar  1 <1>  -0.1430 
 10 C        2.6330    -1.8600    -0.6180 C.ar  1 <1>  -0.1500 
 11 O       -0.5880    -3.6040    -1.9870 O.2   1 <1>  -0.5700 
 12 O       -3.3810    -0.5130    -1.3670 O.3   1 <1>  -0.5600 
 13 C       -3.8650    -0.7740     0.7560 C.2   1 <1>  -0.2880 
 14 C       -2.7710     1.4540    -0.0550 C.3   1 <1>   0.1200 
 15 C       -3.4380    -1.8970    -1.1690 C.3   1 <1>   0.3380 
 16 C        3.2560    -4.3400     0.4110 C.ar  1 <1>  -0.1500 
 17 C        0.8560    -4.9080     0.8410 C.3   1 <1>  -0.0960 
 18 C        3.9540    -2.2570    -0.5390 C.ar  1 <1>  -0.1500 
 19 C       -4.2710    -1.8570     0.0970 C.2   1 <1>  -0.2880 
 20 O       -4.0630     2.0350     0.0040 O.3   1 <1>  -0.4300 
 21 C        4.2670    -3.5010    -0.0240 C.ar  1 <1>  -0.1500 
 22 C       -4.3190     3.3370     0.0350 C.2   1 <1>   0.6590 
 23 O       -5.4380     3.7330     0.2080 O.2   1 <1>  -0.5700 
 24 C       -3.1840     4.3220    -0.1470 C.3   1 <1>  -0.1790 
 25 H       -1.1530    -0.3640    -1.2320 H     1 <1>   0.0800 
 26 H       -2.1760    -2.7880     0.2540 H     1 <1>   0.0800 
 27 H        2.4000    -0.8900    -1.0170 H     1 <1>   0.1500 
 28 H       -4.1390    -0.3580     1.7100 H     1 <1>   0.1500 
 29 H       -2.2540     1.8400    -0.9150 H     1 <1>   0.0800 
 30 H       -2.2440     1.7300     0.8410 H     1 <1>   0.0800 
 31 H       -3.8340    -2.4210    -2.0220 H     1 <1>   0.0800 
 32 H        3.5170    -5.3050     0.8100 H     1 <1>   0.1500 
 33 H        0.1760    -4.3990     1.4980 H     1 <1>   0.0800 
 34 H        1.2960    -5.7240     1.3850 H     1 <1>   0.0800 
 35 H        0.3090    -5.3150     0.0090 H     1 <1>   0.0800 
 36 H        4.7390    -1.6020    -0.8750 H     1 <1>   0.1500 
 37 H       -4.9890    -2.6250     0.3260 H     1 <1>   0.1500 
 38 H        5.2940    -3.8170     0.0380 H     1 <1>   0.1500 
 39 H       -2.7240     4.1790    -1.1060 H     1 <1>   0.0800 
 40 H       -2.4570     4.1980     0.6330 H     1 <1>   0.0800 
 41 H       -3.5720     5.3220    -0.0980 H     1 <1>   0.0800 
@<TRIPOS>BOND
  1   1   2  2   
  2   2   3  am  
  3   2   4  1   
  4   3   5  1   
  5   3   6  am  
  6   4   7  1   
  7   4   8  1   
  8   4  25  1   
  9   5   9  ar  
 10   5  10  ar  
 11   6   8  1   
 12   6  11  2   
 13   7  12  1   
 14   7  13  1   
 15   7  14  1   
 16   8  15  1   
 17   8  26  1   
 18   9  16  ar  
 19   9  17  1   
 20  10  18  ar  
 21  10  27  1   
 22  12  15  1   
 23  13  19  2   
 24  13  28  1   
 25  14  20  1   
 26  14  29  1   
 27  14  30  1   
 28  15  19  1   
 29  15  31  1   
 30  16  21  ar  
 31  16  32  1   
 32  17  33  1   
 33  17  34  1   
 34  17  35  1   
 35  18  21  ar  
 36  18  36  1   
 37  19  37  1   
 38  20  22  1   
 39  21  38  1   
 40  22  23  2   
 41  22  24  1   
 42  24  39  1   
 43  24  40  1   
 44  24  41  1   
@<TRIPOS>SUBSTRUCTURE
  1 ****   4 GROUP 4 **** **** 0

# MOE 2024.06 (io_trps.svl 2023.06)
