@<TRIPOS>MOLECULE
NONAME
52 55 1 0 0 
SMALL
USER_CHARGES


@<TRIPOS>ATOM
  1 CL      -1.8240     0.2000    -2.2590 Cl    1 <1>  -0.1770 
  2 C       -3.3230     0.8220    -1.6160 C.ar  1 <1>   0.1770 
  3 C       -4.3060     1.2570    -2.4850 C.ar  1 <1>  -0.1500 
  4 C       -3.5040     0.8700    -0.2460 C.ar  1 <1>  -0.1500 
  5 C       -5.4930     1.7490    -1.9690 C.ar  1 <1>  -0.1500 
  6 C       -4.6920     1.3640     0.2680 C.ar  1 <1>  -0.1500 
  7 C       -5.6930     1.8060    -0.5970 C.ar  1 <1>   0.0830 
  8 O       -6.8850     2.3030    -0.1790 O.3   1 <1>  -0.3630 
  9 C       -7.1760     2.4480     1.2020 C.3   1 <1>   0.1810 
 10 C       -8.5560     3.0570     1.4020 C.2   1 <1>   0.6590 
 11 O       -8.7340     4.0100     2.1160 O.2   1 <1>  -0.5700 
 12 O       -9.5720     2.4850     0.7580 O.3   1 <1>  -0.4300 
 13 C      -10.8770     3.0100     0.8550 C.3   1 <1>   0.1200 
 14 C      -11.7790     2.2290    -0.1030 C.3   1 <1>   0.3430 
 15 N      -13.1750     2.7570    -0.0860 N.4   1 <1>  -0.9060 
 16 C      -14.0960     2.0440    -1.0050 C.3   1 <1>   0.4230 
 17 C      -15.4190     2.8340    -1.1050 C.3   1 <1>  -0.0800 
 18 C      -14.3900     0.6110    -0.5000 C.3   1 <1>  -0.0800 
 19 C      -16.1480     2.8700     0.2590 C.3   1 <1>  -0.1600 
 20 C      -16.3320     2.1280    -2.1290 C.3   1 <1>  -0.1600 
 21 C      -15.1170     0.6450     0.8660 C.3   1 <1>  -0.1600 
 22 C      -15.3070    -0.0870    -1.5250 C.3   1 <1>  -0.1600 
 23 C      -16.4350     1.4340     0.7390 C.3   1 <1>  -0.0800 
 24 C      -16.6290     0.6890    -1.6670 C.3   1 <1>  -0.0800 
 25 C      -17.3340     0.7350    -0.2980 C.3   1 <1>  -0.1600 
 26 H       -4.1410     1.2090    -3.5470 H     1 <1>   0.1500 
 27 H       -2.7210     0.5250     0.4050 H     1 <1>   0.1500 
 28 H       -6.2680     2.0930    -2.6300 H     1 <1>   0.1500 
 29 H       -4.8120     1.3930     1.3340 H     1 <1>   0.1500 
 30 H       -6.4350     3.0920     1.6400 H     1 <1>   0.0800 
 31 H       -7.1430     1.4770     1.6610 H     1 <1>   0.0800 
 32 H      -10.8360     4.0510     0.5830 H     1 <1>   0.0800 
 33 H      -11.2010     2.9040     1.8760 H     1 <1>   0.0800 
 34 H      -11.7770     1.1920     0.1910 H     1 <1>   0.0800 
 35 H      -11.3750     2.3050    -1.0990 H     1 <1>   0.0800 
 36 H      -13.1830     3.7520    -0.3370 H     1 <1>   0.4500 
 37 H      -13.5850     2.6790     0.8520 H     1 <1>   0.4500 
 38 H      -13.6530     1.9890    -1.9870 H     1 <1>   0.0800 
 39 H      -15.2290     3.8350    -1.4520 H     1 <1>   0.0800 
 40 H      -13.4820     0.0400    -0.4220 H     1 <1>   0.0800 
 41 H      -17.0800     3.4000     0.1540 H     1 <1>   0.0800 
 42 H      -15.5730     3.3980     0.9980 H     1 <1>   0.0800 
 43 H      -15.8640     2.1100    -3.0990 H     1 <1>   0.0800 
 44 H      -17.2570     2.6710    -2.2310 H     1 <1>   0.0800 
 45 H      -14.4980     1.0800     1.6290 H     1 <1>   0.0800 
 46 H      -15.3370    -0.3620     1.1800 H     1 <1>   0.0800 
 47 H      -15.5150    -1.0950    -1.2060 H     1 <1>   0.0800 
 48 H      -14.8180    -0.1500    -2.4830 H     1 <1>   0.0800 
 49 H      -16.9410     1.4590     1.6910 H     1 <1>   0.0800 
 50 H      -17.2670     0.1990    -2.3850 H     1 <1>   0.0800 
 51 H      -18.2690     1.2620    -0.3870 H     1 <1>   0.0800 
 52 H      -17.5610    -0.2650     0.0280 H     1 <1>   0.0800 
@<TRIPOS>BOND
  1   1   2  1   
  2   2   3  ar  
  3   2   4  ar  
  4   3   5  ar  
  5   3  26  1   
  6   4   6  ar  
  7   4  27  1   
  8   5   7  ar  
  9   5  28  1   
 10   6   7  ar  
 11   6  29  1   
 12   7   8  1   
 13   8   9  1   
 14   9  10  1   
 15   9  30  1   
 16   9  31  1   
 17  10  11  2   
 18  10  12  1   
 19  12  13  1   
 20  13  14  1   
 21  13  32  1   
 22  13  33  1   
 23  14  15  1   
 24  14  34  1   
 25  14  35  1   
 26  15  16  1   
 27  15  36  1   
 28  15  37  1   
 29  16  17  1   
 30  16  18  1   
 31  16  38  1   
 32  17  19  1   
 33  17  20  1   
 34  17  39  1   
 35  18  21  1   
 36  18  22  1   
 37  18  40  1   
 38  19  23  1   
 39  19  41  1   
 40  19  42  1   
 41  20  24  1   
 42  20  43  1   
 43  20  44  1   
 44  21  23  1   
 45  21  45  1   
 46  21  46  1   
 47  22  24  1   
 48  22  47  1   
 49  22  48  1   
 50  23  25  1   
 51  23  49  1   
 52  24  25  1   
 53  24  50  1   
 54  25  51  1   
 55  25  52  1   
@<TRIPOS>SUBSTRUCTURE
  1 ****  14 GROUP 4 **** **** 0

# MOE 2024.06 (io_trps.svl 2023.06)
