@<TRIPOS>MOLECULE
NONAME
37 38 1 0 0 
SMALL
USER_CHARGES


@<TRIPOS>ATOM
  1 O       -0.0840     0.5870    -1.3640 O.2   1 <1>  -0.5700 
  2 C        0.4050     1.5830    -0.8840 C.2   1 <1>   0.5690 
  3 N       -0.2850     2.6350    -0.3430 N.am  1 <1>  -0.2370 
  4 C        1.9180     1.8570    -0.8970 C.3   1 <1>   0.2510 
  5 C       -1.6730     2.6600    -0.0730 C.ar  1 <1>   0.1170 
  6 C        0.5760     3.6760    -0.1220 C.2   1 <1>   0.5690 
  7 N        2.7360     1.1000     0.0960 N.3   1 <1>  -0.8100 
  8 C        1.9830     3.3500    -0.5510 C.3   1 <1>  -0.0990 
  9 C       -2.5990     2.2480    -1.0260 C.ar  1 <1>  -0.1500 
 10 C       -2.1480     3.0990     1.1580 C.ar  1 <1>  -0.1500 
 11 O        0.2950     4.7560     0.3290 O.2   1 <1>  -0.5700 
 12 C        4.1790     1.2290    -0.1690 C.3   1 <1>   0.2480 
 13 C        2.3520    -0.3210     0.1950 C.3   1 <1>   0.0300 
 14 C       -3.9560     2.2740    -0.7570 C.ar  1 <1>  -0.1500 
 15 C       -3.5040     3.1260     1.4290 C.ar  1 <1>  -0.1500 
 16 C        4.9220     1.2190     1.1510 C.2   1 <1>  -0.2880 
 17 C       -4.4170     2.7150     0.4720 C.ar  1 <1>  -0.1430 
 18 C        5.7130     2.1990     1.5990 C.2   1 <1>  -0.3000 
 19 C       -5.9060     2.7430     0.7690 C.3   1 <1>  -0.0970 
 20 H        2.2880     1.6740    -1.8910 H     1 <1>   0.0800 
 21 H        2.2290     3.9350    -1.4170 H     1 <1>   0.0800 
 22 H        2.6660     3.5670     0.2500 H     1 <1>   0.0800 
 23 H       -2.2590     1.9000    -1.9850 H     1 <1>   0.1500 
 24 H       -1.4520     3.4270     1.9100 H     1 <1>   0.1500 
 25 H        4.3930     2.1560    -0.6730 H     1 <1>   0.0800 
 26 H        4.5220     0.4240    -0.7990 H     1 <1>   0.0800 
 27 H        1.3510    -0.4110     0.5800 H     1 <1>   0.0800 
 28 H        3.0070    -0.8420     0.8710 H     1 <1>   0.0800 
 29 H        2.3980    -0.7950    -0.7720 H     1 <1>   0.0800 
 30 H       -4.6520     1.9470    -1.5100 H     1 <1>   0.1500 
 31 H       -3.8460     3.4710     2.3890 H     1 <1>   0.1500 
 32 H        4.7440     0.3230     1.7180 H     1 <1>   0.1500 
 33 H        6.2270     2.1680     2.5440 H     1 <1>   0.1500 
 34 H        5.9140     3.1130     1.0660 H     1 <1>   0.1500 
 35 H       -6.2070     1.8070     1.2020 H     1 <1>   0.0800 
 36 H       -6.4660     2.9060    -0.1340 H     1 <1>   0.0800 
 37 H       -6.1370     3.5360     1.4580 H     1 <1>   0.0800 
@<TRIPOS>BOND
  1   1   2  2   
  2   2   3  am  
  3   2   4  1   
  4   3   5  1   
  5   3   6  am  
  6   4   7  1   
  7   4   8  1   
  8   4  20  1   
  9   5   9  ar  
 10   5  10  ar  
 11   6   8  1   
 12   6  11  2   
 13   7  12  1   
 14   7  13  1   
 15   8  21  1   
 16   8  22  1   
 17   9  14  ar  
 18   9  23  1   
 19  10  15  ar  
 20  10  24  1   
 21  12  16  1   
 22  12  25  1   
 23  12  26  1   
 24  13  27  1   
 25  13  28  1   
 26  13  29  1   
 27  14  17  ar  
 28  14  30  1   
 29  15  17  ar  
 30  15  31  1   
 31  16  18  2   
 32  16  32  1   
 33  17  19  1   
 34  18  33  1   
 35  18  34  1   
 36  19  35  1   
 37  19  36  1   
 38  19  37  1   
@<TRIPOS>SUBSTRUCTURE
  1 ****   3 GROUP 4 **** **** 0

# MOE 2024.06 (io_trps.svl 2023.06)
