@<TRIPOS>MOLECULE
NONAME
47 48 1 0 0 
SMALL
USER_CHARGES


@<TRIPOS>ATOM
  1 S        0.2290     0.7820     0.4430 S.o2  1 <1>   1.3330 
  2 O        0.7480     1.7100     1.4240 O.2   1 <1>  -0.6500 
  3 O        0.1760    -0.6290     0.7550 O.2   1 <1>  -0.6500 
  4 N       -1.3350     1.2950     0.0330 N.am  1 <1>  -0.8490 
  5 C        1.1240     0.9770    -1.1020 C.3   1 <1>  -0.0550 
  6 C       -1.4810     2.7530     0.1110 C.3   1 <1>   0.1960 
  7 C       -2.3610     0.6070     0.8230 C.3   1 <1>   0.1960 
  8 C        2.6040     0.5700    -1.0160 C.3   1 <1>  -0.1600 
  9 C       -2.8440     3.1800    -0.4340 C.3   1 <1>  -0.1600 
 10 C       -3.7600     0.9750     0.3210 C.3   1 <1>  -0.1600 
 11 C        3.3130     0.7590    -2.3610 C.3   1 <1>  -0.2400 
 12 C       -3.9850     2.4950     0.3380 C.3   1 <1>  -0.0190 
 13 C       -5.3730     2.8520    -0.1970 C.2   1 <1>   0.5690 
 14 O       -5.5100     3.1140    -1.3680 O.2   1 <1>  -0.5700 
 15 N       -6.4000     2.8420     0.7030 N.am  1 <1>  -0.5470 
 16 C       -7.7790     3.0940     0.6050 C.ar  1 <1>   0.1170 
 17 C       -8.5550     2.9340     1.7560 C.ar  1 <1>   0.0820 
 18 C       -8.4160     3.4930    -0.5650 C.ar  1 <1>  -0.1500 
 19 O       -7.9700     2.5470     2.9140 O.3   1 <1>  -0.5330 
 20 C       -9.9200     3.1640     1.7360 C.ar  1 <1>  -0.1500 
 21 C       -9.7820     3.7270    -0.5930 C.ar  1 <1>  -0.1440 
 22 C      -10.5320     3.5600     0.5600 C.ar  1 <1>  -0.1500 
 23 C      -10.4540     4.1600    -1.8840 C.3   1 <1>  -0.0970 
 24 H        1.0660     2.0010    -1.4130 H     1 <1>   0.0800 
 25 H        0.6430     0.3800    -1.8530 H     1 <1>   0.0800 
 26 H       -0.7070     3.2290    -0.4680 H     1 <1>   0.0800 
 27 H       -1.3780     3.0780     1.1350 H     1 <1>   0.0800 
 28 H       -2.2530     0.8660     1.8640 H     1 <1>   0.0800 
 29 H       -2.2400    -0.4600     0.7290 H     1 <1>   0.0800 
 30 H        2.6730    -0.4630    -0.7170 H     1 <1>   0.0800 
 31 H        3.0950     1.1650    -0.2640 H     1 <1>   0.0800 
 32 H       -2.8960     2.9220    -1.4780 H     1 <1>   0.0800 
 33 H       -2.9440     4.2480    -0.3560 H     1 <1>   0.0800 
 34 H       -4.4950     0.4880     0.9370 H     1 <1>   0.0800 
 35 H       -3.8770     0.6030    -0.6830 H     1 <1>   0.0800 
 36 H        2.8500     0.1540    -3.1210 H     1 <1>   0.0800 
 37 H        4.3450     0.4660    -2.2750 H     1 <1>   0.0800 
 38 H        3.2770     1.7900    -2.6660 H     1 <1>   0.0800 
 39 H       -3.9330     2.8320     1.3580 H     1 <1>   0.0800 
 40 H       -6.1530     2.5810     1.6580 H     1 <1>   0.3700 
 41 H       -7.8460     3.6240    -1.4660 H     1 <1>   0.1500 
 42 H       -8.6120     2.4700     3.6430 H     1 <1>   0.4500 
 43 H      -10.5120     3.0380     2.6240 H     1 <1>   0.1500 
 44 H      -11.5930     3.7370     0.5440 H     1 <1>   0.1500 
 45 H       -9.7590     4.6920    -2.5100 H     1 <1>   0.0800 
 46 H      -11.2860     4.8080    -1.6770 H     1 <1>   0.0800 
 47 H      -10.8070     3.2960    -2.4170 H     1 <1>   0.0800 
@<TRIPOS>BOND
  1   1   2  2   
  2   1   3  2   
  3   1   4  am  
  4   1   5  1   
  5   4   6  1   
  6   4   7  1   
  7   5   8  1   
  8   5  24  1   
  9   5  25  1   
 10   6   9  1   
 11   6  26  1   
 12   6  27  1   
 13   7  10  1   
 14   7  28  1   
 15   7  29  1   
 16   8  11  1   
 17   8  30  1   
 18   8  31  1   
 19   9  12  1   
 20   9  32  1   
 21   9  33  1   
 22  10  12  1   
 23  10  34  1   
 24  10  35  1   
 25  11  36  1   
 26  11  37  1   
 27  11  38  1   
 28  12  13  1   
 29  12  39  1   
 30  13  14  2   
 31  13  15  am  
 32  15  16  1   
 33  15  40  1   
 34  16  17  ar  
 35  16  18  ar  
 36  17  19  1   
 37  17  20  ar  
 38  18  21  ar  
 39  18  41  1   
 40  19  42  1   
 41  20  22  ar  
 42  20  43  1   
 43  21  22  ar  
 44  21  23  1   
 45  22  44  1   
 46  23  45  1   
 47  23  46  1   
 48  23  47  1   
@<TRIPOS>SUBSTRUCTURE
  1 ****  12 GROUP 4 **** **** 0

# MOE 2024.06 (io_trps.svl 2023.06)
