@<TRIPOS>MOLECULE
NONAME
39 40 1 0 0 
SMALL
USER_CHARGES


@<TRIPOS>ATOM
  1 O        0.9040     0.7380    -2.0500 O.co2 1 <1>  -0.9000 
  2 C        0.5720     1.2230    -0.9630 C.2   1 <1>   0.9060 
  3 O        0.3450     0.5200     0.0250 O.co2 1 <1>  -0.9000 
  4 C        0.4950     2.7330    -0.8720 C.3   1 <1>  -0.1860 
  5 C        1.8870     3.3820    -0.7300 C.3   1 <1>  -0.0190 
  6 C       -0.4630     3.2330     0.2190 C.3   1 <1>  -0.0220 
  7 C        2.6480     3.0140     0.5630 C.2   1 <1>   0.4230 
  8 C        1.7410     4.9100    -0.9010 C.3   1 <1>  -0.0220 
  9 C       -0.4740     4.7600     0.3000 C.2   1 <1>  -0.2760 
 10 O        2.4160     3.6530     1.5630 O.2   1 <1>  -0.5700 
 11 C        3.7060     2.0130     0.5550 C.ar  1 <1>   0.0860 
 12 C        0.5090     5.5140    -0.2200 C.2   1 <1>  -0.2760 
 13 C       -1.7060     5.2520     1.0500 C.3   1 <1>  -0.1020 
 14 C        4.6420     1.9960     1.5950 C.ar  1 <1>  -0.1500 
 15 C        3.8830     1.0460    -0.4400 C.ar  1 <1>  -0.1500 
 16 C        0.5790     7.0370    -0.2180 C.3   1 <1>  -0.1020 
 17 C        5.6910     1.0960     1.6350 C.ar  1 <1>  -0.1500 
 18 C        4.9270     0.1400    -0.4070 C.ar  1 <1>  -0.1500 
 19 C        5.8440     0.1600     0.6280 C.ar  1 <1>  -0.1430 
 20 C        6.9860    -0.8390     0.6630 C.3   1 <1>  -0.0970 
 21 H        0.0870     3.0510    -1.8130 H     1 <1>   0.0800 
 22 H        2.4830     3.0490    -1.5590 H     1 <1>   0.0800 
 23 H       -0.1760     2.8280     1.1750 H     1 <1>   0.0800 
 24 H       -1.4470     2.8630    -0.0100 H     1 <1>   0.0800 
 25 H        1.6750     5.1290    -1.9510 H     1 <1>   0.0800 
 26 H        2.6310     5.3840    -0.5260 H     1 <1>   0.0800 
 27 H       -2.5920     5.0120     0.4910 H     1 <1>   0.0800 
 28 H       -1.6910     6.3080     1.2270 H     1 <1>   0.0800 
 29 H       -1.7590     4.7630     2.0060 H     1 <1>   0.0800 
 30 H        4.5400     2.7110     2.3920 H     1 <1>   0.1500 
 31 H        3.1920     0.9740    -1.2590 H     1 <1>   0.1500 
 32 H        1.4010     7.3580     0.3960 H     1 <1>   0.0800 
 33 H       -0.3160     7.4920     0.1530 H     1 <1>   0.0800 
 34 H        0.7350     7.3950    -1.2200 H     1 <1>   0.0800 
 35 H        6.3830     1.1250     2.4570 H     1 <1>   0.1500 
 36 H        5.0090    -0.5880    -1.1950 H     1 <1>   0.1500 
 37 H        7.8240    -0.4350     1.2020 H     1 <1>   0.0800 
 38 H        7.3050    -1.0760    -0.3360 H     1 <1>   0.0800 
 39 H        6.6610    -1.7420     1.1480 H     1 <1>   0.0800 
@<TRIPOS>BOND
  1   1   2  ar  
  2   2   3  ar  
  3   2   4  1   
  4   4   5  1   
  5   4   6  1   
  6   4  21  1   
  7   5   7  1   
  8   5   8  1   
  9   5  22  1   
 10   6   9  1   
 11   6  23  1   
 12   6  24  1   
 13   7  10  2   
 14   7  11  1   
 15   8  12  1   
 16   8  25  1   
 17   8  26  1   
 18   9  12  2   
 19   9  13  1   
 20  11  14  ar  
 21  11  15  ar  
 22  12  16  1   
 23  13  27  1   
 24  13  28  1   
 25  13  29  1   
 26  14  17  ar  
 27  14  30  1   
 28  15  18  ar  
 29  15  31  1   
 30  16  32  1   
 31  16  33  1   
 32  16  34  1   
 33  17  19  ar  
 34  17  35  1   
 35  18  19  ar  
 36  18  36  1   
 37  19  20  1   
 38  20  37  1   
 39  20  38  1   
 40  20  39  1   
@<TRIPOS>SUBSTRUCTURE
  1 ****   7 GROUP 4 **** **** 0

# MOE 2024.06 (io_trps.svl 2023.06)
