@<TRIPOS>MOLECULE
NONAME
48 50 1 0 0 
SMALL
USER_CHARGES


@<TRIPOS>ATOM
  1 BR       1.6120    -1.0880     2.9620 Br    1 <1>  -0.1110 
  2 C        0.5510    -2.2320     1.8230 C.ar  1 <1>   0.1110 
  3 C        1.0210    -2.5820     0.5650 C.ar  1 <1>   0.0820 
  4 C       -0.6630    -2.6690     2.3120 C.ar  1 <1>  -0.1500 
  5 O        2.2310    -2.1010     0.1740 O.3   1 <1>  -0.3630 
  6 C        0.2250    -3.4050    -0.2260 C.ar  1 <1>  -0.1500 
  7 C       -1.4520    -3.4880     1.5180 C.ar  1 <1>  -0.1430 
  8 C        2.8280    -2.4790    -1.0470 C.3   1 <1>   0.0400 
  9 C       -1.0080    -3.8560     0.2480 C.ar  1 <1>   0.0820 
 10 C       -2.7900    -3.9790     2.0370 C.3   1 <1>   0.4870 
 11 O       -1.8310    -4.6530    -0.4880 O.3   1 <1>  -0.3630 
 12 N       -3.8570    -3.4840     1.1340 N.4   1 <1>  -0.9590 
 13 C       -1.3820    -5.2720    -1.6790 C.3   1 <1>   0.0400 
 14 C       -3.9650    -1.9800     1.1380 C.3   1 <1>   0.3430 
 15 C       -5.1870    -4.1370     1.3970 C.3   1 <1>   0.3430 
 16 C       -5.0620    -1.4680     0.1820 C.3   1 <1>   0.2090 
 17 C       -6.2860    -3.6340     0.4390 C.3   1 <1>   0.2090 
 18 N       -6.3700    -2.1420     0.4490 N.pl3 1 <1>  -0.8380 
 19 C       -7.4660    -1.6040    -0.2400 C.ar  1 <1>   0.1000 
 20 C       -7.6430    -1.6690    -1.6280 C.ar  1 <1>   0.1900 
 21 C       -8.4570    -0.9580     0.4880 C.ar  1 <1>  -0.1500 
 22 F       -6.7380    -2.2670    -2.3670 F     1 <1>  -0.1900 
 23 C       -8.7380    -1.1270    -2.2710 C.ar  1 <1>  -0.1500 
 24 C       -9.5640    -0.4070    -0.1380 C.ar  1 <1>  -0.1500 
 25 C       -9.7080    -0.4890    -1.5150 C.ar  1 <1>  -0.1500 
 26 H       -0.9650    -2.3660     3.3000 H     1 <1>   0.1500 
 27 H        0.5650    -3.6850    -1.2020 H     1 <1>   0.1500 
 28 H        3.7880    -1.9970    -1.1100 H     1 <1>   0.0800 
 29 H        2.2050    -2.1510    -1.8600 H     1 <1>   0.0800 
 30 H        2.9560    -3.5470    -1.0600 H     1 <1>   0.0800 
 31 H       -2.9560    -3.6280     3.0420 H     1 <1>   0.0800 
 32 H       -2.7850    -5.0570     2.0430 H     1 <1>   0.0800 
 33 H       -3.5360    -3.7640     0.1910 H     1 <1>   0.4500 
 34 H       -1.1860    -4.5160    -2.4190 H     1 <1>   0.0800 
 35 H       -2.1560    -5.9310    -2.0320 H     1 <1>   0.0800 
 36 H       -0.4930    -5.8410    -1.4670 H     1 <1>   0.0800 
 37 H       -3.0220    -1.5430     0.8530 H     1 <1>   0.0800 
 38 H       -4.2020    -1.6370     2.1310 H     1 <1>   0.0800 
 39 H       -5.5010    -3.9230     2.4050 H     1 <1>   0.0800 
 40 H       -5.0980    -5.2060     1.2960 H     1 <1>   0.0800 
 41 H       -4.7610    -1.6440    -0.8370 H     1 <1>   0.0800 
 42 H       -5.1790    -0.4050     0.3110 H     1 <1>   0.0800 
 43 H       -7.2370    -4.0420     0.7400 H     1 <1>   0.0800 
 44 H       -6.0810    -3.9810    -0.5590 H     1 <1>   0.0800 
 45 H       -8.3560    -0.8890     1.5560 H     1 <1>   0.1500 
 46 H       -8.8310    -1.2010    -3.3390 H     1 <1>   0.1500 
 47 H      -10.3190     0.0880     0.4480 H     1 <1>   0.1500 
 48 H      -10.5710    -0.0590    -1.9940 H     1 <1>   0.1500 
@<TRIPOS>BOND
  1   1   2  1   
  2   2   3  ar  
  3   2   4  ar  
  4   3   5  1   
  5   3   6  ar  
  6   4   7  ar  
  7   4  26  1   
  8   5   8  1   
  9   6   9  ar  
 10   6  27  1   
 11   7   9  ar  
 12   7  10  1   
 13   8  28  1   
 14   8  29  1   
 15   8  30  1   
 16   9  11  1   
 17  10  12  1   
 18  10  31  1   
 19  10  32  1   
 20  11  13  1   
 21  12  14  1   
 22  12  15  1   
 23  12  33  1   
 24  13  34  1   
 25  13  35  1   
 26  13  36  1   
 27  14  16  1   
 28  14  37  1   
 29  14  38  1   
 30  15  17  1   
 31  15  39  1   
 32  15  40  1   
 33  16  18  1   
 34  16  41  1   
 35  16  42  1   
 36  17  18  1   
 37  17  43  1   
 38  17  44  1   
 39  18  19  1   
 40  19  20  ar  
 41  19  21  ar  
 42  20  22  1   
 43  20  23  ar  
 44  21  24  ar  
 45  21  45  1   
 46  23  25  ar  
 47  23  46  1   
 48  24  25  ar  
 49  24  47  1   
 50  25  48  1   
@<TRIPOS>SUBSTRUCTURE
  1 ****  14 GROUP 4 **** **** 0

# MOE 2024.06 (io_trps.svl 2023.06)
