@<TRIPOS>MOLECULE
NONAME
56 60 1 0 0 
SMALL
USER_CHARGES


@<TRIPOS>ATOM
  1 O        4.4570    -1.1940     2.5010 O.2   1 <1>  -0.5700 
  2 C        3.5160    -1.8290     2.0430 C.2   1 <1>   0.6160 
  3 N        3.6030    -2.3730     0.7680 N.am  1 <1>  -0.4690 
  4 C        2.3370    -2.0560     2.8010 C.2   1 <1>  -0.1360 
  5 C        2.5970    -3.2200     0.3020 C.2   1 <1>  -0.0290 
  6 C        4.6500    -1.8000    -0.1460 C.3   1 <1>   0.1400 
  7 C        1.3330    -2.8350     2.3220 C.2   1 <1>  -0.1500 
  8 C        1.4800    -3.4380     1.0510 C.2   1 <1>  -0.1500 
  9 C        2.7930    -3.9340    -1.0370 C.3   1 <1>   0.0580 
 10 C        4.8780    -2.6370    -1.4190 C.3   1 <1>  -0.0800 
 11 C        3.6380    -5.1970    -0.7800 C.3   1 <1>   0.3430 
 12 C        3.5230    -3.0210    -2.0330 C.3   1 <1>  -0.1600 
 13 C        5.7180    -3.8890    -1.1070 C.3   1 <1>   0.3430 
 14 N        4.9540    -4.7960    -0.1990 N.4   1 <1>  -0.9590 
 15 C        5.7650    -5.9160     0.3400 C.3   1 <1>   0.4860 
 16 C        6.9120    -5.3120     1.1240 C.ar  1 <1>  -0.1440 
 17 C        8.2080    -5.4190     0.6450 C.ar  1 <1>  -0.1500 
 18 C        6.6780    -4.6230     2.3070 C.ar  1 <1>  -0.1500 
 19 C        9.2640    -4.8370     1.3250 C.ar  1 <1>   0.0820 
 20 C        7.7300    -4.0410     2.9920 C.ar  1 <1>  -0.1500 
 21 O       10.4880    -4.9840     0.7680 O.3   1 <1>  -0.3620 
 22 C        9.0210    -4.1440     2.5070 C.ar  1 <1>  -0.1500 
 23 C       11.6470    -4.4620     1.3820 C.3   1 <1>   0.2630 
 24 C       12.8480    -4.7860     0.5080 C.ar  1 <1>  -0.1440 
 25 C       13.4980    -3.7840    -0.1980 C.ar  1 <1>  -0.1500 
 26 C       13.3060    -6.0910     0.4120 C.ar  1 <1>  -0.1500 
 27 C       14.5950    -4.0850    -0.9870 C.ar  1 <1>  -0.1500 
 28 C       14.4030    -6.3930    -0.3760 C.ar  1 <1>  -0.1500 
 29 C       15.0480    -5.3890    -1.0760 C.ar  1 <1>  -0.1500 
 30 H        2.2880    -1.5790     3.7620 H     1 <1>   0.1500 
 31 H        5.5810    -1.6920     0.3860 H     1 <1>   0.0800 
 32 H        4.3280    -0.8120    -0.4300 H     1 <1>   0.0800 
 33 H        0.4310    -3.0110     2.8840 H     1 <1>   0.1500 
 34 H        0.6800    -4.0750     0.7130 H     1 <1>   0.1500 
 35 H        1.8400    -4.2230    -1.4450 H     1 <1>   0.0800 
 36 H        5.4290    -2.0340    -2.1200 H     1 <1>   0.0800 
 37 H        3.7860    -5.7330    -1.7040 H     1 <1>   0.0800 
 38 H        3.1110    -5.8360    -0.0900 H     1 <1>   0.0800 
 39 H        2.9340    -2.1380    -2.2170 H     1 <1>   0.0800 
 40 H        3.6650    -3.5280    -2.9720 H     1 <1>   0.0800 
 41 H        6.6420    -3.5870    -0.6390 H     1 <1>   0.0800 
 42 H        5.9570    -4.4040    -2.0240 H     1 <1>   0.0800 
 43 H        4.7180    -4.1960     0.6110 H     1 <1>   0.4500 
 44 H        6.1420    -6.5280    -0.4630 H     1 <1>   0.0800 
 45 H        5.1680    -6.5300     0.9950 H     1 <1>   0.0800 
 46 H        8.4280    -5.9510    -0.2640 H     1 <1>   0.1500 
 47 H        5.6840    -4.5250     2.7110 H     1 <1>   0.1500 
 48 H        7.5420    -3.5040     3.9080 H     1 <1>   0.1500 
 49 H        9.8160    -3.6810     3.0620 H     1 <1>   0.1500 
 50 H       11.7550    -4.9190     2.3500 H     1 <1>   0.0800 
 51 H       11.5280    -3.3980     1.4870 H     1 <1>   0.0800 
 52 H       13.1540    -2.7670    -0.1410 H     1 <1>   0.1500 
 53 H       12.8050    -6.8780     0.9500 H     1 <1>   0.1500 
 54 H       15.0950    -3.3040    -1.5340 H     1 <1>   0.1500 
 55 H       14.7510    -7.4080    -0.4460 H     1 <1>   0.1500 
 56 H       15.9010    -5.6230    -1.6900 H     1 <1>   0.1500 
@<TRIPOS>BOND
  1   1   2  2   
  2   2   3  am  
  3   2   4  1   
  4   3   5  1   
  5   3   6  1   
  6   4   7  2   
  7   4  30  1   
  8   5   8  2   
  9   5   9  1   
 10   6  10  1   
 11   6  31  1   
 12   6  32  1   
 13   7   8  1   
 14   7  33  1   
 15   8  34  1   
 16   9  11  1   
 17   9  12  1   
 18   9  35  1   
 19  10  12  1   
 20  10  13  1   
 21  10  36  1   
 22  11  14  1   
 23  11  37  1   
 24  11  38  1   
 25  12  39  1   
 26  12  40  1   
 27  13  14  1   
 28  13  41  1   
 29  13  42  1   
 30  14  15  1   
 31  14  43  1   
 32  15  16  1   
 33  15  44  1   
 34  15  45  1   
 35  16  17  ar  
 36  16  18  ar  
 37  17  19  ar  
 38  17  46  1   
 39  18  20  ar  
 40  18  47  1   
 41  19  21  1   
 42  19  22  ar  
 43  20  22  ar  
 44  20  48  1   
 45  21  23  1   
 46  22  49  1   
 47  23  24  1   
 48  23  50  1   
 49  23  51  1   
 50  24  25  ar  
 51  24  26  ar  
 52  25  27  ar  
 53  25  52  1   
 54  26  28  ar  
 55  26  53  1   
 56  27  29  ar  
 57  27  54  1   
 58  28  29  ar  
 59  28  55  1   
 60  29  56  1   
@<TRIPOS>SUBSTRUCTURE
  1 ****  16 GROUP 4 **** **** 0

# MOE 2024.06 (io_trps.svl 2023.06)
