@<TRIPOS>MOLECULE
NONAME
33 33 1 0 0 
SMALL
USER_CHARGES


@<TRIPOS>ATOM
  1 CL       0.5610    -0.6400     1.2090 Cl    1 <1>  -0.1770 
  2 C        0.4490    -1.8910    -0.0120 C.ar  1 <1>   0.1770 
  3 C       -0.7680    -2.0870    -0.6680 C.ar  1 <1>   0.1000 
  4 C        1.5640    -2.6560    -0.2910 C.ar  1 <1>  -0.1500 
  5 N       -1.8860    -1.3010    -0.3740 N.pl3 1 <1>  -0.8690 
  6 C       -0.8240    -3.0790    -1.6410 C.ar  1 <1>  -0.1500 
  7 C        1.4810    -3.6460    -1.2560 C.ar  1 <1>  -0.1500 
  8 C       -3.1040    -1.8910     0.3470 C.3   1 <1>   0.6690 
  9 C        0.2880    -3.8530    -1.9290 C.ar  1 <1>  -0.1500 
 10 N       -3.9420    -2.0960    -0.8760 N.am  1 <1>  -0.7300 
 11 C       -2.8480    -3.2110     1.1960 C.3   1 <1>   1.0200 
 12 C       -3.7010    -0.8600     1.3930 C.3   1 <1>   1.0200 
 13 C       -5.2870    -2.0650    -0.9680 C.2   1 <1>   0.5690 
 14 F       -2.5730    -4.2720     0.4420 F     1 <1>  -0.3400 
 15 F       -3.8810    -3.5960     1.9400 F     1 <1>  -0.3400 
 16 F       -1.8260    -3.1130     2.0410 F     1 <1>  -0.3400 
 17 F       -4.9070    -1.1600     1.8660 F     1 <1>  -0.3400 
 18 F       -3.8290     0.3540     0.8640 F     1 <1>  -0.3400 
 19 F       -2.9290    -0.6780     2.4590 F     1 <1>  -0.3400 
 20 O       -5.8010    -1.1880    -1.6030 O.2   1 <1>  -0.5700 
 21 C       -6.1680    -3.1270    -0.3260 C.3   1 <1>  -0.0990 
 22 C       -5.9090    -4.5350    -0.8850 C.3   1 <1>  -0.2400 
 23 H        2.4830    -2.4790     0.2380 H     1 <1>   0.1500 
 24 H       -1.6020    -0.4250     0.0930 H     1 <1>   0.4000 
 25 H       -1.7400    -3.2480    -2.1780 H     1 <1>   0.1500 
 26 H        2.3420    -4.2520    -1.4840 H     1 <1>   0.1500 
 27 H        0.2250    -4.6200    -2.6820 H     1 <1>   0.1500 
 28 H       -3.4840    -1.5490    -1.6100 H     1 <1>   0.3700 
 29 H       -7.1940    -2.8680    -0.5210 H     1 <1>   0.0800 
 30 H       -6.0450    -3.1280     0.7380 H     1 <1>   0.0800 
 31 H       -6.0740    -4.5460    -1.9490 H     1 <1>   0.0800 
 32 H       -6.5790    -5.2420    -0.4290 H     1 <1>   0.0800 
 33 H       -4.8990    -4.8490    -0.6920 H     1 <1>   0.0800 
@<TRIPOS>BOND
  1   1   2  1   
  2   2   3  ar  
  3   2   4  ar  
  4   3   5  1   
  5   3   6  ar  
  6   4   7  ar  
  7   4  23  1   
  8   5   8  1   
  9   5  24  1   
 10   6   9  ar  
 11   6  25  1   
 12   7   9  ar  
 13   7  26  1   
 14   8  10  1   
 15   8  11  1   
 16   8  12  1   
 17   9  27  1   
 18  10  13  am  
 19  10  28  1   
 20  11  14  1   
 21  11  15  1   
 22  11  16  1   
 23  12  17  1   
 24  12  18  1   
 25  12  19  1   
 26  13  20  2   
 27  13  21  1   
 28  21  22  1   
 29  21  29  1   
 30  21  30  1   
 31  22  31  1   
 32  22  32  1   
 33  22  33  1   
@<TRIPOS>SUBSTRUCTURE
  1 ****   8 GROUP 4 **** **** 0

# MOE 2024.06 (io_trps.svl 2023.06)
