@<TRIPOS>MOLECULE
NONAME
50 52 1 0 0 
SMALL
USER_CHARGES


@<TRIPOS>ATOM
  1 O       -0.2740    -1.1370     1.7100 O.2   1 <1>  -0.5700 
  2 C       -0.3540    -1.3590     0.5160 C.2   1 <1>   0.6900 
  3 N       -1.4750    -1.0150    -0.1870 N.am  1 <1>  -0.6600 
  4 N        0.6800    -1.9350    -0.1410 N.am  1 <1>  -0.7300 
  5 C       -2.5250    -0.1330     0.4170 C.3   1 <1>   0.1400 
  6 C       -1.9480    -1.7460    -1.4050 C.3   1 <1>   0.1400 
  7 C        1.9610    -2.3230     0.4670 C.3   1 <1>   0.2200 
  8 C       -3.8270    -0.9090     0.6760 C.3   1 <1>   0.2090 
  9 C       -3.2650    -2.4980    -1.1330 C.3   1 <1>   0.2090 
 10 C        3.0340    -1.3070     0.0610 C.3   1 <1>  -0.1600 
 11 C        2.3240    -3.7350    -0.0050 C.3   1 <1>  -0.1600 
 12 N       -4.3020    -1.5850    -0.5700 N.pl3 1 <1>  -0.8380 
 13 C        4.4180    -1.7230     0.5800 C.3   1 <1>  -0.1600 
 14 C        3.7070    -4.1550     0.5150 C.3   1 <1>  -0.1600 
 15 C       -5.5980    -2.0880    -0.5350 C.ar  1 <1>   0.1000 
 16 C        4.7840    -3.1390     0.1120 C.3   1 <1>  -0.1600 
 17 C       -5.9550    -3.1340     0.3060 C.ar  1 <1>  -0.1500 
 18 C       -6.5660    -1.5360    -1.3620 C.ar  1 <1>  -0.1500 
 19 C       -7.2490    -3.6250     0.3250 C.ar  1 <1>   0.0820 
 20 C       -7.8630    -2.0160    -1.3520 C.ar  1 <1>  -0.1500 
 21 O       -7.5030    -4.6500     1.1800 O.3   1 <1>  -0.3630 
 22 C       -8.2100    -3.0600    -0.5110 C.ar  1 <1>  -0.1500 
 23 C       -8.7890    -5.2190     1.2750 C.3   1 <1>   0.0400 
 24 H        0.6780    -1.8630    -1.1520 H     1 <1>   0.3700 
 25 H       -2.7320     0.6770    -0.2600 H     1 <1>   0.0800 
 26 H       -2.1750     0.2930     1.3410 H     1 <1>   0.0800 
 27 H       -1.2110    -2.4540    -1.7360 H     1 <1>   0.0800 
 28 H       -2.1110    -1.0370    -2.1970 H     1 <1>   0.0800 
 29 H        1.8680    -2.3260     1.5420 H     1 <1>   0.0800 
 30 H       -4.5860    -0.2300     1.0240 H     1 <1>   0.0800 
 31 H       -3.6530    -1.6420     1.4450 H     1 <1>   0.0800 
 32 H       -3.0780    -3.3000    -0.4400 H     1 <1>   0.0800 
 33 H       -3.6310    -2.9260    -2.0500 H     1 <1>   0.0800 
 34 H        2.7770    -0.3440     0.4660 H     1 <1>   0.0800 
 35 H        3.0700    -1.2300    -1.0110 H     1 <1>   0.0800 
 36 H        2.3310    -3.7650    -1.0800 H     1 <1>   0.0800 
 37 H        1.5840    -4.4290     0.3540 H     1 <1>   0.0800 
 38 H        4.4170    -1.6930     1.6560 H     1 <1>   0.0800 
 39 H        5.1590    -1.0240     0.2320 H     1 <1>   0.0800 
 40 H        3.9610    -5.1250     0.1230 H     1 <1>   0.0800 
 41 H        3.6750    -4.2320     1.5890 H     1 <1>   0.0800 
 42 H        5.7290    -3.4260     0.5410 H     1 <1>   0.0800 
 43 H        4.8950    -3.1420    -0.9590 H     1 <1>   0.0800 
 44 H       -5.2200    -3.5720     0.9530 H     1 <1>   0.1500 
 45 H       -6.2870    -0.7260    -2.0100 H     1 <1>   0.1500 
 46 H       -8.6020    -1.5770    -2.0000 H     1 <1>   0.1500 
 47 H       -9.2220    -3.4160    -0.5220 H     1 <1>   0.1500 
 48 H       -8.7520    -6.0060     2.0070 H     1 <1>   0.0800 
 49 H       -9.0630    -5.6250     0.3160 H     1 <1>   0.0800 
 50 H       -9.4840    -4.4610     1.5870 H     1 <1>   0.0800 
@<TRIPOS>BOND
  1   1   2  2   
  2   2   3  am  
  3   2   4  am  
  4   3   5  1   
  5   3   6  1   
  6   4   7  1   
  7   4  24  1   
  8   5   8  1   
  9   5  25  1   
 10   5  26  1   
 11   6   9  1   
 12   6  27  1   
 13   6  28  1   
 14   7  10  1   
 15   7  11  1   
 16   7  29  1   
 17   8  12  1   
 18   8  30  1   
 19   8  31  1   
 20   9  12  1   
 21   9  32  1   
 22   9  33  1   
 23  10  13  1   
 24  10  34  1   
 25  10  35  1   
 26  11  14  1   
 27  11  36  1   
 28  11  37  1   
 29  12  15  1   
 30  13  16  1   
 31  13  38  1   
 32  13  39  1   
 33  14  16  1   
 34  14  40  1   
 35  14  41  1   
 36  15  17  ar  
 37  15  18  ar  
 38  16  42  1   
 39  16  43  1   
 40  17  19  ar  
 41  17  44  1   
 42  18  20  ar  
 43  18  45  1   
 44  19  21  1   
 45  19  22  ar  
 46  20  22  ar  
 47  20  46  1   
 48  21  23  1   
 49  22  47  1   
 50  23  48  1   
 51  23  49  1   
 52  23  50  1   
@<TRIPOS>SUBSTRUCTURE
  1 ****   9 GROUP 4 **** **** 0

# MOE 2024.06 (io_trps.svl 2023.06)
