@<TRIPOS>MOLECULE
NONAME
37 39 1 0 0 
SMALL
USER_CHARGES


@<TRIPOS>ATOM
  1 CL       0.5500     0.0230    -1.8700 Cl    1 <1>  -0.1770 
  2 C        2.1290    -0.4800    -1.3200 C.ar  1 <1>   0.1770 
  3 C        3.2480    -0.1060    -2.0400 C.ar  1 <1>  -0.1500 
  4 C        2.2350    -1.2450    -0.1730 C.ar  1 <1>  -0.1500 
  5 C        4.4980    -0.5070    -1.6000 C.ar  1 <1>  -0.1500 
  6 C        3.4860    -1.6450     0.2650 C.ar  1 <1>  -0.1500 
  7 C        4.6250    -1.2750    -0.4500 C.ar  1 <1>   0.0830 
  8 O        5.8860    -1.6230    -0.0920 O.3   1 <1>  -0.3630 
  9 C        6.1310    -2.4120     1.0680 C.3   1 <1>   0.1810 
 10 C        7.6180    -2.6770     1.2670 C.2   1 <1>   0.5690 
 11 O        7.9620    -3.3290     2.2240 O.2   1 <1>  -0.5700 
 12 N        8.5130    -2.1810     0.3740 N.am  1 <1>  -0.7300 
 13 C        9.9770    -2.3420     0.4310 C.3   1 <1>   0.2200 
 14 C       10.6600    -0.9630     0.4050 C.3   1 <1>  -0.0800 
 15 C       10.4870    -2.9980    -0.8650 C.3   1 <1>  -0.1600 
 16 C       10.6980    -0.6450    -1.0840 C.3   1 <1>  -0.1600 
 17 C       12.1550    -1.1690     0.7030 C.3   1 <1>  -0.1600 
 18 C       11.4180    -1.9270    -1.4630 C.3   1 <1>  -0.0800 
 19 C       12.6760    -1.8380    -0.5820 C.3   1 <1>  -0.1600 
 20 H        3.1390     0.4890    -2.9290 H     1 <1>   0.1500 
 21 H        1.3460    -1.5200     0.3650 H     1 <1>   0.1500 
 22 H        5.3800    -0.2260    -2.1460 H     1 <1>   0.1500 
 23 H        3.5490    -2.2380     1.1580 H     1 <1>   0.1500 
 24 H        5.6200    -3.3500     0.9560 H     1 <1>   0.0800 
 25 H        5.7520    -1.8850     1.9240 H     1 <1>   0.0800 
 26 H        8.1570    -1.6290    -0.4090 H     1 <1>   0.3700 
 27 H       10.2600    -2.9080     1.3040 H     1 <1>   0.0800 
 28 H       10.1900    -0.2290     1.0370 H     1 <1>   0.0800 
 29 H        9.6770    -3.2120    -1.5400 H     1 <1>   0.0800 
 30 H       11.0190    -3.9080    -0.6540 H     1 <1>   0.0800 
 31 H       11.2730     0.2390    -1.3070 H     1 <1>   0.0800 
 32 H        9.7200    -0.5690    -1.5280 H     1 <1>   0.0800 
 33 H       12.3100    -1.7860     1.5720 H     1 <1>   0.0800 
 34 H       12.6410    -0.2200     0.8530 H     1 <1>   0.0800 
 35 H       11.6220    -2.0530    -2.5130 H     1 <1>   0.0800 
 36 H       13.1040    -2.8070    -0.3890 H     1 <1>   0.0800 
 37 H       13.4170    -1.2130    -1.0510 H     1 <1>   0.0800 
@<TRIPOS>BOND
  1   1   2  1   
  2   2   3  ar  
  3   2   4  ar  
  4   3   5  ar  
  5   3  20  1   
  6   4   6  ar  
  7   4  21  1   
  8   5   7  ar  
  9   5  22  1   
 10   6   7  ar  
 11   6  23  1   
 12   7   8  1   
 13   8   9  1   
 14   9  10  1   
 15   9  24  1   
 16   9  25  1   
 17  10  11  2   
 18  10  12  am  
 19  12  13  1   
 20  12  26  1   
 21  13  14  1   
 22  13  15  1   
 23  13  27  1   
 24  14  16  1   
 25  14  17  1   
 26  14  28  1   
 27  15  18  1   
 28  15  29  1   
 29  15  30  1   
 30  16  18  1   
 31  16  31  1   
 32  16  32  1   
 33  17  19  1   
 34  17  33  1   
 35  17  34  1   
 36  18  19  1   
 37  18  35  1   
 38  19  36  1   
 39  19  37  1   
@<TRIPOS>SUBSTRUCTURE
  1 ****   8 GROUP 4 **** **** 0

# MOE 2024.06 (io_trps.svl 2023.06)
