@<TRIPOS>MOLECULE
NONAME
50 50 1 0 0 
SMALL
USER_CHARGES


@<TRIPOS>ATOM
  1 O        1.4940     0.2070    -0.8770 O.2   1 <1>  -0.5700 
  2 C        1.4770     1.3270    -0.4240 C.2   1 <1>   0.5690 
  3 N        2.3780     1.7600     0.5180 N.am  1 <1>  -0.6600 
  4 C        0.4180     2.2820    -0.9620 C.3   1 <1>  -0.0990 
  5 C        3.1900     0.8400     1.3610 C.3   1 <1>   0.2200 
  6 C        3.0440     3.0960     0.3530 C.3   1 <1>   0.1400 
  7 C       -1.0210     1.7700    -0.7500 C.3   1 <1>  -0.0800 
  8 C        4.4930     0.5060     0.6130 C.3   1 <1>   0.1400 
  9 C        2.4320    -0.4040     1.8370 C.3   1 <1>  -0.2400 
 10 C        4.5990     3.0590     0.3670 C.3   1 <1>   0.2200 
 11 C       -2.0250     2.7170    -1.4190 C.3   1 <1>  -0.2400 
 12 C       -1.3540     1.6310     0.7410 C.3   1 <1>  -0.2400 
 13 N        5.1680     1.7150     0.0140 N.am  1 <1>  -0.6600 
 14 C        5.2050     3.5150     1.6980 C.3   1 <1>  -0.2400 
 15 C        6.2020     1.6270    -0.8850 C.2   1 <1>   0.5690 
 16 O        6.6940     2.6120    -1.3850 O.2   1 <1>  -0.5700 
 17 C        6.7850     0.2810    -1.3000 C.3   1 <1>  -0.0990 
 18 C        7.7730    -0.3140    -0.2760 C.3   1 <1>  -0.0800 
 19 C        9.0000     0.5870    -0.0880 C.3   1 <1>  -0.2400 
 20 C        8.2220    -1.7090    -0.7260 C.3   1 <1>  -0.2400 
 21 H        0.6000     2.4040    -2.0130 H     1 <1>   0.0800 
 22 H        0.5090     3.2430    -0.4940 H     1 <1>   0.0800 
 23 H        3.4460     1.3720     2.2580 H     1 <1>   0.0800 
 24 H        2.6900     3.7640     1.1180 H     1 <1>   0.0800 
 25 H        2.7560     3.5180    -0.5930 H     1 <1>   0.0800 
 26 H       -1.1110     0.8000    -1.2130 H     1 <1>   0.0800 
 27 H        4.2470    -0.1870    -0.1720 H     1 <1>   0.0800 
 28 H        5.1670     0.0210     1.2940 H     1 <1>   0.0800 
 29 H        2.2820    -1.1070     1.0380 H     1 <1>   0.0800 
 30 H        1.4790    -0.1220     2.2480 H     1 <1>   0.0800 
 31 H        2.9980    -0.9000     2.6040 H     1 <1>   0.0800 
 32 H        4.9180     3.7790    -0.3690 H     1 <1>   0.0800 
 33 H       -1.9730     3.6990    -0.9820 H     1 <1>   0.0800 
 34 H       -3.0260     2.3420    -1.3000 H     1 <1>   0.0800 
 35 H       -1.8190     2.7960    -2.4720 H     1 <1>   0.0800 
 36 H       -1.2490     2.5750     1.2460 H     1 <1>   0.0800 
 37 H       -0.7010     0.9160     1.2080 H     1 <1>   0.0800 
 38 H       -2.3660     1.2860     0.8660 H     1 <1>   0.0800 
 39 H        4.9520     2.8570     2.5060 H     1 <1>   0.0800 
 40 H        4.8580     4.5030     1.9400 H     1 <1>   0.0800 
 41 H        6.2770     3.5540     1.6060 H     1 <1>   0.0800 
 42 H        7.2950     0.4190    -2.2360 H     1 <1>   0.0800 
 43 H        5.9840    -0.4080    -1.4880 H     1 <1>   0.0800 
 44 H        7.2800    -0.4110     0.6750 H     1 <1>   0.0800 
 45 H        9.5130     0.7300    -1.0230 H     1 <1>   0.0800 
 46 H        9.6850     0.1480     0.6160 H     1 <1>   0.0800 
 47 H        8.7080     1.5520     0.2890 H     1 <1>   0.0800 
 48 H        8.7310    -1.6560    -1.6730 H     1 <1>   0.0800 
 49 H        7.3730    -2.3630    -0.8280 H     1 <1>   0.0800 
 50 H        8.8920    -2.1380    -0.0020 H     1 <1>   0.0800 
@<TRIPOS>BOND
  1   1   2  2   
  2   2   3  am  
  3   2   4  1   
  4   3   5  1   
  5   3   6  1   
  6   4   7  1   
  7   4  21  1   
  8   4  22  1   
  9   5   8  1   
 10   5   9  1   
 11   5  23  1   
 12   6  10  1   
 13   6  24  1   
 14   6  25  1   
 15   7  11  1   
 16   7  12  1   
 17   7  26  1   
 18   8  13  1   
 19   8  27  1   
 20   8  28  1   
 21   9  29  1   
 22   9  30  1   
 23   9  31  1   
 24  10  13  1   
 25  10  14  1   
 26  10  32  1   
 27  11  33  1   
 28  11  34  1   
 29  11  35  1   
 30  12  36  1   
 31  12  37  1   
 32  12  38  1   
 33  13  15  am  
 34  14  39  1   
 35  14  40  1   
 36  14  41  1   
 37  15  16  2   
 38  15  17  1   
 39  17  18  1   
 40  17  42  1   
 41  17  43  1   
 42  18  19  1   
 43  18  20  1   
 44  18  44  1   
 45  19  45  1   
 46  19  46  1   
 47  19  47  1   
 48  20  48  1   
 49  20  49  1   
 50  20  50  1   
@<TRIPOS>SUBSTRUCTURE
  1 ****   8 GROUP 4 **** **** 0

# MOE 2024.06 (io_trps.svl 2023.06)
