@<TRIPOS>MOLECULE
NONAME
53 55 1 0 0 
SMALL
USER_CHARGES


@<TRIPOS>ATOM
  1 O        0.5520    -3.3740     1.2810 O.2   1 <1>  -0.5700 
  2 C       -0.0880    -2.6250     0.5820 C.2   1 <1>   0.5690 
  3 N        0.3950    -1.4660     0.0490 N.am  1 <1>  -0.5470 
  4 C       -1.5470    -2.9590     0.2670 C.3   1 <1>   0.1710 
  5 C        1.6320    -0.8290     0.2170 C.ar  1 <1>   0.1170 
  6 N       -2.3920    -1.7540     0.0160 N.3   1 <1>  -0.8100 
  7 C        2.8570    -1.4280    -0.0920 C.ar  1 <1>  -0.1430 
  8 C        1.6240     0.4770     0.6940 C.ar  1 <1>  -0.1500 
  9 C       -2.6720    -1.0330     1.2860 C.3   1 <1>   0.1100 
 10 C       -3.6750    -2.1370    -0.6220 C.3   1 <1>   0.1100 
 11 C        4.0330    -0.7210     0.1010 C.ar  1 <1>  -0.1500 
 12 C        2.9510    -2.8430    -0.6490 C.3   1 <1>  -0.0970 
 13 C        2.8010     1.1770     0.8800 C.ar  1 <1>  -0.1500 
 14 C       -3.5840     0.1910     1.0780 C.3   1 <1>   0.2090 
 15 C       -4.5990    -0.9260    -0.8550 C.3   1 <1>   0.2090 
 16 C        4.0100     0.5750     0.5850 C.ar  1 <1>  -0.1500 
 17 N       -4.8620    -0.2110     0.4260 N.pl3 1 <1>  -0.8380 
 18 C       -5.8540     0.7790     0.3770 C.ar  1 <1>   0.1000 
 19 C       -5.7550     1.9690    -0.3670 C.ar  1 <1>   0.0820 
 20 C       -7.0030     0.5520     1.1200 C.ar  1 <1>  -0.1500 
 21 O       -4.6190     2.1890    -1.1000 O.3   1 <1>  -0.3620 
 22 C       -6.8030     2.8860    -0.3410 C.ar  1 <1>  -0.1500 
 23 C       -8.0400     1.4660     1.1400 C.ar  1 <1>  -0.1500 
 24 C       -4.5160     3.2720    -1.9920 C.3   1 <1>   0.1200 
 25 C       -7.9400     2.6350     0.4090 C.ar  1 <1>  -0.1500 
 26 C       -3.1750     3.1600    -2.7120 C.3   1 <1>  -0.2400 
 27 H       -0.3520    -0.9140    -0.3830 H     1 <1>   0.3700 
 28 H       -1.9570    -3.5350     1.0780 H     1 <1>   0.0800 
 29 H       -1.5440    -3.5790    -0.6110 H     1 <1>   0.0800 
 30 H        0.6870     0.9460     0.9290 H     1 <1>   0.1500 
 31 H       -1.7480    -0.7000     1.7270 H     1 <1>   0.0800 
 32 H       -3.1530    -1.6960     1.9850 H     1 <1>   0.0800 
 33 H       -4.1960    -2.8460    -0.0010 H     1 <1>   0.0800 
 34 H       -3.4760    -2.6040    -1.5710 H     1 <1>   0.0800 
 35 H        4.9810    -1.1770    -0.1250 H     1 <1>   0.1500 
 36 H        2.9090    -3.5530     0.1570 H     1 <1>   0.0800 
 37 H        3.8730    -2.9840    -1.1830 H     1 <1>   0.0800 
 38 H        2.1400    -3.0370    -1.3270 H     1 <1>   0.0800 
 39 H        2.7780     2.1850     1.2550 H     1 <1>   0.1500 
 40 H       -3.0750     0.9150     0.4670 H     1 <1>   0.0800 
 41 H       -3.8010     0.6460     2.0290 H     1 <1>   0.0800 
 42 H       -5.5330    -1.2570    -1.2730 H     1 <1>   0.0800 
 43 H       -4.1340    -0.2570    -1.5580 H     1 <1>   0.0800 
 44 H        4.9310     1.1130     0.7310 H     1 <1>   0.1500 
 45 H       -7.0740    -0.3580     1.6860 H     1 <1>   0.1500 
 46 H       -6.7600     3.8040    -0.8920 H     1 <1>   0.1500 
 47 H       -8.9220     1.2660     1.7240 H     1 <1>   0.1500 
 48 H       -4.5690     4.1860    -1.4270 H     1 <1>   0.0800 
 49 H       -5.3300     3.2160    -2.6940 H     1 <1>   0.0800 
 50 H       -8.7450     3.3480     0.4240 H     1 <1>   0.1500 
 51 H       -2.3700     3.2020    -2.0000 H     1 <1>   0.0800 
 52 H       -3.0640     3.9740    -3.4050 H     1 <1>   0.0800 
 53 H       -3.1250     2.2340    -3.2560 H     1 <1>   0.0800 
@<TRIPOS>BOND
  1   1   2  2   
  2   2   3  am  
  3   2   4  1   
  4   3   5  1   
  5   3  27  1   
  6   4   6  1   
  7   4  28  1   
  8   4  29  1   
  9   5   7  ar  
 10   5   8  ar  
 11   6   9  1   
 12   6  10  1   
 13   7  11  ar  
 14   7  12  1   
 15   8  13  ar  
 16   8  30  1   
 17   9  14  1   
 18   9  31  1   
 19   9  32  1   
 20  10  15  1   
 21  10  33  1   
 22  10  34  1   
 23  11  16  ar  
 24  11  35  1   
 25  12  36  1   
 26  12  37  1   
 27  12  38  1   
 28  13  16  ar  
 29  13  39  1   
 30  14  17  1   
 31  14  40  1   
 32  14  41  1   
 33  15  17  1   
 34  15  42  1   
 35  15  43  1   
 36  16  44  1   
 37  17  18  1   
 38  18  19  ar  
 39  18  20  ar  
 40  19  21  1   
 41  19  22  ar  
 42  20  23  ar  
 43  20  45  1   
 44  21  24  1   
 45  22  25  ar  
 46  22  46  1   
 47  23  25  ar  
 48  23  47  1   
 49  24  26  1   
 50  24  48  1   
 51  24  49  1   
 52  25  50  1   
 53  26  51  1   
 54  26  52  1   
 55  26  53  1   
@<TRIPOS>SUBSTRUCTURE
  1 ****   9 GROUP 4 **** **** 0

# MOE 2024.06 (io_trps.svl 2023.06)
