@<TRIPOS>MOLECULE
NONAME
40 41 1 0 0 
SMALL
USER_CHARGES


@<TRIPOS>ATOM
  1 BR       0.3840    -0.6760    -0.4160 Br    1 <1>  -0.1110 
  2 C       -1.4480    -1.2290    -0.2010 C.ar  1 <1>   0.1110 
  3 C       -1.7090    -2.4510     0.3850 C.ar  1 <1>  -0.1500 
  4 C       -2.4540    -0.3850    -0.6390 C.ar  1 <1>  -0.1500 
  5 C       -3.0310    -2.8270     0.5300 C.ar  1 <1>   0.1770 
  6 C       -3.7750    -0.7770    -0.4860 C.ar  1 <1>  -0.1500 
  7 CL      -3.3710    -4.3760     1.2720 Cl    1 <1>  -0.1770 
  8 C       -4.0760    -2.0080     0.1020 C.ar  1 <1>   0.0830 
  9 O       -5.3480    -2.4540     0.2820 O.3   1 <1>  -0.3630 
 10 C       -6.4680    -1.6990    -0.1100 C.3   1 <1>   0.1200 
 11 C       -7.7110    -2.5160     0.2480 C.3   1 <1>  -0.1600 
 12 C       -9.0110    -1.7910    -0.1310 C.3   1 <1>  -0.1600 
 13 C      -10.2230    -2.6500     0.2390 C.3   1 <1>   0.3430 
 14 N      -11.4850    -2.0050    -0.2120 N.4   1 <1>  -0.9590 
 15 C      -11.8320    -0.7820     0.6010 C.3   1 <1>   0.3430 
 16 C      -12.6240    -2.9910    -0.1710 C.3   1 <1>   0.3430 
 17 C      -13.1770    -0.1620     0.1640 C.3   1 <1>   0.1100 
 18 C      -13.9590    -2.3460    -0.6020 C.3   1 <1>   0.1100 
 19 N      -14.2610    -1.1550     0.2050 N.3   1 <1>  -0.9000 
 20 H       -0.9130    -3.0910     0.7190 H     1 <1>   0.1500 
 21 H       -2.2030     0.5590    -1.0900 H     1 <1>   0.1500 
 22 H       -4.5460    -0.1150    -0.8300 H     1 <1>   0.1500 
 23 H       -6.4080    -1.5300    -1.1720 H     1 <1>   0.0800 
 24 H       -6.4510    -0.7640     0.4230 H     1 <1>   0.0800 
 25 H       -7.6980    -2.7070     1.3090 H     1 <1>   0.0800 
 26 H       -7.6580    -3.4600    -0.2680 H     1 <1>   0.0800 
 27 H       -9.0090    -1.6040    -1.1910 H     1 <1>   0.0800 
 28 H       -9.0460    -0.8520     0.3930 H     1 <1>   0.0800 
 29 H      -10.2490    -2.8090     1.3060 H     1 <1>   0.0800 
 30 H      -10.1200    -3.6120    -0.2380 H     1 <1>   0.0800 
 31 H      -11.3760    -1.7090    -1.1900 H     1 <1>   0.4500 
 32 H      -11.0570    -0.0400     0.5040 H     1 <1>   0.0800 
 33 H      -11.9070    -1.0500     1.6420 H     1 <1>   0.0800 
 34 H      -12.7420    -3.3660     0.8320 H     1 <1>   0.0800 
 35 H      -12.4110    -3.8270    -0.8160 H     1 <1>   0.0800 
 36 H      -13.0870     0.2420    -0.8300 H     1 <1>   0.0800 
 37 H      -13.4220     0.6500     0.8280 H     1 <1>   0.0800 
 38 H      -14.7530    -3.0640    -0.4750 H     1 <1>   0.0800 
 39 H      -13.9180    -2.0820    -1.6460 H     1 <1>   0.0800 
 40 H      -15.1440    -0.7260    -0.1170 H     1 <1>   0.3600 
@<TRIPOS>BOND
  1   1   2  1   
  2   2   3  ar  
  3   2   4  ar  
  4   3   5  ar  
  5   3  20  1   
  6   4   6  ar  
  7   4  21  1   
  8   5   7  1   
  9   5   8  ar  
 10   6   8  ar  
 11   6  22  1   
 12   8   9  1   
 13   9  10  1   
 14  10  11  1   
 15  10  23  1   
 16  10  24  1   
 17  11  12  1   
 18  11  25  1   
 19  11  26  1   
 20  12  13  1   
 21  12  27  1   
 22  12  28  1   
 23  13  14  1   
 24  13  29  1   
 25  13  30  1   
 26  14  15  1   
 27  14  16  1   
 28  14  31  1   
 29  15  17  1   
 30  15  32  1   
 31  15  33  1   
 32  16  18  1   
 33  16  34  1   
 34  16  35  1   
 35  17  19  1   
 36  17  36  1   
 37  17  37  1   
 38  18  19  1   
 39  18  38  1   
 40  18  39  1   
 41  19  40  1   
@<TRIPOS>SUBSTRUCTURE
  1 ****  10 GROUP 4 **** **** 0

# MOE 2024.06 (io_trps.svl 2023.06)
