@<TRIPOS>MOLECULE
NONAME
44 46 1 0 0 
SMALL
USER_CHARGES


@<TRIPOS>ATOM
  1 O       -0.2620     2.2050    -2.4430 O.2   1 <1>  -0.5700 
  2 C       -1.1400     1.8610    -1.6800 C.2   1 <1>   0.7800 
  3 O       -1.6170     0.6270    -1.8090 O.3   1 <1>  -0.4300 
  4 N       -1.6180     2.6880    -0.7050 N.am  1 <1>  -0.6600 
  5 C       -1.8810    -0.1730    -0.6750 C.3   1 <1>   0.2640 
  6 C       -0.8540     3.8980    -0.2860 C.3   1 <1>   0.2810 
  7 C       -3.0590     2.8560    -0.4230 C.3   1 <1>   0.1400 
  8 C       -3.3830    -0.3090    -0.4560 C.ar  1 <1>  -0.1440 
  9 C        0.3160     3.5810     0.6770 C.2   1 <1>   0.5690 
 10 C       -1.9130     4.8320     0.3180 C.3   1 <1>  -0.1600 
 11 C       -3.2410     4.3590    -0.2680 C.3   1 <1>  -0.1600 
 12 C       -3.8980    -0.2740     0.8320 C.ar  1 <1>  -0.1500 
 13 C       -4.2500    -0.4700    -1.5270 C.ar  1 <1>  -0.1500 
 14 O        0.0560     3.1810     1.7930 O.2   1 <1>  -0.5700 
 15 N        1.6220     3.7530     0.2920 N.am  1 <1>  -0.6600 
 16 C       -5.2600    -0.3910     1.0450 C.ar  1 <1>  -0.1500 
 17 C       -5.6120    -0.5890    -1.3150 C.ar  1 <1>  -0.1500 
 18 C        2.7550     3.4480     1.1930 C.3   1 <1>   0.1400 
 19 C        2.1060     4.0690    -1.0730 C.3   1 <1>   0.1400 
 20 C       -6.1190    -0.5480    -0.0280 C.ar  1 <1>  -0.1500 
 21 C        3.9710     3.3550     0.2800 C.3   1 <1>  -0.1600 
 22 C        3.6150     4.2220    -0.9240 C.3   1 <1>  -0.1600 
 23 H       -1.4550    -1.1420    -0.8620 H     1 <1>   0.0800 
 24 H       -1.3940     0.2560     0.1850 H     1 <1>   0.0800 
 25 H       -0.4720     4.3690    -1.1720 H     1 <1>   0.0800 
 26 H       -3.6690     2.4570    -1.2170 H     1 <1>   0.0800 
 27 H       -3.2960     2.3610     0.5020 H     1 <1>   0.0800 
 28 H       -1.9360     4.7160     1.3880 H     1 <1>   0.0800 
 29 H       -1.7080     5.8620     0.0900 H     1 <1>   0.0800 
 30 H       -3.3950     4.7970    -1.2390 H     1 <1>   0.0800 
 31 H       -4.0780     4.5960     0.3640 H     1 <1>   0.0800 
 32 H       -3.2400    -0.1520     1.6760 H     1 <1>   0.1500 
 33 H       -3.8630    -0.5030    -2.5320 H     1 <1>   0.1500 
 34 H       -5.6520    -0.3610     2.0470 H     1 <1>   0.1500 
 35 H       -6.2770    -0.7130    -2.1520 H     1 <1>   0.1500 
 36 H        2.8680     4.2560     1.8960 H     1 <1>   0.0800 
 37 H        2.5860     2.5270     1.7260 H     1 <1>   0.0800 
 38 H        1.8840     3.2440    -1.7280 H     1 <1>   0.0800 
 39 H        1.6580     4.9710    -1.4520 H     1 <1>   0.0800 
 40 H       -7.1780    -0.6410     0.1370 H     1 <1>   0.1500 
 41 H        4.8690     3.6830     0.7730 H     1 <1>   0.0800 
 42 H        4.0950     2.3320    -0.0310 H     1 <1>   0.0800 
 43 H        4.1360     3.9200    -1.8160 H     1 <1>   0.0800 
 44 H        3.8440     5.2520    -0.7150 H     1 <1>   0.0800 
@<TRIPOS>BOND
  1   1   2  2   
  2   2   3  1   
  3   2   4  am  
  4   3   5  1   
  5   4   6  1   
  6   4   7  1   
  7   5   8  1   
  8   5  23  1   
  9   5  24  1   
 10   6   9  1   
 11   6  10  1   
 12   6  25  1   
 13   7  11  1   
 14   7  26  1   
 15   7  27  1   
 16   8  12  ar  
 17   8  13  ar  
 18   9  14  2   
 19   9  15  am  
 20  10  11  1   
 21  10  28  1   
 22  10  29  1   
 23  11  30  1   
 24  11  31  1   
 25  12  16  ar  
 26  12  32  1   
 27  13  17  ar  
 28  13  33  1   
 29  15  18  1   
 30  15  19  1   
 31  16  20  ar  
 32  16  34  1   
 33  17  20  ar  
 34  17  35  1   
 35  18  21  1   
 36  18  36  1   
 37  18  37  1   
 38  19  22  1   
 39  19  38  1   
 40  19  39  1   
 41  20  40  1   
 42  21  22  1   
 43  21  41  1   
 44  21  42  1   
 45  22  43  1   
 46  22  44  1   
@<TRIPOS>SUBSTRUCTURE
  1 ****   4 GROUP 4 **** **** 0

# MOE 2024.06 (io_trps.svl 2023.06)
