@<TRIPOS>MOLECULE
NONAME
39 41 1 0 0 
SMALL
USER_CHARGES


@<TRIPOS>ATOM
  1 S        1.2500     3.5910    -0.4290 S.3   1 <1>  -0.2860 
  2 C       -0.5160     3.4150    -0.2380 C.2   1 <1>   0.2420 
  3 C        1.8400     1.9020     0.0050 C.3   1 <1>   0.0700 
  4 N       -1.3510     4.4550    -0.4530 N.pl3 1 <1>   0.0330 
  5 N       -1.0670     2.3060     0.1060 N.2   1 <1>  -0.5650 
  6 C        3.3540     1.8630    -0.2030 C.3   1 <1>   0.3430 
  7 C       -2.5900     3.9540    -0.2180 C.ar  1 <1>  -0.1520 
  8 C       -2.3940     2.6250     0.1270 C.ar  1 <1>   0.2270 
  9 N        3.9370     0.5350     0.1740 N.4   1 <1>  -0.9590 
 10 C       -3.8690     4.5110    -0.2670 C.ar  1 <1>  -0.1500 
 11 C       -3.4910     1.8240     0.4330 C.ar  1 <1>  -0.1500 
 12 C        5.4420     0.5910     0.1530 C.3   1 <1>   0.3430 
 13 C        3.4490    -0.5830    -0.7150 C.3   1 <1>   0.3430 
 14 C       -4.9510     3.7120     0.0370 C.ar  1 <1>  -0.1430 
 15 C       -4.7570     2.3680     0.3870 C.ar  1 <1>  -0.1500 
 16 C        6.0650    -0.7910     0.4320 C.3   1 <1>   0.1200 
 17 C        4.1630    -1.9110    -0.4000 C.3   1 <1>   0.1200 
 18 C       -6.3640     4.2630     0.0010 C.3   1 <1>  -0.0970 
 19 O        5.5500    -1.7410    -0.4550 O.3   1 <1>  -0.5600 
 20 H        1.3190     1.2230    -0.6450 H     1 <1>   0.0800 
 21 H        1.5640     1.7350     1.0310 H     1 <1>   0.0800 
 22 H       -1.0970     5.4050    -0.7300 H     1 <1>   0.2700 
 23 H        3.7990     2.6370     0.4010 H     1 <1>   0.0800 
 24 H        3.5730     2.0780    -1.2370 H     1 <1>   0.0800 
 25 H        3.6530     0.3130     1.1380 H     1 <1>   0.4500 
 26 H       -3.9950     5.5440    -0.5370 H     1 <1>   0.1500 
 27 H       -3.3270     0.7970     0.6990 H     1 <1>   0.1500 
 28 H        5.7970     1.2950     0.8880 H     1 <1>   0.0800 
 29 H        5.7810     0.9230    -0.8140 H     1 <1>   0.0800 
 30 H        3.6360    -0.3360    -1.7470 H     1 <1>   0.0800 
 31 H        2.3870    -0.7170    -0.5940 H     1 <1>   0.0800 
 32 H       -5.6100     1.7570     0.6220 H     1 <1>   0.1500 
 33 H        5.8690    -1.1140     1.4400 H     1 <1>   0.0800 
 34 H        7.1310    -0.7530     0.2860 H     1 <1>   0.0800 
 35 H        3.8970    -2.6570    -1.1290 H     1 <1>   0.0800 
 36 H        3.8960    -2.2770     0.5770 H     1 <1>   0.0800 
 37 H       -6.3660     5.3010    -0.2810 H     1 <1>   0.0800 
 38 H       -6.8180     4.1710     0.9710 H     1 <1>   0.0800 
 39 H       -6.9530     3.7140    -0.7120 H     1 <1>   0.0800 
@<TRIPOS>BOND
  1   1   2  1   
  2   1   3  1   
  3   2   4  1   
  4   2   5  2   
  5   3   6  1   
  6   3  20  1   
  7   3  21  1   
  8   4   7  1   
  9   4  22  1   
 10   5   8  1   
 11   6   9  1   
 12   6  23  1   
 13   6  24  1   
 14   7   8  ar  
 15   7  10  ar  
 16   8  11  ar  
 17   9  12  1   
 18   9  13  1   
 19   9  25  1   
 20  10  14  ar  
 21  10  26  1   
 22  11  15  ar  
 23  11  27  1   
 24  12  16  1   
 25  12  28  1   
 26  12  29  1   
 27  13  17  1   
 28  13  30  1   
 29  13  31  1   
 30  14  15  ar  
 31  14  18  1   
 32  15  32  1   
 33  16  19  1   
 34  16  33  1   
 35  16  34  1   
 36  17  19  1   
 37  17  35  1   
 38  17  36  1   
 39  18  37  1   
 40  18  38  1   
 41  18  39  1   
@<TRIPOS>SUBSTRUCTURE
  1 ****   5 GROUP 4 **** **** 0

# MOE 2024.06 (io_trps.svl 2023.06)
