@<TRIPOS>MOLECULE
NONAME
49 52 1 0 0 
SMALL
USER_CHARGES


@<TRIPOS>ATOM
  1 BR       2.3440     1.2890    -3.3270 Br    1 <1>  -0.1110 
  2 C        2.9010     2.6140    -2.0460 C.ar  1 <1>   0.1110 
  3 C        4.1570     2.5080    -1.4850 C.ar  1 <1>  -0.1500 
  4 C        2.0310     3.6350    -1.7210 C.ar  1 <1>  -0.1500 
  5 C        4.5720     3.4560    -0.5580 C.ar  1 <1>  -0.1440 
  6 C        2.4410     4.5820    -0.8000 C.ar  1 <1>  -0.1500 
  7 C        3.7070     4.4990    -0.2160 C.ar  1 <1>   0.0830 
  8 C        5.9690     3.3210     0.0640 C.3   1 <1>   0.3400 
  9 O        4.1490     5.4050     0.6960 O.3   1 <1>  -0.3630 
 10 C        7.0170     3.3800    -1.0550 C.2   1 <1>  -0.1240 
 11 C        6.0240     2.0050     0.8540 C.2   1 <1>  -0.1240 
 12 C        3.3210     6.4210     1.2440 C.3   1 <1>   0.1810 
 13 C        7.6890     2.2570    -1.4160 C.2   1 <1>  -0.0380 
 14 C        7.2280     4.6500    -1.6700 C.2   1 <1>   0.4950 
 15 C        6.7560     0.9620     0.3830 C.2   1 <1>  -0.0380 
 16 C        5.2760     1.9510     2.0670 C.2   1 <1>   0.4950 
 17 C        2.2400     5.8560     2.1630 C.2   1 <1>   0.5690 
 18 N        7.5270     1.0650    -0.7510 N.pl3 1 <1>  -0.6000 
 19 C        8.6820     2.2530    -2.5690 C.3   1 <1>  -0.0220 
 20 O        6.7070     5.6810    -1.3210 O.2   1 <1>  -0.5700 
 21 C        8.2170     4.7370    -2.8220 C.3   1 <1>  -0.0990 
 22 C        6.7870    -0.3830     1.0920 C.3   1 <1>  -0.0220 
 23 O        4.6500     2.8710     2.5400 O.2   1 <1>  -0.5700 
 24 C        5.2890     0.6530     2.8600 C.3   1 <1>  -0.0990 
 25 O        1.1910     6.4400     2.2680 O.2   1 <1>  -0.5700 
 26 N        2.4520     4.7190     2.8550 N.am  1 <1>  -0.8000 
 27 C        8.3880     3.3940    -3.5520 C.3   1 <1>  -0.1600 
 28 C        5.5420    -0.5740     1.9690 C.3   1 <1>  -0.1600 
 29 H        4.7980     1.6920    -1.7700 H     1 <1>   0.1500 
 30 H        1.0590     3.6860    -2.1770 H     1 <1>   0.1500 
 31 H        1.7580     5.3720    -0.5510 H     1 <1>   0.1500 
 32 H        6.1790     4.1230     0.7490 H     1 <1>   0.0800 
 33 H        2.8850     6.9850     0.4410 H     1 <1>   0.0800 
 34 H        3.9540     7.0730     1.8150 H     1 <1>   0.0800 
 35 H        8.0570     0.2440    -1.0680 H     1 <1>   0.4000 
 36 H        8.6240     1.3180    -3.0990 H     1 <1>   0.0800 
 37 H        9.6770     2.3540    -2.1730 H     1 <1>   0.0800 
 38 H        9.1620     5.0600    -2.4250 H     1 <1>   0.0800 
 39 H        7.8770     5.4830    -3.5170 H     1 <1>   0.0800 
 40 H        7.6760    -0.4390     1.6960 H     1 <1>   0.0800 
 41 H        6.8240    -1.1780     0.3670 H     1 <1>   0.0800 
 42 H        4.3450     0.5410     3.3630 H     1 <1>   0.0800 
 43 H        6.0570     0.7260     3.6080 H     1 <1>   0.0800 
 44 H        1.7230     4.3180     3.4410 H     1 <1>   0.3700 
 45 H        3.2950     4.1370     2.7110 H     1 <1>   0.3700 
 46 H        7.4740     3.1700    -4.0770 H     1 <1>   0.0800 
 47 H        9.1780     3.4680    -4.2790 H     1 <1>   0.0800 
 48 H        5.6520    -1.4560     2.5760 H     1 <1>   0.0800 
 49 H        4.6880    -0.7170     1.3280 H     1 <1>   0.0800 
@<TRIPOS>BOND
  1   1   2  1   
  2   2   3  ar  
  3   2   4  ar  
  4   3   5  ar  
  5   3  29  1   
  6   4   6  ar  
  7   4  30  1   
  8   5   7  ar  
  9   5   8  1   
 10   6   7  ar  
 11   6  31  1   
 12   7   9  1   
 13   8  10  1   
 14   8  11  1   
 15   8  32  1   
 16   9  12  1   
 17  10  13  2   
 18  10  14  1   
 19  11  15  2   
 20  11  16  1   
 21  12  17  1   
 22  12  33  1   
 23  12  34  1   
 24  13  18  1   
 25  13  19  1   
 26  14  20  2   
 27  14  21  1   
 28  15  18  1   
 29  15  22  1   
 30  16  23  2   
 31  16  24  1   
 32  17  25  2   
 33  17  26  am  
 34  18  35  1   
 35  19  27  1   
 36  19  36  1   
 37  19  37  1   
 38  21  27  1   
 39  21  38  1   
 40  21  39  1   
 41  22  28  1   
 42  22  40  1   
 43  22  41  1   
 44  24  28  1   
 45  24  42  1   
 46  24  43  1   
 47  26  44  1   
 48  26  45  1   
 49  27  46  1   
 50  27  47  1   
 51  28  48  1   
 52  28  49  1   
@<TRIPOS>SUBSTRUCTURE
  1 ****   5 GROUP 4 **** **** 0

# MOE 2024.06 (io_trps.svl 2023.06)
