@<TRIPOS>MOLECULE
NONAME
25 25 1 0 0 
SMALL
USER_CHARGES


@<TRIPOS>ATOM
  1 I       -0.0090     0.1980     1.5000 I     1 <1>  -0.0810 
  2 C       -1.6710    -0.8590     0.6930 C.ar  1 <1>   0.0810 
  3 C       -2.9240    -0.2830     0.7740 C.ar  1 <1>  -0.1500 
  4 C       -1.4490    -2.0920     0.1100 C.ar  1 <1>  -0.1500 
  5 C       -4.0170    -0.9620     0.2490 C.ar  1 <1>   0.1170 
  6 C       -2.5380    -2.7700    -0.4110 C.ar  1 <1>  -0.1500 
  7 N       -5.2850    -0.3680     0.3500 N.am  1 <1>  -0.5470 
  8 C       -3.8040    -2.2090    -0.3380 C.ar  1 <1>  -0.1500 
  9 C       -6.4330    -0.5710    -0.3690 C.2   1 <1>   0.5690 
 10 O       -6.5120    -1.3410    -1.2950 O.2   1 <1>  -0.5700 
 11 C       -7.6710     0.2420     0.0290 C.3   1 <1>  -0.0190 
 12 C       -8.8590    -0.6680     0.3810 C.3   1 <1>  -0.2400 
 13 C       -8.0740     1.2270    -1.0800 C.3   1 <1>  -0.2400 
 14 H       -3.0450     0.6790     1.2340 H     1 <1>   0.1500 
 15 H       -0.4600    -2.5120     0.0620 H     1 <1>   0.1500 
 16 H       -2.4040    -3.7330    -0.8720 H     1 <1>   0.1500 
 17 H       -5.3500     0.3660     1.0510 H     1 <1>   0.3700 
 18 H       -4.6340    -2.7580    -0.7440 H     1 <1>   0.1500 
 19 H       -7.4320     0.8170     0.9060 H     1 <1>   0.0800 
 20 H       -9.1480    -1.2510    -0.4760 H     1 <1>   0.0800 
 21 H       -9.7030    -0.0840     0.7020 H     1 <1>   0.0800 
 22 H       -8.5870    -1.3440     1.1730 H     1 <1>   0.0800 
 23 H       -8.3370     0.6900    -1.9750 H     1 <1>   0.0800 
 24 H       -7.2550     1.8850    -1.3090 H     1 <1>   0.0800 
 25 H       -8.9170     1.8210    -0.7730 H     1 <1>   0.0800 
@<TRIPOS>BOND
  1   1   2  1   
  2   2   3  ar  
  3   2   4  ar  
  4   3   5  ar  
  5   3  14  1   
  6   4   6  ar  
  7   4  15  1   
  8   5   7  1   
  9   5   8  ar  
 10   6   8  ar  
 11   6  16  1   
 12   7   9  am  
 13   7  17  1   
 14   8  18  1   
 15   9  10  2   
 16   9  11  1   
 17  11  12  1   
 18  11  13  1   
 19  11  19  1   
 20  12  20  1   
 21  12  21  1   
 22  12  22  1   
 23  13  23  1   
 24  13  24  1   
 25  13  25  1   
@<TRIPOS>SUBSTRUCTURE
  1 ****   5 GROUP 4 **** **** 0

# MOE 2024.06 (io_trps.svl 2023.06)
