@<TRIPOS>MOLECULE
NONAME
42 43 1 0 0 
SMALL
USER_CHARGES


@<TRIPOS>ATOM
  1 O        0.7270    -0.3630     1.0710 O.2   1 <1>  -0.1620 
  2 N        1.8410    -0.6130     0.8150 N.2   1 <1>  -0.1710 
  3 C        2.0890    -1.3790    -0.3950 C.3   1 <1>   0.3540 
  4 C        2.9280    -2.6060    -0.0790 C.2   1 <1>  -0.1810 
  5 C        2.4480    -3.9050     0.1210 C.2   1 <1>   0.2350 
  6 C        4.2680    -2.6950     0.0520 C.2   1 <1>  -0.3020 
  7 N        3.4390    -4.7320     0.3420 N.2   1 <1>  -0.7070 
  8 C        1.0610    -4.3100     0.0760 C.ar  1 <1>   0.0540 
  9 N        4.5500    -3.9840     0.3120 N.pl3 1 <1>   0.3140 
 10 C        0.6350    -5.2990    -0.8010 C.ar  1 <1>  -0.1500 
 11 C        0.1020    -3.7300     0.8980 C.ar  1 <1>  -0.1500 
 12 C        5.8870    -4.5570     0.5510 C.3   1 <1>   0.0960 
 13 C       -0.6940    -5.6740    -0.8710 C.ar  1 <1>  -0.1500 
 14 C       -1.2280    -4.1010     0.8290 C.ar  1 <1>  -0.1500 
 15 C        6.0620    -5.8690    -0.2190 C.3   1 <1>   0.0400 
 16 C       -1.6570    -5.0820    -0.0610 C.ar  1 <1>  -0.1430 
 17 C        7.4490    -6.3700    -0.0460 C.1   1 <1>   0.3570 
 18 C       -3.1300    -5.5320    -0.1760 C.3   1 <1>   0.1440 
 19 N        8.5200    -6.7200     0.0980 N.1   1 <1>  -0.5570 
 20 C       -3.6330    -5.2870    -1.6070 C.3   1 <1>  -0.2400 
 21 C       -4.0700    -4.7780     0.7800 C.3   1 <1>  -0.2400 
 22 C       -3.2370    -7.0280     0.1540 C.3   1 <1>  -0.2400 
 23 H        2.6220    -0.7530    -1.0860 H     1 <1>   0.0800 
 24 H        1.1560    -1.6680    -0.8470 H     1 <1>   0.0800 
 25 H        5.0190    -1.9290    -0.0220 H     1 <1>   0.1500 
 26 H        1.3630    -5.7770    -1.4330 H     1 <1>   0.1500 
 27 H        0.4040    -2.9800     1.6070 H     1 <1>   0.1500 
 28 H        5.9930    -4.7310     1.6070 H     1 <1>   0.0800 
 29 H        6.6270    -3.8420     0.2410 H     1 <1>   0.0800 
 30 H       -0.9710    -6.4430    -1.5690 H     1 <1>   0.1500 
 31 H       -1.9130    -3.6070     1.4920 H     1 <1>   0.1500 
 32 H        5.8800    -5.7110    -1.2670 H     1 <1>   0.0800 
 33 H        5.3790    -6.6120     0.1500 H     1 <1>   0.0800 
 34 H       -3.0720    -5.8640    -2.3190 H     1 <1>   0.0800 
 35 H       -3.5300    -4.2470    -1.8590 H     1 <1>   0.0800 
 36 H       -4.6690    -5.5610    -1.6980 H     1 <1>   0.0800 
 37 H       -4.0490    -3.7220     0.5750 H     1 <1>   0.0800 
 38 H       -3.7790    -4.9420     1.8020 H     1 <1>   0.0800 
 39 H       -5.0830    -5.1190     0.6640 H     1 <1>   0.0800 
 40 H       -2.8540    -7.2130     1.1420 H     1 <1>   0.0800 
 41 H       -2.6710    -7.6200    -0.5420 H     1 <1>   0.0800 
 42 H       -4.2600    -7.3550     0.1160 H     1 <1>   0.0800 
@<TRIPOS>BOND
  1   1   2  2   
  2   2   3  1   
  3   3   4  1   
  4   3  23  1   
  5   3  24  1   
  6   4   5  1   
  7   4   6  2   
  8   5   7  2   
  9   5   8  1   
 10   6   9  1   
 11   6  25  1   
 12   7   9  1   
 13   8  10  ar  
 14   8  11  ar  
 15   9  12  1   
 16  10  13  ar  
 17  10  26  1   
 18  11  14  ar  
 19  11  27  1   
 20  12  15  1   
 21  12  28  1   
 22  12  29  1   
 23  13  16  ar  
 24  13  30  1   
 25  14  16  ar  
 26  14  31  1   
 27  15  17  1   
 28  15  32  1   
 29  15  33  1   
 30  16  18  1   
 31  17  19  3   
 32  18  20  1   
 33  18  21  1   
 34  18  22  1   
 35  20  34  1   
 36  20  35  1   
 37  20  36  1   
 38  21  37  1   
 39  21  38  1   
 40  21  39  1   
 41  22  40  1   
 42  22  41  1   
 43  22  42  1   
@<TRIPOS>SUBSTRUCTURE
  1 ****   8 GROUP 4 **** **** 0

# MOE 2024.06 (io_trps.svl 2023.06)
