@<TRIPOS>MOLECULE
NONAME
41 42 1 0 0 
SMALL
USER_CHARGES


@<TRIPOS>ATOM
  1 O        5.4730     2.6470     0.7750 O.3   1 <1>  -0.3630 
  2 C        4.3110     2.0430     0.3970 C.ar  1 <1>   0.0830 
  3 C        5.7480     3.9920     0.4390 C.3   1 <1>   0.1200 
  4 C        4.2520     0.6470     0.4340 C.ar  1 <1>   0.0820 
  5 C        3.1970     2.7640    -0.0200 C.ar  1 <1>  -0.1500 
  6 C        7.2160     4.3060     0.7380 C.3   1 <1>   0.1200 
  7 O        5.3530    -0.0480     0.8480 O.3   1 <1>  -0.3630 
  8 C        3.0830    -0.0040     0.0540 C.ar  1 <1>  -0.1500 
  9 C        2.0310     2.1130    -0.3970 C.ar  1 <1>   0.1000 
 10 O        8.0270     3.6900    -0.2120 O.3   1 <1>  -0.5600 
 11 C        5.6510    -1.2930     0.2490 C.3   1 <1>   0.1200 
 12 C        1.9850     0.7270    -0.3620 C.ar  1 <1>  -0.1500 
 13 N        0.9210     2.8370    -0.7980 N.pl3 1 <1>  -0.9000 
 14 C        9.3940     3.7180     0.0690 C.3   1 <1>   0.1200 
 15 C        7.1190    -1.6500     0.4990 C.3   1 <1>   0.1200 
 16 C       10.0810     2.5570    -0.6570 C.3   1 <1>   0.1200 
 17 O        7.9330    -0.8680    -0.3150 O.3   1 <1>  -0.5600 
 18 O        9.8050     1.3680     0.0190 O.3   1 <1>  -0.5600 
 19 C        9.2990    -0.9640    -0.0470 C.3   1 <1>   0.1200 
 20 C       10.0310     0.2040    -0.7150 C.3   1 <1>   0.1200 
 21 H        5.1080     4.6150     1.0360 H     1 <1>   0.0800 
 22 H        5.5440     4.1400    -0.6070 H     1 <1>   0.0800 
 23 H        3.2140     3.8330    -0.0580 H     1 <1>   0.1500 
 24 H        7.4700     3.9400     1.7180 H     1 <1>   0.0800 
 25 H        7.3900     5.3660     0.6850 H     1 <1>   0.0800 
 26 H        3.0170    -1.0740     0.0850 H     1 <1>   0.1500 
 27 H        5.4630    -1.2280    -0.8090 H     1 <1>   0.0800 
 28 H        5.0110    -2.0310     0.6940 H     1 <1>   0.0800 
 29 H        1.0870     0.2200    -0.6610 H     1 <1>   0.1500 
 30 H        0.0260     2.3530    -0.6980 H     1 <1>   0.4000 
 31 H        0.8690     3.7920    -0.4340 H     1 <1>   0.4000 
 32 H        9.5560     3.6220     1.1280 H     1 <1>   0.0800 
 33 H        9.7800     4.6600    -0.2760 H     1 <1>   0.0800 
 34 H        7.2970    -2.6820     0.2540 H     1 <1>   0.0800 
 35 H        7.3650    -1.4700     1.5320 H     1 <1>   0.0800 
 36 H       11.1480     2.6930    -0.6620 H     1 <1>   0.0800 
 37 H        9.7130     2.4990    -1.6660 H     1 <1>   0.0800 
 38 H        9.6480    -1.9000    -0.4420 H     1 <1>   0.0800 
 39 H        9.4640    -0.9300     1.0170 H     1 <1>   0.0800 
 40 H       11.0910     0.0250    -0.7320 H     1 <1>   0.0800 
 41 H        9.6630     0.3270    -1.7190 H     1 <1>   0.0800 
@<TRIPOS>BOND
  1   1   2  1   
  2   1   3  1   
  3   2   4  ar  
  4   2   5  ar  
  5   3   6  1   
  6   3  21  1   
  7   3  22  1   
  8   4   7  1   
  9   4   8  ar  
 10   5   9  ar  
 11   5  23  1   
 12   6  10  1   
 13   6  24  1   
 14   6  25  1   
 15   7  11  1   
 16   8  12  ar  
 17   8  26  1   
 18   9  12  ar  
 19   9  13  1   
 20  10  14  1   
 21  11  15  1   
 22  11  27  1   
 23  11  28  1   
 24  12  29  1   
 25  13  30  1   
 26  13  31  1   
 27  14  16  1   
 28  14  32  1   
 29  14  33  1   
 30  15  17  1   
 31  15  34  1   
 32  15  35  1   
 33  16  18  1   
 34  16  36  1   
 35  16  37  1   
 36  17  19  1   
 37  18  20  1   
 38  19  20  1   
 39  19  38  1   
 40  19  39  1   
 41  20  40  1   
 42  20  41  1   
@<TRIPOS>SUBSTRUCTURE
  1 ****   1 GROUP 4 **** **** 0

# MOE 2024.06 (io_trps.svl 2023.06)
