@<TRIPOS>MOLECULE
NONAME
33 34 1 0 0 
SMALL
USER_CHARGES


@<TRIPOS>ATOM
  1 BR       0.3510     0.0820    -1.2910 Br    1 <1>  -0.1110 
  2 C        2.0200    -0.7150    -0.7570 C.ar  1 <1>   0.1110 
  3 C        2.9000    -1.1340    -1.7370 C.ar  1 <1>  -0.1500 
  4 C        2.2930    -0.8470     0.5930 C.ar  1 <1>  -0.1500 
  5 C        4.0930    -1.7010    -1.3320 C.ar  1 <1>   0.1770 
  6 C        3.4930    -1.4200     0.9830 C.ar  1 <1>  -0.1500 
  7 CL       5.2280    -2.2180    -2.5600 Cl    1 <1>  -0.1770 
  8 C        4.4050    -1.8490     0.0190 C.ar  1 <1>   0.0830 
  9 O        5.5920    -2.4140     0.3530 O.3   1 <1>  -0.3630 
 10 C        6.3040    -1.9410     1.4890 C.3   1 <1>   0.1810 
 11 C        7.7350    -2.4720     1.5190 C.2   1 <1>   0.5690 
 12 O        8.0500    -3.1170     2.4940 O.2   1 <1>  -0.5700 
 13 N        8.6330    -2.2060     0.5090 N.am  1 <1>  -0.6600 
 14 C        8.3190    -1.4400    -0.7330 C.3   1 <1>   0.1400 
 15 C       10.0140    -2.7680     0.5380 C.3   1 <1>   0.1400 
 16 C        9.3340    -0.3070    -0.9180 C.3   1 <1>  -0.1600 
 17 C       11.0390    -1.6430     0.3680 C.3   1 <1>  -0.1600 
 18 C       10.7770    -0.8270    -0.9050 C.3   1 <1>  -0.1600 
 19 H        2.6660    -1.0220    -2.7800 H     1 <1>   0.1500 
 20 H        1.5760    -0.5100     1.3220 H     1 <1>   0.1500 
 21 H        3.7010    -1.5370     2.0310 H     1 <1>   0.1500 
 22 H        5.7890    -2.2750     2.3710 H     1 <1>   0.0800 
 23 H        6.3210    -0.8680     1.4630 H     1 <1>   0.0800 
 24 H        7.3320    -1.0190    -0.6980 H     1 <1>   0.0800 
 25 H        8.3620    -2.1110    -1.5750 H     1 <1>   0.0800 
 26 H       10.1160    -3.4810    -0.2620 H     1 <1>   0.0800 
 27 H       10.1980    -3.2830     1.4660 H     1 <1>   0.0800 
 28 H        9.2000     0.4110    -0.1270 H     1 <1>   0.0800 
 29 H        9.1390     0.1930    -1.8500 H     1 <1>   0.0800 
 30 H       12.0270    -2.0660     0.3300 H     1 <1>   0.0800 
 31 H       10.9910    -1.0000     1.2300 H     1 <1>   0.0800 
 32 H       11.4640     0.0000    -0.9570 H     1 <1>   0.0800 
 33 H       10.9390    -1.4510    -1.7680 H     1 <1>   0.0800 
@<TRIPOS>BOND
  1   1   2  1   
  2   2   3  ar  
  3   2   4  ar  
  4   3   5  ar  
  5   3  19  1   
  6   4   6  ar  
  7   4  20  1   
  8   5   7  1   
  9   5   8  ar  
 10   6   8  ar  
 11   6  21  1   
 12   8   9  1   
 13   9  10  1   
 14  10  11  1   
 15  10  22  1   
 16  10  23  1   
 17  11  12  2   
 18  11  13  am  
 19  13  14  1   
 20  13  15  1   
 21  14  16  1   
 22  14  24  1   
 23  14  25  1   
 24  15  17  1   
 25  15  26  1   
 26  15  27  1   
 27  16  18  1   
 28  16  28  1   
 29  16  29  1   
 30  17  18  1   
 31  17  30  1   
 32  17  31  1   
 33  18  32  1   
 34  18  33  1   
@<TRIPOS>SUBSTRUCTURE
  1 ****   9 GROUP 4 **** **** 0

# MOE 2024.06 (io_trps.svl 2023.06)
