@<TRIPOS>MOLECULE
NONAME
43 44 1 0 0 
SMALL
USER_CHARGES


@<TRIPOS>ATOM
  1 CL       1.5990     0.7060    -2.2990 Cl    1 <1>  -0.1770 
  2 C        1.9200     1.2900    -0.6790 C.ar  1 <1>   0.1770 
  3 C        1.0210     2.1620    -0.0570 C.ar  1 <1>   0.1990 
  4 C        3.0630     0.8460    -0.0430 C.ar  1 <1>  -0.1500 
  5 N       -0.1210     2.6340    -0.6980 N.am  1 <1>  -0.6930 
  6 C        1.2910     2.5620     1.2490 C.ar  1 <1>  -0.1500 
  7 C        3.3070     1.2740     1.2480 C.ar  1 <1>   0.1770 
  8 S       -0.0750     4.0090    -1.7460 S.o2  1 <1>   1.3330 
  9 C       -1.4520     2.0260    -0.3990 C.3   1 <1>   0.2570 
 10 C        2.4310     2.1230     1.9020 C.ar  1 <1>  -0.1500 
 11 CL       4.7440     0.7250     2.0740 Cl    1 <1>  -0.1770 
 12 O       -1.2440     3.9320    -2.5880 O.2   1 <1>  -0.6500 
 13 O        1.2490     4.0720    -2.3120 O.2   1 <1>  -0.6500 
 14 C       -0.2590     5.3780    -0.6230 C.3   1 <1>  -0.1350 
 15 C       -2.4020     2.9670     0.3580 C.2   1 <1>   0.5690 
 16 O       -2.0060     3.4070     1.4160 O.2   1 <1>  -0.5700 
 17 N       -3.6440     3.3020    -0.1280 N.am  1 <1>  -0.6600 
 18 C       -4.2010     2.8710    -1.4390 C.3   1 <1>   0.1400 
 19 C       -4.5780     4.1520     0.6600 C.3   1 <1>   0.1400 
 20 C       -4.8530     1.4850    -1.3480 C.3   1 <1>  -0.1600 
 21 C       -5.6130     3.2960     1.3990 C.3   1 <1>  -0.1600 
 22 C       -5.6120     1.1750    -0.0450 C.3   1 <1>  -0.1600 
 23 C       -6.4410     2.3450     0.5120 C.3   1 <1>  -0.1600 
 24 H        3.7460     0.1830    -0.5400 H     1 <1>   0.1500 
 25 H        0.6030     3.2190     1.7520 H     1 <1>   0.1500 
 26 H       -1.3060     1.1550     0.2120 H     1 <1>   0.0800 
 27 H       -1.8880     1.6980    -1.3210 H     1 <1>   0.0800 
 28 H        2.6430     2.4340     2.9100 H     1 <1>   0.1500 
 29 H       -1.2160     5.3500    -0.1420 H     1 <1>   0.0800 
 30 H       -0.1780     6.3020    -1.1600 H     1 <1>   0.0800 
 31 H        0.5070     5.3490     0.1270 H     1 <1>   0.0800 
 32 H       -3.4370     2.8700    -2.1970 H     1 <1>   0.0800 
 33 H       -4.9420     3.5840    -1.7570 H     1 <1>   0.0800 
 34 H       -5.0770     4.8440     0.0050 H     1 <1>   0.0800 
 35 H       -4.0280     4.7350     1.3790 H     1 <1>   0.0800 
 36 H       -4.0990     0.7330    -1.4940 H     1 <1>   0.0800 
 37 H       -5.5350     1.3970    -2.1750 H     1 <1>   0.0800 
 38 H       -6.2900     3.9650     1.9010 H     1 <1>   0.0800 
 39 H       -5.1100     2.7320     2.1640 H     1 <1>   0.0800 
 40 H       -4.9120     0.8510     0.7070 H     1 <1>   0.0800 
 41 H       -6.2700     0.3440    -0.2350 H     1 <1>   0.0800 
 42 H       -6.9160     2.8870    -0.2870 H     1 <1>   0.0800 
 43 H       -7.2230     1.9310     1.1250 H     1 <1>   0.0800 
@<TRIPOS>BOND
  1   1   2  1   
  2   2   3  ar  
  3   2   4  ar  
  4   3   5  1   
  5   3   6  ar  
  6   4   7  ar  
  7   4  24  1   
  8   5   8  am  
  9   5   9  1   
 10   6  10  ar  
 11   6  25  1   
 12   7  10  ar  
 13   7  11  1   
 14   8  12  2   
 15   8  13  2   
 16   8  14  1   
 17   9  15  1   
 18   9  26  1   
 19   9  27  1   
 20  10  28  1   
 21  14  29  1   
 22  14  30  1   
 23  14  31  1   
 24  15  16  2   
 25  15  17  am  
 26  17  18  1   
 27  17  19  1   
 28  18  20  1   
 29  18  32  1   
 30  18  33  1   
 31  19  21  1   
 32  19  34  1   
 33  19  35  1   
 34  20  22  1   
 35  20  36  1   
 36  20  37  1   
 37  21  23  1   
 38  21  38  1   
 39  21  39  1   
 40  22  23  1   
 41  22  40  1   
 42  22  41  1   
 43  23  42  1   
 44  23  43  1   
@<TRIPOS>SUBSTRUCTURE
  1 ****   9 GROUP 4 **** **** 0

# MOE 2024.06 (io_trps.svl 2023.06)
