@<TRIPOS>MOLECULE
NONAME
42 43 1 0 0 
SMALL
USER_CHARGES


@<TRIPOS>ATOM
  1 O       -2.9740     3.8510     0.6620 O.2   1 <1>  -0.5700 
  2 C       -1.9510     3.3580     0.2210 C.2   1 <1>   0.5440 
  3 N       -2.1060     2.3890    -0.7420 N.am  1 <1>  -0.6600 
  4 C       -0.6470     3.7220     0.7520 C.ar  1 <1>   0.0860 
  5 C       -3.1620     2.5180    -1.7990 C.3   1 <1>   0.1400 
  6 C       -1.5960     1.0140    -0.5150 C.3   1 <1>   0.1400 
  7 C        0.5180     3.5600     0.0040 C.ar  1 <1>  -0.1500 
  8 C       -0.5120     4.2490     2.0370 C.ar  1 <1>  -0.1500 
  9 C       -4.5880     2.2120    -1.2880 C.3   1 <1>   0.3430 
 10 C       -2.5060     0.2740     0.4750 C.3   1 <1>  -0.1600 
 11 C        1.7630     3.8830     0.5100 C.ar  1 <1>   0.0830 
 12 C        0.7260     4.5820     2.5560 C.ar  1 <1>  -0.1500 
 13 N       -4.5920     1.5720     0.0660 N.4   1 <1>  -0.9590 
 14 C       -3.9860     0.2110     0.0810 C.3   1 <1>   0.3430 
 15 O        2.8230     3.6700    -0.3070 O.3   1 <1>  -0.3620 
 16 C        1.8680     4.3980     1.7980 C.ar  1 <1>  -0.1500 
 17 C       -5.9400     1.6170     0.6980 C.3   1 <1>   0.2630 
 18 C        4.1330     4.0130     0.0830 C.3   1 <1>   0.1200 
 19 C        5.0720     3.6700    -1.0700 C.3   1 <1>  -0.2400 
 20 H       -2.9290     1.8650    -2.6210 H     1 <1>   0.0800 
 21 H       -3.1460     3.5240    -2.1840 H     1 <1>   0.0800 
 22 H       -0.5960     1.0580    -0.1160 H     1 <1>   0.0800 
 23 H       -1.5480     0.4830    -1.4510 H     1 <1>   0.0800 
 24 H        0.4630     3.1780    -0.9990 H     1 <1>   0.1500 
 25 H       -1.3930     4.4030     2.6370 H     1 <1>   0.1500 
 26 H       -5.1050     1.5920    -2.0010 H     1 <1>   0.0800 
 27 H       -5.1160     3.1490    -1.2280 H     1 <1>   0.0800 
 28 H       -2.4120     0.7170     1.4510 H     1 <1>   0.0800 
 29 H       -2.1420    -0.7340     0.5600 H     1 <1>   0.0800 
 30 H        0.8020     4.9860     3.5520 H     1 <1>   0.1500 
 31 H       -3.9560     2.2010     0.6060 H     1 <1>   0.4500 
 32 H       -4.5010    -0.4010     0.8030 H     1 <1>   0.0800 
 33 H       -4.0940    -0.2540    -0.8860 H     1 <1>   0.0800 
 34 H        2.8190     4.6600     2.2230 H     1 <1>   0.1500 
 35 H       -6.6390     1.0170     0.1370 H     1 <1>   0.0800 
 36 H       -6.3000     2.6330     0.7300 H     1 <1>   0.0800 
 37 H       -5.8900     1.2420     1.7070 H     1 <1>   0.0800 
 38 H        4.3880     3.4460     0.9620 H     1 <1>   0.0800 
 39 H        4.1610     5.0680     0.2950 H     1 <1>   0.0800 
 40 H        5.0250     2.6180    -1.2850 H     1 <1>   0.0800 
 41 H        6.0820     3.9220    -0.8040 H     1 <1>   0.0800 
 42 H        4.7980     4.2290    -1.9470 H     1 <1>   0.0800 
@<TRIPOS>BOND
  1   1   2  2   
  2   2   3  am  
  3   2   4  1   
  4   3   5  1   
  5   3   6  1   
  6   4   7  ar  
  7   4   8  ar  
  8   5   9  1   
  9   5  20  1   
 10   5  21  1   
 11   6  10  1   
 12   6  22  1   
 13   6  23  1   
 14   7  11  ar  
 15   7  24  1   
 16   8  12  ar  
 17   8  25  1   
 18   9  13  1   
 19   9  26  1   
 20   9  27  1   
 21  10  14  1   
 22  10  28  1   
 23  10  29  1   
 24  11  15  1   
 25  11  16  ar  
 26  12  16  ar  
 27  12  30  1   
 28  13  14  1   
 29  13  17  1   
 30  13  31  1   
 31  14  32  1   
 32  14  33  1   
 33  15  18  1   
 34  16  34  1   
 35  17  35  1   
 36  17  36  1   
 37  17  37  1   
 38  18  19  1   
 39  18  38  1   
 40  18  39  1   
 41  19  40  1   
 42  19  41  1   
 43  19  42  1   
@<TRIPOS>SUBSTRUCTURE
  1 ****   4 GROUP 4 **** **** 0

# MOE 2024.06 (io_trps.svl 2023.06)
