@<TRIPOS>MOLECULE
NONAME
28 28 1 0 0 
SMALL
USER_CHARGES


@<TRIPOS>ATOM
  1 O        0.0150    -0.8450     1.3530 O.3   1 <1>  -0.3370 
  2 N        1.1390    -1.3400     0.8850 N.2   1 <1>  -0.5130 
  3 C        1.1490    -2.2530     0.0110 C.2   1 <1>   0.3280 
  4 C       -0.0080    -2.9870    -0.6780 C.3   1 <1>  -0.0190 
  5 C        2.4840    -2.8340    -0.4150 C.3   1 <1>  -0.0990 
  6 C       -0.0310    -4.4170    -0.1190 C.3   1 <1>   0.3430 
  7 C       -1.4190    -2.3690    -0.6270 C.3   1 <1>  -0.2400 
  8 C        2.4300    -4.3670    -0.5410 C.3   1 <1>   0.4230 
  9 N        1.3280    -4.9080     0.3160 N.4   1 <1>  -0.9590 
 10 C        3.7810    -4.9780    -0.1620 C.3   1 <1>  -0.2400 
 11 C        1.3050    -6.4020     0.4380 C.3   1 <1>   0.2630 
 12 H        0.1240    -0.0770     1.9560 H     1 <1>   0.4000 
 13 H        0.2390    -3.0450    -1.7240 H     1 <1>   0.0800 
 14 H        2.7750    -2.4120    -1.3600 H     1 <1>   0.0800 
 15 H        3.2320    -2.5430     0.3030 H     1 <1>   0.0800 
 16 H       -0.4360    -5.0720    -0.8730 H     1 <1>   0.0800 
 17 H       -0.6950    -4.4440     0.7300 H     1 <1>   0.0800 
 18 H       -1.8120    -2.3740     0.3750 H     1 <1>   0.0800 
 19 H       -2.0970    -2.9160    -1.2580 H     1 <1>   0.0800 
 20 H       -1.3870    -1.3500    -0.9750 H     1 <1>   0.0800 
 21 H        2.2180    -4.6150    -1.5690 H     1 <1>   0.0800 
 22 H        1.4940    -4.5160     1.2570 H     1 <1>   0.4500 
 23 H        3.9860    -4.8470     0.8860 H     1 <1>   0.0800 
 24 H        4.5640    -4.4920    -0.7170 H     1 <1>   0.0800 
 25 H        3.8220    -6.0220    -0.4130 H     1 <1>   0.0800 
 26 H        1.1920    -6.8560    -0.5330 H     1 <1>   0.0800 
 27 H        0.4840    -6.7130     1.0640 H     1 <1>   0.0800 
 28 H        2.2200    -6.7590     0.8820 H     1 <1>   0.0800 
@<TRIPOS>BOND
  1   1   2  1   
  2   1  12  1   
  3   2   3  2   
  4   3   4  1   
  5   3   5  1   
  6   4   6  1   
  7   4   7  1   
  8   4  13  1   
  9   5   8  1   
 10   5  14  1   
 11   5  15  1   
 12   6   9  1   
 13   6  16  1   
 14   6  17  1   
 15   7  18  1   
 16   7  19  1   
 17   7  20  1   
 18   8   9  1   
 19   8  10  1   
 20   8  21  1   
 21   9  11  1   
 22   9  22  1   
 23  10  23  1   
 24  10  24  1   
 25  10  25  1   
 26  11  26  1   
 27  11  27  1   
 28  11  28  1   
@<TRIPOS>SUBSTRUCTURE
  1 ****   3 GROUP 4 **** **** 0

# MOE 2024.06 (io_trps.svl 2023.06)
