@<TRIPOS>MOLECULE
NONAME
42 44 1 0 0 
SMALL
USER_CHARGES


@<TRIPOS>ATOM
  1 O        0.4440    -0.3190    -0.0210 O.2   1 <1>  -0.5700 
  2 C        0.9710    -1.4060     0.1350 C.2   1 <1>   0.5440 
  3 N        0.1760    -2.5070     0.3900 N.am  1 <1>  -0.6600 
  4 C        2.4130    -1.5010     0.0400 C.ar  1 <1>   0.0860 
  5 C        0.6210    -3.9160     0.1880 C.3   1 <1>   0.1400 
  6 C       -1.2680    -2.3660     0.7330 C.3   1 <1>   0.1400 
  7 C        3.0960    -0.9750    -1.0550 C.ar  1 <1>  -0.1500 
  8 C        3.1790    -2.1050     1.0380 C.ar  1 <1>  -0.1500 
  9 C       -0.2300    -4.5790    -0.9000 C.3   1 <1>  -0.1600 
 10 C       -2.1280    -3.0130    -0.3570 C.3   1 <1>  -0.1600 
 11 C        4.4710    -1.0660    -1.1600 C.ar  1 <1>  -0.1500 
 12 C        4.5530    -2.1980     0.9360 C.ar  1 <1>  -0.1500 
 13 C       -1.7310    -4.4760    -0.5940 C.3   1 <1>  -0.1600 
 14 C        5.2250    -1.6840    -0.1690 C.ar  1 <1>   0.1170 
 15 N        6.6130    -1.7430    -0.3110 N.am  1 <1>  -0.5470 
 16 C        7.5380    -2.6260     0.2070 C.2   1 <1>   0.7160 
 17 O        7.1540    -3.6290     0.7780 O.2   1 <1>  -0.5700 
 18 C        8.9500    -2.3280     0.0430 C.2   1 <1>   0.2030 
 19 N        9.9160    -3.1780    -0.1420 N.2   1 <1>  -0.4100 
 20 C        9.4970    -1.0510     0.0420 C.2   1 <1>  -0.1500 
 21 O       11.0600    -2.5520    -0.2670 O.3   1 <1>  -0.0190 
 22 C       10.8000    -1.2690    -0.1530 C.2   1 <1>  -0.0400 
 23 C       11.9500    -0.2880    -0.2490 C.3   1 <1>  -0.0600 
 24 H        0.5130    -4.4520     1.1150 H     1 <1>   0.0800 
 25 H        1.6550    -3.9570    -0.1060 H     1 <1>   0.0800 
 26 H       -1.5360    -1.3280     0.8380 H     1 <1>   0.0800 
 27 H       -1.4490    -2.8500     1.6770 H     1 <1>   0.0800 
 28 H        2.5260    -0.4890    -1.8280 H     1 <1>   0.1500 
 29 H        2.6800    -2.5030     1.9050 H     1 <1>   0.1500 
 30 H        0.0500    -5.6140    -0.9890 H     1 <1>   0.0800 
 31 H       -0.0210    -4.1010    -1.8410 H     1 <1>   0.0800 
 32 H       -2.0090    -2.4490    -1.2660 H     1 <1>   0.0800 
 33 H       -3.1630    -2.9580    -0.0710 H     1 <1>   0.0800 
 34 H        4.9590    -0.6520    -2.0240 H     1 <1>   0.1500 
 35 H        5.1060    -2.6700     1.7290 H     1 <1>   0.1500 
 36 H       -1.9580    -5.0550     0.2850 H     1 <1>   0.0800 
 37 H       -2.2990    -4.8790    -1.4150 H     1 <1>   0.0800 
 38 H        7.0060    -1.0860    -0.9810 H     1 <1>   0.3700 
 39 H        8.9720    -0.1240     0.1820 H     1 <1>   0.1500 
 40 H       11.5940     0.7200    -0.1360 H     1 <1>   0.0800 
 41 H       12.4320    -0.3840    -1.2050 H     1 <1>   0.0800 
 42 H       12.6680    -0.4930     0.5240 H     1 <1>   0.0800 
@<TRIPOS>BOND
  1   1   2  2   
  2   2   3  am  
  3   2   4  1   
  4   3   5  1   
  5   3   6  1   
  6   4   7  ar  
  7   4   8  ar  
  8   5   9  1   
  9   5  24  1   
 10   5  25  1   
 11   6  10  1   
 12   6  26  1   
 13   6  27  1   
 14   7  11  ar  
 15   7  28  1   
 16   8  12  ar  
 17   8  29  1   
 18   9  13  1   
 19   9  30  1   
 20   9  31  1   
 21  10  13  1   
 22  10  32  1   
 23  10  33  1   
 24  11  14  ar  
 25  11  34  1   
 26  12  14  ar  
 27  12  35  1   
 28  13  36  1   
 29  13  37  1   
 30  14  15  1   
 31  15  16  am  
 32  15  38  1   
 33  16  17  2   
 34  16  18  1   
 35  18  19  2   
 36  18  20  1   
 37  19  21  1   
 38  20  22  2   
 39  20  39  1   
 40  21  22  1   
 41  22  23  1   
 42  23  40  1   
 43  23  41  1   
 44  23  42  1   
@<TRIPOS>SUBSTRUCTURE
  1 ****  14 GROUP 4 **** **** 0

# MOE 2024.06 (io_trps.svl 2023.06)
