@<TRIPOS>MOLECULE
NONAME
34 35 1 0 0 
SMALL
USER_CHARGES


@<TRIPOS>ATOM
  1 CL      -1.9330     1.0410     2.0290 Cl    1 <1>  -0.1770 
  2 C       -1.0130     2.1920     1.0810 C.ar  1 <1>   0.1770 
  3 C        0.0610     2.8570     1.6510 C.ar  1 <1>   0.1770 
  4 C       -1.3810     2.4360    -0.2350 C.ar  1 <1>  -0.1440 
  5 CL       0.5130     2.5570     3.3110 Cl    1 <1>  -0.1770 
  6 C        0.7880     3.7730     0.9130 C.ar  1 <1>  -0.1500 
  7 C       -0.6450     3.3550    -0.9740 C.ar  1 <1>  -0.1500 
  8 C       -2.5590     1.7080    -0.8580 C.3   1 <1>   0.4870 
  9 C        0.4310     4.0190    -0.4030 C.ar  1 <1>  -0.1500 
 10 N       -3.8230     2.1290    -0.1910 N.4   1 <1>  -0.9590 
 11 C       -4.9420     1.2360    -0.5890 C.3   1 <1>   0.3430 
 12 C       -4.1020     3.5820    -0.3840 C.3   1 <1>   0.3430 
 13 C       -6.1680     1.4220     0.3060 C.3   1 <1>  -0.1600 
 14 C       -4.8250     4.1280     0.8470 C.3   1 <1>  -0.1600 
 15 C       -6.9050     2.7470     0.0620 C.3   1 <1>  -0.1600 
 16 C       -6.3510     3.9380     0.8570 C.3   1 <1>  -0.1600 
 17 H        1.6210     4.2830     1.3650 H     1 <1>   0.1500 
 18 H       -0.8920     3.5660    -2.0030 H     1 <1>   0.1500 
 19 H       -2.4160     0.6470    -0.7340 H     1 <1>   0.0800 
 20 H       -2.6090     1.9220    -1.9130 H     1 <1>   0.0800 
 21 H        0.9980     4.7300    -0.9830 H     1 <1>   0.1500 
 22 H       -3.6700     1.9870     0.8180 H     1 <1>   0.4500 
 23 H       -4.6220     0.2090    -0.5080 H     1 <1>   0.0800 
 24 H       -5.2150     1.4180    -1.6160 H     1 <1>   0.0800 
 25 H       -4.6860     3.7500    -1.2740 H     1 <1>   0.0800 
 26 H       -3.1730     4.1180    -0.4850 H     1 <1>   0.0800 
 27 H       -5.9100     1.3080     1.3450 H     1 <1>   0.0800 
 28 H       -6.8520     0.6260     0.0670 H     1 <1>   0.0800 
 29 H       -4.6330     5.1860     0.9010 H     1 <1>   0.0800 
 30 H       -4.3970     3.6990     1.7370 H     1 <1>   0.0800 
 31 H       -7.9370     2.6210     0.3490 H     1 <1>   0.0800 
 32 H       -6.9080     2.9760    -0.9910 H     1 <1>   0.0800 
 33 H       -6.8130     4.8300     0.4670 H     1 <1>   0.0800 
 34 H       -6.6740     3.8530     1.8820 H     1 <1>   0.0800 
@<TRIPOS>BOND
  1   1   2  1   
  2   2   3  ar  
  3   2   4  ar  
  4   3   5  1   
  5   3   6  ar  
  6   4   7  ar  
  7   4   8  1   
  8   6   9  ar  
  9   6  17  1   
 10   7   9  ar  
 11   7  18  1   
 12   8  10  1   
 13   8  19  1   
 14   8  20  1   
 15   9  21  1   
 16  10  11  1   
 17  10  12  1   
 18  10  22  1   
 19  11  13  1   
 20  11  23  1   
 21  11  24  1   
 22  12  14  1   
 23  12  25  1   
 24  12  26  1   
 25  13  15  1   
 26  13  27  1   
 27  13  28  1   
 28  14  16  1   
 29  14  29  1   
 30  14  30  1   
 31  15  16  1   
 32  15  31  1   
 33  15  32  1   
 34  16  33  1   
 35  16  34  1   
@<TRIPOS>SUBSTRUCTURE
  1 ****  10 GROUP 4 **** **** 0

# MOE 2024.06 (io_trps.svl 2023.06)
