@<TRIPOS>MOLECULE
NONAME
41 42 1 0 0 
SMALL
USER_CHARGES


@<TRIPOS>ATOM
  1 O       -8.6290     4.1190     0.1400 O.3   1 <1>  -0.3630 
  2 C       -9.1410     2.8850    -0.1140 C.ar  1 <1>   0.0830 
  3 C       -9.4520     5.1810     0.5750 C.3   1 <1>   0.1200 
  4 C       -8.3050     1.9610    -0.7360 C.ar  1 <1>  -0.1440 
  5 C      -10.4390     2.5170     0.2280 C.ar  1 <1>  -0.1500 
  6 C       -8.5900     6.4360     0.6680 C.3   1 <1>  -0.2400 
  7 C       -8.7690     0.6820    -1.0060 C.ar  1 <1>  -0.1500 
  8 C       -6.8980     2.3560    -1.1210 C.3   1 <1>   0.4860 
  9 C      -10.8930     1.2400    -0.0460 C.ar  1 <1>  -0.1500 
 10 C      -10.0590     0.3230    -0.6610 C.ar  1 <1>  -0.1500 
 11 N       -6.1970     2.7140     0.1260 N.4   1 <1>  -0.9060 
 12 C       -4.8700     3.3230    -0.0390 C.3   1 <1>   0.4230 
 13 C       -4.1980     3.3720     1.3360 C.3   1 <1>  -0.1600 
 14 C       -5.0110     4.7330    -0.6340 C.3   1 <1>  -0.1600 
 15 C       -2.8360     4.0770     1.2660 C.3   1 <1>  -0.1600 
 16 C       -3.6520     5.4450    -0.7040 C.3   1 <1>  -0.1600 
 17 C       -2.9710     5.4830     0.6690 C.3   1 <1>  -0.1600 
 18 H       -9.8620     4.9300     1.5380 H     1 <1>   0.0800 
 19 H      -10.2450     5.3160    -0.1420 H     1 <1>   0.0800 
 20 H      -11.1130     3.2020     0.7080 H     1 <1>   0.1500 
 21 H       -7.8030     6.3000     1.3870 H     1 <1>   0.0800 
 22 H       -9.1980     7.2650     0.9860 H     1 <1>   0.0800 
 23 H       -8.1720     6.6750    -0.2930 H     1 <1>   0.0800 
 24 H       -8.1410    -0.0490    -1.4890 H     1 <1>   0.1500 
 25 H       -6.9420     3.2040    -1.7850 H     1 <1>   0.0800 
 26 H       -6.3970     1.5420    -1.6190 H     1 <1>   0.0800 
 27 H      -11.8980     0.9560     0.2190 H     1 <1>   0.1500 
 28 H      -10.4210    -0.6700    -0.8720 H     1 <1>   0.1500 
 29 H       -6.1560     1.8910     0.7320 H     1 <1>   0.4500 
 30 H       -6.8270     3.3850     0.5930 H     1 <1>   0.4500 
 31 H       -4.2650     2.7180    -0.6970 H     1 <1>   0.0800 
 32 H       -4.0480     2.3730     1.7080 H     1 <1>   0.0800 
 33 H       -4.8230     3.9070     2.0310 H     1 <1>   0.0800 
 34 H       -5.6740     5.3210    -0.0230 H     1 <1>   0.0800 
 35 H       -5.4150     4.6850    -1.6290 H     1 <1>   0.0800 
 36 H       -2.1550     3.4980     0.6640 H     1 <1>   0.0800 
 37 H       -2.4130     4.1490     2.2550 H     1 <1>   0.0800 
 38 H       -3.7900     6.4530    -1.0620 H     1 <1>   0.0800 
 39 H       -3.0100     4.9380    -1.4050 H     1 <1>   0.0800 
 40 H       -1.9950     5.9290     0.5740 H     1 <1>   0.0800 
 41 H       -3.5450     6.1040     1.3380 H     1 <1>   0.0800 
@<TRIPOS>BOND
  1   1   2  1   
  2   1   3  1   
  3   2   4  ar  
  4   2   5  ar  
  5   3   6  1   
  6   3  18  1   
  7   3  19  1   
  8   4   7  ar  
  9   4   8  1   
 10   5   9  ar  
 11   5  20  1   
 12   6  21  1   
 13   6  22  1   
 14   6  23  1   
 15   7  10  ar  
 16   7  24  1   
 17   8  11  1   
 18   8  25  1   
 19   8  26  1   
 20   9  10  ar  
 21   9  27  1   
 22  10  28  1   
 23  11  12  1   
 24  11  29  1   
 25  11  30  1   
 26  12  13  1   
 27  12  14  1   
 28  12  31  1   
 29  13  15  1   
 30  13  32  1   
 31  13  33  1   
 32  14  16  1   
 33  14  34  1   
 34  14  35  1   
 35  15  17  1   
 36  15  36  1   
 37  15  37  1   
 38  16  17  1   
 39  16  38  1   
 40  16  39  1   
 41  17  40  1   
 42  17  41  1   
@<TRIPOS>SUBSTRUCTURE
  1 ****  11 GROUP 4 **** **** 0

# MOE 2024.06 (io_trps.svl 2023.06)
