@<TRIPOS>MOLECULE
NONAME
52 54 1 0 0 
SMALL
USER_CHARGES


@<TRIPOS>ATOM
  1 O       -0.1090     0.5560    -0.6090 O.2   1 <1>  -0.5700 
  2 C       -0.0470     1.7680    -0.6990 C.2   1 <1>   0.5440 
  3 N        1.1360     2.3580    -1.1030 N.am  1 <1>  -0.6600 
  4 C       -1.2180     2.5640    -0.3830 C.ar  1 <1>   0.0860 
  5 C        1.2960     3.8240    -1.3070 C.3   1 <1>   0.1400 
  6 C        2.3730     1.5600    -1.3200 C.3   1 <1>   0.1400 
  7 C       -1.4830     3.0160     0.9150 C.ar  1 <1>  -0.1440 
  8 C       -2.1100     2.9120    -1.3960 C.ar  1 <1>  -0.1500 
  9 C        2.4010     4.3560    -0.3910 C.3   1 <1>  -0.1600 
 10 C        3.4780     2.0710    -0.3930 C.3   1 <1>  -0.1600 
 11 C       -2.5960     3.8020     1.1670 C.ar  1 <1>  -0.1500 
 12 C       -0.5540     2.6410     2.0630 C.3   1 <1>  -0.0970 
 13 C       -3.2190     3.6950    -1.1410 C.ar  1 <1>  -0.1500 
 14 C        3.7210     3.5810    -0.5740 C.3   1 <1>  -0.0190 
 15 C       -3.4620     4.1440     0.1440 C.ar  1 <1>  -0.1500 
 16 C        4.8150     4.0710     0.3750 C.2   1 <1>   0.5690 
 17 O        4.5320     4.3150     1.5220 O.2   1 <1>  -0.5700 
 18 N        6.0800     4.1860    -0.1360 N.am  1 <1>  -0.5470 
 19 C        7.2890     4.6020     0.4470 C.ar  1 <1>   0.1170 
 20 C        8.5000     4.1950    -0.1180 C.ar  1 <1>  -0.1430 
 21 C        7.3210     5.4290     1.5650 C.ar  1 <1>  -0.1500 
 22 C        9.6980     4.6160     0.4380 C.ar  1 <1>  -0.1500 
 23 C        8.5410     3.2850    -1.3400 C.3   1 <1>  -0.0970 
 24 C        8.5200     5.8420     2.1140 C.ar  1 <1>  -0.1500 
 25 C        9.7180     5.4390     1.5510 C.ar  1 <1>  -0.1430 
 26 C       11.0390     5.8880     2.1500 C.3   1 <1>  -0.0970 
 27 H        0.3800     4.3500    -1.1010 H     1 <1>   0.0800 
 28 H        1.5550     4.0040    -2.3370 H     1 <1>   0.0800 
 29 H        2.6740     1.6550    -2.3490 H     1 <1>   0.0800 
 30 H        2.1970     0.5160    -1.1230 H     1 <1>   0.0800 
 31 H       -1.9220     2.5580    -2.3940 H     1 <1>   0.1500 
 32 H        2.0690     4.2770     0.6290 H     1 <1>   0.0800 
 33 H        2.5620     5.3990    -0.5970 H     1 <1>   0.0800 
 34 H        4.3850     1.5270    -0.5900 H     1 <1>   0.0800 
 35 H        3.1940     1.8700     0.6260 H     1 <1>   0.0800 
 36 H       -2.7990     4.1520     2.1640 H     1 <1>   0.1500 
 37 H        0.4370     3.0130     1.8780 H     1 <1>   0.0800 
 38 H       -0.5060     1.5700     2.1570 H     1 <1>   0.0800 
 39 H       -0.9020     3.0480     2.9950 H     1 <1>   0.0800 
 40 H       -3.8950     3.9530    -1.9390 H     1 <1>   0.1500 
 41 H        4.0550     3.7470    -1.5820 H     1 <1>   0.0800 
 42 H       -4.3240     4.7540     0.3490 H     1 <1>   0.1500 
 43 H        6.1890     3.8630    -1.0920 H     1 <1>   0.3700 
 44 H        6.4050     5.7620     2.0160 H     1 <1>   0.1500 
 45 H       10.6310     4.3020     0.0050 H     1 <1>   0.1500 
 46 H        7.9840     2.3850    -1.1500 H     1 <1>   0.0800 
 47 H        9.5520     3.0060    -1.5770 H     1 <1>   0.0800 
 48 H        8.1240     3.7920    -2.1920 H     1 <1>   0.0800 
 49 H        8.5140     6.4790     2.9810 H     1 <1>   0.1500 
 50 H       11.3920     5.1480     2.8450 H     1 <1>   0.0800 
 51 H       10.9190     6.8230     2.6680 H     1 <1>   0.0800 
 52 H       11.7750     6.0210     1.3780 H     1 <1>   0.0800 
@<TRIPOS>BOND
  1   1   2  2   
  2   2   3  am  
  3   2   4  1   
  4   3   5  1   
  5   3   6  1   
  6   4   7  ar  
  7   4   8  ar  
  8   5   9  1   
  9   5  27  1   
 10   5  28  1   
 11   6  10  1   
 12   6  29  1   
 13   6  30  1   
 14   7  11  ar  
 15   7  12  1   
 16   8  13  ar  
 17   8  31  1   
 18   9  14  1   
 19   9  32  1   
 20   9  33  1   
 21  10  14  1   
 22  10  34  1   
 23  10  35  1   
 24  11  15  ar  
 25  11  36  1   
 26  12  37  1   
 27  12  38  1   
 28  12  39  1   
 29  13  15  ar  
 30  13  40  1   
 31  14  16  1   
 32  14  41  1   
 33  15  42  1   
 34  16  17  2   
 35  16  18  am  
 36  18  19  1   
 37  18  43  1   
 38  19  20  ar  
 39  19  21  ar  
 40  20  22  ar  
 41  20  23  1   
 42  21  24  ar  
 43  21  44  1   
 44  22  25  ar  
 45  22  45  1   
 46  23  46  1   
 47  23  47  1   
 48  23  48  1   
 49  24  25  ar  
 50  24  49  1   
 51  25  26  1   
 52  26  50  1   
 53  26  51  1   
 54  26  52  1   
@<TRIPOS>SUBSTRUCTURE
  1 ****  14 GROUP 4 **** **** 0

# MOE 2024.06 (io_trps.svl 2023.06)
