@<TRIPOS>MOLECULE
NONAME
32 32 1 0 0 
SMALL
USER_CHARGES


@<TRIPOS>ATOM
  1 S        0.3910     0.7850     1.6720 S.3   1 <1>  -0.3320 
  2 C       -1.1030     1.4220     0.8920 C.ar  1 <1>   0.4120 
  3 C        1.7840     0.8970     0.4400 C.3   1 <1>   0.1310 
  4 N       -2.1450     0.6830     1.2120 N.ar  1 <1>  -0.6200 
  5 C       -1.1260     2.5520     0.0680 C.ar  1 <1>   0.0860 
  6 C        2.8180    -0.1980     0.6600 C.2   1 <1>   0.5690 
  7 C       -3.3000     1.0460     0.6940 C.ar  1 <1>   0.1660 
  8 C       -2.3660     2.9340    -0.4530 C.ar  1 <1>  -0.1440 
  9 C        0.0770     3.2950    -0.2240 C.2   1 <1>   0.5440 
 10 O        3.6850    -0.3570    -0.1600 O.2   1 <1>  -0.5700 
 11 N        2.7720    -0.9850     1.7530 N.am  1 <1>  -0.8000 
 12 C       -3.4680     2.1430    -0.1520 C.ar  1 <1>  -0.1430 
 13 C       -4.4640     0.1610     1.1080 C.3   1 <1>  -0.0960 
 14 C       -2.5050     4.2000    -1.3060 C.3   1 <1>  -0.0970 
 15 O        0.6610     3.9360     0.6190 O.2   1 <1>  -0.5700 
 16 N        0.6090     3.3110    -1.4690 N.am  1 <1>  -0.8000 
 17 C       -4.8460     2.4750    -0.7360 C.3   1 <1>  -0.0970 
 18 H        2.2430     1.8600     0.5560 H     1 <1>   0.0800 
 19 H        1.3580     0.7970    -0.5400 H     1 <1>   0.0800 
 20 H        3.4620    -1.7240     1.8880 H     1 <1>   0.3700 
 21 H        2.0280    -0.8990     2.4500 H     1 <1>   0.3700 
 22 H       -4.1820    -0.4650     1.9360 H     1 <1>   0.0800 
 23 H       -4.7500    -0.4710     0.2880 H     1 <1>   0.0800 
 24 H       -5.3020     0.7580     1.4160 H     1 <1>   0.0800 
 25 H       -1.7190     4.9070    -1.1080 H     1 <1>   0.0800 
 26 H       -3.4270     4.7080    -1.0890 H     1 <1>   0.0800 
 27 H       -2.4850     3.9460    -2.3500 H     1 <1>   0.0800 
 28 H        1.4330     3.8880    -1.6470 H     1 <1>   0.3700 
 29 H        0.1780     2.8610    -2.2770 H     1 <1>   0.3700 
 30 H       -5.4700     1.6050    -0.8120 H     1 <1>   0.0800 
 31 H       -4.7610     2.8730    -1.7300 H     1 <1>   0.0800 
 32 H       -5.3400     3.1980    -0.1120 H     1 <1>   0.0800 
@<TRIPOS>BOND
  1   1   2  1   
  2   1   3  1   
  3   2   4  ar  
  4   2   5  ar  
  5   3   6  1   
  6   3  18  1   
  7   3  19  1   
  8   4   7  ar  
  9   5   8  ar  
 10   5   9  1   
 11   6  10  2   
 12   6  11  am  
 13   7  12  ar  
 14   7  13  1   
 15   8  12  ar  
 16   8  14  1   
 17   9  15  2   
 18   9  16  am  
 19  11  20  1   
 20  11  21  1   
 21  12  17  1   
 22  13  22  1   
 23  13  23  1   
 24  13  24  1   
 25  14  25  1   
 26  14  26  1   
 27  14  27  1   
 28  16  28  1   
 29  16  29  1   
 30  17  30  1   
 31  17  31  1   
 32  17  32  1   
@<TRIPOS>SUBSTRUCTURE
  1 ****   2 GROUP 4 **** **** 0

# MOE 2024.06 (io_trps.svl 2023.06)
