@<TRIPOS>MOLECULE
NONAME
40 41 1 0 0 
SMALL
USER_CHARGES


@<TRIPOS>ATOM
  1 CL      -0.3570     2.1280    -1.6650 Cl    1 <1>  -0.1770 
  2 C       -1.9200     2.0700    -0.8920 C.ar  1 <1>   0.1770 
  3 C       -2.1330     2.6230     0.3630 C.ar  1 <1>  -0.0090 
  4 C       -2.9410     1.4540    -1.5920 C.ar  1 <1>  -0.1500 
  5 S       -0.8000     3.4390     1.2710 S.o2  1 <1>   1.4470 
  6 C       -3.4160     2.5360     0.8900 C.ar  1 <1>  -0.1500 
  7 C       -4.2060     1.3830    -1.0420 C.ar  1 <1>  -0.1500 
  8 O        0.3300     2.5400     1.3580 O.2   1 <1>  -0.6500 
  9 O       -1.3270     3.9990     2.4970 O.2   1 <1>  -0.6500 
 10 N       -0.3940     4.7550     0.2790 N.am  1 <1>  -0.8490 
 11 C       -4.4730     1.9220     0.2170 C.ar  1 <1>   0.0860 
 12 C       -1.4270     5.7960     0.3210 C.3   1 <1>   0.1960 
 13 C        0.9530     5.2670     0.5610 C.3   1 <1>   0.1960 
 14 C       -5.7970     1.8620     0.8110 C.2   1 <1>   0.5440 
 15 C       -1.2660     6.8570    -0.7730 C.3   1 <1>  -0.1600 
 16 C        1.5510     5.8980    -0.6990 C.3   1 <1>  -0.1600 
 17 O       -6.1880     2.7640     1.5240 O.2   1 <1>  -0.5700 
 18 N       -6.6170     0.7890     0.5870 N.am  1 <1>  -0.7300 
 19 C       -0.1450     7.8630    -0.4750 C.3   1 <1>  -0.1600 
 20 C        1.2530     7.3930    -0.8980 C.3   1 <1>  -0.1600 
 21 C       -7.9890     0.6270     1.1350 C.3   1 <1>   0.0600 
 22 H       -2.7390     1.0380    -2.5640 H     1 <1>   0.1500 
 23 H       -3.6140     2.9600     1.8630 H     1 <1>   0.1500 
 24 H       -4.9990     0.9140    -1.6000 H     1 <1>   0.1500 
 25 H       -1.4380     6.2660     1.2920 H     1 <1>   0.0800 
 26 H       -2.3900     5.3340     0.1800 H     1 <1>   0.0800 
 27 H        1.6020     4.4520     0.8310 H     1 <1>   0.0800 
 28 H        0.9410     5.9580     1.3870 H     1 <1>   0.0800 
 29 H       -2.1900     7.4060    -0.8180 H     1 <1>   0.0800 
 30 H       -1.1280     6.3890    -1.7330 H     1 <1>   0.0800 
 31 H        1.2150     5.3400    -1.5560 H     1 <1>   0.0800 
 32 H        2.6200     5.7830    -0.6580 H     1 <1>   0.0800 
 33 H       -6.2460    -0.0180     0.0840 H     1 <1>   0.3700 
 34 H       -0.1440     8.0930     0.5770 H     1 <1>   0.0800 
 35 H       -0.3560     8.7830    -0.9940 H     1 <1>   0.0800 
 36 H        1.3960     7.6220    -1.9400 H     1 <1>   0.0800 
 37 H        1.9780     7.9710    -0.3490 H     1 <1>   0.0800 
 38 H       -8.3060     1.5280     1.6320 H     1 <1>   0.0800 
 39 H       -8.0040    -0.1820     1.8440 H     1 <1>   0.0800 
 40 H       -8.6780     0.4130     0.3360 H     1 <1>   0.0800 
@<TRIPOS>BOND
  1   1   2  1   
  2   2   3  ar  
  3   2   4  ar  
  4   3   5  1   
  5   3   6  ar  
  6   4   7  ar  
  7   4  22  1   
  8   5   8  2   
  9   5   9  2   
 10   5  10  am  
 11   6  11  ar  
 12   6  23  1   
 13   7  11  ar  
 14   7  24  1   
 15  10  12  1   
 16  10  13  1   
 17  11  14  1   
 18  12  15  1   
 19  12  25  1   
 20  12  26  1   
 21  13  16  1   
 22  13  27  1   
 23  13  28  1   
 24  14  17  2   
 25  14  18  am  
 26  15  19  1   
 27  15  29  1   
 28  15  30  1   
 29  16  20  1   
 30  16  31  1   
 31  16  32  1   
 32  18  21  1   
 33  18  33  1   
 34  19  20  1   
 35  19  34  1   
 36  19  35  1   
 37  20  36  1   
 38  20  37  1   
 39  21  38  1   
 40  21  39  1   
 41  21  40  1   
@<TRIPOS>SUBSTRUCTURE
  1 ****   3 GROUP 4 **** **** 0

# MOE 2024.06 (io_trps.svl 2023.06)
