@<TRIPOS>MOLECULE
NONAME
38 39 1 0 0 
SMALL
USER_CHARGES


@<TRIPOS>ATOM
  1 CL      -0.8300     1.1750     2.8490 Cl    1 <1>  -0.1770 
  2 C       -1.7710     1.4590     1.4010 C.ar  1 <1>   0.1770 
  3 C       -1.3240     2.3540     0.4360 C.ar  1 <1>   0.0830 
  4 C       -2.9600     0.7720     1.2540 C.ar  1 <1>  -0.1500 
  5 O       -0.1460     2.9970     0.6440 O.3   1 <1>  -0.3630 
  6 C       -2.1090     2.5450    -0.6970 C.ar  1 <1>  -0.1500 
  7 C       -3.7520     0.9610     0.1280 C.ar  1 <1>  -0.0090 
  8 C        0.3870     3.9000    -0.3000 C.3   1 <1>   0.0400 
  9 C       -3.3020     1.8550    -0.8390 C.ar  1 <1>  -0.1500 
 10 S       -5.3210     0.0780    -0.0810 S.o2  1 <1>   1.4470 
 11 O       -5.7240    -0.5560     1.1560 O.2   1 <1>  -0.6500 
 12 O       -5.2750    -0.7070    -1.2940 O.2   1 <1>  -0.6500 
 13 N       -6.4340     1.3280    -0.3470 N.am  1 <1>  -0.8490 
 14 C       -7.6460     0.8040    -1.0290 C.3   1 <1>   0.2570 
 15 C       -6.7440     2.0940     0.8690 C.3   1 <1>   0.1160 
 16 C       -8.8040     1.7940    -1.2180 C.2   1 <1>   0.5690 
 17 O       -8.8030     2.5290    -2.1780 O.2   1 <1>  -0.5700 
 18 N       -9.8060     1.8130    -0.2920 N.am  1 <1>  -0.5790 
 19 C      -10.9690     2.7100    -0.3180 C.3   1 <1>   0.0490 
 20 C      -11.5050     3.1990     0.9870 C.3   1 <1>  -0.2000 
 21 C      -12.2710     2.1860     0.1900 C.3   1 <1>  -0.2000 
 22 H       -3.2690     0.0860     2.0250 H     1 <1>   0.1500 
 23 H       -1.8120     3.2240    -1.4750 H     1 <1>   0.1500 
 24 H        1.3210     4.2690     0.0830 H     1 <1>   0.0800 
 25 H       -0.3010     4.7170    -0.4310 H     1 <1>   0.0800 
 26 H        0.5530     3.3800    -1.2270 H     1 <1>   0.0800 
 27 H       -3.9030     2.0130    -1.7210 H     1 <1>   0.1500 
 28 H       -8.0170    -0.0480    -0.4860 H     1 <1>   0.0800 
 29 H       -7.3660     0.4600    -2.0100 H     1 <1>   0.0800 
 30 H       -5.8330     2.4340     1.3340 H     1 <1>   0.0800 
 31 H       -7.2840     1.4850     1.5760 H     1 <1>   0.0800 
 32 H       -7.3310     2.9630     0.6260 H     1 <1>   0.0800 
 33 H       -9.7910     1.1630     0.4930 H     1 <1>   0.3700 
 34 H      -10.9760     3.3790    -1.1650 H     1 <1>   0.1000 
 35 H      -11.8940     4.2010     1.0400 H     1 <1>   0.1000 
 36 H      -11.0250     2.8930     1.8990 H     1 <1>   0.1000 
 37 H      -12.3240     1.1720     0.5450 H     1 <1>   0.1000 
 38 H      -13.1770     2.5020    -0.2960 H     1 <1>   0.1000 
@<TRIPOS>BOND
  1   1   2  1   
  2   2   3  ar  
  3   2   4  ar  
  4   3   5  1   
  5   3   6  ar  
  6   4   7  ar  
  7   4  22  1   
  8   5   8  1   
  9   6   9  ar  
 10   6  23  1   
 11   7   9  ar  
 12   7  10  1   
 13   8  24  1   
 14   8  25  1   
 15   8  26  1   
 16   9  27  1   
 17  10  11  2   
 18  10  12  2   
 19  10  13  am  
 20  13  14  1   
 21  13  15  1   
 22  14  16  1   
 23  14  28  1   
 24  14  29  1   
 25  15  30  1   
 26  15  31  1   
 27  15  32  1   
 28  16  17  2   
 29  16  18  am  
 30  18  19  1   
 31  18  33  1   
 32  19  20  1   
 33  19  21  1   
 34  19  34  1   
 35  20  21  1   
 36  20  35  1   
 37  20  36  1   
 38  21  37  1   
 39  21  38  1   
@<TRIPOS>SUBSTRUCTURE
  1 ****  13 GROUP 4 **** **** 0

# MOE 2024.06 (io_trps.svl 2023.06)
