@<TRIPOS>MOLECULE
NONAME
36 38 1 0 0 
SMALL
USER_CHARGES


@<TRIPOS>ATOM
  1 S        2.0680     1.2940    -2.3590 S.3   1 <1>  -0.2420 
  2 C        2.5640     1.3110    -0.6670 C.2   1 <1>   0.6510 
  3 C        0.5450     2.1210    -1.9790 C.2   1 <1>  -0.0490 
  4 N        3.6890     0.8170    -0.2540 N.2   1 <1>  -0.6210 
  5 N        1.5960     1.9230     0.0840 N.am  1 <1>  -0.2290 
  6 C        0.4810     2.3650    -0.6630 C.2   1 <1>  -0.0410 
  7 C        3.9250     0.9140     1.0930 C.2   1 <1>   0.0330 
  8 C        1.8190     2.0440     1.4330 C.2   1 <1>   0.6160 
  9 C        3.0340     1.5080     1.9310 C.2   1 <1>  -0.1360 
 10 C        5.2480     0.3210     1.5760 C.3   1 <1>   0.4810 
 11 O        1.0080     2.5940     2.1580 O.2   1 <1>  -0.5700 
 12 N        6.3060     0.6820     0.5940 N.4   1 <1>  -0.9590 
 13 C        7.4220    -0.3000     0.6030 C.3   1 <1>   0.3430 
 14 C        6.7090     2.1100     0.7190 C.3   1 <1>   0.3430 
 15 C        8.3570    -0.1230    -0.5950 C.3   1 <1>  -0.1600 
 16 C        7.1060     2.6530    -0.6530 C.3   1 <1>  -0.1600 
 17 C        9.2310     1.1370    -0.5030 C.3   1 <1>  -0.1600 
 18 C        8.5700     2.4080    -1.0550 C.3   1 <1>  -0.1600 
 19 H       -0.1230     2.3260    -2.7990 H     1 <1>   0.1500 
 20 H       -0.3240     2.8540    -0.1360 H     1 <1>   0.1500 
 21 H        3.1870     1.6040     2.9910 H     1 <1>   0.1500 
 22 H        5.1420    -0.7510     1.6130 H     1 <1>   0.0800 
 23 H        5.4970     0.6790     2.5610 H     1 <1>   0.0800 
 24 H        5.8090     0.6030    -0.3100 H     1 <1>   0.4500 
 25 H        7.0140    -1.2970     0.5660 H     1 <1>   0.0800 
 26 H        7.9880    -0.2060     1.5160 H     1 <1>   0.0800 
 27 H        7.5180     2.2260     1.4230 H     1 <1>   0.0800 
 28 H        5.8680     2.6860     1.0720 H     1 <1>   0.0800 
 29 H        7.8080    -0.1480    -1.5200 H     1 <1>   0.0800 
 30 H        9.0180    -0.9730    -0.6020 H     1 <1>   0.0800 
 31 H        6.9470     3.7170    -0.6480 H     1 <1>   0.0800 
 32 H        6.4470     2.2510    -1.4030 H     1 <1>   0.0800 
 33 H       10.1330     0.9700    -1.0700 H     1 <1>   0.0800 
 34 H        9.5370     1.2960     0.5180 H     1 <1>   0.0800 
 35 H        9.1630     3.2490    -0.7360 H     1 <1>   0.0800 
 36 H        8.6230     2.3890    -2.1310 H     1 <1>   0.0800 
@<TRIPOS>BOND
  1   1   2  1   
  2   1   3  1   
  3   2   4  2   
  4   2   5  1   
  5   3   6  2   
  6   3  19  1   
  7   4   7  1   
  8   5   6  1   
  9   5   8  am  
 10   6  20  1   
 11   7   9  2   
 12   7  10  1   
 13   8   9  1   
 14   8  11  2   
 15   9  21  1   
 16  10  12  1   
 17  10  22  1   
 18  10  23  1   
 19  12  13  1   
 20  12  14  1   
 21  12  24  1   
 22  13  15  1   
 23  13  25  1   
 24  13  26  1   
 25  14  16  1   
 26  14  27  1   
 27  14  28  1   
 28  15  17  1   
 29  15  29  1   
 30  15  30  1   
 31  16  18  1   
 32  16  31  1   
 33  16  32  1   
 34  17  18  1   
 35  17  33  1   
 36  17  34  1   
 37  18  35  1   
 38  18  36  1   
@<TRIPOS>SUBSTRUCTURE
  1 ****   4 GROUP 4 **** **** 0

# MOE 2024.06 (io_trps.svl 2023.06)
