@<TRIPOS>MOLECULE
NONAME
37 40 1 0 0 
SMALL
USER_CHARGES


@<TRIPOS>ATOM
  1 S        0.1030    -0.1210     0.1900 S.3   1 <1>  -0.0800 
  2 C        0.7980     1.4810     0.1340 C.2   1 <1>   0.1660 
  3 C       -1.5010     0.5440     0.4580 C.2   1 <1>  -0.1400 
  4 N        2.1250     1.6580    -0.0710 N.2   1 <1>  -0.5760 
  5 C       -0.1420     2.4450     0.3170 C.2   1 <1>  -0.0860 
  6 C       -1.4690     1.8910     0.4980 C.2   1 <1>  -0.1810 
  7 C       -2.6360    -0.4490     0.6010 C.3   1 <1>   0.0200 
  8 C        2.5340     2.8770    -0.0960 C.2   1 <1>   0.4490 
  9 C        0.3550     3.7860     0.3000 C.2   1 <1>   0.7160 
 10 C       -2.7250     2.7250     0.7240 C.3   1 <1>   0.0210 
 11 C       -3.7690    -0.1620    -0.3920 C.3   1 <1>  -0.1600 
 12 N        1.7100     3.9760     0.0750 N.am  1 <1>  -0.4200 
 13 C        4.0220     3.0780    -0.3540 C.3   1 <1>  -0.0990 
 14 O       -0.3580     4.7640     0.4890 O.2   1 <1>  -0.5700 
 15 C       -3.8200     2.4240    -0.3090 C.3   1 <1>  -0.1600 
 16 C       -4.5770     1.1060    -0.0750 C.3   1 <1>  -0.1600 
 17 C        2.2280     5.3780     0.1410 C.3   1 <1>   0.1400 
 18 C        4.5590     4.4340     0.1120 C.3   1 <1>  -0.1600 
 19 C        3.6440     5.5320    -0.4210 C.3   1 <1>  -0.1600 
 20 H       -3.0080    -0.4240     1.6090 H     1 <1>   0.0800 
 21 H       -2.2590    -1.4390     0.4160 H     1 <1>   0.0800 
 22 H       -2.5030     3.7710     0.6610 H     1 <1>   0.0800 
 23 H       -3.0960     2.5450     1.7170 H     1 <1>   0.0800 
 24 H       -4.4420    -1.0010    -0.3770 H     1 <1>   0.0800 
 25 H       -3.3620    -0.0950    -1.3870 H     1 <1>   0.0800 
 26 H        4.1840     2.9790    -1.4120 H     1 <1>   0.0800 
 27 H        4.5730     2.2910     0.1310 H     1 <1>   0.0800 
 28 H       -3.3930     2.4340    -1.2970 H     1 <1>   0.0800 
 29 H       -4.5380     3.2250    -0.2650 H     1 <1>   0.0800 
 30 H       -4.9360     1.0660     0.9400 H     1 <1>   0.0800 
 31 H       -5.4430     1.1090    -0.7150 H     1 <1>   0.0800 
 32 H        2.2190     5.6870     1.1720 H     1 <1>   0.0800 
 33 H        1.5660     6.0310    -0.4030 H     1 <1>   0.0800 
 34 H        5.5620     4.5740    -0.2520 H     1 <1>   0.0800 
 35 H        4.5830     4.4660     1.1890 H     1 <1>   0.0800 
 36 H        4.0300     6.4980    -0.1420 H     1 <1>   0.0800 
 37 H        3.6080     5.4940    -1.4960 H     1 <1>   0.0800 
@<TRIPOS>BOND
  1   1   2  1   
  2   1   3  1   
  3   2   4  1   
  4   2   5  2   
  5   3   6  2   
  6   3   7  1   
  7   4   8  2   
  8   5   6  1   
  9   5   9  1   
 10   6  10  1   
 11   7  11  1   
 12   7  20  1   
 13   7  21  1   
 14   8  12  1   
 15   8  13  1   
 16   9  12  am  
 17   9  14  2   
 18  10  15  1   
 19  10  22  1   
 20  10  23  1   
 21  11  16  1   
 22  11  24  1   
 23  11  25  1   
 24  12  17  1   
 25  13  18  1   
 26  13  26  1   
 27  13  27  1   
 28  15  16  1   
 29  15  28  1   
 30  15  29  1   
 31  16  30  1   
 32  16  31  1   
 33  17  19  1   
 34  17  32  1   
 35  17  33  1   
 36  18  19  1   
 37  18  34  1   
 38  18  35  1   
 39  19  36  1   
 40  19  37  1   
@<TRIPOS>SUBSTRUCTURE
  1 ****   5 GROUP 4 **** **** 0

# MOE 2024.06 (io_trps.svl 2023.06)
