@<TRIPOS>MOLECULE
NONAME
27 27 1 0 0 
SMALL
USER_CHARGES


@<TRIPOS>ATOM
  1 S       -0.0570    -0.2900     0.0580 S.3   1 <1>  -0.3710 
  2 C       -1.4960     0.7800     0.0580 C.2   1 <1>   0.6510 
  3 C        1.3510     0.9050     0.0190 C.3   1 <1>   0.0700 
  4 N       -1.2790     2.0410     0.0330 N.2   1 <1>  -0.6210 
  5 N       -2.7250     0.1540     0.0860 N.am  1 <1>  -0.4200 
  6 C        2.6560     0.1050     0.0160 C.3   1 <1>  -0.1600 
  7 C       -2.3660     2.8680     0.0330 C.2   1 <1>   0.0210 
  8 C       -3.8420     0.9800     0.0860 C.2   1 <1>   0.6160 
  9 C       -2.8550    -1.3290     0.1140 C.3   1 <1>   0.0600 
 10 C        3.8720     1.0380    -0.0170 C.3   1 <1>  -0.1600 
 11 O       -2.1550     4.0820     0.0090 O.3   1 <1>  -0.8500 
 12 C       -3.6450     2.3480     0.0590 C.2   1 <1>  -0.1360 
 13 O       -4.9760     0.4650     0.1100 O.2   1 <1>  -0.5700 
 14 C        5.1790     0.2400    -0.0200 C.3   1 <1>  -0.2400 
 15 H        1.2610     1.5320     0.8890 H     1 <1>   0.0800 
 16 H        1.2380     1.5010    -0.8700 H     1 <1>   0.0800 
 17 H        2.6690    -0.5380    -0.8470 H     1 <1>   0.0800 
 18 H        2.6920    -0.5070     0.9000 H     1 <1>   0.0800 
 19 H       -2.3690    -1.7150     0.9920 H     1 <1>   0.0800 
 20 H       -2.3920    -1.7470    -0.7630 H     1 <1>   0.0800 
 21 H       -3.8870    -1.6310     0.1320 H     1 <1>   0.0800 
 22 H        3.8520     1.6860     0.8440 H     1 <1>   0.0800 
 23 H        3.8290     1.6550    -0.8980 H     1 <1>   0.0800 
 24 H       -4.4790     3.0170     0.0580 H     1 <1>   0.1500 
 25 H        5.2500    -0.3670     0.8650 H     1 <1>   0.0800 
 26 H        6.0190     0.9120    -0.0420 H     1 <1>   0.0800 
 27 H        5.2270    -0.3980    -0.8840 H     1 <1>   0.0800 
@<TRIPOS>BOND
  1   1   2  1   
  2   1   3  1   
  3   2   4  2   
  4   2   5  1   
  5   3   6  1   
  6   3  15  1   
  7   3  16  1   
  8   4   7  1   
  9   5   8  am  
 10   5   9  1   
 11   6  10  1   
 12   6  17  1   
 13   6  18  1   
 14   7  11  1   
 15   7  12  2   
 16   8  12  1   
 17   8  13  2   
 18   9  19  1   
 19   9  20  1   
 20   9  21  1   
 21  10  14  1   
 22  10  22  1   
 23  10  23  1   
 24  12  24  1   
 25  14  25  1   
 26  14  26  1   
 27  14  27  1   
@<TRIPOS>SUBSTRUCTURE
  1 ****   2 GROUP 4 **** **** 0

# MOE 2024.06 (io_trps.svl 2023.06)
