@<TRIPOS>MOLECULE
NONAME
38 39 1 0 0 
SMALL
USER_CHARGES


@<TRIPOS>ATOM
  1 S       -0.4890    -0.3520     2.8840 S.2   1 <1>  -0.6770 
  2 P       -0.9110    -0.9490     1.0900 P.3   1 <1>   1.4760 
  3 O       -1.5710     0.1550     0.1430 O.3   1 <1>  -0.5510 
  4 O       -2.0380    -2.0860     1.0930 O.3   1 <1>  -0.5510 
  5 N        0.3900    -1.6200     0.2150 N.am  1 <1>  -0.4330 
  6 C       -2.9230     0.3720     0.2800 C.3   1 <1>   0.2000 
  7 C       -2.8890    -2.1980     0.0070 C.3   1 <1>   0.1200 
  8 C        0.4810    -3.0040     0.0230 C.ar  1 <1>   0.1170 
  9 C        1.4120    -0.7820    -0.1040 C.2   1 <1>   0.7800 
 10 C       -3.6840    -0.8920    -0.1660 C.3   1 <1>  -0.1600 
 11 C       -3.2820     1.5980    -0.5540 C.3   1 <1>  -0.2400 
 12 C        0.6250    -3.8650     1.1060 C.ar  1 <1>  -0.1500 
 13 C        0.4190    -3.5430    -1.2570 C.ar  1 <1>  -0.1500 
 14 O        1.3700     0.4200     0.0600 O.2   1 <1>  -0.5700 
 15 O        2.5110    -1.3240    -0.6350 O.3   1 <1>  -0.4300 
 16 C        0.6950    -5.2330     0.9140 C.ar  1 <1>  -0.1500 
 17 C        0.4890    -4.9100    -1.4520 C.ar  1 <1>  -0.1500 
 18 C        3.6260    -0.5350    -0.9800 C.3   1 <1>   0.1200 
 19 C        0.6260    -5.7570    -0.3660 C.ar  1 <1>  -0.1500 
 20 C        4.6950    -1.4600    -1.5540 C.3   1 <1>  -0.2400 
 21 H       -3.1190     0.5750     1.3220 H     1 <1>   0.0800 
 22 H       -3.5470    -3.0330     0.1760 H     1 <1>   0.0800 
 23 H       -2.2910    -2.3960    -0.8670 H     1 <1>   0.0800 
 24 H       -3.9710    -0.8070    -1.1990 H     1 <1>   0.0800 
 25 H       -4.5970    -0.9570     0.3980 H     1 <1>   0.0800 
 26 H       -3.0410     1.4350    -1.5890 H     1 <1>   0.0800 
 27 H       -2.7370     2.4530    -0.1950 H     1 <1>   0.0800 
 28 H       -4.3330     1.8060    -0.4710 H     1 <1>   0.0800 
 29 H        0.6840    -3.4670     2.1040 H     1 <1>   0.1500 
 30 H        0.3200    -2.8870    -2.1040 H     1 <1>   0.1500 
 31 H        0.8050    -5.8900     1.7590 H     1 <1>   0.1500 
 32 H        0.4410    -5.3170    -2.4470 H     1 <1>   0.1500 
 33 H        3.9810    -0.0380    -0.0920 H     1 <1>   0.0800 
 34 H        3.3170     0.1970    -1.7060 H     1 <1>   0.0800 
 35 H        0.6810    -6.8220    -0.5150 H     1 <1>   0.1500 
 36 H        4.9840    -2.1920    -0.8210 H     1 <1>   0.0800 
 37 H        5.5630    -0.8870    -1.8270 H     1 <1>   0.0800 
 38 H        4.3220    -1.9570    -2.4310 H     1 <1>   0.0800 
@<TRIPOS>BOND
  1   1   2  2   
  2   2   3  1   
  3   2   4  1   
  4   2   5  1   
  5   3   6  1   
  6   4   7  1   
  7   5   8  1   
  8   5   9  am  
  9   6  10  1   
 10   6  11  1   
 11   6  21  1   
 12   7  10  1   
 13   7  22  1   
 14   7  23  1   
 15   8  12  ar  
 16   8  13  ar  
 17   9  14  2   
 18   9  15  1   
 19  10  24  1   
 20  10  25  1   
 21  11  26  1   
 22  11  27  1   
 23  11  28  1   
 24  12  16  ar  
 25  12  29  1   
 26  13  17  ar  
 27  13  30  1   
 28  15  18  1   
 29  16  19  ar  
 30  16  31  1   
 31  17  19  ar  
 32  17  32  1   
 33  18  20  1   
 34  18  33  1   
 35  18  34  1   
 36  19  35  1   
 37  20  36  1   
 38  20  37  1   
 39  20  38  1   
@<TRIPOS>SUBSTRUCTURE
  1 ****   5 GROUP 4 **** **** 0

# MOE 2024.06 (io_trps.svl 2023.06)
