@<TRIPOS>MOLECULE
NONAME
46 48 1 0 0 
SMALL
USER_CHARGES


@<TRIPOS>ATOM
  1 F       -0.6110    -0.0810    -0.9820 F     1 <1>  -0.3400 
  2 C       -0.2650     1.0010    -1.6660 C.3   1 <1>   1.1640 
  3 F       -1.4050     1.5760    -2.0330 F     1 <1>  -0.3400 
  4 F        0.3200     0.5810    -2.7770 F     1 <1>  -0.3400 
  5 C        0.5840     1.9640    -0.8110 C.ar  1 <1>  -0.1440 
  6 C        0.1250     2.4720     0.4130 C.ar  1 <1>  -0.1440 
  7 C        1.8480     2.3430    -1.2580 C.ar  1 <1>  -0.1500 
  8 C        0.9410     3.3150     1.1580 C.ar  1 <1>  -0.1500 
  9 C       -1.2520     2.1390     0.9830 C.3   1 <1>   0.4870 
 10 C        2.6430     3.1930    -0.5140 C.ar  1 <1>  -0.1500 
 11 C        2.1910     3.6770     0.6970 C.ar  1 <1>  -0.1500 
 12 N       -2.0890     3.3700     1.0010 N.4   1 <1>  -0.9590 
 13 C       -3.4160     3.1270     1.6750 C.3   1 <1>   0.3430 
 14 C       -2.2930     3.9480    -0.3820 C.3   1 <1>   0.3430 
 15 C       -4.2940     4.3950     1.7380 C.3   1 <1>   0.2090 
 16 C       -3.1490     5.2310    -0.3750 C.3   1 <1>   0.2090 
 17 N       -4.4080     5.0510     0.4050 N.pl3 1 <1>  -0.8380 
 18 C       -5.5900     4.8490    -0.3070 C.ar  1 <1>   0.1000 
 19 C       -6.5940     5.8190    -0.3160 C.ar  1 <1>  -0.1430 
 20 C       -5.7890     3.6690    -1.0190 C.ar  1 <1>  -0.1500 
 21 C       -7.7620     5.5950    -1.0250 C.ar  1 <1>  -0.1500 
 22 C       -6.4190     7.1260     0.4440 C.3   1 <1>  -0.0970 
 23 C       -6.9560     3.4520    -1.7250 C.ar  1 <1>  -0.1500 
 24 C       -7.9460     4.4180    -1.7280 C.ar  1 <1>  -0.1500 
 25 H        2.2400     1.9780    -2.1950 H     1 <1>   0.1500 
 26 H        0.6240     3.7000     2.1120 H     1 <1>   0.1500 
 27 H       -1.1320     1.7640     1.9870 H     1 <1>   0.0800 
 28 H       -1.7400     1.3750     0.4020 H     1 <1>   0.0800 
 29 H        3.6190     3.4740    -0.8750 H     1 <1>   0.1500 
 30 H        2.8200     4.3310     1.2790 H     1 <1>   0.1500 
 31 H       -1.5820     4.0820     1.5400 H     1 <1>   0.4500 
 32 H       -3.2610     2.7630     2.6780 H     1 <1>   0.0800 
 33 H       -3.9630     2.3740     1.1330 H     1 <1>   0.0800 
 34 H       -2.7910     3.2240    -1.0050 H     1 <1>   0.0800 
 35 H       -1.3410     4.1700    -0.8350 H     1 <1>   0.0800 
 36 H       -3.8770     5.0960     2.4390 H     1 <1>   0.0800 
 37 H       -5.2770     4.1310     2.0900 H     1 <1>   0.0800 
 38 H       -3.3920     5.5030    -1.3880 H     1 <1>   0.0800 
 39 H       -2.5860     6.0430     0.0510 H     1 <1>   0.0800 
 40 H       -5.0310     2.9130    -1.0250 H     1 <1>   0.1500 
 41 H       -8.5400     6.3380    -1.0370 H     1 <1>   0.1500 
 42 H       -6.3110     6.9260     1.4940 H     1 <1>   0.0800 
 43 H       -7.2650     7.7740     0.3040 H     1 <1>   0.0800 
 44 H       -5.5380     7.6340     0.0970 H     1 <1>   0.0800 
 45 H       -7.1010     2.5380    -2.2730 H     1 <1>   0.1500 
 46 H       -8.8580     4.2550    -2.2760 H     1 <1>   0.1500 
@<TRIPOS>BOND
  1   1   2  1   
  2   2   3  1   
  3   2   4  1   
  4   2   5  1   
  5   5   6  ar  
  6   5   7  ar  
  7   6   8  ar  
  8   6   9  1   
  9   7  10  ar  
 10   7  25  1   
 11   8  11  ar  
 12   8  26  1   
 13   9  12  1   
 14   9  27  1   
 15   9  28  1   
 16  10  11  ar  
 17  10  29  1   
 18  11  30  1   
 19  12  13  1   
 20  12  14  1   
 21  12  31  1   
 22  13  15  1   
 23  13  32  1   
 24  13  33  1   
 25  14  16  1   
 26  14  34  1   
 27  14  35  1   
 28  15  17  1   
 29  15  36  1   
 30  15  37  1   
 31  16  17  1   
 32  16  38  1   
 33  16  39  1   
 34  17  18  1   
 35  18  19  ar  
 36  18  20  ar  
 37  19  21  ar  
 38  19  22  1   
 39  20  23  ar  
 40  20  40  1   
 41  21  24  ar  
 42  21  41  1   
 43  22  42  1   
 44  22  43  1   
 45  22  44  1   
 46  23  24  ar  
 47  23  45  1   
 48  24  46  1   
@<TRIPOS>SUBSTRUCTURE
  1 ****  14 GROUP 4 **** **** 0

# MOE 2024.06 (io_trps.svl 2023.06)
