@<TRIPOS>MOLECULE
NONAME
34 35 1 0 0 
SMALL
USER_CHARGES


@<TRIPOS>ATOM
  1 S       -0.6010     0.7430     1.8400 S.3   1 <1>  -0.3320 
  2 C       -2.0440     0.2470     0.9190 C.ar  1 <1>   0.7220 
  3 C        0.7230    -0.4220     1.2590 C.3   1 <1>   0.1310 
  4 N       -3.1370     0.9380     1.1880 N.ar  1 <1>  -0.6200 
  5 N       -1.8650    -0.7490     0.0660 N.ar  1 <1>  -0.6200 
  6 C        2.0630    -0.0660     1.8840 C.2   1 <1>   0.5690 
  7 C       -4.1960     0.5710     0.5080 C.ar  1 <1>   0.1660 
  8 C       -2.9420    -1.0930    -0.6000 C.ar  1 <1>   0.1660 
  9 O        2.5750    -0.8490     2.6430 O.2   1 <1>  -0.5700 
 10 N        2.7130     1.0860     1.5920 N.am  1 <1>  -0.7300 
 11 C       -4.1470    -0.4540    -0.4110 C.ar  1 <1>  -0.1500 
 12 C       -5.4800     1.3270     0.7780 C.3   1 <1>  -0.0970 
 13 C       -2.8020    -2.2300    -1.5910 C.3   1 <1>  -0.0970 
 14 C        2.3300     2.1610     0.6480 C.3   1 <1>   0.3200 
 15 C        3.3470     2.2610    -0.4750 C.2   1 <1>  -0.0400 
 16 O        3.2200     3.2460    -1.3450 O.3   1 <1>  -0.2800 
 17 C        4.4200     1.4980    -0.7850 C.2   1 <1>  -0.1500 
 18 C        4.1990     3.1360    -2.2210 C.2   1 <1>  -0.0100 
 19 C        4.9800     2.0740    -1.9320 C.2   1 <1>  -0.1500 
 20 H        0.7730    -0.3540     0.1890 H     1 <1>   0.0800 
 21 H        0.4220    -1.4110     1.5490 H     1 <1>   0.0800 
 22 H        3.6080     1.2220     2.0630 H     1 <1>   0.3700 
 23 H       -5.0210    -0.7450    -0.9610 H     1 <1>   0.1500 
 24 H       -5.3350     2.3690     0.5570 H     1 <1>   0.0800 
 25 H       -5.7420     1.2290     1.8160 H     1 <1>   0.0800 
 26 H       -6.2870     0.9510     0.1770 H     1 <1>   0.0800 
 27 H       -2.0740    -1.9690    -2.3370 H     1 <1>   0.0800 
 28 H       -3.7370    -2.4390    -2.0760 H     1 <1>   0.0800 
 29 H       -2.4710    -3.1150    -1.0790 H     1 <1>   0.0800 
 30 H        2.2930     3.0970     1.1790 H     1 <1>   0.0800 
 31 H        1.3590     1.9780     0.2260 H     1 <1>   0.0800 
 32 H        4.7930     0.6230    -0.2820 H     1 <1>   0.1500 
 33 H        4.2660     3.8560    -3.0180 H     1 <1>   0.1500 
 34 H        5.8520     1.7170    -2.4500 H     1 <1>   0.1500 
@<TRIPOS>BOND
  1   1   2  1   
  2   1   3  1   
  3   2   4  ar  
  4   2   5  ar  
  5   3   6  1   
  6   3  20  1   
  7   3  21  1   
  8   4   7  ar  
  9   5   8  ar  
 10   6   9  2   
 11   6  10  am  
 12   7  11  ar  
 13   7  12  1   
 14   8  11  ar  
 15   8  13  1   
 16  10  14  1   
 17  10  22  1   
 18  11  23  1   
 19  12  24  1   
 20  12  25  1   
 21  12  26  1   
 22  13  27  1   
 23  13  28  1   
 24  13  29  1   
 25  14  15  1   
 26  14  30  1   
 27  14  31  1   
 28  15  16  1   
 29  15  17  2   
 30  16  18  1   
 31  17  19  1   
 32  17  32  1   
 33  18  19  2   
 34  18  33  1   
 35  19  34  1   
@<TRIPOS>SUBSTRUCTURE
  1 ****   3 GROUP 4 **** **** 0

# MOE 2024.06 (io_trps.svl 2023.06)
