@<TRIPOS>MOLECULE
NONAME
53 55 1 0 0 
SMALL
USER_CHARGES


@<TRIPOS>ATOM
  1 O        1.7650    -2.2170    -1.7850 O.3   1 <1>  -0.8500 
  2 C        0.9740    -2.6540    -0.9600 C.2   1 <1>  -0.2880 
  3 C        1.2500    -2.8650     0.3940 C.2   1 <1>  -0.1240 
  4 C       -0.3930    -2.9760    -1.5380 C.3   1 <1>  -0.0220 
  5 C        0.2820    -3.3930     1.2550 C.2   1 <1>   0.4950 
  6 C        2.6370    -2.5290     0.9880 C.3   1 <1>   0.2020 
  7 C       -1.5170    -2.9050    -0.4870 C.3   1 <1>   0.0000 
  8 O        0.4410    -3.6440     2.4550 O.2   1 <1>  -0.5700 
  9 C       -1.1040    -3.7430     0.7350 C.3   1 <1>  -0.0990 
 10 C        2.9090    -1.0190     1.1780 C.ar  1 <1>  -0.1440 
 11 C        3.8020    -3.4100     0.4560 C.3   1 <1>   0.0420 
 12 C       -2.8210    -3.4640    -1.0800 C.3   1 <1>  -0.2400 
 13 C       -1.7620    -1.4410    -0.0720 C.3   1 <1>  -0.2400 
 14 C        3.5270    -0.5560     2.3270 C.ar  1 <1>  -0.1500 
 15 C        2.5440    -0.0280     0.2840 C.ar  1 <1>  -0.1500 
 16 C        5.1200    -3.1070     1.1550 C.2   1 <1>   0.4480 
 17 C        4.1220    -3.4710    -1.0220 C.2   1 <1>   0.4480 
 18 C        3.7700     0.7970     2.5010 C.ar  1 <1>   0.1600 
 19 C        2.8310     1.2990     0.5490 C.ar  1 <1>   0.1600 
 20 O        5.2260    -3.1590     2.3460 O.2   1 <1>  -0.5700 
 21 C        6.3580    -2.8280     0.3050 C.3   1 <1>  -0.0990 
 22 O        4.1240    -4.5110    -1.6190 O.2   1 <1>  -0.5700 
 23 C        4.7530    -2.2220    -1.6050 C.3   1 <1>  -0.0990 
 24 N        3.4450     1.7420     1.6350 N.ar  1 <1>  -0.6200 
 25 C        6.1140    -1.9150    -0.9250 C.3   1 <1>   0.0000 
 26 C        7.2510    -2.1430    -1.9350 C.3   1 <1>  -0.2400 
 27 C        6.1640    -0.4400    -0.4950 C.3   1 <1>  -0.2400 
 28 H       -0.3380    -3.9610    -1.9670 H     1 <1>   0.0800 
 29 H       -0.6000    -2.2890    -2.3390 H     1 <1>   0.0800 
 30 H        2.5870    -2.8610     2.0070 H     1 <1>   0.0800 
 31 H       -1.8180    -3.6060     1.5260 H     1 <1>   0.0800 
 32 H       -1.0910    -4.7840     0.4760 H     1 <1>   0.0800 
 33 H        3.5430    -4.4150     0.7290 H     1 <1>   0.0800 
 34 H       -2.6880    -4.4870    -1.3850 H     1 <1>   0.0800 
 35 H       -3.1130    -2.8910    -1.9420 H     1 <1>   0.0800 
 36 H       -3.6140    -3.4230    -0.3560 H     1 <1>   0.0800 
 37 H       -0.8630    -1.0020     0.3240 H     1 <1>   0.0800 
 38 H       -2.5300    -1.3780     0.6770 H     1 <1>   0.0800 
 39 H       -2.0610    -0.8580    -0.9240 H     1 <1>   0.0800 
 40 H        3.8240    -1.2370     3.1030 H     1 <1>   0.1500 
 41 H        2.0300    -0.2630    -0.6270 H     1 <1>   0.1500 
 42 H        4.2580     1.1150     3.4050 H     1 <1>   0.1500 
 43 H        2.5340     2.0330    -0.1800 H     1 <1>   0.1500 
 44 H        6.7150    -3.7850    -0.0310 H     1 <1>   0.0800 
 45 H        7.1270    -2.4100     0.9300 H     1 <1>   0.0800 
 46 H        4.0700    -1.4060    -1.4740 H     1 <1>   0.0800 
 47 H        4.8580    -2.3590    -2.6650 H     1 <1>   0.0800 
 48 H        7.2350    -3.1570    -2.2970 H     1 <1>   0.0800 
 49 H        8.2090    -1.9570    -1.4810 H     1 <1>   0.0800 
 50 H        7.1430    -1.4850    -2.7790 H     1 <1>   0.0800 
 51 H        5.4250    -0.2370     0.2570 H     1 <1>   0.0800 
 52 H        5.9700     0.2050    -1.3340 H     1 <1>   0.0800 
 53 H        7.1280    -0.1890    -0.0900 H     1 <1>   0.0800 
@<TRIPOS>BOND
  1   1   2  1   
  2   2   3  2   
  3   2   4  1   
  4   3   5  1   
  5   3   6  1   
  6   4   7  1   
  7   4  28  1   
  8   4  29  1   
  9   5   8  2   
 10   5   9  1   
 11   6  10  1   
 12   6  11  1   
 13   6  30  1   
 14   7   9  1   
 15   7  12  1   
 16   7  13  1   
 17   9  31  1   
 18   9  32  1   
 19  10  14  ar  
 20  10  15  ar  
 21  11  16  1   
 22  11  17  1   
 23  11  33  1   
 24  12  34  1   
 25  12  35  1   
 26  12  36  1   
 27  13  37  1   
 28  13  38  1   
 29  13  39  1   
 30  14  18  ar  
 31  14  40  1   
 32  15  19  ar  
 33  15  41  1   
 34  16  20  2   
 35  16  21  1   
 36  17  22  2   
 37  17  23  1   
 38  18  24  ar  
 39  18  42  1   
 40  19  24  ar  
 41  19  43  1   
 42  21  25  1   
 43  21  44  1   
 44  21  45  1   
 45  23  25  1   
 46  23  46  1   
 47  23  47  1   
 48  25  26  1   
 49  25  27  1   
 50  26  48  1   
 51  26  49  1   
 52  26  50  1   
 53  27  51  1   
 54  27  52  1   
 55  27  53  1   
@<TRIPOS>SUBSTRUCTURE
  1 ****   6 GROUP 4 **** **** 0

# MOE 2024.06 (io_trps.svl 2023.06)
