@<TRIPOS>MOLECULE
NONAME
49 49 1 0 0 
SMALL
USER_CHARGES


@<TRIPOS>ATOM
  1 O       -0.6450    -0.2960     0.5270 O.3   1 <1>  -0.3630 
  2 C       -1.6770     0.5600     0.3250 C.ar  1 <1>   0.0830 
  3 C       -0.0440    -0.9870    -0.5450 C.3   1 <1>   0.0400 
  4 C       -2.2490     0.8070    -0.9200 C.ar  1 <1>  -0.1500 
  5 C       -2.1730     1.2150     1.4390 C.ar  1 <1>  -0.1500 
  6 C       -3.3020     1.6970    -1.0350 C.ar  1 <1>  -0.1500 
  7 C       -3.2250     2.1050     1.3220 C.ar  1 <1>  -0.1500 
  8 C       -3.7990     2.3490     0.0840 C.ar  1 <1>  -0.1430 
  9 C       -4.9650     3.3130    -0.0450 C.3   1 <1>  -0.0170 
 10 C       -6.2850     2.5250     0.0250 C.3   1 <1>  -0.1600 
 11 C       -7.5540     3.3950     0.1610 C.3   1 <1>   0.4230 
 12 N       -8.7760     2.5110     0.2480 N.4   1 <1>  -0.9590 
 13 C       -7.6860     4.3480    -1.0350 C.3   1 <1>  -0.2400 
 14 C      -10.0790     3.2910     0.2430 C.3   1 <1>   0.3430 
 15 C       -8.6970     1.6020     1.4510 C.3   1 <1>   0.2630 
 16 C      -11.3710     2.4220     0.1910 C.3   1 <1>   0.3430 
 17 N      -12.6600     3.2130     0.1510 N.4   1 <1>  -0.9590 
 18 C      -13.8390     2.2910     0.2880 C.3   1 <1>   0.2630 
 19 C      -12.8300     4.0260    -1.1020 C.3   1 <1>   0.2630 
 20 H        0.7530    -1.5900    -0.1480 H     1 <1>   0.0800 
 21 H        0.3530    -0.2710    -1.2430 H     1 <1>   0.0800 
 22 H       -0.7800    -1.6160    -1.0120 H     1 <1>   0.0800 
 23 H       -1.8870     0.3180    -1.8040 H     1 <1>   0.1500 
 24 H       -1.7240     1.0230     2.3970 H     1 <1>   0.1500 
 25 H       -3.7300     1.8780    -2.0050 H     1 <1>   0.1500 
 26 H       -3.5870     2.6030     2.2040 H     1 <1>   0.1500 
 27 H       -4.8730     3.8370    -0.9800 H     1 <1>   0.0800 
 28 H       -4.9150     4.0380     0.7490 H     1 <1>   0.0800 
 29 H       -6.1890     1.8830     0.8800 H     1 <1>   0.0800 
 30 H       -6.3540     1.9060    -0.8520 H     1 <1>   0.0800 
 31 H       -7.4700     3.9830     1.0630 H     1 <1>   0.0800 
 32 H       -8.7230     1.9200    -0.5970 H     1 <1>   0.4500 
 33 H       -7.8190     3.8050    -1.9540 H     1 <1>   0.0800 
 34 H       -6.8000     4.9470    -1.1360 H     1 <1>   0.0800 
 35 H       -8.4860     5.0530    -0.9040 H     1 <1>   0.0800 
 36 H      -10.0960     3.9340    -0.6190 H     1 <1>   0.0800 
 37 H      -10.1130     3.9120     1.1230 H     1 <1>   0.0800 
 38 H       -8.5910     2.1810     2.3550 H     1 <1>   0.0800 
 39 H       -7.8520     0.9370     1.3730 H     1 <1>   0.0800 
 40 H       -9.5800     0.9910     1.5330 H     1 <1>   0.0800 
 41 H      -11.3890     1.7870     1.0620 H     1 <1>   0.0800 
 42 H      -11.3280     1.7900    -0.6800 H     1 <1>   0.0800 
 43 H      -12.7070     3.8590     0.9590 H     1 <1>   0.4500 
 44 H      -13.8740     1.5950    -0.5350 H     1 <1>   0.0800 
 45 H      -14.7580     2.8560     0.2950 H     1 <1>   0.0800 
 46 H      -13.7800     1.7320     1.2090 H     1 <1>   0.0800 
 47 H      -12.8190     3.3880    -1.9720 H     1 <1>   0.0800 
 48 H      -12.0430     4.7570    -1.1970 H     1 <1>   0.0800 
 49 H      -13.7730     4.5500    -1.0800 H     1 <1>   0.0800 
@<TRIPOS>BOND
  1   1   2  1   
  2   1   3  1   
  3   2   4  ar  
  4   2   5  ar  
  5   3  20  1   
  6   3  21  1   
  7   3  22  1   
  8   4   6  ar  
  9   4  23  1   
 10   5   7  ar  
 11   5  24  1   
 12   6   8  ar  
 13   6  25  1   
 14   7   8  ar  
 15   7  26  1   
 16   8   9  1   
 17   9  10  1   
 18   9  27  1   
 19   9  28  1   
 20  10  11  1   
 21  10  29  1   
 22  10  30  1   
 23  11  12  1   
 24  11  13  1   
 25  11  31  1   
 26  12  14  1   
 27  12  15  1   
 28  12  32  1   
 29  13  33  1   
 30  13  34  1   
 31  13  35  1   
 32  14  16  1   
 33  14  36  1   
 34  14  37  1   
 35  15  38  1   
 36  15  39  1   
 37  15  40  1   
 38  16  17  1   
 39  16  41  1   
 40  16  42  1   
 41  17  18  1   
 42  17  19  1   
 43  17  43  1   
 44  18  44  1   
 45  18  45  1   
 46  18  46  1   
 47  19  47  1   
 48  19  48  1   
 49  19  49  1   
@<TRIPOS>SUBSTRUCTURE
  1 ****  10 GROUP 4 **** **** 0

# MOE 2024.06 (io_trps.svl 2023.06)
