@<TRIPOS>MOLECULE
NONAME
41 42 1 0 0 
SMALL
USER_CHARGES


@<TRIPOS>ATOM
  1 BR       1.4310    -0.9870    -2.1310 Br    1 <1>  -0.1110 
  2 C        0.3350    -1.8580    -0.8050 C.ar  1 <1>   0.1110 
  3 C        0.5760    -1.6520     0.5470 C.ar  1 <1>   0.0830 
  4 C       -0.6880    -2.6740    -1.2490 C.ar  1 <1>  -0.1500 
  5 O        1.5620    -0.8390     0.9790 O.3   1 <1>  -0.3630 
  6 C       -0.2410    -2.2820     1.4710 C.ar  1 <1>  -0.1500 
  7 C       -1.5060    -3.3000    -0.3160 C.ar  1 <1>  -0.1430 
  8 C        2.8370    -1.4230     1.1190 C.3   1 <1>   0.0400 
  9 C       -1.2720    -3.1030     1.0410 C.ar  1 <1>  -0.1500 
 10 C       -2.6520    -4.1810    -0.7810 C.3   1 <1>   0.4870 
 11 N       -3.9360    -3.4740    -0.5420 N.4   1 <1>  -0.9590 
 12 C       -5.1510    -4.2960    -0.8470 C.3   1 <1>   0.3430 
 13 C       -4.0290    -2.1220    -1.1880 C.3   1 <1>   0.3430 
 14 C       -6.4520    -3.5370    -0.4810 C.3   1 <1>   0.1100 
 15 C       -5.3340    -1.3960    -0.7740 C.3   1 <1>   0.1100 
 16 N       -6.1840    -2.2100     0.1310 N.3   1 <1>  -0.8100 
 17 C       -7.4310    -1.4850     0.4610 C.3   1 <1>   0.1100 
 18 C       -8.1430    -2.0910     1.6770 C.3   1 <1>   0.1200 
 19 O       -9.2800    -1.3480     1.9520 O.3   1 <1>  -0.6800 
 20 H       -0.8260    -2.8040    -2.3080 H     1 <1>   0.1500 
 21 H       -0.0630    -2.1220     2.5200 H     1 <1>   0.1500 
 22 H        3.5160    -0.6670     1.4690 H     1 <1>   0.0800 
 23 H        3.1620    -1.7930     0.1630 H     1 <1>   0.0800 
 24 H        2.7780    -2.2250     1.8330 H     1 <1>   0.0800 
 25 H       -1.8870    -3.5840     1.7840 H     1 <1>   0.1500 
 26 H       -2.6330    -5.1090    -0.2330 H     1 <1>   0.0800 
 27 H       -2.5400    -4.4010    -1.8300 H     1 <1>   0.0800 
 28 H       -4.0160    -3.2550     0.4630 H     1 <1>   0.4500 
 29 H       -5.1210    -5.2170    -0.2880 H     1 <1>   0.0800 
 30 H       -5.1750    -4.5490    -1.8940 H     1 <1>   0.0800 
 31 H       -4.0030    -2.2210    -2.2600 H     1 <1>   0.0800 
 32 H       -3.1890    -1.5130    -0.8940 H     1 <1>   0.0800 
 33 H       -7.0170    -4.1470     0.2020 H     1 <1>   0.0800 
 34 H       -7.0490    -3.4150    -1.3690 H     1 <1>   0.0800 
 35 H       -5.8870    -1.1360    -1.6620 H     1 <1>   0.0800 
 36 H       -5.0700    -0.4750    -0.2810 H     1 <1>   0.0800 
 37 H       -8.0970    -1.4900    -0.3860 H     1 <1>   0.0800 
 38 H       -7.1880    -0.4620     0.6980 H     1 <1>   0.0800 
 39 H       -7.5090    -2.0750     2.5460 H     1 <1>   0.0800 
 40 H       -8.4630    -3.0970     1.4760 H     1 <1>   0.0800 
 41 H       -9.0500    -0.4790     2.3360 H     1 <1>   0.4000 
@<TRIPOS>BOND
  1   1   2  1   
  2   2   3  ar  
  3   2   4  ar  
  4   3   5  1   
  5   3   6  ar  
  6   4   7  ar  
  7   4  20  1   
  8   5   8  1   
  9   6   9  ar  
 10   6  21  1   
 11   7   9  ar  
 12   7  10  1   
 13   8  22  1   
 14   8  23  1   
 15   8  24  1   
 16   9  25  1   
 17  10  11  1   
 18  10  26  1   
 19  10  27  1   
 20  11  12  1   
 21  11  13  1   
 22  11  28  1   
 23  12  14  1   
 24  12  29  1   
 25  12  30  1   
 26  13  15  1   
 27  13  31  1   
 28  13  32  1   
 29  14  16  1   
 30  14  33  1   
 31  14  34  1   
 32  15  16  1   
 33  15  35  1   
 34  15  36  1   
 35  16  17  1   
 36  17  18  1   
 37  17  37  1   
 38  17  38  1   
 39  18  19  1   
 40  18  39  1   
 41  18  40  1   
 42  19  41  1   
@<TRIPOS>SUBSTRUCTURE
  1 ****  11 GROUP 4 **** **** 0

# MOE 2024.06 (io_trps.svl 2023.06)
