@<TRIPOS>MOLECULE
NONAME
46 47 1 0 0 
SMALL
USER_CHARGES


@<TRIPOS>ATOM
  1 O        0.6480     0.2870    -0.3730 O.2   1 <1>  -0.5700 
  2 C        0.3320     1.4470    -0.3380 C.2   1 <1>   0.6590 
  3 O       -0.9250     1.8440    -0.2260 O.3   1 <1>  -0.4300 
  4 C        1.3690     2.5530    -0.4230 C.3   1 <1>  -0.0190 
  5 C       -1.9870     0.9210    -0.1310 C.3   1 <1>   0.1200 
  6 C        2.6920     1.9730    -0.9580 C.3   1 <1>   0.3430 
  7 C        1.5620     3.2700     0.9290 C.3   1 <1>  -0.1600 
  8 C       -3.2870     1.7080    -0.0090 C.3   1 <1>  -0.2400 
  9 N        3.9010     2.6730    -0.4100 N.4   1 <1>  -0.9590 
 10 C        2.6200     4.3870     0.8210 C.3   1 <1>  -0.1600 
 11 C        3.7010     4.1390    -0.2410 C.3   1 <1>   0.3430 
 12 C        5.1300     2.3460    -1.1790 C.3   1 <1>   0.4860 
 13 C        6.3250     2.7960    -0.3630 C.ar  1 <1>  -0.1430 
 14 C        6.7650     2.0820     0.7490 C.ar  1 <1>  -0.1430 
 15 C        6.9810     3.9600    -0.7390 C.ar  1 <1>  -0.1500 
 16 C        7.8420     2.5650     1.4750 C.ar  1 <1>  -0.1500 
 17 C        6.1190     0.7780     1.2050 C.3   1 <1>  -0.0970 
 18 C        8.0560     4.4360    -0.0100 C.ar  1 <1>  -0.1430 
 19 C        8.4810     3.7320     1.1010 C.ar  1 <1>  -0.1500 
 20 C        8.7740     5.7090    -0.4210 C.3   1 <1>  -0.0970 
 21 H        1.0050     3.2660    -1.1400 H     1 <1>   0.0800 
 22 H       -1.8270     0.3030     0.7370 H     1 <1>   0.0800 
 23 H       -1.9880     0.3070    -1.0160 H     1 <1>   0.0800 
 24 H        2.6830     2.0360    -2.0340 H     1 <1>   0.0800 
 25 H        2.7590     0.9280    -0.6970 H     1 <1>   0.0800 
 26 H        1.8760     2.5490     1.6660 H     1 <1>   0.0800 
 27 H        0.6270     3.6870     1.2670 H     1 <1>   0.0800 
 28 H       -3.2700     2.3220     0.8730 H     1 <1>   0.0800 
 29 H       -4.1160     1.0270     0.0660 H     1 <1>   0.0800 
 30 H       -3.4320     2.3260    -0.8770 H     1 <1>   0.0800 
 31 H        4.0800     2.3160     0.5370 H     1 <1>   0.4500 
 32 H        3.0910     4.5220     1.7790 H     1 <1>   0.0800 
 33 H        2.1350     5.3180     0.5830 H     1 <1>   0.0800 
 34 H        3.3930     4.5700    -1.1800 H     1 <1>   0.0800 
 35 H        4.6180     4.6170     0.0670 H     1 <1>   0.0800 
 36 H        5.1220     2.8450    -2.1340 H     1 <1>   0.0800 
 37 H        5.1950     1.2830    -1.3480 H     1 <1>   0.0800 
 38 H        6.6630     4.5110    -1.6080 H     1 <1>   0.1500 
 39 H        8.2000     2.0340     2.3410 H     1 <1>   0.1500 
 40 H        5.2070     0.9740     1.7380 H     1 <1>   0.0800 
 41 H        6.7800     0.2440     1.8670 H     1 <1>   0.0800 
 42 H        5.9170     0.1330     0.3690 H     1 <1>   0.0800 
 43 H        9.3180     4.0870     1.6790 H     1 <1>   0.1500 
 44 H        8.1290     6.3450    -1.0010 H     1 <1>   0.0800 
 45 H        9.6390     5.4640    -1.0110 H     1 <1>   0.0800 
 46 H        9.0940     6.2550     0.4480 H     1 <1>   0.0800 
@<TRIPOS>BOND
  1   1   2  2   
  2   2   3  1   
  3   2   4  1   
  4   3   5  1   
  5   4   6  1   
  6   4   7  1   
  7   4  21  1   
  8   5   8  1   
  9   5  22  1   
 10   5  23  1   
 11   6   9  1   
 12   6  24  1   
 13   6  25  1   
 14   7  10  1   
 15   7  26  1   
 16   7  27  1   
 17   8  28  1   
 18   8  29  1   
 19   8  30  1   
 20   9  11  1   
 21   9  12  1   
 22   9  31  1   
 23  10  11  1   
 24  10  32  1   
 25  10  33  1   
 26  11  34  1   
 27  11  35  1   
 28  12  13  1   
 29  12  36  1   
 30  12  37  1   
 31  13  14  ar  
 32  13  15  ar  
 33  14  16  ar  
 34  14  17  1   
 35  15  18  ar  
 36  15  38  1   
 37  16  19  ar  
 38  16  39  1   
 39  17  40  1   
 40  17  41  1   
 41  17  42  1   
 42  18  19  ar  
 43  18  20  1   
 44  19  43  1   
 45  20  44  1   
 46  20  45  1   
 47  20  46  1   
@<TRIPOS>SUBSTRUCTURE
  1 ****   9 GROUP 4 **** **** 0

# MOE 2024.06 (io_trps.svl 2023.06)
