@<TRIPOS>MOLECULE
NONAME
35 35 1 0 0 
SMALL
USER_CHARGES


@<TRIPOS>ATOM
  1 S        0.0410    -0.0290     0.2160 S.o2  1 <1>   1.3330 
  2 O        0.1010     1.0770    -0.7130 O.2   1 <1>  -0.6500 
  3 O        0.0640     0.2300     1.6390 O.2   1 <1>  -0.6500 
  4 N       -1.3530    -0.9330    -0.1210 N.am  1 <1>  -0.8490 
  5 C        1.3590    -1.1750    -0.2040 C.3   1 <1>  -0.0550 
  6 C       -2.4780    -0.0760    -0.5110 C.3   1 <1>   0.1960 
  7 C       -1.7290    -1.8120     0.9930 C.3   1 <1>   0.1960 
  8 C        2.7690    -0.5990     0.0080 C.3   1 <1>  -0.1600 
  9 C       -3.6700    -0.9270    -0.9600 C.3   1 <1>  -0.1600 
 10 C       -2.8820    -2.7320     0.5810 C.3   1 <1>  -0.1600 
 11 C        3.8500    -1.6210    -0.3650 C.3   1 <1>  -0.1600 
 12 C       -4.1010    -1.9180     0.1290 C.3   1 <1>  -0.0800 
 13 C        5.2490    -1.0400    -0.1510 C.3   1 <1>  -0.2400 
 14 C       -5.2170    -2.8380    -0.3770 C.3   1 <1>  -0.2400 
 15 H        1.2500    -1.4580    -1.2330 H     1 <1>   0.0800 
 16 H        1.2550    -2.0600     0.3920 H     1 <1>   0.0800 
 17 H       -2.1880     0.5580    -1.3320 H     1 <1>   0.0800 
 18 H       -2.7600     0.5550     0.3170 H     1 <1>   0.0800 
 19 H       -2.0240    -1.2190     1.8450 H     1 <1>   0.0800 
 20 H       -0.8860    -2.4160     1.2830 H     1 <1>   0.0800 
 21 H        2.8820    -0.3120     1.0400 H     1 <1>   0.0800 
 22 H        2.8820     0.2850    -0.5970 H     1 <1>   0.0800 
 23 H       -3.3910    -1.4590    -1.8530 H     1 <1>   0.0800 
 24 H       -4.4910    -0.2790    -1.2070 H     1 <1>   0.0800 
 25 H       -3.1500    -3.3560     1.4140 H     1 <1>   0.0800 
 26 H       -2.5450    -3.3710    -0.2170 H     1 <1>   0.0800 
 27 H        3.7400    -1.9060    -1.3980 H     1 <1>   0.0800 
 28 H        3.7390    -2.5060     0.2390 H     1 <1>   0.0800 
 29 H       -4.4730    -1.3590     0.9730 H     1 <1>   0.0800 
 30 H        5.3920    -0.1660    -0.7630 H     1 <1>   0.0800 
 31 H        5.9950    -1.7680    -0.4180 H     1 <1>   0.0800 
 32 H        5.3910    -0.7680     0.8800 H     1 <1>   0.0800 
 33 H       -4.8810    -3.4130    -1.2220 H     1 <1>   0.0800 
 34 H       -6.0720    -2.2570    -0.6750 H     1 <1>   0.0800 
 35 H       -5.5230    -3.5160     0.4000 H     1 <1>   0.0800 
@<TRIPOS>BOND
  1   1   2  2   
  2   1   3  2   
  3   1   4  am  
  4   1   5  1   
  5   4   6  1   
  6   4   7  1   
  7   5   8  1   
  8   5  15  1   
  9   5  16  1   
 10   6   9  1   
 11   6  17  1   
 12   6  18  1   
 13   7  10  1   
 14   7  19  1   
 15   7  20  1   
 16   8  11  1   
 17   8  21  1   
 18   8  22  1   
 19   9  12  1   
 20   9  23  1   
 21   9  24  1   
 22  10  12  1   
 23  10  25  1   
 24  10  26  1   
 25  11  13  1   
 26  11  27  1   
 27  11  28  1   
 28  12  14  1   
 29  12  29  1   
 30  13  30  1   
 31  13  31  1   
 32  13  32  1   
 33  14  33  1   
 34  14  34  1   
 35  14  35  1   
@<TRIPOS>SUBSTRUCTURE
  1 ****   4 GROUP 4 **** **** 0

# MOE 2024.06 (io_trps.svl 2023.06)
