@<TRIPOS>MOLECULE
NONAME
47 49 1 0 0 
SMALL
USER_CHARGES


@<TRIPOS>ATOM
  1 CL       1.4760     1.0940     3.8530 Cl    1 <1>  -0.1770 
  2 C        2.3840     1.6190     2.4600 C.ar  1 <1>   0.1770 
  3 C        2.7950     2.9340     2.3720 C.ar  1 <1>  -0.1500 
  4 C        2.6820     0.7130     1.4610 C.ar  1 <1>  -0.1500 
  5 C        3.5180     3.3440     1.2630 C.ar  1 <1>  -0.1500 
  6 C        3.4060     1.1350     0.3580 C.ar  1 <1>  -0.1500 
  7 C        3.8390     2.4540     0.2410 C.ar  1 <1>  -0.0090 
  8 S        4.7870     3.0070    -1.2060 S.o2  1 <1>   1.4470 
  9 O        5.3600     1.8690    -1.8930 O.2   1 <1>  -0.6500 
 10 O        3.9960     3.9600    -1.9520 O.2   1 <1>  -0.6500 
 11 N        6.0850     3.8550    -0.5170 N.am  1 <1>  -0.8490 
 12 C        6.7300     4.7330    -1.4970 C.3   1 <1>   0.1960 
 13 C        7.0500     2.9560     0.1240 C.3   1 <1>   0.1960 
 14 C        7.7970     5.5960    -0.8170 C.3   1 <1>  -0.1600 
 15 C        8.1140     3.7650     0.8670 C.3   1 <1>  -0.1600 
 16 C        8.8380     4.7340    -0.0840 C.3   1 <1>  -0.0190 
 17 C        9.8610     5.5990     0.6520 C.2   1 <1>   0.5690 
 18 O        9.4970     6.2440     1.6040 O.2   1 <1>  -0.5700 
 19 N       11.1490     5.5890     0.1880 N.am  1 <1>  -0.5470 
 20 C       12.3000     6.2690     0.6180 C.ar  1 <1>   0.1170 
 21 C       13.5410     5.7950     0.2060 C.ar  1 <1>  -0.1500 
 22 C       12.2630     7.4050     1.4220 C.ar  1 <1>  -0.1500 
 23 C       14.7150     6.4240     0.5830 C.ar  1 <1>  -0.1430 
 24 C       13.4300     8.0390     1.8040 C.ar  1 <1>  -0.1500 
 25 C       14.6550     7.5510     1.3850 C.ar  1 <1>  -0.1500 
 26 C       16.0630     5.8940     0.1270 C.3   1 <1>  -0.0970 
 27 H        2.5510     3.6250     3.1600 H     1 <1>   0.1500 
 28 H        2.3510    -0.3070     1.5480 H     1 <1>   0.1500 
 29 H        3.8410     4.3700     1.1870 H     1 <1>   0.1500 
 30 H        3.6390     0.4310    -0.4250 H     1 <1>   0.1500 
 31 H        5.9960     5.3860    -1.9400 H     1 <1>   0.0800 
 32 H        7.1700     4.1410    -2.2830 H     1 <1>   0.0800 
 33 H        7.5180     2.3280    -0.6170 H     1 <1>   0.0800 
 34 H        6.5420     2.3200     0.8300 H     1 <1>   0.0800 
 35 H        7.3120     6.2540    -0.1160 H     1 <1>   0.0800 
 36 H        8.2840     6.2080    -1.5550 H     1 <1>   0.0800 
 37 H        8.8260     3.0960     1.3150 H     1 <1>   0.0800 
 38 H        7.6390     4.3170     1.6610 H     1 <1>   0.0800 
 39 H        9.3570     4.1450    -0.8190 H     1 <1>   0.0800 
 40 H       11.3180     4.9570    -0.5900 H     1 <1>   0.3700 
 41 H       13.5890     4.9210    -0.4150 H     1 <1>   0.1500 
 42 H       11.3230     7.8040     1.7540 H     1 <1>   0.1500 
 43 H       13.3850     8.9150     2.4270 H     1 <1>   0.1500 
 44 H       15.5590     8.0520     1.6860 H     1 <1>   0.1500 
 45 H       15.9770     4.8860    -0.2370 H     1 <1>   0.0800 
 46 H       16.7590     5.8990     0.9480 H     1 <1>   0.0800 
 47 H       16.4500     6.5150    -0.6600 H     1 <1>   0.0800 
@<TRIPOS>BOND
  1   1   2  1   
  2   2   3  ar  
  3   2   4  ar  
  4   3   5  ar  
  5   3  27  1   
  6   4   6  ar  
  7   4  28  1   
  8   5   7  ar  
  9   5  29  1   
 10   6   7  ar  
 11   6  30  1   
 12   7   8  1   
 13   8   9  2   
 14   8  10  2   
 15   8  11  am  
 16  11  12  1   
 17  11  13  1   
 18  12  14  1   
 19  12  31  1   
 20  12  32  1   
 21  13  15  1   
 22  13  33  1   
 23  13  34  1   
 24  14  16  1   
 25  14  35  1   
 26  14  36  1   
 27  15  16  1   
 28  15  37  1   
 29  15  38  1   
 30  16  17  1   
 31  16  39  1   
 32  17  18  2   
 33  17  19  am  
 34  19  20  1   
 35  19  40  1   
 36  20  21  ar  
 37  20  22  ar  
 38  21  23  ar  
 39  21  41  1   
 40  22  24  ar  
 41  22  42  1   
 42  23  25  ar  
 43  23  26  1   
 44  24  25  ar  
 45  24  43  1   
 46  25  44  1   
 47  26  45  1   
 48  26  46  1   
 49  26  47  1   
@<TRIPOS>SUBSTRUCTURE
  1 ****  15 GROUP 4 **** **** 0

# MOE 2024.06 (io_trps.svl 2023.06)
