@<TRIPOS>MOLECULE
NONAME
37 37 1 0 0 
SMALL
USER_CHARGES


@<TRIPOS>ATOM
  1 O       -5.5720     2.7690    -0.0160 O.3   1 <1>  -0.3630 
  2 C       -4.3530     2.1740    -0.1260 C.ar  1 <1>   0.0830 
  3 C       -6.7610     2.0280     0.0740 C.3   1 <1>   0.1200 
  4 C       -3.2240     2.9930    -0.2090 C.ar  1 <1>  -0.1440 
  5 C       -4.2080     0.7870    -0.1570 C.ar  1 <1>  -0.1500 
  6 C       -7.9060     3.0360     0.1850 C.3   1 <1>   0.3430 
  7 C       -1.9740     2.3980    -0.3220 C.ar  1 <1>  -0.1500 
  8 C       -3.3210     4.5240    -0.1810 C.3   1 <1>   0.0640 
  9 C       -2.9540     0.2160    -0.2690 C.ar  1 <1>  -0.1500 
 10 N       -9.2360     2.3610     0.2880 N.4   1 <1>  -0.9060 
 11 C       -1.8360     1.0220    -0.3520 C.ar  1 <1>  -0.1500 
 12 C       -2.7870     5.1330    -1.4820 C.3   1 <1>  -0.2400 
 13 C       -2.5780     5.0990     1.0300 C.3   1 <1>  -0.2400 
 14 C      -10.3430     3.3360     0.3940 C.3   1 <1>   0.3430 
 15 C      -11.6480     2.5600     0.4940 C.3   1 <1>  -0.2400 
 16 H       -6.7010     1.4090     0.9530 H     1 <1>   0.0800 
 17 H       -6.8510     1.4330    -0.8180 H     1 <1>   0.0800 
 18 H       -5.0490     0.1260    -0.0960 H     1 <1>   0.1500 
 19 H       -7.8890     3.6710    -0.6860 H     1 <1>   0.0800 
 20 H       -7.7420     3.6480     1.0570 H     1 <1>   0.0800 
 21 H       -1.0890     3.0050    -0.3880 H     1 <1>   0.1500 
 22 H       -4.3490     4.8270    -0.0910 H     1 <1>   0.0800 
 23 H       -2.8440    -0.8540    -0.2930 H     1 <1>   0.1500 
 24 H       -9.2580     1.7460     1.1110 H     1 <1>   0.4500 
 25 H       -9.3970     1.7680    -0.5370 H     1 <1>   0.4500 
 26 H       -0.8580     0.5820    -0.4400 H     1 <1>   0.1500 
 27 H       -1.7380     4.9330    -1.6000 H     1 <1>   0.0800 
 28 H       -2.9340     6.1980    -1.4830 H     1 <1>   0.0800 
 29 H       -3.3110     4.7130    -2.3230 H     1 <1>   0.0800 
 30 H       -1.5240     4.8980     0.9670 H     1 <1>   0.0800 
 31 H       -2.9560     4.6560     1.9340 H     1 <1>   0.0800 
 32 H       -2.7200     6.1630     1.0840 H     1 <1>   0.0800 
 33 H      -10.3640     3.9760    -0.4750 H     1 <1>   0.0800 
 34 H      -10.2160     3.9520     1.2710 H     1 <1>   0.0800 
 35 H      -11.8090     1.9600    -0.3840 H     1 <1>   0.0800 
 36 H      -12.4670     3.2540     0.5720 H     1 <1>   0.0800 
 37 H      -11.6610     1.9360     1.3690 H     1 <1>   0.0800 
@<TRIPOS>BOND
  1   1   2  1   
  2   1   3  1   
  3   2   4  ar  
  4   2   5  ar  
  5   3   6  1   
  6   3  16  1   
  7   3  17  1   
  8   4   7  ar  
  9   4   8  1   
 10   5   9  ar  
 11   5  18  1   
 12   6  10  1   
 13   6  19  1   
 14   6  20  1   
 15   7  11  ar  
 16   7  21  1   
 17   8  12  1   
 18   8  13  1   
 19   8  22  1   
 20   9  11  ar  
 21   9  23  1   
 22  10  14  1   
 23  10  24  1   
 24  10  25  1   
 25  11  26  1   
 26  12  27  1   
 27  12  28  1   
 28  12  29  1   
 29  13  30  1   
 30  13  31  1   
 31  13  32  1   
 32  14  15  1   
 33  14  33  1   
 34  14  34  1   
 35  15  35  1   
 36  15  36  1   
 37  15  37  1   
@<TRIPOS>SUBSTRUCTURE
  1 ****   1 GROUP 4 **** **** 0

# MOE 2024.06 (io_trps.svl 2023.06)
