@<TRIPOS>MOLECULE
NONAME
52 54 1 0 0 
SMALL
USER_CHARGES


@<TRIPOS>ATOM
  1 O       -1.4590    -0.7480    -0.6610 O.2   1 <1>  -0.5700 
  2 C       -1.3890    -1.2270     0.4550 C.2   1 <1>   0.6900 
  3 N       -2.4990    -1.2010     1.2460 N.am  1 <1>  -0.6600 
  4 N       -0.2830    -1.8540     0.9370 N.am  1 <1>  -0.5470 
  5 C       -3.3490     0.0250     1.1940 C.3   1 <1>   0.1400 
  6 C       -3.3000    -2.4550     1.3000 C.3   1 <1>   0.1400 
  7 C        0.9380    -2.2110     0.3460 C.ar  1 <1>   0.1170 
  8 C       -4.3010    -0.0290    -0.0190 C.3   1 <1>   0.3430 
  9 C       -4.2380    -2.5280     0.0770 C.3   1 <1>   0.3430 
 10 C        1.7330    -3.1450     0.9960 C.ar  1 <1>  -0.1500 
 11 C        1.3990    -1.6760    -0.8550 C.ar  1 <1>  -0.1500 
 12 N       -5.1090    -1.3010    -0.0520 N.4   1 <1>  -0.9590 
 13 C        2.9480    -3.5500     0.4720 C.ar  1 <1>   0.0820 
 14 C        2.6120    -2.0730    -1.3890 C.ar  1 <1>  -0.1500 
 15 C       -5.9420    -1.3700    -1.2830 C.3   1 <1>   0.4860 
 16 O        3.6410    -4.4710     1.1860 O.3   1 <1>  -0.3630 
 17 C        3.3900    -3.0090    -0.7320 C.ar  1 <1>  -0.1500 
 18 C       -6.8560    -2.5730    -1.1680 C.ar  1 <1>  -0.1430 
 19 C        4.8880    -4.9560     0.7380 C.3   1 <1>   0.0400 
 20 C       -7.8900    -2.5740    -0.2440 C.ar  1 <1>  -0.1500 
 21 C       -6.6620    -3.6870    -1.9730 C.ar  1 <1>  -0.1500 
 22 C       -8.7130    -3.6770    -0.1040 C.ar  1 <1>   0.0820 
 23 C       -7.4860    -4.7910    -1.8420 C.ar  1 <1>  -0.1500 
 24 O       -9.6840    -3.5880     0.8360 O.3   1 <1>  -0.3630 
 25 C       -8.5080    -4.7930    -0.9100 C.ar  1 <1>  -0.1500 
 26 C      -10.6350    -4.6170     1.0080 C.3   1 <1>   0.0400 
 27 H       -0.3700    -2.1070     1.9180 H     1 <1>   0.3700 
 28 H       -2.7170     0.8930     1.1090 H     1 <1>   0.0800 
 29 H       -3.9110     0.1160     2.1080 H     1 <1>   0.0800 
 30 H       -3.8720    -2.4840     2.2110 H     1 <1>   0.0800 
 31 H       -2.6440    -3.3090     1.2940 H     1 <1>   0.0800 
 32 H       -3.7030     0.0410    -0.9130 H     1 <1>   0.0800 
 33 H       -4.9570     0.8260     0.0070 H     1 <1>   0.0800 
 34 H       -4.8540    -3.4100     0.1570 H     1 <1>   0.0800 
 35 H       -3.6280    -2.6300    -0.8070 H     1 <1>   0.0800 
 36 H        1.4140    -3.5750     1.9260 H     1 <1>   0.1500 
 37 H        0.8200    -0.9420    -1.3820 H     1 <1>   0.1500 
 38 H       -5.7600    -1.3070     0.7420 H     1 <1>   0.4500 
 39 H        2.9500    -1.6490    -2.3190 H     1 <1>   0.1500 
 40 H       -5.3140    -1.4630    -2.1550 H     1 <1>   0.0800 
 41 H       -6.5380    -0.4780    -1.3830 H     1 <1>   0.0800 
 42 H        4.3270    -3.3000    -1.1680 H     1 <1>   0.1500 
 43 H        5.2460    -5.6710     1.4560 H     1 <1>   0.0800 
 44 H        5.5760    -4.1330     0.6660 H     1 <1>   0.0800 
 45 H        4.7530    -5.4330    -0.2170 H     1 <1>   0.0800 
 46 H       -8.0860    -1.7230     0.3850 H     1 <1>   0.1500 
 47 H       -5.8750    -3.7110    -2.7080 H     1 <1>   0.1500 
 48 H       -7.3340    -5.6550    -2.4690 H     1 <1>   0.1500 
 49 H       -9.1320    -5.6630    -0.8270 H     1 <1>   0.1500 
 50 H      -11.3210    -4.3140     1.7790 H     1 <1>   0.0800 
 51 H      -10.1280    -5.5180     1.3040 H     1 <1>   0.0800 
 52 H      -11.1670    -4.7600     0.0840 H     1 <1>   0.0800 
@<TRIPOS>BOND
  1   1   2  2   
  2   2   3  am  
  3   2   4  am  
  4   3   5  1   
  5   3   6  1   
  6   4   7  1   
  7   4  27  1   
  8   5   8  1   
  9   5  28  1   
 10   5  29  1   
 11   6   9  1   
 12   6  30  1   
 13   6  31  1   
 14   7  10  ar  
 15   7  11  ar  
 16   8  12  1   
 17   8  32  1   
 18   8  33  1   
 19   9  12  1   
 20   9  34  1   
 21   9  35  1   
 22  10  13  ar  
 23  10  36  1   
 24  11  14  ar  
 25  11  37  1   
 26  12  15  1   
 27  12  38  1   
 28  13  16  1   
 29  13  17  ar  
 30  14  17  ar  
 31  14  39  1   
 32  15  18  1   
 33  15  40  1   
 34  15  41  1   
 35  16  19  1   
 36  17  42  1   
 37  18  20  ar  
 38  18  21  ar  
 39  19  43  1   
 40  19  44  1   
 41  19  45  1   
 42  20  22  ar  
 43  20  46  1   
 44  21  23  ar  
 45  21  47  1   
 46  22  24  1   
 47  22  25  ar  
 48  23  25  ar  
 49  23  48  1   
 50  24  26  1   
 51  25  49  1   
 52  26  50  1   
 53  26  51  1   
 54  26  52  1   
@<TRIPOS>SUBSTRUCTURE
  1 ****   9 GROUP 4 **** **** 0

# MOE 2024.06 (io_trps.svl 2023.06)
