@<TRIPOS>MOLECULE
NONAME
41 43 1 0 0 
SMALL
USER_CHARGES


@<TRIPOS>ATOM
  1 O        0.0580    -0.5370    -1.2370 O.2   1 <1>  -0.5700 
  2 C       -0.0890    -1.6020    -0.6680 C.2   1 <1>   0.5440 
  3 N        1.0170    -2.2180    -0.1190 N.am  1 <1>  -0.6600 
  4 C       -1.4130    -2.1800    -0.5830 C.ar  1 <1>   0.0860 
  5 C        2.4000    -1.7050    -0.3520 C.3   1 <1>   0.1400 
  6 C        0.9660    -3.3180     0.8890 C.3   1 <1>   0.1400 
  7 C       -2.4620    -1.4890     0.0190 C.ar  1 <1>  -0.1500 
  8 C       -1.6990    -3.4420    -1.1060 C.ar  1 <1>  -0.1500 
  9 C        3.3770    -2.8670    -0.5930 C.3   1 <1>   0.1200 
 10 C        2.0200    -4.3930     0.5680 C.3   1 <1>   0.1200 
 11 C       -3.7290    -2.0330     0.1100 C.ar  1 <1>  -0.1500 
 12 C       -2.9650    -3.9880    -1.0200 C.ar  1 <1>  -0.1500 
 13 O        3.2880    -3.8170     0.4340 O.3   1 <1>  -0.5600 
 14 C       -4.0060    -3.2950    -0.4110 C.ar  1 <1>   0.1170 
 15 N       -5.2660    -3.8990    -0.3410 N.am  1 <1>  -0.5470 
 16 C       -6.5290    -3.3780    -0.1640 C.2   1 <1>   0.7150 
 17 O       -6.6890    -2.1730    -0.1330 O.2   1 <1>  -0.5700 
 18 C       -7.6390    -4.2970    -0.0350 C.2   1 <1>   0.0550 
 19 O       -8.8970    -3.8630    -0.0530 O.3   1 <1>  -0.2800 
 20 C       -7.6640    -5.6540     0.1150 C.2   1 <1>  -0.1500 
 21 C       -9.7090    -4.8850     0.0760 C.2   1 <1>  -0.0400 
 22 C       -9.0060    -6.0300     0.1850 C.2   1 <1>  -0.1500 
 23 C      -11.2000    -4.6310     0.0830 C.3   1 <1>  -0.0600 
 24 H        2.7180    -1.1420     0.5080 H     1 <1>   0.0800 
 25 H        2.4190    -1.0480    -1.2050 H     1 <1>   0.0800 
 26 H       -0.0080    -3.7700     0.9230 H     1 <1>   0.0800 
 27 H        1.1730    -2.9090     1.8620 H     1 <1>   0.0800 
 28 H       -2.2720    -0.5060     0.4160 H     1 <1>   0.1500 
 29 H       -0.9090    -3.9890    -1.5920 H     1 <1>   0.1500 
 30 H        4.3880    -2.5020    -0.6160 H     1 <1>   0.0800 
 31 H        3.1630    -3.3510    -1.5300 H     1 <1>   0.0800 
 32 H        1.7750    -4.9040    -0.3470 H     1 <1>   0.0800 
 33 H        2.0700    -5.1130     1.3650 H     1 <1>   0.0800 
 34 H       -4.5040    -1.4650     0.5900 H     1 <1>   0.1500 
 35 H       -3.1480    -4.9610    -1.4380 H     1 <1>   0.1500 
 36 H       -5.2720    -4.8980    -0.5240 H     1 <1>   0.3700 
 37 H       -6.8400    -6.3400     0.1780 H     1 <1>   0.1500 
 38 H       -9.3750    -7.0340     0.3030 H     1 <1>   0.1500 
 39 H      -11.4930    -4.1650    -0.8410 H     1 <1>   0.0800 
 40 H      -11.4520    -3.9760     0.8970 H     1 <1>   0.0800 
 41 H      -11.7370    -5.5550     0.1960 H     1 <1>   0.0800 
@<TRIPOS>BOND
  1   1   2  2   
  2   2   3  am  
  3   2   4  1   
  4   3   5  1   
  5   3   6  1   
  6   4   7  ar  
  7   4   8  ar  
  8   5   9  1   
  9   5  24  1   
 10   5  25  1   
 11   6  10  1   
 12   6  26  1   
 13   6  27  1   
 14   7  11  ar  
 15   7  28  1   
 16   8  12  ar  
 17   8  29  1   
 18   9  13  1   
 19   9  30  1   
 20   9  31  1   
 21  10  13  1   
 22  10  32  1   
 23  10  33  1   
 24  11  14  ar  
 25  11  34  1   
 26  12  14  ar  
 27  12  35  1   
 28  14  15  1   
 29  15  16  am  
 30  15  36  1   
 31  16  17  2   
 32  16  18  1   
 33  18  19  1   
 34  18  20  2   
 35  19  21  1   
 36  20  22  1   
 37  20  37  1   
 38  21  22  2   
 39  21  23  1   
 40  22  38  1   
 41  23  39  1   
 42  23  40  1   
 43  23  41  1   
@<TRIPOS>SUBSTRUCTURE
  1 ****  14 GROUP 4 **** **** 0

# MOE 2024.06 (io_trps.svl 2023.06)
