@<TRIPOS>MOLECULE
NONAME
30 31 1 0 0 
SMALL
USER_CHARGES


@<TRIPOS>ATOM
  1 BR       2.2680    -0.5250    -2.7050 Br    1 <1>  -0.1110 
  2 C        2.3680     0.8730    -1.3820 C.ar  1 <1>   0.1110 
  3 C        2.6890     0.5880    -0.0580 C.ar  1 <1>  -0.0090 
  4 C        2.1040     2.1530    -1.8360 C.ar  1 <1>  -0.1500 
  5 S        3.0400    -1.0940     0.5160 S.o2  1 <1>   1.4470 
  6 C        2.7350     1.6660     0.8240 C.ar  1 <1>  -0.1500 
  7 C        2.1620     3.1910    -0.9290 C.ar  1 <1>   0.1770 
  8 O        1.9330    -1.9600     0.1760 O.2   1 <1>  -0.6500 
  9 O        3.4760    -1.0430     1.8960 O.2   1 <1>  -0.6500 
 10 N        4.3910    -1.5580    -0.3970 N.am  1 <1>  -0.8490 
 11 C        2.4750     2.9600     0.3980 C.ar  1 <1>  -0.1500 
 12 CL       1.8370     4.8180    -1.4640 Cl    1 <1>  -0.1770 
 13 C        5.6300    -0.9350     0.0770 C.3   1 <1>   0.1960 
 14 C        4.5240    -3.0160    -0.4690 C.3   1 <1>   0.1960 
 15 C        6.7770    -1.2350    -0.8930 C.3   1 <1>  -0.1600 
 16 C        5.6410    -3.4000    -1.4450 C.3   1 <1>  -0.1600 
 17 C        6.9750    -2.7460    -1.0650 C.3   1 <1>  -0.1600 
 18 H        1.8590     2.3370    -2.8660 H     1 <1>   0.1500 
 19 H        2.9750     1.4930     1.8610 H     1 <1>   0.1500 
 20 H        2.5120     3.7860     1.0870 H     1 <1>   0.1500 
 21 H        5.8770    -1.3060     1.0590 H     1 <1>   0.0800 
 22 H        5.4990     0.1320     0.1430 H     1 <1>   0.0800 
 23 H        3.6020    -3.4510    -0.8210 H     1 <1>   0.0800 
 24 H        4.7300    -3.4140     0.5120 H     1 <1>   0.0800 
 25 H        7.6840    -0.7920    -0.5230 H     1 <1>   0.0800 
 26 H        6.5540    -0.7860    -1.8450 H     1 <1>   0.0800 
 27 H        5.3530    -3.0900    -2.4340 H     1 <1>   0.0800 
 28 H        5.7520    -4.4700    -1.4560 H     1 <1>   0.0800 
 29 H        7.3300    -3.1690    -0.1410 H     1 <1>   0.0800 
 30 H        7.7100    -2.9380    -1.8270 H     1 <1>   0.0800 
@<TRIPOS>BOND
  1   1   2  1   
  2   2   3  ar  
  3   2   4  ar  
  4   3   5  1   
  5   3   6  ar  
  6   4   7  ar  
  7   4  18  1   
  8   5   8  2   
  9   5   9  2   
 10   5  10  am  
 11   6  11  ar  
 12   6  19  1   
 13   7  11  ar  
 14   7  12  1   
 15  10  13  1   
 16  10  14  1   
 17  11  20  1   
 18  13  15  1   
 19  13  21  1   
 20  13  22  1   
 21  14  16  1   
 22  14  23  1   
 23  14  24  1   
 24  15  17  1   
 25  15  25  1   
 26  15  26  1   
 27  16  17  1   
 28  16  27  1   
 29  16  28  1   
 30  17  29  1   
 31  17  30  1   
@<TRIPOS>SUBSTRUCTURE
  1 ****   3 GROUP 4 **** **** 0

# MOE 2024.06 (io_trps.svl 2023.06)
