@<TRIPOS>MOLECULE
NONAME
42 43 1 0 0 
SMALL
USER_CHARGES


@<TRIPOS>ATOM
  1 O        0.2940     0.4140     0.3040 O.2   1 <1>  -0.5700 
  2 C        0.2160     1.5610    -0.0850 C.2   1 <1>   0.7800 
  3 O       -0.9430     2.2140    -0.0230 O.3   1 <1>  -0.4300 
  4 N        1.3030     2.2390    -0.5750 N.am  1 <1>  -0.6600 
  5 C       -2.1050     1.5760     0.4580 C.3   1 <1>   0.1200 
  6 C        1.2780     3.6910    -0.9150 C.3   1 <1>   0.1400 
  7 C        2.6440     1.5930    -0.6680 C.3   1 <1>   0.1400 
  8 C       -3.2520     2.5810     0.4060 C.3   1 <1>  -0.2400 
  9 C        2.3370     4.4520    -0.0940 C.3   1 <1>   0.3430 
 10 C        3.6780     2.3820     0.1550 C.3   1 <1>   0.3430 
 11 N        3.7170     3.8470    -0.2230 N.4   1 <1>  -0.9590 
 12 C        4.7260     4.6020     0.5740 C.3   1 <1>   0.4230 
 13 C        4.8840     6.0460     0.0720 C.3   1 <1>  -0.1600 
 14 C        6.1210     3.9710     0.4560 C.3   1 <1>  -0.1600 
 15 C        6.3250     6.1890    -0.4240 C.3   1 <1>  -0.0800 
 16 C        7.0980     5.1390     0.3620 C.3   1 <1>  -0.1600 
 17 C        6.8860     7.6010    -0.2410 C.3   1 <1>  -0.2400 
 18 H       -1.9240     1.2480     1.4680 H     1 <1>   0.0800 
 19 H       -2.3110     0.7230    -0.1670 H     1 <1>   0.0800 
 20 H        0.3090     4.1150    -0.7130 H     1 <1>   0.0800 
 21 H        1.4720     3.8120    -1.9660 H     1 <1>   0.0800 
 22 H        2.9480     1.5510    -1.6990 H     1 <1>   0.0800 
 23 H        2.6040     0.5800    -0.3020 H     1 <1>   0.0800 
 24 H       -3.0320     3.4300     1.0270 H     1 <1>   0.0800 
 25 H       -4.1530     2.1180     0.7670 H     1 <1>   0.0800 
 26 H       -3.4170     2.9040    -0.6060 H     1 <1>   0.0800 
 27 H        2.0340     4.4400     0.9400 H     1 <1>   0.0800 
 28 H        2.3480     5.4790    -0.4180 H     1 <1>   0.0800 
 29 H        4.6470     1.9340     0.0070 H     1 <1>   0.0800 
 30 H        3.4270     2.2830     1.1980 H     1 <1>   0.0800 
 31 H        4.0050     3.9120    -1.2060 H     1 <1>   0.4500 
 32 H        4.4340     4.6240     1.6130 H     1 <1>   0.0800 
 33 H        4.7310     6.7060     0.9090 H     1 <1>   0.0800 
 34 H        4.2010     6.3210    -0.7110 H     1 <1>   0.0800 
 35 H        6.2100     3.3950    -0.4480 H     1 <1>   0.0800 
 36 H        6.3500     3.3510     1.3050 H     1 <1>   0.0800 
 37 H        6.3630     5.9300    -1.4710 H     1 <1>   0.0800 
 38 H        8.0180     4.8650    -0.1280 H     1 <1>   0.0800 
 39 H        7.3240     5.5070     1.3500 H     1 <1>   0.0800 
 40 H        6.8780     7.8910     0.7960 H     1 <1>   0.0800 
 41 H        6.3040     8.3120    -0.8010 H     1 <1>   0.0800 
 42 H        7.9010     7.6440    -0.5960 H     1 <1>   0.0800 
@<TRIPOS>BOND
  1   1   2  2   
  2   2   3  1   
  3   2   4  am  
  4   3   5  1   
  5   4   6  1   
  6   4   7  1   
  7   5   8  1   
  8   5  18  1   
  9   5  19  1   
 10   6   9  1   
 11   6  20  1   
 12   6  21  1   
 13   7  10  1   
 14   7  22  1   
 15   7  23  1   
 16   8  24  1   
 17   8  25  1   
 18   8  26  1   
 19   9  11  1   
 20   9  27  1   
 21   9  28  1   
 22  10  11  1   
 23  10  29  1   
 24  10  30  1   
 25  11  12  1   
 26  11  31  1   
 27  12  13  1   
 28  12  14  1   
 29  12  32  1   
 30  13  15  1   
 31  13  33  1   
 32  13  34  1   
 33  14  16  1   
 34  14  35  1   
 35  14  36  1   
 36  15  16  1   
 37  15  17  1   
 38  15  37  1   
 39  16  38  1   
 40  16  39  1   
 41  17  40  1   
 42  17  41  1   
 43  17  42  1   
@<TRIPOS>SUBSTRUCTURE
  1 ****   9 GROUP 4 **** **** 0

# MOE 2024.06 (io_trps.svl 2023.06)
