@<TRIPOS>MOLECULE
NONAME
39 41 1 0 0 
SMALL
USER_CHARGES


@<TRIPOS>ATOM
  1 CL       0.0330    -0.1400     0.2280 Cl    1 <1>  -0.1770 
  2 C        1.5710    -0.9620     0.1180 C.ar  1 <1>   0.1770 
  3 C        1.9960    -1.4450    -1.1050 C.ar  1 <1>  -0.1500 
  4 C        2.3400    -1.1160     1.2570 C.ar  1 <1>  -0.1500 
  5 C        3.2160    -2.0950    -1.1870 C.ar  1 <1>  -0.1500 
  6 C        3.5580    -1.7670     1.1660 C.ar  1 <1>  -0.1500 
  7 C        4.0070    -2.2620    -0.0560 C.ar  1 <1>   0.1000 
  8 N        5.2260    -2.9200    -0.1680 N.pl3 1 <1>  -0.8380 
  9 C        5.3020    -4.2800     0.4380 C.3   1 <1>   0.2090 
 10 C        6.4500    -2.0870     0.0210 C.3   1 <1>   0.2090 
 11 C        6.5640    -5.0240    -0.0510 C.3   1 <1>   0.3430 
 12 C        7.7030    -2.8450    -0.4630 C.3   1 <1>   0.3430 
 13 N        7.8290    -4.2230     0.1540 N.4   1 <1>  -0.9590 
 14 C        9.0250    -4.9520    -0.3580 C.3   1 <1>   0.4860 
 15 C       10.2720    -4.1660    -0.0120 C.ar  1 <1>  -0.1430 
 16 C       10.7630    -4.1760     1.2850 C.ar  1 <1>   0.1600 
 17 C       10.9370    -3.4260    -0.9720 C.ar  1 <1>  -0.1500 
 18 N       11.8200    -3.5010     1.6940 N.ar  1 <1>  -0.6200 
 19 C       12.0520    -2.7260    -0.5590 C.ar  1 <1>  -0.1500 
 20 C       12.4450    -2.7940     0.7660 C.ar  1 <1>   0.1600 
 21 H        1.3800    -1.3120    -1.9760 H     1 <1>   0.1500 
 22 H        1.9840    -0.7300     2.1950 H     1 <1>   0.1500 
 23 H        3.5620    -2.4760    -2.1290 H     1 <1>   0.1500 
 24 H        4.1610    -1.8900     2.0460 H     1 <1>   0.1500 
 25 H        4.4250    -4.8400     0.1570 H     1 <1>   0.0800 
 26 H        5.3130    -4.1990     1.5110 H     1 <1>   0.0800 
 27 H        6.5560    -1.8260     1.0600 H     1 <1>   0.0800 
 28 H        6.3460    -1.1730    -0.5390 H     1 <1>   0.0800 
 29 H        6.4360    -5.2320    -1.1010 H     1 <1>   0.0800 
 30 H        6.6350    -5.9660     0.4660 H     1 <1>   0.0800 
 31 H        8.5760    -2.2560    -0.2300 H     1 <1>   0.0800 
 32 H        7.6430    -2.9340    -1.5350 H     1 <1>   0.0800 
 33 H        7.9560    -4.0800     1.1630 H     1 <1>   0.4500 
 34 H        8.9570    -5.0740    -1.4270 H     1 <1>   0.0800 
 35 H        9.0850    -5.9300     0.0910 H     1 <1>   0.0800 
 36 H       10.2680    -4.7660     2.0380 H     1 <1>   0.1500 
 37 H       10.6210    -3.3860    -2.0010 H     1 <1>   0.1500 
 38 H       12.6190    -2.1320    -1.2540 H     1 <1>   0.1500 
 39 H       13.3170    -2.2430     1.0790 H     1 <1>   0.1500 
@<TRIPOS>BOND
  1   1   2  1   
  2   2   3  ar  
  3   2   4  ar  
  4   3   5  ar  
  5   3  21  1   
  6   4   6  ar  
  7   4  22  1   
  8   5   7  ar  
  9   5  23  1   
 10   6   7  ar  
 11   6  24  1   
 12   7   8  1   
 13   8   9  1   
 14   8  10  1   
 15   9  11  1   
 16   9  25  1   
 17   9  26  1   
 18  10  12  1   
 19  10  27  1   
 20  10  28  1   
 21  11  13  1   
 22  11  29  1   
 23  11  30  1   
 24  12  13  1   
 25  12  31  1   
 26  12  32  1   
 27  13  14  1   
 28  13  33  1   
 29  14  15  1   
 30  14  34  1   
 31  14  35  1   
 32  15  16  ar  
 33  15  17  ar  
 34  16  18  ar  
 35  16  36  1   
 36  17  19  ar  
 37  17  37  1   
 38  18  20  ar  
 39  19  20  ar  
 40  19  38  1   
 41  20  39  1   
@<TRIPOS>SUBSTRUCTURE
  1 ****  10 GROUP 4 **** **** 0

# MOE 2024.06 (io_trps.svl 2023.06)
