@<TRIPOS>MOLECULE
NONAME
36 37 1 0 0 
SMALL
USER_CHARGES


@<TRIPOS>ATOM
  1 CL      -0.6090     0.5720    -1.2980 Cl    1 <1>  -0.1770 
  2 C       -1.4590    -0.8360    -0.6930 C.ar  1 <1>   0.1770 
  3 C       -0.8590    -2.0980    -0.6150 C.ar  1 <1>   0.0830 
  4 C       -2.7750    -0.6510    -0.3120 C.ar  1 <1>  -0.1500 
  5 O        0.4250    -2.3700    -0.9590 O.3   1 <1>  -0.3630 
  6 C       -1.6120    -3.1750    -0.1670 C.ar  1 <1>  -0.1500 
  7 C       -3.4970    -1.7380     0.1410 C.ar  1 <1>   0.1770 
  8 C        1.4710    -1.5460    -0.4930 C.3   1 <1>   0.1200 
  9 C       -2.9320    -2.9980     0.2150 C.ar  1 <1>  -0.1500 
 10 CL      -5.1590    -1.5160     0.6270 Cl    1 <1>  -0.1770 
 11 C        2.7130    -2.4180    -0.3050 C.3   1 <1>  -0.1600 
 12 C        3.9060    -1.5900     0.1970 C.3   1 <1>  -0.0990 
 13 C        5.1490    -2.4370     0.3740 C.2   1 <1>   0.5390 
 14 O        5.1130    -3.3660     1.3250 O.3   1 <1>  -0.4300 
 15 N        6.2110    -2.3470    -0.2880 N.2   1 <1>  -0.6960 
 16 C        6.3480    -4.0350     1.3220 C.3   1 <1>   0.1200 
 17 C        7.1370    -3.3390     0.1980 C.3   1 <1>   0.2460 
 18 C        8.3840    -2.6220     0.7150 C.3   1 <1>  -0.2400 
 19 C        7.4750    -4.2850    -0.9530 C.3   1 <1>  -0.2400 
 20 H       -3.2320     0.3190    -0.3710 H     1 <1>   0.1500 
 21 H       -1.1570    -4.1490    -0.1180 H     1 <1>   0.1500 
 22 H        1.1750    -1.0980     0.4410 H     1 <1>   0.0800 
 23 H        1.6550    -0.7840    -1.2290 H     1 <1>   0.0800 
 24 H       -3.5200    -3.8280     0.5670 H     1 <1>   0.1500 
 25 H        2.9710    -2.8730    -1.2460 H     1 <1>   0.0800 
 26 H        2.4940    -3.1960     0.4060 H     1 <1>   0.0800 
 27 H        3.6710    -1.1340     1.1420 H     1 <1>   0.0800 
 28 H        4.1280    -0.8090    -0.5080 H     1 <1>   0.0800 
 29 H        6.1790    -5.0770     1.1180 H     1 <1>   0.0800 
 30 H        6.8120    -3.9140     2.2840 H     1 <1>   0.0800 
 31 H        8.1220    -1.9300     1.4960 H     1 <1>   0.0800 
 32 H        8.8560    -2.0800    -0.0850 H     1 <1>   0.0800 
 33 H        9.0870    -3.3340     1.1070 H     1 <1>   0.0800 
 34 H        6.5820    -4.7480    -1.3320 H     1 <1>   0.0800 
 35 H        8.1460    -5.0550    -0.6180 H     1 <1>   0.0800 
 36 H        7.9490    -3.7410    -1.7510 H     1 <1>   0.0800 
@<TRIPOS>BOND
  1   1   2  1   
  2   2   3  ar  
  3   2   4  ar  
  4   3   5  1   
  5   3   6  ar  
  6   4   7  ar  
  7   4  20  1   
  8   5   8  1   
  9   6   9  ar  
 10   6  21  1   
 11   7   9  ar  
 12   7  10  1   
 13   8  11  1   
 14   8  22  1   
 15   8  23  1   
 16   9  24  1   
 17  11  12  1   
 18  11  25  1   
 19  11  26  1   
 20  12  13  1   
 21  12  27  1   
 22  12  28  1   
 23  13  14  1   
 24  13  15  2   
 25  14  16  1   
 26  15  17  1   
 27  16  17  1   
 28  16  29  1   
 29  16  30  1   
 30  17  18  1   
 31  17  19  1   
 32  18  31  1   
 33  18  32  1   
 34  18  33  1   
 35  19  34  1   
 36  19  35  1   
 37  19  36  1   
@<TRIPOS>SUBSTRUCTURE
  1 ****  11 GROUP 4 **** **** 0

# MOE 2024.06 (io_trps.svl 2023.06)
