@<TRIPOS>MOLECULE
NONAME
31 31 1 0 0 
SMALL
USER_CHARGES


@<TRIPOS>ATOM
  1 F        0.8370     2.1290     2.5340 F     1 <1>  -0.3400 
  2 C        0.0470     1.5720     1.6280 C.3   1 <1>   1.0200 
  3 F        0.2900     0.2660     1.7160 F     1 <1>  -0.3400 
  4 F       -1.1930     1.7190     2.0810 F     1 <1>  -0.3400 
  5 C        0.2360     2.0720     0.1590 C.3   1 <1>   0.3000 
  6 N        1.6380     1.8000    -0.4050 N.am  1 <1>  -0.7300 
  7 C       -0.2400     3.5690     0.1560 C.3   1 <1>   1.0200 
  8 C       -0.6550     1.2380    -0.8090 C.3   1 <1>  -0.2400 
  9 C        2.7730     2.4620    -0.0880 C.2   1 <1>   0.6900 
 10 F       -1.5660     3.6750     0.1840 F     1 <1>  -0.3400 
 11 F        0.1190     4.1960    -0.9610 F     1 <1>  -0.3400 
 12 F        0.1800     4.3350     1.1540 F     1 <1>  -0.3400 
 13 O        2.7310     3.3790     0.6970 O.2   1 <1>  -0.5700 
 14 N        3.9250     2.0500    -0.6790 N.am  1 <1>  -0.5470 
 15 C        5.2670     2.4380    -0.5240 C.ar  1 <1>   0.1170 
 16 C        6.1900     2.0220    -1.4880 C.ar  1 <1>   0.0820 
 17 C        5.7310     3.2030     0.5410 C.ar  1 <1>  -0.1500 
 18 O        5.7800     1.2650    -2.5330 O.3   1 <1>  -0.5320 
 19 C        7.5280     2.3670    -1.3960 C.ar  1 <1>  -0.1500 
 20 C        7.0680     3.5500     0.6360 C.ar  1 <1>  -0.1500 
 21 C        7.9670     3.1350    -0.3310 C.ar  1 <1>  -0.1500 
 22 H        1.7440     0.9080    -0.8860 H     1 <1>   0.3700 
 23 H       -0.3520     0.2060    -0.8250 H     1 <1>   0.0800 
 24 H       -0.5960     1.6340    -1.8080 H     1 <1>   0.0800 
 25 H       -1.6890     1.2630    -0.5070 H     1 <1>   0.0800 
 26 H        3.8110     1.4430    -1.4880 H     1 <1>   0.3700 
 27 H        5.0530     3.5340     1.3060 H     1 <1>   0.1500 
 28 H        6.5080     1.0570    -3.1460 H     1 <1>   0.4500 
 29 H        8.2320     2.0470    -2.1420 H     1 <1>   0.1500 
 30 H        7.4060     4.1460     1.4670 H     1 <1>   0.1500 
 31 H        9.0050     3.4090    -0.2520 H     1 <1>   0.1500 
@<TRIPOS>BOND
  1   1   2  1   
  2   2   3  1   
  3   2   4  1   
  4   2   5  1   
  5   5   6  1   
  6   5   7  1   
  7   5   8  1   
  8   6   9  am  
  9   6  22  1   
 10   7  10  1   
 11   7  11  1   
 12   7  12  1   
 13   8  23  1   
 14   8  24  1   
 15   8  25  1   
 16   9  13  2   
 17   9  14  am  
 18  14  15  1   
 19  14  26  1   
 20  15  16  ar  
 21  15  17  ar  
 22  16  18  1   
 23  16  19  ar  
 24  17  20  ar  
 25  17  27  1   
 26  18  28  1   
 27  19  21  ar  
 28  19  29  1   
 29  20  21  ar  
 30  20  30  1   
 31  21  31  1   
@<TRIPOS>SUBSTRUCTURE
  1 ****   9 GROUP 4 **** **** 0

# MOE 2024.06 (io_trps.svl 2023.06)
