@<TRIPOS>MOLECULE
NONAME
47 48 1 0 0 
SMALL
USER_CHARGES


@<TRIPOS>ATOM
  1 S       -0.8210     0.8390    -0.9250 S.3   1 <1>  -0.3320 
  2 C        0.8810     0.9120    -0.3910 C.ar  1 <1>   0.7220 
  3 C       -1.7160     2.2060    -0.0160 C.3   1 <1>   0.2110 
  4 N        1.6630     0.0150    -0.9640 N.ar  1 <1>  -0.6200 
  5 N        1.1830     1.8370     0.5050 N.ar  1 <1>  -0.6200 
  6 C       -3.0640     1.6890     0.4950 C.2   1 <1>   0.5690 
  7 C       -1.8860     3.3990    -0.9770 C.3   1 <1>  -0.1600 
  8 C        2.9180     0.0580    -0.5840 C.ar  1 <1>   0.1660 
  9 C        2.4440     1.8570     0.8670 C.ar  1 <1>   0.1660 
 10 O       -3.6010     2.2930     1.3940 O.2   1 <1>  -0.5700 
 11 N       -3.6090     0.5750    -0.0880 N.am  1 <1>  -0.5470 
 12 C       -0.5600     4.0580    -1.3860 C.3   1 <1>  -0.2400 
 13 C        3.3610     0.9750     0.3430 C.ar  1 <1>  -0.1500 
 14 C        3.8590    -0.9480    -1.2100 C.3   1 <1>  -0.0970 
 15 C        2.8450     2.8980     1.8900 C.3   1 <1>  -0.0970 
 16 C       -4.8200    -0.1030     0.1340 C.ar  1 <1>   0.1170 
 17 C       -4.9310    -1.4210    -0.2930 C.ar  1 <1>  -0.1500 
 18 C       -5.9210     0.4850     0.7490 C.ar  1 <1>  -0.1500 
 19 C       -6.1050    -2.1310    -0.1120 C.ar  1 <1>  -0.1500 
 20 C       -7.0940    -0.2250     0.9320 C.ar  1 <1>  -0.1500 
 21 C       -7.2020    -1.5390     0.4970 C.ar  1 <1>   0.1170 
 22 N       -8.3800    -2.2750     0.6740 N.am  1 <1>  -0.5470 
 23 C       -9.6590    -1.9910     0.3220 C.2   1 <1>   0.5690 
 24 O      -10.5420    -2.7630     0.5930 O.2   1 <1>  -0.5700 
 25 C      -10.0010    -0.7240    -0.4260 C.3   1 <1>  -0.1790 
 26 H       -1.1310     2.4900     0.8370 H     1 <1>   0.0800 
 27 H       -2.4930     4.1410    -0.4850 H     1 <1>   0.0800 
 28 H       -2.4170     3.0780    -1.8560 H     1 <1>   0.0800 
 29 H       -2.9840     0.1260    -0.7610 H     1 <1>   0.3700 
 30 H       -0.0060     4.3610    -0.5150 H     1 <1>   0.0800 
 31 H       -0.7530     4.9280    -1.9890 H     1 <1>   0.0800 
 32 H        0.0470     3.3800    -1.9610 H     1 <1>   0.0800 
 33 H        4.3910     1.0010     0.6460 H     1 <1>   0.1500 
 34 H        3.5180    -1.9440    -0.9910 H     1 <1>   0.0800 
 35 H        4.8580    -0.8320    -0.8340 H     1 <1>   0.0800 
 36 H        3.8700    -0.8150    -2.2770 H     1 <1>   0.0800 
 37 H        2.2790     2.7530     2.7920 H     1 <1>   0.0800 
 38 H        2.6380     3.8800     1.5060 H     1 <1>   0.0800 
 39 H        3.8920     2.8290     2.1220 H     1 <1>   0.0800 
 40 H       -4.0930    -1.8980    -0.7680 H     1 <1>   0.1500 
 41 H       -5.8680     1.5030     1.0890 H     1 <1>   0.1500 
 42 H       -6.1710    -3.1490    -0.4500 H     1 <1>   0.1500 
 43 H       -7.9260     0.2450     1.4230 H     1 <1>   0.1500 
 44 H       -8.2840    -3.2000     1.0940 H     1 <1>   0.3700 
 45 H       -9.2380    -0.4990    -1.1480 H     1 <1>   0.0800 
 46 H      -10.0940     0.0910     0.2670 H     1 <1>   0.0800 
 47 H      -10.9360    -0.8510    -0.9390 H     1 <1>   0.0800 
@<TRIPOS>BOND
  1   1   2  1   
  2   1   3  1   
  3   2   4  ar  
  4   2   5  ar  
  5   3   6  1   
  6   3   7  1   
  7   3  26  1   
  8   4   8  ar  
  9   5   9  ar  
 10   6  10  2   
 11   6  11  am  
 12   7  12  1   
 13   7  27  1   
 14   7  28  1   
 15   8  13  ar  
 16   8  14  1   
 17   9  13  ar  
 18   9  15  1   
 19  11  16  1   
 20  11  29  1   
 21  12  30  1   
 22  12  31  1   
 23  12  32  1   
 24  13  33  1   
 25  14  34  1   
 26  14  35  1   
 27  14  36  1   
 28  15  37  1   
 29  15  38  1   
 30  15  39  1   
 31  16  17  ar  
 32  16  18  ar  
 33  17  19  ar  
 34  17  40  1   
 35  18  20  ar  
 36  18  41  1   
 37  19  21  ar  
 38  19  42  1   
 39  20  21  ar  
 40  20  43  1   
 41  21  22  1   
 42  22  23  am  
 43  22  44  1   
 44  23  24  2   
 45  23  25  1   
 46  25  45  1   
 47  25  46  1   
 48  25  47  1   
@<TRIPOS>SUBSTRUCTURE
  1 ****  11 GROUP 4 **** **** 0

# MOE 2024.06 (io_trps.svl 2023.06)
