@<TRIPOS>MOLECULE
NONAME
49 51 1 0 0 
SMALL
USER_CHARGES


@<TRIPOS>ATOM
  1 S       -0.2840    -1.6140     0.5050 S.o2  1 <1>   1.4470 
  2 O       -0.3960    -2.5960     1.5570 O.2   1 <1>  -0.6500 
  3 O       -0.8080    -1.8730    -0.8150 O.2   1 <1>  -0.6500 
  4 N       -1.1210    -0.2530     1.1370 N.am  1 <1>  -0.7570 
  5 C        1.4230    -1.0090     0.4180 C.ar  1 <1>  -0.0090 
  6 C       -1.2040     0.9800     0.5140 C.ar  1 <1>   0.1990 
  7 C        2.3970    -1.4630     1.3010 C.ar  1 <1>  -0.1500 
  8 C        1.8040    -0.0560    -0.5200 C.ar  1 <1>  -0.1500 
  9 C       -0.7370     2.1160     1.1630 C.ar  1 <1>  -0.1500 
 10 C       -1.7410     1.1140    -0.7600 C.ar  1 <1>  -0.1500 
 11 C        3.6940    -0.9830     1.2530 C.ar  1 <1>  -0.1500 
 12 C        3.0980     0.4290    -0.5700 C.ar  1 <1>  -0.1500 
 13 C       -0.7870     3.3520     0.5450 C.ar  1 <1>  -0.1500 
 14 C       -1.7920     2.3490    -1.3790 C.ar  1 <1>  -0.1500 
 15 C        4.0650    -0.0240     0.3200 C.ar  1 <1>   0.1170 
 16 C       -1.3110     3.4760    -0.7310 C.ar  1 <1>  -0.1430 
 17 N        5.3870     0.4330     0.2970 N.am  1 <1>  -0.5470 
 18 C       -1.3600     4.8330    -1.4090 C.3   1 <1>  -0.0970 
 19 C        5.9120     1.6290    -0.1030 C.2   1 <1>   0.6900 
 20 O        5.1870     2.5620    -0.3960 O.2   1 <1>  -0.5700 
 21 N        7.2760     1.7740    -0.1380 N.am  1 <1>  -0.6600 
 22 C        8.2210     0.6170    -0.1970 C.3   1 <1>   0.1400 
 23 C        7.8590     3.1390    -0.3050 C.3   1 <1>   0.1400 
 24 C        9.4490     0.9630    -1.0460 C.3   1 <1>  -0.1600 
 25 C        9.2970     3.1810     0.2230 C.3   1 <1>  -0.1600 
 26 C       10.2160     2.1800    -0.4990 C.3   1 <1>  -0.1600 
 27 H       -1.0690    -0.2690     2.1490 H     1 <1>   0.4200 
 28 H        2.1370    -2.2050     2.0390 H     1 <1>   0.1500 
 29 H        1.0770     0.3170    -1.2230 H     1 <1>   0.1500 
 30 H       -0.3240     2.0350     2.1510 H     1 <1>   0.1500 
 31 H       -2.1230     0.2470    -1.2680 H     1 <1>   0.1500 
 32 H        4.4220    -1.3540     1.9510 H     1 <1>   0.1500 
 33 H        3.3580     1.1660    -1.3090 H     1 <1>   0.1500 
 34 H       -0.4140     4.2210     1.0600 H     1 <1>   0.1500 
 35 H       -2.2100     2.4290    -2.3680 H     1 <1>   0.1500 
 36 H        6.0700    -0.1520     0.7620 H     1 <1>   0.3700 
 37 H       -0.4990     5.4170    -1.1370 H     1 <1>   0.0800 
 38 H       -2.2470     5.3590    -1.1060 H     1 <1>   0.0800 
 39 H       -1.3690     4.7220    -2.4780 H     1 <1>   0.0800 
 40 H        7.7300    -0.2380    -0.6280 H     1 <1>   0.0800 
 41 H        8.5350     0.3690     0.8030 H     1 <1>   0.0800 
 42 H        7.2570     3.8550     0.2300 H     1 <1>   0.0800 
 43 H        7.8420     3.4010    -1.3490 H     1 <1>   0.0800 
 44 H        9.1150     1.1700    -2.0480 H     1 <1>   0.0800 
 45 H       10.1080     0.1140    -1.0960 H     1 <1>   0.0800 
 46 H        9.2720     2.9560     1.2760 H     1 <1>   0.0800 
 47 H        9.6910     4.1760     0.1160 H     1 <1>   0.0800 
 48 H       10.7110     2.6700    -1.3190 H     1 <1>   0.0800 
 49 H       10.9750     1.8510     0.1900 H     1 <1>   0.0800 
@<TRIPOS>BOND
  1   1   2  2   
  2   1   3  2   
  3   1   4  am  
  4   1   5  1   
  5   4   6  1   
  6   4  27  1   
  7   5   7  ar  
  8   5   8  ar  
  9   6   9  ar  
 10   6  10  ar  
 11   7  11  ar  
 12   7  28  1   
 13   8  12  ar  
 14   8  29  1   
 15   9  13  ar  
 16   9  30  1   
 17  10  14  ar  
 18  10  31  1   
 19  11  15  ar  
 20  11  32  1   
 21  12  15  ar  
 22  12  33  1   
 23  13  16  ar  
 24  13  34  1   
 25  14  16  ar  
 26  14  35  1   
 27  15  17  1   
 28  16  18  1   
 29  17  19  am  
 30  17  36  1   
 31  18  37  1   
 32  18  38  1   
 33  18  39  1   
 34  19  20  2   
 35  19  21  am  
 36  21  22  1   
 37  21  23  1   
 38  22  24  1   
 39  22  40  1   
 40  22  41  1   
 41  23  25  1   
 42  23  42  1   
 43  23  43  1   
 44  24  26  1   
 45  24  44  1   
 46  24  45  1   
 47  25  26  1   
 48  25  46  1   
 49  25  47  1   
 50  26  48  1   
 51  26  49  1   
@<TRIPOS>SUBSTRUCTURE
  1 ****  12 GROUP 4 **** **** 0

# MOE 2024.06 (io_trps.svl 2023.06)
