@<TRIPOS>MOLECULE
NONAME
28 28 1 0 0 
SMALL
USER_CHARGES


@<TRIPOS>ATOM
  1 BR       0.2930    -0.2120     0.0070 Br    1 <1>  -0.1110 
  2 C       -1.4880    -0.9410     0.0040 C.ar  1 <1>   0.1110 
  3 C       -1.6440    -2.3130    -0.0030 C.ar  1 <1>  -0.1500 
  4 C       -2.5640    -0.0710     0.0090 C.ar  1 <1>  -0.1500 
  5 C       -2.9320    -2.8130    -0.0050 C.ar  1 <1>   0.1770 
  6 C       -3.8500    -0.5890     0.0070 C.ar  1 <1>  -0.1500 
  7 CL      -3.1510    -4.5500    -0.0140 Cl    1 <1>  -0.1770 
  8 C       -4.0450    -1.9720     0.0000 C.ar  1 <1>   0.0830 
  9 O       -5.2760    -2.5520    -0.0030 O.3   1 <1>  -0.3630 
 10 C       -6.4630    -1.8010     0.0020 C.3   1 <1>   0.1200 
 11 C       -7.6170    -2.8080    -0.0030 C.3   1 <1>   0.3430 
 12 N       -8.9520    -2.1350     0.0010 N.4   1 <1>  -0.9060 
 13 C      -10.0610    -3.1150    -0.0030 C.3   1 <1>   0.3430 
 14 C      -11.3720    -2.3440     0.0020 C.3   1 <1>  -0.2400 
 15 H       -0.7940    -2.9710    -0.0070 H     1 <1>   0.1500 
 16 H       -2.3920     0.9910     0.0140 H     1 <1>   0.1500 
 17 H       -4.6740     0.0990     0.0100 H     1 <1>   0.1500 
 18 H       -6.4750    -1.1900    -0.8840 H     1 <1>   0.0800 
 19 H       -6.4740    -1.1990     0.8930 H     1 <1>   0.0800 
 20 H       -7.5270    -3.4370     0.8680 H     1 <1>   0.0800 
 21 H       -7.5280    -3.4280    -0.8810 H     1 <1>   0.0800 
 22 H       -9.0490    -1.5280    -0.8230 H     1 <1>   0.4500 
 23 H       -9.0480    -1.5370     0.8320 H     1 <1>   0.4500 
 24 H      -10.0050    -3.7470     0.8700 H     1 <1>   0.0800 
 25 H      -10.0060    -3.7380    -0.8830 H     1 <1>   0.0800 
 26 H      -11.4610    -1.7370     0.8850 H     1 <1>   0.0800 
 27 H      -12.1920    -3.0420    -0.0010 H     1 <1>   0.0800 
 28 H      -11.4630    -1.7280    -0.8750 H     1 <1>   0.0800 
@<TRIPOS>BOND
  1   1   2  1   
  2   2   3  ar  
  3   2   4  ar  
  4   3   5  ar  
  5   3  15  1   
  6   4   6  ar  
  7   4  16  1   
  8   5   7  1   
  9   5   8  ar  
 10   6   8  ar  
 11   6  17  1   
 12   8   9  1   
 13   9  10  1   
 14  10  11  1   
 15  10  18  1   
 16  10  19  1   
 17  11  12  1   
 18  11  20  1   
 19  11  21  1   
 20  12  13  1   
 21  12  22  1   
 22  12  23  1   
 23  13  14  1   
 24  13  24  1   
 25  13  25  1   
 26  14  26  1   
 27  14  27  1   
 28  14  28  1   
@<TRIPOS>SUBSTRUCTURE
  1 ****   9 GROUP 4 **** **** 0

# MOE 2024.06 (io_trps.svl 2023.06)
