@<TRIPOS>MOLECULE
NONAME
29 29 1 0 0 
SMALL
USER_CHARGES


@<TRIPOS>ATOM
  1 O        1.5800     2.0470    -1.1100 O.2   1 <1>  -0.5700 
  2 C        1.4370     2.6020    -0.0450 C.2   1 <1>   0.6590 
  3 O        2.3410     3.4400     0.4630 O.3   1 <1>  -0.4300 
  4 C        0.1680     2.3950     0.8150 C.3   1 <1>   0.3940 
  5 C        3.5640     3.8370    -0.1240 C.3   1 <1>   0.2000 
  6 N       -0.4280     1.0510     0.7330 N.3   1 <1>  -0.9900 
  7 C       -0.9300     3.3870     0.4440 C.ar  1 <1>  -0.1430 
  8 C        3.3090     4.5880    -1.4320 C.3   1 <1>  -0.2400 
  9 C        4.4970     2.6350    -0.2860 C.3   1 <1>  -0.2400 
 10 C       -1.5220     4.1670     1.4270 C.ar  1 <1>  -0.1500 
 11 C       -1.3550     3.5220    -0.8710 C.ar  1 <1>  -0.1500 
 12 C       -2.5200     5.0700     1.1010 C.ar  1 <1>  -0.1500 
 13 C       -2.3520     4.4250    -1.1980 C.ar  1 <1>  -0.1500 
 14 C       -2.9350     5.2000    -0.2120 C.ar  1 <1>  -0.1500 
 15 H        0.4500     2.5630     1.8390 H     1 <1>   0.0800 
 16 H        4.0150     4.5210     0.5740 H     1 <1>   0.0800 
 17 H       -0.3440     0.7600    -0.2490 H     1 <1>   0.3600 
 18 H       -1.4300     1.1660     0.9150 H     1 <1>   0.3600 
 19 H        2.9230     3.9310    -2.1900 H     1 <1>   0.0800 
 20 H        4.2310     5.0040    -1.7950 H     1 <1>   0.0800 
 21 H        2.6150     5.3930    -1.2680 H     1 <1>   0.0800 
 22 H        4.1250     1.9500    -1.0260 H     1 <1>   0.0800 
 23 H        4.6080     2.1230     0.6530 H     1 <1>   0.0800 
 24 H        5.4670     2.9720    -0.6050 H     1 <1>   0.0800 
 25 H       -1.2130     4.0780     2.4540 H     1 <1>   0.1500 
 26 H       -0.9120     2.9260    -1.6520 H     1 <1>   0.1500 
 27 H       -2.9730     5.6720     1.8700 H     1 <1>   0.1500 
 28 H       -2.6740     4.5240    -2.2200 H     1 <1>   0.1500 
 29 H       -3.7100     5.9020    -0.4650 H     1 <1>   0.1500 
@<TRIPOS>BOND
  1   1   2  2   
  2   2   3  1   
  3   2   4  1   
  4   3   5  1   
  5   4   6  1   
  6   4   7  1   
  7   4  15  1   
  8   5   8  1   
  9   5   9  1   
 10   5  16  1   
 11   6  17  1   
 12   6  18  1   
 13   7  10  ar  
 14   7  11  ar  
 15   8  19  1   
 16   8  20  1   
 17   8  21  1   
 18   9  22  1   
 19   9  23  1   
 20   9  24  1   
 21  10  12  ar  
 22  10  25  1   
 23  11  13  ar  
 24  11  26  1   
 25  12  14  ar  
 26  12  27  1   
 27  13  14  ar  
 28  13  28  1   
 29  14  29  1   
@<TRIPOS>SUBSTRUCTURE
  1 ****   7 GROUP 4 **** **** 0

# MOE 2024.06 (io_trps.svl 2023.06)
