@<TRIPOS>MOLECULE
NONAME
51 53 1 0 0 
SMALL
USER_CHARGES


@<TRIPOS>ATOM
  1 S        0.4200    -1.0230     0.4180 S.o2  1 <1>   1.4470 
  2 O        0.4230    -1.4250     1.8090 O.2   1 <1>  -0.6500 
  3 O        1.5800    -0.3460    -0.1090 O.2   1 <1>  -0.6500 
  4 N        0.1840    -2.4520    -0.4620 N.am  1 <1>  -0.8490 
  5 C       -1.0540    -0.0360     0.0320 C.ar  1 <1>  -0.0090 
  6 C        1.3540    -3.3700    -0.3630 C.3   1 <1>   0.2570 
  7 C       -1.0440    -3.1570    -0.0640 C.3   1 <1>   0.1960 
  8 C       -1.9130     0.4080     1.0310 C.ar  1 <1>  -0.1500 
  9 C       -1.3660     0.2840    -1.2840 C.ar  1 <1>  -0.1500 
 10 C        2.6500    -2.9450    -1.0820 C.2   1 <1>   0.5690 
 11 C       -1.6490    -3.8930    -1.2630 C.3   1 <1>  -0.0160 
 12 C       -3.0480     1.1410     0.7280 C.ar  1 <1>  -0.1500 
 13 C       -2.4980     1.0170    -1.5970 C.ar  1 <1>  -0.1500 
 14 O        2.6600    -3.0610    -2.2870 O.2   1 <1>  -0.5700 
 15 N        3.7750    -2.5370    -0.3980 N.am  1 <1>  -0.6600 
 16 C       -2.9980    -4.4770    -0.8790 C.ar  1 <1>  -0.1430 
 17 C       -3.3410     1.4450    -0.5880 C.ar  1 <1>  -0.1500 
 18 C        3.8690    -2.2630     1.0740 C.3   1 <1>   0.1400 
 19 C        5.0380    -2.2030    -1.1290 C.3   1 <1>   0.1400 
 20 C       -3.1140    -5.8090    -0.5110 C.ar  1 <1>  -0.1500 
 21 C       -4.1280    -3.6730    -0.8880 C.ar  1 <1>  -0.1500 
 22 C        4.4930    -0.8830     1.3510 C.3   1 <1>   0.1200 
 23 C        5.5610    -0.8170    -0.7210 C.3   1 <1>   0.1200 
 24 C       -4.3450    -6.3310    -0.1540 C.ar  1 <1>  -0.1500 
 25 C       -5.3600    -4.1940    -0.5310 C.ar  1 <1>  -0.1500 
 26 O        5.7050    -0.7420     0.6680 O.3   1 <1>  -0.5600 
 27 C       -5.4690    -5.5240    -0.1630 C.ar  1 <1>  -0.1500 
 28 H        1.0870    -4.3080    -0.8120 H     1 <1>   0.0800 
 29 H        1.5590    -3.5820     0.6690 H     1 <1>   0.0800 
 30 H       -1.7830    -2.4590     0.2870 H     1 <1>   0.0800 
 31 H       -0.8490    -3.8440     0.7440 H     1 <1>   0.0800 
 32 H       -1.6940     0.1770     2.0610 H     1 <1>   0.1500 
 33 H       -0.7100    -0.0470    -2.0740 H     1 <1>   0.1500 
 34 H       -0.9940    -4.6780    -1.5950 H     1 <1>   0.0800 
 35 H       -1.7810    -3.2010    -2.0750 H     1 <1>   0.0800 
 36 H       -3.7010     1.4760     1.5160 H     1 <1>   0.1500 
 37 H       -2.7210     1.2540    -2.6230 H     1 <1>   0.1500 
 38 H       -4.2230     2.0160    -0.8270 H     1 <1>   0.1500 
 39 H        4.4830    -3.0180     1.5330 H     1 <1>   0.0800 
 40 H        2.9040    -2.2900     1.5410 H     1 <1>   0.0800 
 41 H        4.8780    -2.2130    -2.1930 H     1 <1>   0.0800 
 42 H        5.7840    -2.9430    -0.9010 H     1 <1>   0.0800 
 43 H       -2.2480    -6.4480    -0.5010 H     1 <1>   0.1500 
 44 H       -4.0560    -2.6370    -1.1730 H     1 <1>   0.1500 
 45 H        4.6920    -0.7700     2.4010 H     1 <1>   0.0800 
 46 H        3.8290    -0.0950     1.0410 H     1 <1>   0.0800 
 47 H        4.8800    -0.0480    -1.0440 H     1 <1>   0.0800 
 48 H        6.5240    -0.6380    -1.1630 H     1 <1>   0.0800 
 49 H       -4.4300    -7.3650     0.1300 H     1 <1>   0.1500 
 50 H       -6.2330    -3.5650    -0.5400 H     1 <1>   0.1500 
 51 H       -6.4270    -5.9300     0.1130 H     1 <1>   0.1500 
@<TRIPOS>BOND
  1   1   2  2   
  2   1   3  2   
  3   1   4  am  
  4   1   5  1   
  5   4   6  1   
  6   4   7  1   
  7   5   8  ar  
  8   5   9  ar  
  9   6  10  1   
 10   6  28  1   
 11   6  29  1   
 12   7  11  1   
 13   7  30  1   
 14   7  31  1   
 15   8  12  ar  
 16   8  32  1   
 17   9  13  ar  
 18   9  33  1   
 19  10  14  2   
 20  10  15  am  
 21  11  16  1   
 22  11  34  1   
 23  11  35  1   
 24  12  17  ar  
 25  12  36  1   
 26  13  17  ar  
 27  13  37  1   
 28  15  18  1   
 29  15  19  1   
 30  16  20  ar  
 31  16  21  ar  
 32  17  38  1   
 33  18  22  1   
 34  18  39  1   
 35  18  40  1   
 36  19  23  1   
 37  19  41  1   
 38  19  42  1   
 39  20  24  ar  
 40  20  43  1   
 41  21  25  ar  
 42  21  44  1   
 43  22  26  1   
 44  22  45  1   
 45  22  46  1   
 46  23  26  1   
 47  23  47  1   
 48  23  48  1   
 49  24  27  ar  
 50  24  49  1   
 51  25  27  ar  
 52  25  50  1   
 53  27  51  1   
@<TRIPOS>SUBSTRUCTURE
  1 ****   4 GROUP 4 **** **** 0

# MOE 2024.06 (io_trps.svl 2023.06)
