@<TRIPOS>MOLECULE
NONAME
52 55 1 0 0 
SMALL
USER_CHARGES


@<TRIPOS>ATOM
  1 S       -0.2120     0.3370    -1.0960 S.3   1 <1>  -0.0800 
  2 C       -1.4970     0.1930     0.0630 C.2   1 <1>   0.4420 
  3 C        0.7450     1.0420     0.1620 C.2   1 <1>   0.1980 
  4 N       -1.1620     0.6400     1.2160 N.2   1 <1>  -0.3380 
  5 N       -2.7160    -0.3490    -0.2710 N.am  1 <1>  -0.4940 
  6 N        0.1160     1.1230     1.2660 N.2   1 <1>  -0.3380 
  7 C        2.1680     1.4630    -0.1910 C.3   1 <1>   0.1000 
  8 C       -3.2530    -0.7890    -1.4430 C.2   1 <1>   0.5690 
  9 C        3.0510     1.5950     1.0650 C.3   1 <1>  -0.1600 
 10 C        2.1640     2.7810    -0.9860 C.3   1 <1>  -0.1600 
 11 O       -2.6760    -0.7790    -2.5020 O.2   1 <1>  -0.5700 
 12 C       -4.6840    -1.3230    -1.3700 C.3   1 <1>   0.1710 
 13 C        4.4760     2.0450     0.7130 C.3   1 <1>  -0.1600 
 14 C        3.5880     3.2380    -1.3370 C.3   1 <1>  -0.1600 
 15 N       -5.4280    -0.8500    -0.1650 N.3   1 <1>  -0.8100 
 16 C        4.4590     3.3580    -0.0810 C.3   1 <1>  -0.1600 
 17 C       -6.6030    -1.7180     0.0990 C.3   1 <1>   0.1100 
 18 C       -5.8810     0.5580    -0.3360 C.3   1 <1>   0.1100 
 19 C       -7.4030    -1.2520     1.3290 C.3   1 <1>   0.2090 
 20 C       -6.6780     1.0740     0.8780 C.3   1 <1>   0.2090 
 21 N       -7.8320     0.1680     1.1580 N.pl3 1 <1>  -0.8380 
 22 C       -9.1310     0.5280     0.8670 C.ar  1 <1>   0.7200 
 23 N       -9.4150     1.8300     0.8770 N.ar  1 <1>  -0.6200 
 24 N       -9.9900    -0.4550     0.5930 N.ar  1 <1>  -0.6200 
 25 C      -10.6530     2.1590     0.6070 C.ar  1 <1>   0.1600 
 26 C      -11.2210    -0.0950     0.3250 C.ar  1 <1>   0.1600 
 27 C      -11.6120     1.2200     0.3200 C.ar  1 <1>  -0.1500 
 28 H       -3.3900    -0.3970     0.4980 H     1 <1>   0.3700 
 29 H        2.5910     0.6920    -0.8110 H     1 <1>   0.0800 
 30 H        3.0880     0.6500     1.5790 H     1 <1>   0.0800 
 31 H        2.6100     2.3140     1.7350 H     1 <1>   0.0800 
 32 H        1.6810     3.5430    -0.3990 H     1 <1>   0.0800 
 33 H        1.5980     2.6560    -1.8920 H     1 <1>   0.0800 
 34 H       -4.6150    -2.3960    -1.3480 H     1 <1>   0.0800 
 35 H       -5.2110    -1.0460    -2.2660 H     1 <1>   0.0800 
 36 H        4.9610     1.2800     0.1300 H     1 <1>   0.0800 
 37 H        5.0450     2.1790     1.6170 H     1 <1>   0.0800 
 38 H        3.5460     4.1900    -1.8380 H     1 <1>   0.0800 
 39 H        4.0340     2.5300    -2.0150 H     1 <1>   0.0800 
 40 H        5.4640     3.6220    -0.3620 H     1 <1>   0.0800 
 41 H        4.0760     4.1460     0.5450 H     1 <1>   0.0800 
 42 H       -6.2720    -2.7280     0.2690 H     1 <1>   0.0800 
 43 H       -7.2610    -1.7200    -0.7550 H     1 <1>   0.0800 
 44 H       -6.5090     0.6360    -1.2080 H     1 <1>   0.0800 
 45 H       -5.0310     1.2010    -0.4840 H     1 <1>   0.0800 
 46 H       -6.7820    -1.3270     2.2040 H     1 <1>   0.0800 
 47 H       -8.2480    -1.9010     1.4800 H     1 <1>   0.0800 
 48 H       -7.0070     2.0790     0.6800 H     1 <1>   0.0800 
 49 H       -6.0370     1.1060     1.7410 H     1 <1>   0.0800 
 50 H      -10.9100     3.2050     0.6160 H     1 <1>   0.1500 
 51 H      -11.9360    -0.8690     0.1050 H     1 <1>   0.1500 
 52 H      -12.6240     1.5030     0.1000 H     1 <1>   0.1500 
@<TRIPOS>BOND
  1   1   2  1   
  2   1   3  1   
  3   2   4  2   
  4   2   5  1   
  5   3   6  2   
  6   3   7  1   
  7   4   6  1   
  8   5   8  am  
  9   5  28  1   
 10   7   9  1   
 11   7  10  1   
 12   7  29  1   
 13   8  11  2   
 14   8  12  1   
 15   9  13  1   
 16   9  30  1   
 17   9  31  1   
 18  10  14  1   
 19  10  32  1   
 20  10  33  1   
 21  12  15  1   
 22  12  34  1   
 23  12  35  1   
 24  13  16  1   
 25  13  36  1   
 26  13  37  1   
 27  14  16  1   
 28  14  38  1   
 29  14  39  1   
 30  15  17  1   
 31  15  18  1   
 32  16  40  1   
 33  16  41  1   
 34  17  19  1   
 35  17  42  1   
 36  17  43  1   
 37  18  20  1   
 38  18  44  1   
 39  18  45  1   
 40  19  21  1   
 41  19  46  1   
 42  19  47  1   
 43  20  21  1   
 44  20  48  1   
 45  20  49  1   
 46  21  22  1   
 47  22  23  ar  
 48  22  24  ar  
 49  23  25  ar  
 50  24  26  ar  
 51  25  27  ar  
 52  25  50  1   
 53  26  27  ar  
 54  26  51  1   
 55  27  52  1   
@<TRIPOS>SUBSTRUCTURE
  1 ****   5 GROUP 4 **** **** 0

# MOE 2024.06 (io_trps.svl 2023.06)
