@<TRIPOS>MOLECULE
NONAME
41 41 1 0 0 
SMALL
USER_CHARGES


@<TRIPOS>ATOM
  1 O        1.0000    -2.0900    -1.2340 O.2   1 <1>  -0.5700 
  2 C        0.1500    -2.0410    -0.3670 C.2   1 <1>   0.5440 
  3 N        0.4090    -1.2580     0.7240 N.am  1 <1>  -0.7300 
  4 C       -1.0730    -2.8210    -0.4620 C.ar  1 <1>   0.0860 
  5 C        1.4280    -0.1660     0.8100 C.3   1 <1>   0.1400 
  6 C       -2.2680    -2.3860     0.1130 C.ar  1 <1>  -0.1500 
  7 C       -1.0850    -4.0420    -1.1370 C.ar  1 <1>  -0.1500 
  8 C        2.8380    -0.6930     1.1510 C.3   1 <1>   0.3430 
  9 C       -3.4270    -3.1520     0.0370 C.ar  1 <1>   0.0830 
 10 C       -2.2320    -4.8100    -1.2190 C.ar  1 <1>  -0.1500 
 11 N        3.3660    -1.5870     0.0760 N.4   1 <1>  -0.9590 
 12 O       -4.6180    -2.7920     0.5790 O.3   1 <1>  -0.3620 
 13 C       -3.3990    -4.3650    -0.6280 C.ar  1 <1>  -0.1500 
 14 C        4.2710    -2.6470     0.6010 C.3   1 <1>   0.2630 
 15 C        3.9880    -0.8300    -1.0510 C.3   1 <1>   0.2630 
 16 C       -4.8870    -1.5150     1.1130 C.3   1 <1>   0.2000 
 17 C       -6.1480    -1.6450     1.9630 C.3   1 <1>  -0.2400 
 18 C       -5.1000    -0.5280    -0.0370 C.3   1 <1>  -0.2400 
 19 H       -0.2680    -1.2880     1.4930 H     1 <1>   0.3700 
 20 H        1.1220     0.5300     1.5720 H     1 <1>   0.0800 
 21 H        1.4570     0.3690    -0.1240 H     1 <1>   0.0800 
 22 H       -2.2830    -1.4390     0.6130 H     1 <1>   0.1500 
 23 H       -0.1830    -4.3950    -1.6060 H     1 <1>   0.1500 
 24 H        2.7760    -1.2360     2.0790 H     1 <1>   0.0800 
 25 H        3.5110     0.1360     1.2960 H     1 <1>   0.0800 
 26 H       -2.2200    -5.7510    -1.7420 H     1 <1>   0.1500 
 27 H        2.5170    -2.0450    -0.3330 H     1 <1>   0.4500 
 28 H       -4.2970    -4.9540    -0.6820 H     1 <1>   0.1500 
 29 H        5.1560    -2.2070     1.0310 H     1 <1>   0.0800 
 30 H        4.5660    -3.3110    -0.1950 H     1 <1>   0.0800 
 31 H        3.7670    -3.2260     1.3580 H     1 <1>   0.0800 
 32 H        4.8520    -0.2850    -0.7090 H     1 <1>   0.0800 
 33 H        3.2760    -0.1370    -1.4690 H     1 <1>   0.0800 
 34 H        4.2910    -1.5110    -1.8300 H     1 <1>   0.0800 
 35 H       -4.0690    -1.2190     1.7450 H     1 <1>   0.0800 
 36 H       -6.9750    -1.9730     1.3590 H     1 <1>   0.0800 
 37 H       -6.3970    -0.6960     2.4020 H     1 <1>   0.0800 
 38 H       -5.9850    -2.3530     2.7550 H     1 <1>   0.0800 
 39 H       -5.9120    -0.8550    -0.6610 H     1 <1>   0.0800 
 40 H       -4.2120    -0.4410    -0.6350 H     1 <1>   0.0800 
 41 H       -5.3390     0.4440     0.3540 H     1 <1>   0.0800 
@<TRIPOS>BOND
  1   1   2  2   
  2   2   3  am  
  3   2   4  1   
  4   3   5  1   
  5   3  19  1   
  6   4   6  ar  
  7   4   7  ar  
  8   5   8  1   
  9   5  20  1   
 10   5  21  1   
 11   6   9  ar  
 12   6  22  1   
 13   7  10  ar  
 14   7  23  1   
 15   8  11  1   
 16   8  24  1   
 17   8  25  1   
 18   9  12  1   
 19   9  13  ar  
 20  10  13  ar  
 21  10  26  1   
 22  11  14  1   
 23  11  15  1   
 24  11  27  1   
 25  12  16  1   
 26  13  28  1   
 27  14  29  1   
 28  14  30  1   
 29  14  31  1   
 30  15  32  1   
 31  15  33  1   
 32  15  34  1   
 33  16  17  1   
 34  16  18  1   
 35  16  35  1   
 36  17  36  1   
 37  17  37  1   
 38  17  38  1   
 39  18  39  1   
 40  18  40  1   
 41  18  41  1   
@<TRIPOS>SUBSTRUCTURE
  1 ****   4 GROUP 4 **** **** 0

# MOE 2024.06 (io_trps.svl 2023.06)
