@<TRIPOS>MOLECULE
NONAME
36 36 1 0 0 
SMALL
USER_CHARGES


@<TRIPOS>ATOM
  1 CL       0.6690    -0.4250    -0.2120 Cl    1 <1>  -0.1770 
  2 C        2.1410     0.5060    -0.3080 C.ar  1 <1>   0.1770 
  3 C        2.0800     1.8830    -0.2260 C.ar  1 <1>  -0.1500 
  4 C        3.3480    -0.1490    -0.4650 C.ar  1 <1>  -0.1500 
  5 C        3.2500     2.6190    -0.3040 C.ar  1 <1>  -0.1500 
  6 C        4.5150     0.5910    -0.5430 C.ar  1 <1>  -0.1500 
  7 C        4.4710     1.9770    -0.4670 C.ar  1 <1>  -0.1430 
  8 C        5.7540     2.7930    -0.5540 C.3   1 <1>   0.0890 
  9 S        6.2630     3.5110     1.0170 S.o2  1 <1>   1.0900 
 10 O        6.5950     2.4500     1.9430 O.2   1 <1>  -0.6500 
 11 O        5.3090     4.5290     1.3890 O.2   1 <1>  -0.6500 
 12 C        7.7860     4.3640     0.6200 C.3   1 <1>  -0.0550 
 13 C        8.9380     3.4090     0.3060 C.3   1 <1>   0.2000 
 14 O        9.2740     2.7270     1.4670 O.3   1 <1>  -0.6800 
 15 C       10.1740     4.1580    -0.2240 C.3   1 <1>   0.1200 
 16 O       10.9930     3.3150    -0.9790 O.3   1 <1>  -0.5600 
 17 C       11.8280     2.4760    -0.2430 C.3   1 <1>   0.2580 
 18 C       12.7790     1.8180    -1.2210 C.2   1 <1>  -0.2880 
 19 C       14.1140     1.8640    -1.1570 C.2   1 <1>  -0.3000 
 20 H        1.1290     2.3700    -0.0980 H     1 <1>   0.1500 
 21 H        3.3680    -1.2220    -0.5220 H     1 <1>   0.1500 
 22 H        3.2010     3.6940    -0.2300 H     1 <1>   0.1500 
 23 H        5.4540     0.0760    -0.6580 H     1 <1>   0.1500 
 24 H        5.6020     3.5760    -1.2720 H     1 <1>   0.0800 
 25 H        6.5310     2.1580    -0.9310 H     1 <1>   0.0800 
 26 H        8.0760     4.9880     1.4450 H     1 <1>   0.0800 
 27 H        7.6190     5.0070    -0.2220 H     1 <1>   0.0800 
 28 H        8.6340     2.6860    -0.4300 H     1 <1>   0.0800 
 29 H        8.4680     2.3340     1.8910 H     1 <1>   0.4000 
 30 H       10.7410     4.6050     0.5750 H     1 <1>   0.0800 
 31 H        9.8610     4.9390    -0.8930 H     1 <1>   0.0800 
 32 H       11.2320     1.7300     0.2520 H     1 <1>   0.0800 
 33 H       12.3680     3.0570     0.4840 H     1 <1>   0.0800 
 34 H       12.2520     1.2970    -2.0010 H     1 <1>   0.1500 
 35 H       14.7630     1.3870    -1.8710 H     1 <1>   0.1500 
 36 H       14.6690     2.3790    -0.3920 H     1 <1>   0.1500 
@<TRIPOS>BOND
  1   1   2  1   
  2   2   3  ar  
  3   2   4  ar  
  4   3   5  ar  
  5   3  20  1   
  6   4   6  ar  
  7   4  21  1   
  8   5   7  ar  
  9   5  22  1   
 10   6   7  ar  
 11   6  23  1   
 12   7   8  1   
 13   8   9  1   
 14   8  24  1   
 15   8  25  1   
 16   9  10  2   
 17   9  11  2   
 18   9  12  1   
 19  12  13  1   
 20  12  26  1   
 21  12  27  1   
 22  13  14  1   
 23  13  15  1   
 24  13  28  1   
 25  14  29  1   
 26  15  16  1   
 27  15  30  1   
 28  15  31  1   
 29  16  17  1   
 30  17  18  1   
 31  17  32  1   
 32  17  33  1   
 33  18  19  2   
 34  18  34  1   
 35  19  35  1   
 36  19  36  1   
@<TRIPOS>SUBSTRUCTURE
  1 ****   8 GROUP 4 **** **** 0

# MOE 2024.06 (io_trps.svl 2023.06)
