@<TRIPOS>MOLECULE
NONAME
40 41 1 0 0 
SMALL
USER_CHARGES


@<TRIPOS>ATOM
  1 BR      -0.2100    -0.5450     0.8730 Br    1 <1>  -0.1110 
  2 C       -1.6480     0.6030     0.3080 C.ar  1 <1>   0.1110 
  3 C       -2.9490     0.1730     0.4780 C.ar  1 <1>  -0.1500 
  4 C       -1.3400     1.8280    -0.2530 C.ar  1 <1>  -0.1500 
  5 C       -3.9850     0.9990     0.0720 C.ar  1 <1>   0.0830 
  6 C       -2.3780     2.6500    -0.6580 C.ar  1 <1>  -0.1500 
  7 O       -5.2440     0.5300     0.2610 O.3   1 <1>  -0.3630 
  8 C       -3.6930     2.2400    -0.4970 C.ar  1 <1>  -0.1500 
  9 C       -6.3730     1.2840    -0.1080 C.3   1 <1>   0.1200 
 10 C       -7.6110     0.4570     0.2460 C.3   1 <1>  -0.1600 
 11 C       -8.9140     1.1880    -0.1090 C.3   1 <1>  -0.1600 
 12 C      -10.1250     0.3230     0.2530 C.3   1 <1>   0.3430 
 13 N      -11.3890     0.9800    -0.1760 N.4   1 <1>  -0.9590 
 14 C      -11.7270     2.1870     0.6630 C.3   1 <1>   0.3430 
 15 C      -12.5300    -0.0050    -0.1460 C.3   1 <1>   0.3430 
 16 C      -13.0740     2.8180     0.2490 C.3   1 <1>   0.1100 
 17 C      -13.8670     0.6510    -0.5550 C.3   1 <1>   0.1100 
 18 N      -14.1590     1.8260     0.2790 N.3   1 <1>  -0.9000 
 19 H       -3.1580    -0.7840     0.9170 H     1 <1>   0.1500 
 20 H       -0.3140     2.1270    -0.3690 H     1 <1>   0.1500 
 21 H       -2.1610     3.6080    -1.0970 H     1 <1>   0.1500 
 22 H       -4.4740     2.9010    -0.8220 H     1 <1>   0.1500 
 23 H       -6.3220     1.4720    -1.1670 H     1 <1>   0.0800 
 24 H       -6.3550     2.2100     0.4410 H     1 <1>   0.0800 
 25 H       -7.5890     0.2470     1.3030 H     1 <1>   0.0800 
 26 H       -7.5600    -0.4770    -0.2890 H     1 <1>   0.0800 
 27 H       -8.9200     1.3950    -1.1660 H     1 <1>   0.0800 
 28 H       -8.9440     2.1170     0.4320 H     1 <1>   0.0800 
 29 H      -10.1440     0.1440     1.3160 H     1 <1>   0.0800 
 30 H      -10.0270    -0.6290    -0.2440 H     1 <1>   0.0800 
 31 H      -11.2860     1.2950    -1.1480 H     1 <1>   0.4500 
 32 H      -10.9510     2.9290     0.5750 H     1 <1>   0.0800 
 33 H      -11.7950     1.8990     1.7000 H     1 <1>   0.0800 
 34 H      -12.6410    -0.4000     0.8500 H     1 <1>   0.0800 
 35 H      -12.3230    -0.8290    -0.8090 H     1 <1>   0.0800 
 36 H      -12.9910     3.2410    -0.7380 H     1 <1>   0.0800 
 37 H      -13.3120     3.6170     0.9310 H     1 <1>   0.0800 
 38 H      -14.6610    -0.0680    -0.4360 H     1 <1>   0.0800 
 39 H      -13.8330     0.9350    -1.5930 H     1 <1>   0.0800 
 40 H      -15.0440     2.2640    -0.0280 H     1 <1>   0.3600 
@<TRIPOS>BOND
  1   1   2  1   
  2   2   3  ar  
  3   2   4  ar  
  4   3   5  ar  
  5   3  19  1   
  6   4   6  ar  
  7   4  20  1   
  8   5   7  1   
  9   5   8  ar  
 10   6   8  ar  
 11   6  21  1   
 12   7   9  1   
 13   8  22  1   
 14   9  10  1   
 15   9  23  1   
 16   9  24  1   
 17  10  11  1   
 18  10  25  1   
 19  10  26  1   
 20  11  12  1   
 21  11  27  1   
 22  11  28  1   
 23  12  13  1   
 24  12  29  1   
 25  12  30  1   
 26  13  14  1   
 27  13  15  1   
 28  13  31  1   
 29  14  16  1   
 30  14  32  1   
 31  14  33  1   
 32  15  17  1   
 33  15  34  1   
 34  15  35  1   
 35  16  18  1   
 36  16  36  1   
 37  16  37  1   
 38  17  18  1   
 39  17  38  1   
 40  17  39  1   
 41  18  40  1   
@<TRIPOS>SUBSTRUCTURE
  1 ****  10 GROUP 4 **** **** 0

# MOE 2024.06 (io_trps.svl 2023.06)
