@<TRIPOS>MOLECULE
NONAME
54 56 1 0 0 
SMALL
USER_CHARGES


@<TRIPOS>ATOM
  1 O        0.0800     0.1840     1.0520 O.2   1 <1>  -0.5700 
  2 C        0.1510     0.8000     0.0080 C.2   1 <1>   0.6900 
  3 N       -0.9480     1.1680    -0.7080 N.am  1 <1>  -0.5470 
  4 N        1.3700     1.1440    -0.4800 N.am  1 <1>  -0.7300 
  5 C       -2.3060     0.8650    -0.5190 C.ar  1 <1>   0.1170 
  6 C        2.6230     0.8500     0.2280 C.3   1 <1>   0.2200 
  7 C       -2.7420    -0.2720     0.1550 C.ar  1 <1>  -0.1500 
  8 C       -3.2620     1.7270    -1.0440 C.ar  1 <1>  -0.1500 
  9 C        3.6830     1.8860    -0.1330 C.3   1 <1>  -0.1600 
 10 C        3.0930    -0.5570    -0.1370 C.3   1 <1>  -0.1600 
 11 C       -4.0910    -0.5400     0.3060 C.ar  1 <1>  -0.1500 
 12 C       -4.6120     1.4640    -0.8980 C.ar  1 <1>  -0.1500 
 13 C        5.0040     1.5500     0.5560 C.3   1 <1>   0.3430 
 14 C        4.4130    -0.8690     0.5610 C.3   1 <1>   0.3430 
 15 C       -5.0380     0.3320    -0.2220 C.ar  1 <1>   0.0820 
 16 N        5.4300     0.1610     0.1990 N.4   1 <1>  -0.9590 
 17 O       -6.3810     0.1500    -0.1220 O.3   1 <1>  -0.3630 
 18 C        6.7600    -0.1660     0.7840 C.3   1 <1>   0.4860 
 19 C       -6.9080    -0.9490     0.5840 C.3   1 <1>   0.1200 
 20 C        7.7920     0.7600     0.1730 C.ar  1 <1>  -0.1440 
 21 C       -8.4290    -0.8560     0.5330 C.3   1 <1>  -0.2400 
 22 C        8.3200     1.8070     0.9160 C.ar  1 <1>  -0.1500 
 23 C        8.2130     0.5720    -1.1370 C.ar  1 <1>  -0.1500 
 24 C        9.2460     2.6640     0.3500 C.ar  1 <1>  -0.1500 
 25 C        9.1390     1.4320    -1.7000 C.ar  1 <1>  -0.1500 
 26 C        9.6540     2.4790    -0.9580 C.ar  1 <1>  -0.1500 
 27 H       -0.7680     1.8630    -1.4230 H     1 <1>   0.3700 
 28 H        1.4400     1.4850    -1.4370 H     1 <1>   0.3700 
 29 H        2.4380     0.8950     1.2910 H     1 <1>   0.0800 
 30 H       -2.0250    -0.9590     0.5650 H     1 <1>   0.1500 
 31 H       -2.9550     2.6120    -1.5690 H     1 <1>   0.1500 
 32 H        3.3580     2.8580     0.1960 H     1 <1>   0.0800 
 33 H        3.8340     1.9220    -1.1970 H     1 <1>   0.0800 
 34 H        3.2110    -0.6550    -1.2010 H     1 <1>   0.0800 
 35 H        2.3550    -1.2700     0.1870 H     1 <1>   0.0800 
 36 H       -4.3800    -1.4270     0.8360 H     1 <1>   0.1500 
 37 H       -5.3470     2.1340    -1.3040 H     1 <1>   0.1500 
 38 H        4.8810     1.6300     1.6250 H     1 <1>   0.0800 
 39 H        5.7560     2.2600     0.2480 H     1 <1>   0.0800 
 40 H        4.7510    -1.8490     0.2640 H     1 <1>   0.0800 
 41 H        4.2590    -0.8720     1.6290 H     1 <1>   0.0800 
 42 H        5.5620     0.1460    -0.8210 H     1 <1>   0.4500 
 43 H        7.0250    -1.1870     0.5610 H     1 <1>   0.0800 
 44 H        6.7400    -0.0430     1.8550 H     1 <1>   0.0800 
 45 H       -6.5570    -0.9010     1.6000 H     1 <1>   0.0800 
 46 H       -6.5660    -1.8530     0.1110 H     1 <1>   0.0800 
 47 H       -8.7580     0.0590     0.9930 H     1 <1>   0.0800 
 48 H       -8.8630    -1.6830     1.0650 H     1 <1>   0.0800 
 49 H       -8.7670    -0.8870    -0.4870 H     1 <1>   0.0800 
 50 H        8.0240     1.9690     1.9390 H     1 <1>   0.1500 
 51 H        7.8350    -0.2410    -1.7340 H     1 <1>   0.1500 
 52 H        9.6570     3.4770     0.9260 H     1 <1>   0.1500 
 53 H        9.4660     1.2880    -2.7170 H     1 <1>   0.1500 
 54 H       10.3770     3.1460    -1.3970 H     1 <1>   0.1500 
@<TRIPOS>BOND
  1   1   2  2   
  2   2   3  am  
  3   2   4  am  
  4   3   5  1   
  5   3  27  1   
  6   4   6  1   
  7   4  28  1   
  8   5   7  ar  
  9   5   8  ar  
 10   6   9  1   
 11   6  10  1   
 12   6  29  1   
 13   7  11  ar  
 14   7  30  1   
 15   8  12  ar  
 16   8  31  1   
 17   9  13  1   
 18   9  32  1   
 19   9  33  1   
 20  10  14  1   
 21  10  34  1   
 22  10  35  1   
 23  11  15  ar  
 24  11  36  1   
 25  12  15  ar  
 26  12  37  1   
 27  13  16  1   
 28  13  38  1   
 29  13  39  1   
 30  14  16  1   
 31  14  40  1   
 32  14  41  1   
 33  15  17  1   
 34  16  18  1   
 35  16  42  1   
 36  17  19  1   
 37  18  20  1   
 38  18  43  1   
 39  18  44  1   
 40  19  21  1   
 41  19  45  1   
 42  19  46  1   
 43  20  22  ar  
 44  20  23  ar  
 45  21  47  1   
 46  21  48  1   
 47  21  49  1   
 48  22  24  ar  
 49  22  50  1   
 50  23  25  ar  
 51  23  51  1   
 52  24  26  ar  
 53  24  52  1   
 54  25  26  ar  
 55  25  53  1   
 56  26  54  1   
@<TRIPOS>SUBSTRUCTURE
  1 ****   4 GROUP 4 **** **** 0

# MOE 2024.06 (io_trps.svl 2023.06)
