@<TRIPOS>MOLECULE
NONAME
53 55 1 0 0 
SMALL
USER_CHARGES


@<TRIPOS>ATOM
  1 S        1.0020     2.6080     2.4230 S.o2  1 <1>   1.3330 
  2 O        1.4890     1.2550     2.5300 O.2   1 <1>  -0.6500 
  3 O        1.7620     3.7030     2.9740 O.2   1 <1>  -0.6500 
  4 N        0.7780     2.9650     0.7440 N.am  1 <1>  -0.6930 
  5 C       -0.6390     2.6760     3.1130 C.3   1 <1>  -0.1350 
  6 C       -0.3090     2.5040    -0.0020 C.ar  1 <1>   0.1990 
  7 C        2.0450     3.2640     0.0270 C.3   1 <1>   0.3390 
  8 C       -1.0130     3.3410    -0.8880 C.ar  1 <1>   0.0860 
  9 C       -0.7180     1.1780     0.1320 C.ar  1 <1>  -0.1500 
 10 C        2.4410     2.1080    -0.8850 C.ar  1 <1>  -0.1440 
 11 C       -0.6100     4.6980    -1.1690 C.2   1 <1>   0.5440 
 12 C       -2.1310     2.8290    -1.5490 C.ar  1 <1>  -0.1500 
 13 C       -1.8240     0.6910    -0.5330 C.ar  1 <1>  -0.1500 
 14 C        2.2040     2.1770    -2.2500 C.ar  1 <1>  -0.1500 
 15 C        3.0420     0.9730    -0.3610 C.ar  1 <1>  -0.1500 
 16 O        0.0980     4.8970    -2.1410 O.2   1 <1>  -0.5700 
 17 N       -1.0200     5.7830    -0.4150 N.am  1 <1>  -0.6600 
 18 C       -2.5410     1.5240    -1.3730 C.ar  1 <1>  -0.1500 
 19 C        2.5590     1.1260    -3.0780 C.ar  1 <1>  -0.1500 
 20 C        3.3980    -0.0780    -1.1870 C.ar  1 <1>  -0.1500 
 21 C       -0.6500     7.1710    -0.8180 C.3   1 <1>   0.1400 
 22 C       -1.8520     5.6650     0.8100 C.3   1 <1>   0.1400 
 23 C        3.1560    -0.0030    -2.5470 C.ar  1 <1>  -0.1500 
 24 C        0.5860     7.6210    -0.0340 C.3   1 <1>  -0.1600 
 25 C       -1.1130     6.1800     2.0530 C.3   1 <1>  -0.1600 
 26 C        0.2980     8.2260     1.3510 C.3   1 <1>  -0.1600 
 27 C       -0.9490     7.7070     2.0850 C.3   1 <1>  -0.1600 
 28 H       -0.5900     2.5310     4.1740 H     1 <1>   0.0800 
 29 H       -1.2560     1.9070     2.6960 H     1 <1>   0.0800 
 30 H       -1.0890     3.6250     2.9200 H     1 <1>   0.0800 
 31 H        2.8400     3.4400     0.7310 H     1 <1>   0.0800 
 32 H        1.9300     4.1650    -0.5480 H     1 <1>   0.0800 
 33 H       -0.1540     0.5080     0.7570 H     1 <1>   0.1500 
 34 H       -2.6730     3.4720    -2.2210 H     1 <1>   0.1500 
 35 H       -2.1230    -0.3370    -0.4090 H     1 <1>   0.1500 
 36 H        1.7390     3.0490    -2.6780 H     1 <1>   0.1500 
 37 H        3.2340     0.8990     0.6960 H     1 <1>   0.1500 
 38 H       -3.4050     1.1480    -1.8950 H     1 <1>   0.1500 
 39 H        2.3670     1.1900    -4.1350 H     1 <1>   0.1500 
 40 H        3.8610    -0.9550    -0.7690 H     1 <1>   0.1500 
 41 H       -1.4750     7.8420    -0.6560 H     1 <1>   0.0800 
 42 H       -0.4240     7.1930    -1.8700 H     1 <1>   0.0800 
 43 H       -2.1260     4.6380     0.9710 H     1 <1>   0.0800 
 44 H       -2.7630     6.2210     0.6690 H     1 <1>   0.0800 
 45 H        3.4310    -0.8200    -3.1910 H     1 <1>   0.1500 
 46 H        1.1060     8.3590    -0.6180 H     1 <1>   0.0800 
 47 H        1.2510     6.7810     0.0660 H     1 <1>   0.0800 
 48 H       -0.1560     5.6970     2.1470 H     1 <1>   0.0800 
 49 H       -1.7000     5.9030     2.9100 H     1 <1>   0.0800 
 50 H        0.1950     9.2930     1.2450 H     1 <1>   0.0800 
 51 H        1.1610     8.0570     1.9720 H     1 <1>   0.0800 
 52 H       -0.8760     8.0230     3.1110 H     1 <1>   0.0800 
 53 H       -1.8310     8.1740     1.6800 H     1 <1>   0.0800 
@<TRIPOS>BOND
  1   1   2  2   
  2   1   3  2   
  3   1   4  am  
  4   1   5  1   
  5   4   6  1   
  6   4   7  1   
  7   5  28  1   
  8   5  29  1   
  9   5  30  1   
 10   6   8  ar  
 11   6   9  ar  
 12   7  10  1   
 13   7  31  1   
 14   7  32  1   
 15   8  11  1   
 16   8  12  ar  
 17   9  13  ar  
 18   9  33  1   
 19  10  14  ar  
 20  10  15  ar  
 21  11  16  2   
 22  11  17  am  
 23  12  18  ar  
 24  12  34  1   
 25  13  18  ar  
 26  13  35  1   
 27  14  19  ar  
 28  14  36  1   
 29  15  20  ar  
 30  15  37  1   
 31  17  21  1   
 32  17  22  1   
 33  18  38  1   
 34  19  23  ar  
 35  19  39  1   
 36  20  23  ar  
 37  20  40  1   
 38  21  24  1   
 39  21  41  1   
 40  21  42  1   
 41  22  25  1   
 42  22  43  1   
 43  22  44  1   
 44  23  45  1   
 45  24  26  1   
 46  24  46  1   
 47  24  47  1   
 48  25  27  1   
 49  25  48  1   
 50  25  49  1   
 51  26  27  1   
 52  26  50  1   
 53  26  51  1   
 54  27  52  1   
 55  27  53  1   
@<TRIPOS>SUBSTRUCTURE
  1 ****   4 GROUP 4 **** **** 0

# MOE 2024.06 (io_trps.svl 2023.06)
