@<TRIPOS>MOLECULE
NONAME
50 52 1 0 0 
SMALL
USER_CHARGES


@<TRIPOS>ATOM
  1 S       -0.5490     0.6600    -1.2960 S.3   1 <1>  -0.3320 
  2 C       -1.9430     0.8720    -0.1720 C.ar  1 <1>   0.1020 
  3 C        0.9700     1.1270    -0.3540 C.3   1 <1>  -0.0100 
  4 C       -3.1950     0.5670    -0.6680 C.ar  1 <1>  -0.1500 
  5 C       -1.7790     1.3190     1.1290 C.ar  1 <1>  -0.1500 
  6 C       -4.3230     0.7030     0.1330 C.ar  1 <1>   0.1170 
  7 C       -2.8960     1.4610     1.9340 C.ar  1 <1>  -0.1500 
  8 N       -5.5750     0.3900    -0.4210 N.am  1 <1>  -0.5470 
  9 C       -4.1530     1.1570     1.4390 C.ar  1 <1>  -0.1500 
 10 C       -6.7780     0.1050     0.1660 C.2   1 <1>   0.5690 
 11 O       -6.9430     0.0540     1.3610 O.2   1 <1>  -0.5700 
 12 C       -7.9620    -0.1840    -0.7570 C.3   1 <1>  -0.0190 
 13 C       -9.2290     0.5820    -0.3260 C.3   1 <1>  -0.1600 
 14 C       -8.2520    -1.6940    -0.8220 C.3   1 <1>  -0.1600 
 15 C      -10.4280     0.2510    -1.2180 C.3   1 <1>   0.1400 
 16 C       -9.4510    -2.0040    -1.7220 C.3   1 <1>   0.1400 
 17 N      -10.6310    -1.2240    -1.2590 N.am  1 <1>  -0.6600 
 18 C      -11.8030    -1.8440    -0.8690 C.2   1 <1>   0.5440 
 19 O      -11.9120    -3.0490    -0.9950 O.2   1 <1>  -0.5700 
 20 C      -12.9090    -1.0870    -0.3130 C.ar  1 <1>   0.0860 
 21 C      -13.0450    -0.8670     1.0620 C.ar  1 <1>  -0.1440 
 22 C      -13.8670    -0.5390    -1.1650 C.ar  1 <1>  -0.1500 
 23 C      -14.0980    -0.1090     1.5470 C.ar  1 <1>  -0.1500 
 24 C      -12.0400    -1.4670     2.0380 C.3   1 <1>  -0.0970 
 25 C      -14.9170     0.2150    -0.6770 C.ar  1 <1>  -0.1500 
 26 C      -15.0320     0.4330     0.6830 C.ar  1 <1>  -0.1500 
 27 H        1.8110     1.0010    -1.0120 H     1 <1>   0.0800 
 28 H        1.0480     0.4710     0.4950 H     1 <1>   0.0800 
 29 H        0.8710     2.1540    -0.0520 H     1 <1>   0.0800 
 30 H       -3.2820     0.2210    -1.6800 H     1 <1>   0.1500 
 31 H       -0.8120     1.5580     1.5240 H     1 <1>   0.1500 
 32 H       -2.7900     1.8070     2.9470 H     1 <1>   0.1500 
 33 H       -5.5690     0.3210    -1.4360 H     1 <1>   0.3700 
 34 H       -5.0050     1.2810     2.0820 H     1 <1>   0.1500 
 35 H       -7.7050     0.1480    -1.7470 H     1 <1>   0.0800 
 36 H       -9.0420     1.6410    -0.3610 H     1 <1>   0.0800 
 37 H       -9.4770     0.3330     0.6910 H     1 <1>   0.0800 
 38 H       -8.4590    -2.0670     0.1680 H     1 <1>   0.0800 
 39 H       -7.3880    -2.2180    -1.1910 H     1 <1>   0.0800 
 40 H      -10.2490     0.6040    -2.2190 H     1 <1>   0.0800 
 41 H      -11.3010     0.7550    -0.8420 H     1 <1>   0.0800 
 42 H       -9.6540    -3.0610    -1.6940 H     1 <1>   0.0800 
 43 H       -9.2320    -1.7360    -2.7410 H     1 <1>   0.0800 
 44 H      -13.7790    -0.7140    -2.2230 H     1 <1>   0.1500 
 45 H      -14.2020     0.0620     2.6050 H     1 <1>   0.1500 
 46 H      -11.0530    -1.0920     1.8350 H     1 <1>   0.0800 
 47 H      -12.0270    -2.5380     1.9360 H     1 <1>   0.0800 
 48 H      -12.2930    -1.2260     3.0540 H     1 <1>   0.0800 
 49 H      -15.6460     0.6300    -1.3530 H     1 <1>   0.1500 
 50 H      -15.8470     1.0200     1.0690 H     1 <1>   0.1500 
@<TRIPOS>BOND
  1   1   2  1   
  2   1   3  1   
  3   2   4  ar  
  4   2   5  ar  
  5   3  27  1   
  6   3  28  1   
  7   3  29  1   
  8   4   6  ar  
  9   4  30  1   
 10   5   7  ar  
 11   5  31  1   
 12   6   8  1   
 13   6   9  ar  
 14   7   9  ar  
 15   7  32  1   
 16   8  10  am  
 17   8  33  1   
 18   9  34  1   
 19  10  11  2   
 20  10  12  1   
 21  12  13  1   
 22  12  14  1   
 23  12  35  1   
 24  13  15  1   
 25  13  36  1   
 26  13  37  1   
 27  14  16  1   
 28  14  38  1   
 29  14  39  1   
 30  15  17  1   
 31  15  40  1   
 32  15  41  1   
 33  16  17  1   
 34  16  42  1   
 35  16  43  1   
 36  17  18  am  
 37  18  19  2   
 38  18  20  1   
 39  20  21  ar  
 40  20  22  ar  
 41  21  23  ar  
 42  21  24  1   
 43  22  25  ar  
 44  22  44  1   
 45  23  26  ar  
 46  23  45  1   
 47  24  46  1   
 48  24  47  1   
 49  24  48  1   
 50  25  26  ar  
 51  25  49  1   
 52  26  50  1   
@<TRIPOS>SUBSTRUCTURE
  1 ****  12 GROUP 4 **** **** 0

# MOE 2024.06 (io_trps.svl 2023.06)
