@<TRIPOS>MOLECULE
NONAME
30 31 1 0 0 
SMALL
USER_CHARGES


@<TRIPOS>ATOM
  1 N       -5.2820    -0.0020    -0.7470 N.pl3 1 <1>  -0.9000 
  2 C       -6.6420    -0.0400    -0.5020 C.ar  1 <1>   0.1000 
  3 C       -7.1330    -0.5950     0.6710 C.ar  1 <1>  -0.1500 
  4 C       -7.5400     0.4800    -1.4220 C.ar  1 <1>  -0.1500 
  5 C       -8.4920    -0.6200     0.9230 C.ar  1 <1>  -0.1500 
  6 C       -8.8990     0.4550    -1.1710 C.ar  1 <1>  -0.1500 
  7 C       -9.3920    -0.0940     0.0060 C.ar  1 <1>  -0.1430 
  8 C      -10.8910    -0.1310     0.3010 C.3   1 <1>   0.0630 
  9 C      -11.6420    -0.9780    -0.7400 C.3   1 <1>  -0.1600 
 10 C      -11.4780     1.2880     0.3840 C.3   1 <1>  -0.1600 
 11 C      -13.1500    -1.0110    -0.4540 C.3   1 <1>  -0.1600 
 12 C      -12.9860     1.2550     0.6710 C.3   1 <1>  -0.1600 
 13 C      -13.7300     0.4080    -0.3700 C.3   1 <1>  -0.1600 
 14 H       -4.9670     0.7100    -1.4100 H     1 <1>   0.4000 
 15 H       -4.6780    -0.0500     0.0770 H     1 <1>   0.4000 
 16 H       -6.4470    -1.0100     1.3860 H     1 <1>   0.1500 
 17 H       -7.1720     0.9020    -2.3380 H     1 <1>   0.1500 
 18 H       -8.8470    -1.0550     1.8410 H     1 <1>   0.1500 
 19 H       -9.5750     0.8650    -1.9000 H     1 <1>   0.1500 
 20 H      -11.0360    -0.5970     1.2610 H     1 <1>   0.0800 
 21 H      -11.2510    -1.9800    -0.7330 H     1 <1>   0.0800 
 22 H      -11.4820    -0.5710    -1.7230 H     1 <1>   0.0800 
 23 H      -11.3100     1.8040    -0.5440 H     1 <1>   0.0800 
 24 H      -10.9740     1.8360     1.1610 H     1 <1>   0.0800 
 25 H      -13.3250    -1.5230     0.4780 H     1 <1>   0.0800 
 26 H      -13.6520    -1.5610    -1.2310 H     1 <1>   0.0800 
 27 H      -13.3750     2.2580     0.6640 H     1 <1>   0.0800 
 28 H      -13.1540     0.8430     1.6510 H     1 <1>   0.0800 
 29 H      -14.7740     0.3560    -0.1130 H     1 <1>   0.0800 
 30 H      -13.6520     0.8800    -1.3340 H     1 <1>   0.0800 
@<TRIPOS>BOND
  1   1   2  1   
  2   1  14  1   
  3   1  15  1   
  4   2   3  ar  
  5   2   4  ar  
  6   3   5  ar  
  7   3  16  1   
  8   4   6  ar  
  9   4  17  1   
 10   5   7  ar  
 11   5  18  1   
 12   6   7  ar  
 13   6  19  1   
 14   7   8  1   
 15   8   9  1   
 16   8  10  1   
 17   8  20  1   
 18   9  11  1   
 19   9  21  1   
 20   9  22  1   
 21  10  12  1   
 22  10  23  1   
 23  10  24  1   
 24  11  13  1   
 25  11  25  1   
 26  11  26  1   
 27  12  13  1   
 28  12  27  1   
 29  12  28  1   
 30  13  29  1   
 31  13  30  1   
@<TRIPOS>SUBSTRUCTURE
  1 ****   7 GROUP 4 **** **** 0

# MOE 2024.06 (io_trps.svl 2023.06)
