@<TRIPOS>MOLECULE
NONAME
45 47 1 0 0 
SMALL
USER_CHARGES


@<TRIPOS>ATOM
  1 O       -0.8720    -1.1380     1.6160 O.2   1 <1>  -0.5700 
  2 C       -0.5040    -2.1280     1.0200 C.2   1 <1>   0.6340 
  3 O       -1.4050    -3.0960     0.7880 O.3   1 <1>  -0.4300 
  4 C        0.8470    -2.3110     0.5280 C.ar  1 <1>   0.0860 
  5 C       -2.7180    -3.0400     1.3180 C.3   1 <1>   0.2000 
  6 C        1.3010    -3.5390     0.0350 C.ar  1 <1>  -0.1500 
  7 C        1.7590    -1.2530     0.5280 C.ar  1 <1>  -0.1500 
  8 C       -3.2320    -4.5260     1.3370 C.3   1 <1>  -0.1600 
  9 C       -3.5590    -2.0930     0.3870 C.3   1 <1>  -0.1600 
 10 C        2.5900    -3.7020    -0.4400 C.ar  1 <1>  -0.1500 
 11 C        3.0480    -1.4080     0.0550 C.ar  1 <1>  -0.1500 
 12 C       -3.7880    -5.0440    -0.0320 C.3   1 <1>   0.4230 
 13 C       -4.5060    -2.9470    -0.4480 C.3   1 <1>   0.4230 
 14 C        3.4770    -2.6300    -0.4350 C.ar  1 <1>   0.0830 
 15 N       -3.5370    -3.9510    -0.9640 N.4   1 <1>  -0.9590 
 16 C       -5.3320    -5.1400    -0.1210 C.3   1 <1>  -0.1600 
 17 C       -5.7890    -3.7460    -0.6270 C.3   1 <1>  -0.1600 
 18 O        4.7500    -2.6990    -0.8800 O.3   1 <1>  -0.3620 
 19 C       -3.5990    -4.2890    -2.4250 C.3   1 <1>   0.2630 
 20 C        5.3020    -3.8920    -1.3850 C.3   1 <1>   0.1200 
 21 C        6.7470    -3.6110    -1.7860 C.3   1 <1>  -0.2400 
 22 H       -2.6570    -2.6520     2.3240 H     1 <1>   0.0800 
 23 H        0.6390    -4.3860     0.0270 H     1 <1>   0.1500 
 24 H        1.4520    -0.2920     0.9070 H     1 <1>   0.1500 
 25 H       -4.0050    -4.6080     2.0820 H     1 <1>   0.0800 
 26 H       -2.4390    -5.1730     1.6680 H     1 <1>   0.0800 
 27 H       -2.9360    -1.4790    -0.2400 H     1 <1>   0.0800 
 28 H       -4.1450    -1.4280     0.9980 H     1 <1>   0.0800 
 29 H        2.8920    -4.6650    -0.8080 H     1 <1>   0.1500 
 30 H        3.7360    -0.5800     0.0620 H     1 <1>   0.1500 
 31 H       -3.3020    -5.9590    -0.3340 H     1 <1>   0.0800 
 32 H       -4.7950    -3.1720     0.5630 H     1 <1>   0.0800 
 33 H       -2.5910    -3.5950    -0.7500 H     1 <1>   0.4500 
 34 H       -5.7640    -5.3850     0.8340 H     1 <1>   0.0800 
 35 H       -5.6180    -5.9060    -0.8210 H     1 <1>   0.0800 
 36 H       -6.1070    -3.7630    -1.6540 H     1 <1>   0.0800 
 37 H       -6.5920    -3.3440    -0.0300 H     1 <1>   0.0800 
 38 H       -4.5460    -4.7350    -2.6760 H     1 <1>   0.0800 
 39 H       -2.8160    -4.9850    -2.6780 H     1 <1>   0.0800 
 40 H       -3.4700    -3.3970    -3.0170 H     1 <1>   0.0800 
 41 H        4.7240    -4.2010    -2.2390 H     1 <1>   0.0800 
 42 H        5.2600    -4.6410    -0.6130 H     1 <1>   0.0800 
 43 H        6.7780    -2.8500    -2.5450 H     1 <1>   0.0800 
 44 H        7.1980    -4.5050    -2.1770 H     1 <1>   0.0800 
 45 H        7.3110    -3.2880    -0.9300 H     1 <1>   0.0800 
@<TRIPOS>BOND
  1   1   2  2   
  2   2   3  1   
  3   2   4  1   
  4   3   5  1   
  5   4   6  ar  
  6   4   7  ar  
  7   5   8  1   
  8   5   9  1   
  9   5  22  1   
 10   6  10  ar  
 11   6  23  1   
 12   7  11  ar  
 13   7  24  1   
 14   8  12  1   
 15   8  25  1   
 16   8  26  1   
 17   9  13  1   
 18   9  27  1   
 19   9  28  1   
 20  10  14  ar  
 21  10  29  1   
 22  11  14  ar  
 23  11  30  1   
 24  12  15  1   
 25  12  16  1   
 26  12  31  1   
 27  13  15  1   
 28  13  17  1   
 29  13  32  1   
 30  14  18  1   
 31  15  19  1   
 32  15  33  1   
 33  16  17  1   
 34  16  34  1   
 35  16  35  1   
 36  17  36  1   
 37  17  37  1   
 38  18  20  1   
 39  19  38  1   
 40  19  39  1   
 41  19  40  1   
 42  20  21  1   
 43  20  41  1   
 44  20  42  1   
 45  21  43  1   
 46  21  44  1   
 47  21  45  1   
@<TRIPOS>SUBSTRUCTURE
  1 ****   3 GROUP 4 **** **** 0

# MOE 2024.06 (io_trps.svl 2023.06)
