@<TRIPOS>MOLECULE
NONAME
46 48 1 0 0 
SMALL
USER_CHARGES


@<TRIPOS>ATOM
  1 O       -0.5260     1.7360     2.4610 O.2   1 <1>  -0.5700 
  2 C       -0.3310     1.7870     1.2680 C.2   1 <1>   0.5690 
  3 N        0.8310     1.3150     0.7220 N.am  1 <1>  -0.6600 
  4 C       -1.4190     2.4200     0.4220 C.3   1 <1>  -0.0990 
  5 C        1.1910     1.2700    -0.7110 C.3   1 <1>   0.1400 
  6 C        1.8710     0.6670     1.5480 C.3   1 <1>   0.1400 
  7 C       -2.6810     1.5360     0.4160 C.3   1 <1>   0.2070 
  8 C        2.3970     0.3400    -0.7820 C.3   1 <1>  -0.1600 
  9 C        3.0400     0.4370     0.5980 C.3   1 <1>  -0.1600 
 10 C       -2.4060     0.1910    -0.2840 C.ar  1 <1>  -0.1440 
 11 C       -3.9410     2.2890    -0.0560 C.ar  1 <1>  -0.1440 
 12 C       -2.0770     0.0670    -1.6350 C.ar  1 <1>   0.0820 
 13 C       -2.4750    -0.9690     0.4770 C.ar  1 <1>  -0.1500 
 14 C       -4.3170     3.4540     0.6040 C.ar  1 <1>  -0.1500 
 15 C       -4.7540     1.8380    -1.0910 C.ar  1 <1>  -0.1500 
 16 O       -1.9850     1.1440    -2.4340 O.3   1 <1>  -0.5320 
 17 C       -1.8400    -1.1770    -2.1990 C.ar  1 <1>  -0.1500 
 18 C       -2.2330    -2.2150    -0.0770 C.ar  1 <1>  -0.1440 
 19 C       -5.4440     4.1630     0.2250 C.ar  1 <1>  -0.1500 
 20 C       -5.8820     2.5430    -1.4740 C.ar  1 <1>  -0.1500 
 21 C       -1.9180    -2.3160    -1.4210 C.ar  1 <1>  -0.1500 
 22 C       -2.3170    -3.4580     0.7910 C.3   1 <1>  -0.0970 
 23 C       -6.2280     3.7090    -0.8190 C.ar  1 <1>  -0.1500 
 24 H       -1.0840     2.6130    -0.5760 H     1 <1>   0.0800 
 25 H       -1.6360     3.3710     0.8650 H     1 <1>   0.0800 
 26 H        1.4570     2.2590    -1.0400 H     1 <1>   0.0800 
 27 H        0.3810     0.8910    -1.3060 H     1 <1>   0.0800 
 28 H        1.4880    -0.2700     1.9150 H     1 <1>   0.0800 
 29 H        2.1460     1.2950     2.3790 H     1 <1>   0.0800 
 30 H       -2.8870     1.3140     1.4480 H     1 <1>   0.0800 
 31 H        3.0710     0.6170    -1.5720 H     1 <1>   0.0800 
 32 H        2.0490    -0.6640    -0.9520 H     1 <1>   0.0800 
 33 H        3.5960    -0.4470     0.8560 H     1 <1>   0.0800 
 34 H        3.6950     1.2890     0.6380 H     1 <1>   0.0800 
 35 H       -2.7180    -0.9070     1.5240 H     1 <1>   0.1500 
 36 H       -3.7370     3.8220     1.4310 H     1 <1>   0.1500 
 37 H       -4.5270     0.9280    -1.6140 H     1 <1>   0.1500 
 38 H       -1.8820     0.9150    -3.3740 H     1 <1>   0.4500 
 39 H       -1.5930    -1.2660    -3.2410 H     1 <1>   0.1500 
 40 H       -5.7120     5.0650     0.7460 H     1 <1>   0.1500 
 41 H       -6.4920     2.1780    -2.2820 H     1 <1>   0.1500 
 42 H       -1.7320    -3.2790    -1.8640 H     1 <1>   0.1500 
 43 H       -3.3460    -3.7460     0.9130 H     1 <1>   0.0800 
 44 H       -1.8930    -3.2620     1.7590 H     1 <1>   0.0800 
 45 H       -1.7790    -4.2730     0.3430 H     1 <1>   0.0800 
 46 H       -7.1040     4.2580    -1.1170 H     1 <1>   0.1500 
@<TRIPOS>BOND
  1   1   2  2   
  2   2   3  am  
  3   2   4  1   
  4   3   5  1   
  5   3   6  1   
  6   4   7  1   
  7   4  24  1   
  8   4  25  1   
  9   5   8  1   
 10   5  26  1   
 11   5  27  1   
 12   6   9  1   
 13   6  28  1   
 14   6  29  1   
 15   7  10  1   
 16   7  11  1   
 17   7  30  1   
 18   8   9  1   
 19   8  31  1   
 20   8  32  1   
 21   9  33  1   
 22   9  34  1   
 23  10  12  ar  
 24  10  13  ar  
 25  11  14  ar  
 26  11  15  ar  
 27  12  16  1   
 28  12  17  ar  
 29  13  18  ar  
 30  13  35  1   
 31  14  19  ar  
 32  14  36  1   
 33  15  20  ar  
 34  15  37  1   
 35  16  38  1   
 36  17  21  ar  
 37  17  39  1   
 38  18  21  ar  
 39  18  22  1   
 40  19  23  ar  
 41  19  40  1   
 42  20  23  ar  
 43  20  41  1   
 44  21  42  1   
 45  22  43  1   
 46  22  44  1   
 47  22  45  1   
 48  23  46  1   
@<TRIPOS>SUBSTRUCTURE
  1 ****  10 GROUP 4 **** **** 0

# MOE 2024.06 (io_trps.svl 2023.06)
