@<TRIPOS>MOLECULE
NONAME
24 26 1 0 0 
SMALL
USER_CHARGES


@<TRIPOS>ATOM
  1 O       -0.0670     0.3420    -0.0650 O.2   1 <1>  -0.5700 
  2 C       -0.1260     1.5620     0.0100 C.2   1 <1>   0.7150 
  3 N        1.0120     2.3310     0.0940 N.am  1 <1>  -0.4200 
  4 C       -1.3440     2.2640     0.0160 C.2   1 <1>  -0.2370 
  5 C        0.8910     3.7100     0.1780 C.2   1 <1>   0.4500 
  6 C        2.3490     1.6860     0.0950 C.3   1 <1>   0.0600 
  7 N       -2.6360     1.8990    -0.0470 N.pl3 1 <1>   0.0480 
  8 C       -1.3560     3.6190     0.1020 C.2   1 <1>   0.3520 
  9 N       -0.2120     4.3630     0.1860 N.2   1 <1>  -0.5750 
 10 C       -3.3270     3.0330     0.0040 C.2   1 <1>   0.0060 
 11 C       -3.4600     0.6970    -0.1450 C.3   1 <1>   0.0960 
 12 N       -2.6110     4.1070     0.0960 N.2   1 <1>  -0.5650 
 13 C       -4.8090     2.7880    -0.0560 C.3   1 <1>   0.0200 
 14 C       -4.8980     1.2450     0.0060 C.3   1 <1>  -0.1600 
 15 H        1.8140     4.2590     0.2420 H     1 <1>   0.0600 
 16 H        2.4230     1.0150     0.9330 H     1 <1>   0.0800 
 17 H        3.1280     2.4250     0.1640 H     1 <1>   0.0800 
 18 H        2.4760     1.1230    -0.8140 H     1 <1>   0.0800 
 19 H       -3.2020     0.0100     0.6410 H     1 <1>   0.0800 
 20 H       -3.3060     0.2430    -1.1070 H     1 <1>   0.0800 
 21 H       -5.2000     3.1690    -0.9830 H     1 <1>   0.0800 
 22 H       -5.3070     3.2560     0.7750 H     1 <1>   0.0800 
 23 H       -5.2920     0.9430     0.9610 H     1 <1>   0.0800 
 24 H       -5.5400     0.8580    -0.7660 H     1 <1>   0.0800 
@<TRIPOS>BOND
  1   1   2  2   
  2   2   3  am  
  3   2   4  1   
  4   3   5  1   
  5   3   6  1   
  6   4   7  1   
  7   4   8  2   
  8   5   9  2   
  9   5  15  1   
 10   6  16  1   
 11   6  17  1   
 12   6  18  1   
 13   7  10  1   
 14   7  11  1   
 15   8   9  1   
 16   8  12  1   
 17  10  12  2   
 18  10  13  1   
 19  11  14  1   
 20  11  19  1   
 21  11  20  1   
 22  13  14  1   
 23  13  21  1   
 24  13  22  1   
 25  14  23  1   
 26  14  24  1   
@<TRIPOS>SUBSTRUCTURE
  1 ****   4 GROUP 4 **** **** 0

# MOE 2024.06 (io_trps.svl 2023.06)
