@<TRIPOS>MOLECULE
NONAME
49 52 1 0 0 
SMALL
USER_CHARGES


@<TRIPOS>ATOM
  1 O        1.3020     0.2500    -2.0510 O.2   1 <1>  -0.5700 
  2 C        1.9400    -0.4050    -1.2580 C.2   1 <1>   0.4950 
  3 C        2.8450     0.1450    -0.3030 C.2   1 <1>  -0.1240 
  4 C        1.8150    -1.9120    -1.4040 C.3   1 <1>  -0.0990 
  5 C        3.8120    -0.6220     0.2860 C.2   1 <1>  -0.0380 
  6 C        2.6070     1.6410    -0.0610 C.3   1 <1>   0.6080 
  7 C        2.3920    -2.6890    -0.2090 C.3   1 <1>   0.0000 
  8 N        4.8970    -0.1920     1.0160 N.pl3 1 <1>  -0.6000 
  9 C        3.7950    -2.1380     0.1140 C.3   1 <1>  -0.0220 
 10 N        3.4030     2.2520     1.0210 N.pl3 1 <1>  -0.8690 
 11 C        1.1720     1.8950     0.3880 C.2   1 <1>  -0.1810 
 12 C        2.4900    -4.1810    -0.5670 C.3   1 <1>  -0.2400 
 13 C        1.4640    -2.5500     1.0140 C.3   1 <1>  -0.2400 
 14 C        5.5210     1.0650     0.9460 C.ar  1 <1>   0.1000 
 15 C        4.7880     2.2580     0.9260 C.ar  1 <1>   0.1000 
 16 C        0.1390     2.5400    -0.2050 C.2   1 <1>  -0.3320 
 17 C        0.6560     1.4510     1.5990 C.2   1 <1>   0.1390 
 18 C        6.9060     1.1220     0.9010 C.ar  1 <1>  -0.1500 
 19 C        5.4580     3.4710     0.8580 C.ar  1 <1>  -0.1500 
 20 N       -0.9120     2.4470     0.6410 N.pl3 1 <1>   0.3140 
 21 C        0.0830     3.2280    -1.5600 C.3   1 <1>  -0.0600 
 22 N       -0.5890     1.7770     1.7580 N.2   1 <1>  -0.7070 
 23 C        7.5670     2.3370     0.8300 C.ar  1 <1>  -0.1500 
 24 C        6.8410     3.5140     0.8070 C.ar  1 <1>  -0.1500 
 25 C       -2.2680     2.9670     0.4340 C.3   1 <1>   0.0160 
 26 H        2.3340    -2.1870    -2.3030 H     1 <1>   0.0800 
 27 H        0.7780    -2.1610    -1.5390 H     1 <1>   0.0800 
 28 H        2.8000     2.1750    -0.9740 H     1 <1>   0.0800 
 29 H        5.4550    -0.9020     1.4940 H     1 <1>   0.4000 
 30 H        4.1480    -2.6080     1.0150 H     1 <1>   0.0800 
 31 H        4.4800    -2.3920    -0.6760 H     1 <1>   0.0800 
 32 H        2.9820     3.1520     1.2530 H     1 <1>   0.4000 
 33 H        3.1320    -4.3290    -1.4170 H     1 <1>   0.0800 
 34 H        1.5180    -4.5760    -0.8050 H     1 <1>   0.0800 
 35 H        2.8900    -4.7420     0.2600 H     1 <1>   0.0800 
 36 H        1.3510    -1.5230     1.3110 H     1 <1>   0.0800 
 37 H        1.8600    -3.0950     1.8530 H     1 <1>   0.0800 
 38 H        0.4860    -2.9390     0.7930 H     1 <1>   0.0800 
 39 H        1.2280     0.9010     2.3290 H     1 <1>   0.1500 
 40 H        7.4750     0.2120     0.9160 H     1 <1>   0.1500 
 41 H        4.8970     4.3860     0.8490 H     1 <1>   0.1500 
 42 H        1.0340     3.1690    -2.0570 H     1 <1>   0.0800 
 43 H       -0.1810     4.2640    -1.4450 H     1 <1>   0.0800 
 44 H       -0.6470     2.7450    -2.1850 H     1 <1>   0.0800 
 45 H        8.6420     2.3660     0.7920 H     1 <1>   0.1500 
 46 H        7.3490     4.4610     0.7520 H     1 <1>   0.1500 
 47 H       -2.2230     4.0310     0.3110 H     1 <1>   0.0800 
 48 H       -2.8700     2.7270     1.2910 H     1 <1>   0.0800 
 49 H       -2.6890     2.5100    -0.4410 H     1 <1>   0.0800 
@<TRIPOS>BOND
  1   1   2  2   
  2   2   3  1   
  3   2   4  1   
  4   3   5  2   
  5   3   6  1   
  6   4   7  1   
  7   4  26  1   
  8   4  27  1   
  9   5   8  1   
 10   5   9  1   
 11   6  10  1   
 12   6  11  1   
 13   6  28  1   
 14   7   9  1   
 15   7  12  1   
 16   7  13  1   
 17   8  14  1   
 18   8  29  1   
 19   9  30  1   
 20   9  31  1   
 21  10  15  1   
 22  10  32  1   
 23  11  16  2   
 24  11  17  1   
 25  12  33  1   
 26  12  34  1   
 27  12  35  1   
 28  13  36  1   
 29  13  37  1   
 30  13  38  1   
 31  14  15  ar  
 32  14  18  ar  
 33  15  19  ar  
 34  16  20  1   
 35  16  21  1   
 36  17  22  2   
 37  17  39  1   
 38  18  23  ar  
 39  18  40  1   
 40  19  24  ar  
 41  19  41  1   
 42  20  22  1   
 43  20  25  1   
 44  21  42  1   
 45  21  43  1   
 46  21  44  1   
 47  23  24  ar  
 48  23  45  1   
 49  24  46  1   
 50  25  47  1   
 51  25  48  1   
 52  25  49  1   
@<TRIPOS>SUBSTRUCTURE
  1 ****   3 GROUP 4 **** **** 0

# MOE 2024.06 (io_trps.svl 2023.06)
