@<TRIPOS>MOLECULE
NONAME
44 46 1 0 0 
SMALL
USER_CHARGES


@<TRIPOS>ATOM
  1 CL      -0.6500    -0.0660     1.5650 Cl    1 <1>  -0.1770 
  2 C       -1.3350     1.3780     0.8620 C.ar  1 <1>   0.1770 
  3 C       -2.7050     1.4700     0.7090 C.ar  1 <1>  -0.1500 
  4 C       -0.4930     2.4020     0.4700 C.ar  1 <1>  -0.1500 
  5 C       -3.2610     2.6150     0.1560 C.ar  1 <1>   0.1170 
  6 C       -1.0370     3.5460    -0.0880 C.ar  1 <1>  -0.1500 
  7 N       -4.6590     2.7150     0.0010 N.am  1 <1>  -0.2370 
  8 C       -2.4140     3.6560    -0.2410 C.ar  1 <1>   0.0830 
  9 C       -5.3740     2.0820    -0.9720 C.2   1 <1>   0.5690 
 10 C       -5.4510     3.6150     0.6500 C.2   1 <1>   0.5690 
 11 O       -2.9460     4.7730    -0.7960 O.3   1 <1>  -0.3630 
 12 O       -4.9070     1.3530    -1.8170 O.2   1 <1>  -0.5700 
 13 C       -6.8580     2.4780    -0.9130 C.3   1 <1>   0.2510 
 14 O       -5.1240     4.3210     1.5710 O.2   1 <1>  -0.5700 
 15 C       -6.8400     3.6610     0.0680 C.3   1 <1>  -0.0990 
 16 C       -2.7380     5.9850    -0.1040 C.3   1 <1>   0.0400 
 17 N       -7.8140     1.4460    -0.4040 N.3   1 <1>  -0.8100 
 18 C       -9.2200     1.8730    -0.6160 C.3   1 <1>   0.1100 
 19 C       -7.5890     0.0970    -0.9580 C.3   1 <1>   0.1100 
 20 C      -10.2400     0.7380    -0.4110 C.3   1 <1>  -0.1600 
 21 C       -8.4040    -0.9490    -0.1790 C.3   1 <1>  -0.1600 
 22 C       -9.6790    -0.3810     0.4700 C.3   1 <1>  -0.0800 
 23 C      -10.7180    -1.4810     0.7150 C.3   1 <1>  -0.2400 
 24 H       -3.3330     0.6540     1.0190 H     1 <1>   0.1500 
 25 H        0.5700     2.2990     0.5970 H     1 <1>   0.1500 
 26 H       -0.3950     4.3450    -0.4110 H     1 <1>   0.1500 
 27 H       -7.1580     2.8000    -1.8950 H     1 <1>   0.0800 
 28 H       -6.9690     4.5910    -0.4510 H     1 <1>   0.0800 
 29 H       -7.5610     3.5710     0.8590 H     1 <1>   0.0800 
 30 H       -3.3390     6.7450    -0.5690 H     1 <1>   0.0800 
 31 H       -1.6990     6.2540    -0.1620 H     1 <1>   0.0800 
 32 H       -3.0390     5.8570     0.9220 H     1 <1>   0.0800 
 33 H       -9.3430     2.2660    -1.6120 H     1 <1>   0.0800 
 34 H       -9.4500     2.6600     0.0800 H     1 <1>   0.0800 
 35 H       -6.5540    -0.1860    -0.8910 H     1 <1>   0.0800 
 36 H       -7.8730     0.0860    -1.9980 H     1 <1>   0.0800 
 37 H      -10.5060     0.3340    -1.3720 H     1 <1>   0.0800 
 38 H      -11.1350     1.1450     0.0250 H     1 <1>   0.0800 
 39 H       -7.7840    -1.3720     0.5910 H     1 <1>   0.0800 
 40 H       -8.6520    -1.7440    -0.8580 H     1 <1>   0.0800 
 41 H       -9.4080     0.0520     1.4200 H     1 <1>   0.0800 
 42 H      -11.0300    -1.9230    -0.2140 H     1 <1>   0.0800 
 43 H      -11.5820    -1.0730     1.2090 H     1 <1>   0.0800 
 44 H      -10.3010    -2.2500     1.3410 H     1 <1>   0.0800 
@<TRIPOS>BOND
  1   1   2  1   
  2   2   3  ar  
  3   2   4  ar  
  4   3   5  ar  
  5   3  24  1   
  6   4   6  ar  
  7   4  25  1   
  8   5   7  1   
  9   5   8  ar  
 10   6   8  ar  
 11   6  26  1   
 12   7   9  am  
 13   7  10  am  
 14   8  11  1   
 15   9  12  2   
 16   9  13  1   
 17  10  14  2   
 18  10  15  1   
 19  11  16  1   
 20  13  15  1   
 21  13  17  1   
 22  13  27  1   
 23  15  28  1   
 24  15  29  1   
 25  16  30  1   
 26  16  31  1   
 27  16  32  1   
 28  17  18  1   
 29  17  19  1   
 30  18  20  1   
 31  18  33  1   
 32  18  34  1   
 33  19  21  1   
 34  19  35  1   
 35  19  36  1   
 36  20  22  1   
 37  20  37  1   
 38  20  38  1   
 39  21  22  1   
 40  21  39  1   
 41  21  40  1   
 42  22  23  1   
 43  22  41  1   
 44  23  42  1   
 45  23  43  1   
 46  23  44  1   
@<TRIPOS>SUBSTRUCTURE
  1 ****   7 GROUP 4 **** **** 0

# MOE 2024.06 (io_trps.svl 2023.06)
