@<TRIPOS>MOLECULE
NONAME
39 40 1 0 0 
SMALL
USER_CHARGES


@<TRIPOS>ATOM
  1 S        0.2140    -0.8130    -1.0990 S.3   1 <1>  -0.4600 
  2 C        1.7950     0.0340    -1.3540 C.3   1 <1>   0.0700 
  3 C        0.7280    -2.4350    -0.4780 C.3   1 <1>   0.0700 
  4 C        2.6200    -0.0440    -0.0630 C.3   1 <1>   0.3430 
  5 C        1.6690    -2.2370     0.7180 C.3   1 <1>   0.3430 
  6 N        2.9050    -1.4640     0.3560 N.4   1 <1>  -0.9590 
  7 C        3.9040    -1.5020     1.4600 C.3   1 <1>   0.4860 
  8 C        5.2190    -0.9690     0.9220 C.ar  1 <1>  -0.1430 
  9 C        6.0090    -1.6800     0.0170 C.ar  1 <1>  -0.1430 
 10 C        5.6160     0.2880     1.3500 C.ar  1 <1>  -0.1500 
 11 C        7.1720    -1.0940    -0.4860 C.ar  1 <1>  -0.1430 
 12 C        5.6340    -3.0990    -0.4240 C.3   1 <1>  -0.0970 
 13 C        6.7780     0.8550     0.8740 C.ar  1 <1>  -0.1500 
 14 C        7.5610     0.1720    -0.0480 C.ar  1 <1>   0.0830 
 15 C        8.0470    -1.8270    -1.5110 C.3   1 <1>  -0.0970 
 16 O        8.7150     0.7000    -0.5380 O.3   1 <1>  -0.3630 
 17 C        9.2680     1.9020    -0.0480 C.3   1 <1>   0.0400 
 18 H        1.5680     1.0550    -1.6080 H     1 <1>   0.0800 
 19 H        2.2970    -0.4380    -2.1800 H     1 <1>   0.0800 
 20 H        1.2050    -2.9620    -1.2850 H     1 <1>   0.0800 
 21 H       -0.1680    -2.9560    -0.1870 H     1 <1>   0.0800 
 22 H        2.0870     0.4680     0.7210 H     1 <1>   0.0800 
 23 H        3.5490     0.4780    -0.2280 H     1 <1>   0.0800 
 24 H        1.9470    -3.2070     1.0950 H     1 <1>   0.0800 
 25 H        1.1320    -1.7200     1.4970 H     1 <1>   0.0800 
 26 H        3.3700    -1.9160    -0.4410 H     1 <1>   0.4500 
 27 H        4.0440    -2.5110     1.8090 H     1 <1>   0.0800 
 28 H        3.5700    -0.9000     2.2890 H     1 <1>   0.0800 
 29 H        5.0300     0.8440     2.0630 H     1 <1>   0.1500 
 30 H        4.9180    -3.5670     0.2220 H     1 <1>   0.0800 
 31 H        6.5070    -3.7290    -0.4090 H     1 <1>   0.0800 
 32 H        5.2460    -3.0850    -1.4260 H     1 <1>   0.0800 
 33 H        7.0590     1.8290     1.2290 H     1 <1>   0.1500 
 34 H        7.4530    -2.3840    -2.2100 H     1 <1>   0.0800 
 35 H        8.7150    -2.4980    -1.0020 H     1 <1>   0.0800 
 36 H        8.6390    -1.1430    -2.0910 H     1 <1>   0.0800 
 37 H       10.2040     2.0670    -0.5510 H     1 <1>   0.0800 
 38 H        9.4370     1.8030     1.0100 H     1 <1>   0.0800 
 39 H        8.5930     2.7110    -0.2600 H     1 <1>   0.0800 
@<TRIPOS>BOND
  1   1   2  1   
  2   1   3  1   
  3   2   4  1   
  4   2  18  1   
  5   2  19  1   
  6   3   5  1   
  7   3  20  1   
  8   3  21  1   
  9   4   6  1   
 10   4  22  1   
 11   4  23  1   
 12   5   6  1   
 13   5  24  1   
 14   5  25  1   
 15   6   7  1   
 16   6  26  1   
 17   7   8  1   
 18   7  27  1   
 19   7  28  1   
 20   8   9  ar  
 21   8  10  ar  
 22   9  11  ar  
 23   9  12  1   
 24  10  13  ar  
 25  10  29  1   
 26  11  14  ar  
 27  11  15  1   
 28  12  30  1   
 29  12  31  1   
 30  12  32  1   
 31  13  14  ar  
 32  13  33  1   
 33  14  16  1   
 34  15  34  1   
 35  15  35  1   
 36  15  36  1   
 37  16  17  1   
 38  17  37  1   
 39  17  38  1   
 40  17  39  1   
@<TRIPOS>SUBSTRUCTURE
  1 ****   8 GROUP 4 **** **** 0

# MOE 2024.06 (io_trps.svl 2023.06)
