@<TRIPOS>MOLECULE
NONAME
48 50 1 0 0 
SMALL
USER_CHARGES


@<TRIPOS>ATOM
  1 F       -0.5960    -3.8310    -2.2420 F     1 <1>  -0.1900 
  2 C       -1.4320    -3.1550    -1.4880 C.ar  1 <1>   0.1900 
  3 C       -1.0610    -2.8130    -0.1810 C.ar  1 <1>   0.1000 
  4 C       -2.6520    -2.8120    -2.0350 C.ar  1 <1>  -0.1500 
  5 N        0.1680    -3.1420     0.4100 N.pl3 1 <1>  -0.8380 
  6 C       -1.9880    -2.0980     0.5660 C.ar  1 <1>  -0.1500 
  7 C       -3.5540    -2.0990    -1.2620 C.ar  1 <1>  -0.1500 
  8 C        1.3580    -2.4520    -0.1780 C.3   1 <1>   0.2090 
  9 C        0.3830    -4.6010     0.6540 C.3   1 <1>   0.2090 
 10 C       -3.2180    -1.7440     0.0360 C.ar  1 <1>  -0.1500 
 11 C        2.6240    -2.7050     0.6670 C.3   1 <1>   0.3430 
 12 C        1.6500    -4.8440     1.5000 C.3   1 <1>   0.3430 
 13 N        2.8620    -4.1740     0.9140 N.4   1 <1>  -0.9590 
 14 C        4.0920    -4.4180     1.7030 C.3   1 <1>   0.4860 
 15 C        5.2770    -3.9450     0.8870 C.ar  1 <1>  -0.1430 
 16 C        5.5580    -4.5230    -0.3470 C.ar  1 <1>   0.0830 
 17 C        6.0830    -2.9260     1.3700 C.ar  1 <1>  -0.1500 
 18 O        4.7270    -5.5120    -0.7820 O.3   1 <1>  -0.3630 
 19 C        6.6510    -4.0730    -1.0840 C.ar  1 <1>  -0.1500 
 20 C        7.1660    -2.4750     0.6370 C.ar  1 <1>   0.0830 
 21 C        5.0680    -6.3020    -1.9050 C.3   1 <1>   0.0400 
 22 C        7.4500    -3.0540    -0.5960 C.ar  1 <1>  -0.1500 
 23 O        7.8920    -1.4710     1.1890 O.3   1 <1>  -0.3620 
 24 C        9.0730    -1.0000     0.5760 C.3   1 <1>   0.0400 
 25 H       -2.8930    -3.0970    -3.0430 H     1 <1>   0.1500 
 26 H       -1.7380    -1.8180     1.5730 H     1 <1>   0.1500 
 27 H       -4.5120    -1.8210    -1.6670 H     1 <1>   0.1500 
 28 H        1.1660    -1.3930    -0.2220 H     1 <1>   0.0800 
 29 H        1.5220    -2.7990    -1.1830 H     1 <1>   0.0800 
 30 H        0.4720    -5.1190    -0.2850 H     1 <1>   0.0800 
 31 H       -0.4730    -5.0010     1.1720 H     1 <1>   0.0800 
 32 H       -3.9200    -1.1900     0.6350 H     1 <1>   0.1500 
 33 H        2.5060    -2.1950     1.6080 H     1 <1>   0.0800 
 34 H        3.4730    -2.2750     0.1610 H     1 <1>   0.0800 
 35 H        1.8200    -5.9050     1.5790 H     1 <1>   0.0800 
 36 H        1.4690    -4.4600     2.4900 H     1 <1>   0.0800 
 37 H        3.0680    -4.6060    -0.0020 H     1 <1>   0.4500 
 38 H        4.2030    -5.4720     1.8980 H     1 <1>   0.0800 
 39 H        4.0490    -3.8920     2.6420 H     1 <1>   0.0800 
 40 H        5.8930    -2.4630     2.3230 H     1 <1>   0.1500 
 41 H        6.8980    -4.4960    -2.0400 H     1 <1>   0.1500 
 42 H        5.0750    -5.6830    -2.7850 H     1 <1>   0.0800 
 43 H        4.3300    -7.0770    -2.0130 H     1 <1>   0.0800 
 44 H        6.0360    -6.7450    -1.7420 H     1 <1>   0.0800 
 45 H        8.2860    -2.7250    -1.1850 H     1 <1>   0.1500 
 46 H        9.4950    -0.2370     1.2060 H     1 <1>   0.0800 
 47 H        8.8280    -0.5830    -0.3840 H     1 <1>   0.0800 
 48 H        9.7670    -1.8160     0.4780 H     1 <1>   0.0800 
@<TRIPOS>BOND
  1   1   2  1   
  2   2   3  ar  
  3   2   4  ar  
  4   3   5  1   
  5   3   6  ar  
  6   4   7  ar  
  7   4  25  1   
  8   5   8  1   
  9   5   9  1   
 10   6  10  ar  
 11   6  26  1   
 12   7  10  ar  
 13   7  27  1   
 14   8  11  1   
 15   8  28  1   
 16   8  29  1   
 17   9  12  1   
 18   9  30  1   
 19   9  31  1   
 20  10  32  1   
 21  11  13  1   
 22  11  33  1   
 23  11  34  1   
 24  12  13  1   
 25  12  35  1   
 26  12  36  1   
 27  13  14  1   
 28  13  37  1   
 29  14  15  1   
 30  14  38  1   
 31  14  39  1   
 32  15  16  ar  
 33  15  17  ar  
 34  16  18  1   
 35  16  19  ar  
 36  17  20  ar  
 37  17  40  1   
 38  18  21  1   
 39  19  22  ar  
 40  19  41  1   
 41  20  22  ar  
 42  20  23  1   
 43  21  42  1   
 44  21  43  1   
 45  21  44  1   
 46  22  45  1   
 47  23  24  1   
 48  24  46  1   
 49  24  47  1   
 50  24  48  1   
@<TRIPOS>SUBSTRUCTURE
  1 ****  11 GROUP 4 **** **** 0

# MOE 2024.06 (io_trps.svl 2023.06)
