@<TRIPOS>MOLECULE
NONAME
44 45 1 0 0 
SMALL
USER_CHARGES


@<TRIPOS>ATOM
  1 BR       0.2760    -0.1460     0.0640 Br    1 <1>  -0.1110 
  2 C        1.1750     1.5610    -0.0280 C.ar  1 <1>   0.1110 
  3 C        0.4430     2.7310     0.1170 C.ar  1 <1>   0.0830 
  4 C        2.5370     1.5450    -0.2450 C.ar  1 <1>  -0.1500 
  5 O       -0.9010     2.6000     0.3170 O.3   1 <1>  -0.3630 
  6 C        1.1450     3.9450     0.0540 C.ar  1 <1>   0.0830 
  7 C        3.2470     2.7410    -0.3270 C.ar  1 <1>   0.0540 
  8 C       -1.8150     3.5480    -0.1870 C.3   1 <1>   0.0400 
  9 O        0.4740     5.1200     0.2340 O.3   1 <1>  -0.3630 
 10 C        2.5210     3.9260    -0.1730 C.ar  1 <1>  -0.1500 
 11 C        4.6810     2.7460    -0.5610 C.2   1 <1>   0.4620 
 12 C        1.1390     6.3500     0.4110 C.3   1 <1>   0.1200 
 13 N        5.4200     1.7050    -0.7190 N.2   1 <1>  -0.4100 
 14 N        5.3960     3.8730    -0.6370 N.2   1 <1>  -0.5650 
 15 C        0.0880     7.4100     0.7220 C.3   1 <1>  -0.2400 
 16 O        6.6380     2.1060    -0.9060 O.3   1 <1>  -0.0190 
 17 C        6.5580     3.4090    -0.8440 C.2   1 <1>   0.2980 
 18 C        7.8220     4.2260    -1.0180 C.3   1 <1>   0.0200 
 19 C        8.7760     4.0390     0.1700 C.3   1 <1>  -0.0990 
 20 C       10.0510     4.8250    -0.0330 C.2   1 <1>   0.5690 
 21 O        9.9770     6.0230    -0.1530 O.2   1 <1>  -0.5700 
 22 N       11.2310     4.1580    -0.0820 N.am  1 <1>  -0.7300 
 23 C       12.5520     4.7920    -0.2580 C.3   1 <1>   0.1400 
 24 C       13.5030     4.2320     0.7930 C.3   1 <1>  -0.2400 
 25 H        3.0420     0.6010    -0.3510 H     1 <1>   0.1500 
 26 H       -2.7800     3.0810    -0.2520 H     1 <1>   0.0800 
 27 H       -1.4920     3.8660    -1.1630 H     1 <1>   0.0800 
 28 H       -1.8600     4.3820     0.4910 H     1 <1>   0.0800 
 29 H        3.0690     4.8460    -0.2370 H     1 <1>   0.1500 
 30 H        1.6630     6.5910    -0.4970 H     1 <1>   0.0800 
 31 H        1.8320     6.2500     1.2300 H     1 <1>   0.0800 
 32 H       -0.6070     7.4920    -0.0940 H     1 <1>   0.0800 
 33 H        0.5630     8.3630     0.8660 H     1 <1>   0.0800 
 34 H       -0.4420     7.1510     1.6220 H     1 <1>   0.0800 
 35 H        7.5570     5.2660    -1.1060 H     1 <1>   0.0800 
 36 H        8.3080     3.9290    -1.9310 H     1 <1>   0.0800 
 37 H        9.0060     2.9970     0.2950 H     1 <1>   0.0800 
 38 H        8.3010     4.3890     1.0680 H     1 <1>   0.0800 
 39 H       11.2490     3.1440     0.0270 H     1 <1>   0.3700 
 40 H       12.4670     5.8610    -0.1470 H     1 <1>   0.0800 
 41 H       12.9220     4.5790    -1.2470 H     1 <1>   0.0800 
 42 H       13.1330     4.4490     1.7800 H     1 <1>   0.0800 
 43 H       14.4680     4.6930     0.6850 H     1 <1>   0.0800 
 44 H       13.6170     3.1700     0.6740 H     1 <1>   0.0800 
@<TRIPOS>BOND
  1   1   2  1   
  2   2   3  ar  
  3   2   4  ar  
  4   3   5  1   
  5   3   6  ar  
  6   4   7  ar  
  7   4  25  1   
  8   5   8  1   
  9   6   9  1   
 10   6  10  ar  
 11   7  10  ar  
 12   7  11  1   
 13   8  26  1   
 14   8  27  1   
 15   8  28  1   
 16   9  12  1   
 17  10  29  1   
 18  11  13  2   
 19  11  14  1   
 20  12  15  1   
 21  12  30  1   
 22  12  31  1   
 23  13  16  1   
 24  14  17  2   
 25  15  32  1   
 26  15  33  1   
 27  15  34  1   
 28  16  17  1   
 29  17  18  1   
 30  18  19  1   
 31  18  35  1   
 32  18  36  1   
 33  19  20  1   
 34  19  37  1   
 35  19  38  1   
 36  20  21  2   
 37  20  22  am  
 38  22  23  1   
 39  22  39  1   
 40  23  24  1   
 41  23  40  1   
 42  23  41  1   
 43  24  42  1   
 44  24  43  1   
 45  24  44  1   
@<TRIPOS>SUBSTRUCTURE
  1 ****  14 GROUP 4 **** **** 0

# MOE 2024.06 (io_trps.svl 2023.06)
