@<TRIPOS>MOLECULE
NONAME
38 40 1 0 0 
SMALL
USER_CHARGES


@<TRIPOS>ATOM
  1 O       -2.4030     0.7350     0.5210 O.2   1 <1>  -0.5700 
  2 C       -2.9510     1.7740     0.2200 C.2   1 <1>   0.9370 
  3 N       -4.2710     1.9860     0.6260 N.pl3 1 <1>  -0.5760 
  4 C       -2.2790     2.7710    -0.5360 C.2   1 <1>  -0.1360 
  5 C       -4.8660     3.1360     0.2670 C.cat 1 <1>   0.7390 
  6 C       -4.9850     1.0830     1.3840 C.2   1 <1>   0.1910 
  7 C       -2.9160     3.9130    -0.8680 C.2   1 <1>   0.2030 
  8 N       -4.2070     4.0520    -0.4500 N.pl3 1 <1>  -0.6450 
  9 C       -6.2050     3.4360     0.6220 C.2   1 <1>  -0.1800 
 10 C       -6.2780     1.3400     1.7710 C.2   1 <1>  -0.1500 
 11 C       -2.3150     5.0520    -1.6650 C.3   1 <1>  -0.1020 
 12 O       -6.7200     4.5260     0.2200 O.3   1 <1>  -0.8500 
 13 C       -6.9190     2.5250     1.4040 C.2   1 <1>  -0.1380 
 14 C       -8.3430     2.8220     1.8640 C.3   1 <1>   0.4810 
 15 N       -9.0640     3.4530     0.7470 N.4   1 <1>  -0.9590 
 16 C      -10.1860     4.3530     1.1310 C.3   1 <1>   0.3430 
 17 C       -9.3870     2.5390    -0.3840 C.3   1 <1>   0.3430 
 18 C      -10.7970     5.0240    -0.1150 C.3   1 <1>   0.1200 
 19 C      -10.0390     3.3180    -1.5420 C.3   1 <1>   0.1200 
 20 O      -11.1310     4.0610    -1.0760 O.3   1 <1>  -0.5600 
 21 H       -1.2660     2.5620    -0.8150 H     1 <1>   0.1500 
 22 H       -4.4980     0.1620     1.6740 H     1 <1>   0.1500 
 23 H       -4.8370     4.8590    -0.6080 H     1 <1>   0.4500 
 24 H       -6.7990     0.6150     2.3710 H     1 <1>   0.1500 
 25 H       -2.3240     5.9550    -1.0810 H     1 <1>   0.0800 
 26 H       -2.8860     5.2150    -2.5620 H     1 <1>   0.0800 
 27 H       -1.2990     4.8310    -1.9400 H     1 <1>   0.0800 
 28 H       -8.2940     3.5070     2.6940 H     1 <1>   0.0800 
 29 H       -8.8450     1.9220     2.1770 H     1 <1>   0.0800 
 30 H       -8.2870     4.0670     0.3810 H     1 <1>   0.4500 
 31 H       -9.8280     5.1150     1.8040 H     1 <1>   0.0800 
 32 H      -10.9550     3.7900     1.6320 H     1 <1>   0.0800 
 33 H      -10.0680     1.7720    -0.0560 H     1 <1>   0.0800 
 34 H       -8.4850     2.0670    -0.7380 H     1 <1>   0.0800 
 35 H      -10.1020     5.7220    -0.5500 H     1 <1>   0.0800 
 36 H      -11.6950     5.5520     0.1500 H     1 <1>   0.0800 
 37 H      -10.3980     2.6380    -2.2930 H     1 <1>   0.0800 
 38 H       -9.3280     3.9890    -1.9940 H     1 <1>   0.0800 
@<TRIPOS>BOND
  1   1   2  2   
  2   2   3  1   
  3   2   4  1   
  4   3   5  ar  
  5   3   6  1   
  6   4   7  2   
  7   4  21  1   
  8   5   8  ar  
  9   5   9  1   
 10   6  10  2   
 11   6  22  1   
 12   7   8  1   
 13   7  11  1   
 14   8  23  1   
 15   9  12  1   
 16   9  13  2   
 17  10  13  1   
 18  10  24  1   
 19  11  25  1   
 20  11  26  1   
 21  11  27  1   
 22  13  14  1   
 23  14  15  1   
 24  14  28  1   
 25  14  29  1   
 26  15  16  1   
 27  15  17  1   
 28  15  30  1   
 29  16  18  1   
 30  16  31  1   
 31  16  32  1   
 32  17  19  1   
 33  17  33  1   
 34  17  34  1   
 35  18  20  1   
 36  18  35  1   
 37  18  36  1   
 38  19  20  1   
 39  19  37  1   
 40  19  38  1   
@<TRIPOS>SUBSTRUCTURE
  1 ****   9 GROUP 4 **** **** 0

# MOE 2024.06 (io_trps.svl 2023.06)
