@<TRIPOS>MOLECULE
NONAME
40 41 1 0 0 
SMALL
USER_CHARGES


@<TRIPOS>ATOM
  1 S        0.8890    -0.1610    -0.3810 S.o2  1 <1>   1.3330 
  2 O        1.7760     0.2910    -1.4240 O.2   1 <1>  -0.6500 
  3 O        1.1490    -1.3860     0.3270 O.2   1 <1>  -0.6500 
  4 N        0.9370     1.0440     0.8360 N.am  1 <1>  -0.7570 
  5 C       -0.8040    -0.1360    -0.9270 C.3   1 <1>  -0.1350 
  6 C        1.0740     2.3980     0.5560 C.ar  1 <1>   0.1990 
  7 C        2.3150     3.0560     0.6150 C.ar  1 <1>   0.0860 
  8 C       -0.0680     3.1250     0.2320 C.ar  1 <1>  -0.1500 
  9 C        3.5370     2.3590     0.9350 C.2   1 <1>   0.5440 
 10 C        2.3520     4.4260     0.3540 C.ar  1 <1>  -0.1500 
 11 C       -0.0060     4.4770    -0.0350 C.ar  1 <1>  -0.1500 
 12 O        4.2340     2.7330     1.8580 O.2   1 <1>  -0.5700 
 13 N        3.9280     1.2750     0.2050 N.am  1 <1>  -0.7300 
 14 C        1.2110     5.1320     0.0280 C.ar  1 <1>  -0.1500 
 15 C        5.1020     0.4270     0.4540 C.3   1 <1>   0.2200 
 16 C        6.0400     0.5190    -0.7530 C.3   1 <1>  -0.1600 
 17 C        4.6270    -1.0120     0.6780 C.3   1 <1>  -0.1600 
 18 C        7.2330    -0.4360    -0.6040 C.3   1 <1>  -0.1600 
 19 C        5.8170    -1.9710     0.8320 C.3   1 <1>  -0.1600 
 20 C        6.7620    -1.8790    -0.3730 C.3   1 <1>  -0.1600 
 21 H        1.5680     0.6900     1.5560 H     1 <1>   0.4200 
 22 H       -0.9650    -0.9100    -1.6520 H     1 <1>   0.0800 
 23 H       -1.0360     0.8080    -1.3790 H     1 <1>   0.0800 
 24 H       -1.4630    -0.3000    -0.0980 H     1 <1>   0.0800 
 25 H       -1.0190     2.6250     0.2030 H     1 <1>   0.1500 
 26 H        3.2990     4.9360     0.4110 H     1 <1>   0.1500 
 27 H       -0.8980     5.0260    -0.2850 H     1 <1>   0.1500 
 28 H        3.3570     0.9840    -0.6020 H     1 <1>   0.3700 
 29 H        1.2660     6.1890    -0.1730 H     1 <1>   0.1500 
 30 H        5.6220     0.7710     1.3340 H     1 <1>   0.0800 
 31 H        6.4000     1.5290    -0.8450 H     1 <1>   0.0800 
 32 H        5.4970     0.2670    -1.6480 H     1 <1>   0.0800 
 33 H        4.0310    -1.3290    -0.1600 H     1 <1>   0.0800 
 34 H        4.0180    -1.0550     1.5630 H     1 <1>   0.0800 
 35 H        7.8380    -0.1210     0.2290 H     1 <1>   0.0800 
 36 H        7.8430    -0.3920    -1.4900 H     1 <1>   0.0800 
 37 H        5.4540    -2.9800     0.9310 H     1 <1>   0.0800 
 38 H        6.3580    -1.7260     1.7300 H     1 <1>   0.0800 
 39 H        7.6150    -2.5160    -0.2130 H     1 <1>   0.0800 
 40 H        6.2490    -2.2300    -1.2530 H     1 <1>   0.0800 
@<TRIPOS>BOND
  1   1   2  2   
  2   1   3  2   
  3   1   4  am  
  4   1   5  1   
  5   4   6  1   
  6   4  21  1   
  7   5  22  1   
  8   5  23  1   
  9   5  24  1   
 10   6   7  ar  
 11   6   8  ar  
 12   7   9  1   
 13   7  10  ar  
 14   8  11  ar  
 15   8  25  1   
 16   9  12  2   
 17   9  13  am  
 18  10  14  ar  
 19  10  26  1   
 20  11  14  ar  
 21  11  27  1   
 22  13  15  1   
 23  13  28  1   
 24  14  29  1   
 25  15  16  1   
 26  15  17  1   
 27  15  30  1   
 28  16  18  1   
 29  16  31  1   
 30  16  32  1   
 31  17  19  1   
 32  17  33  1   
 33  17  34  1   
 34  18  20  1   
 35  18  35  1   
 36  18  36  1   
 37  19  20  1   
 38  19  37  1   
 39  19  38  1   
 40  20  39  1   
 41  20  40  1   
@<TRIPOS>SUBSTRUCTURE
  1 ****  13 GROUP 4 **** **** 0

# MOE 2024.06 (io_trps.svl 2023.06)
