@<TRIPOS>MOLECULE
NONAME
34 34 1 0 0 
SMALL
USER_CHARGES


@<TRIPOS>ATOM
  1 O        1.0060     0.9120    -2.7460 O.2   1 <1>  -0.5700 
  2 C        0.1870     0.8330    -1.8620 C.2   1 <1>   0.5690 
  3 N        0.5180     0.9790    -0.5540 N.am  1 <1>  -0.7300 
  4 C       -1.2640     0.5690    -2.2320 C.3   1 <1>   0.0440 
  5 C        1.8450     1.3380    -0.0150 C.3   1 <1>   0.1400 
  6 C       -2.2120     0.6990    -1.0400 C.ar  1 <1>  -0.1430 
  7 C        1.7520     2.6410     0.7970 C.3   1 <1>  -0.0800 
  8 C       -2.5870     1.9550    -0.5870 C.ar  1 <1>  -0.1500 
  9 C       -2.6840    -0.4290    -0.3870 C.ar  1 <1>  -0.1500 
 10 C        3.1390     3.0290     1.3240 C.3   1 <1>  -0.2400 
 11 C        0.7670     2.5300     1.9740 C.3   1 <1>  -0.2400 
 12 C       -3.4180     2.0910     0.5120 C.ar  1 <1>  -0.1430 
 13 C       -3.5190    -0.2990     0.7080 C.ar  1 <1>  -0.1500 
 14 C       -3.8850     0.9570     1.1560 C.ar  1 <1>  -0.1500 
 15 C       -3.8170     3.4720     1.0000 C.3   1 <1>  -0.0970 
 16 H       -0.2420     0.9330     0.1340 H     1 <1>   0.3700 
 17 H       -1.3300    -0.4160    -2.6530 H     1 <1>   0.0800 
 18 H       -1.5510     1.2680    -2.9950 H     1 <1>   0.0800 
 19 H        2.5410     1.4640    -0.8270 H     1 <1>   0.0800 
 20 H        2.1980     0.5360     0.6100 H     1 <1>   0.0800 
 21 H        1.4170     3.4220     0.1360 H     1 <1>   0.0800 
 22 H       -2.2240     2.8340    -1.0910 H     1 <1>   0.1500 
 23 H       -2.4020    -1.4120    -0.7240 H     1 <1>   0.1500 
 24 H        3.5170     2.2760     1.9930 H     1 <1>   0.0800 
 25 H        3.0900     3.9650     1.8510 H     1 <1>   0.0800 
 26 H        3.8300     3.1410     0.5060 H     1 <1>   0.0800 
 27 H        1.0440     1.7190     2.6250 H     1 <1>   0.0800 
 28 H       -0.2350     2.3640     1.6220 H     1 <1>   0.0800 
 29 H        0.7670     3.4420     2.5450 H     1 <1>   0.0800 
 30 H       -3.8850    -1.1770     1.2120 H     1 <1>   0.1500 
 31 H       -4.5360     1.0480     2.0080 H     1 <1>   0.1500 
 32 H       -3.0110     4.1680     0.8530 H     1 <1>   0.0800 
 33 H       -4.0570     3.4480     2.0480 H     1 <1>   0.0800 
 34 H       -4.6770     3.8150     0.4550 H     1 <1>   0.0800 
@<TRIPOS>BOND
  1   1   2  2   
  2   2   3  am  
  3   2   4  1   
  4   3   5  1   
  5   3  16  1   
  6   4   6  1   
  7   4  17  1   
  8   4  18  1   
  9   5   7  1   
 10   5  19  1   
 11   5  20  1   
 12   6   8  ar  
 13   6   9  ar  
 14   7  10  1   
 15   7  11  1   
 16   7  21  1   
 17   8  12  ar  
 18   8  22  1   
 19   9  13  ar  
 20   9  23  1   
 21  10  24  1   
 22  10  25  1   
 23  10  26  1   
 24  11  27  1   
 25  11  28  1   
 26  11  29  1   
 27  12  14  ar  
 28  12  15  1   
 29  13  14  ar  
 30  13  30  1   
 31  14  31  1   
 32  15  32  1   
 33  15  33  1   
 34  15  34  1   
@<TRIPOS>SUBSTRUCTURE
  1 ****   3 GROUP 4 **** **** 0

# MOE 2024.06 (io_trps.svl 2023.06)
