@<TRIPOS>MOLECULE
NONAME
46 47 1 0 0 
SMALL
USER_CHARGES


@<TRIPOS>ATOM
  1 N        0.0020     0.0100     0.1030 N.4   1 <1>  -0.9590 
  2 C        1.2680     0.8280     0.0300 C.3   1 <1>   0.4230 
  3 C       -1.2050     0.9220     0.1480 C.3   1 <1>   0.3430 
  4 C        0.0430    -0.9980     1.2100 C.3   1 <1>   0.3430 
  5 C        2.4520    -0.0170    -0.4610 C.3   1 <1>  -0.0170 
  6 C        1.6190     1.5040     1.3630 C.3   1 <1>  -0.1600 
  7 C       -2.5810     0.2200    -0.0480 C.3   1 <1>   0.3430 
  8 C       -0.4340    -2.3410     0.6730 C.3   1 <1>  -0.2400 
  9 C        3.7320     0.8000    -0.4840 C.ar  1 <1>  -0.1440 
 10 C        2.7510     2.5140     1.1430 C.3   1 <1>  -0.0170 
 11 N       -3.7730     1.1490    -0.0330 N.4   1 <1>  -0.9590 
 12 C        3.8700     1.9640     0.2680 C.ar  1 <1>  -0.1440 
 13 C        4.7880     0.3600    -1.2680 C.ar  1 <1>  -0.1500 
 14 C       -5.0500     0.3550    -0.0380 C.3   1 <1>   0.2630 
 15 C       -3.8030     2.1120    -1.1880 C.3   1 <1>   0.2630 
 16 C        5.0630     2.6680     0.2180 C.ar  1 <1>  -0.1500 
 17 C        5.9730     1.0690    -1.3110 C.ar  1 <1>  -0.1500 
 18 C        6.1110     2.2250    -0.5670 C.ar  1 <1>  -0.1500 
 19 H       -0.0050    -0.5270    -0.7770 H     1 <1>   0.4500 
 20 H        1.1280     1.6100    -0.6990 H     1 <1>   0.0800 
 21 H       -1.0970     1.6650    -0.6240 H     1 <1>   0.0800 
 22 H       -1.2160     1.4330     1.0970 H     1 <1>   0.0800 
 23 H       -0.5680    -0.6810     2.0400 H     1 <1>   0.0800 
 24 H        1.0520    -1.1170     1.5730 H     1 <1>   0.0800 
 25 H        2.2510    -0.3730    -1.4560 H     1 <1>   0.0800 
 26 H        2.6200    -0.8610     0.1820 H     1 <1>   0.0800 
 27 H        1.9640     0.7750     2.0750 H     1 <1>   0.0800 
 28 H        0.7780     2.0260     1.7800 H     1 <1>   0.0800 
 29 H       -2.7040    -0.5030     0.7420 H     1 <1>   0.0800 
 30 H       -2.5690    -0.3110    -0.9850 H     1 <1>   0.0800 
 31 H       -1.4510    -2.3080     0.3330 H     1 <1>   0.0800 
 32 H       -0.3790    -3.0700     1.4640 H     1 <1>   0.0800 
 33 H        0.2050    -2.6820    -0.1220 H     1 <1>   0.0800 
 34 H        3.1550     2.8110     2.0960 H     1 <1>   0.0800 
 35 H        2.3610     3.3990     0.6680 H     1 <1>   0.0800 
 36 H       -3.7850     1.7020     0.8430 H     1 <1>   0.4500 
 37 H        4.7010    -0.5400    -1.8520 H     1 <1>   0.1500 
 38 H       -5.1260    -0.2350    -0.9370 H     1 <1>   0.0800 
 39 H       -5.9020     1.0150     0.0080 H     1 <1>   0.0800 
 40 H       -5.0890    -0.3060     0.8130 H     1 <1>   0.0800 
 41 H       -3.8260     1.5780    -2.1250 H     1 <1>   0.0800 
 42 H       -2.9390     2.7560    -1.1750 H     1 <1>   0.0800 
 43 H       -4.6840     2.7330    -1.1330 H     1 <1>   0.0800 
 44 H        5.1880     3.5710     0.7920 H     1 <1>   0.1500 
 45 H        6.7890     0.7230    -1.9220 H     1 <1>   0.1500 
 46 H        7.0340     2.7780    -0.5980 H     1 <1>   0.1500 
@<TRIPOS>BOND
  1   1   2  1   
  2   1   3  1   
  3   1   4  1   
  4   1  19  1   
  5   2   5  1   
  6   2   6  1   
  7   2  20  1   
  8   3   7  1   
  9   3  21  1   
 10   3  22  1   
 11   4   8  1   
 12   4  23  1   
 13   4  24  1   
 14   5   9  1   
 15   5  25  1   
 16   5  26  1   
 17   6  10  1   
 18   6  27  1   
 19   6  28  1   
 20   7  11  1   
 21   7  29  1   
 22   7  30  1   
 23   8  31  1   
 24   8  32  1   
 25   8  33  1   
 26   9  12  ar  
 27   9  13  ar  
 28  10  12  1   
 29  10  34  1   
 30  10  35  1   
 31  11  14  1   
 32  11  15  1   
 33  11  36  1   
 34  12  16  ar  
 35  13  17  ar  
 36  13  37  1   
 37  14  38  1   
 38  14  39  1   
 39  14  40  1   
 40  15  41  1   
 41  15  42  1   
 42  15  43  1   
 43  16  18  ar  
 44  16  44  1   
 45  17  18  ar  
 46  17  45  1   
 47  18  46  1   
@<TRIPOS>SUBSTRUCTURE
  1 ****   2 GROUP 4 **** **** 0

# MOE 2024.06 (io_trps.svl 2023.06)
