@<TRIPOS>MOLECULE
NONAME
38 39 1 0 0 
SMALL
USER_CHARGES


@<TRIPOS>ATOM
  1 O       -0.3980    -2.6650    -1.5730 O.2   1 <1>  -0.5700 
  2 C        0.0970    -2.3520    -0.5090 C.2   1 <1>   0.7160 
  3 N       -0.7040    -1.9590     0.5230 N.am  1 <1>  -0.7300 
  4 C        1.5210    -2.3960    -0.3090 C.2   1 <1>  -0.0860 
  5 C       -2.1720    -1.7190     0.5120 C.3   1 <1>   0.2200 
  6 C        2.4010    -3.3890    -0.7160 C.2   1 <1>   0.1080 
  7 C        2.3630    -1.5370     0.3060 C.2   1 <1>  -0.0400 
  8 C       -2.9860    -2.8710    -0.1230 C.3   1 <1>   0.2000 
  9 C       -2.4290    -0.3770    -0.1750 C.3   1 <1>  -0.2400 
 10 N        3.5940    -3.1090    -0.3450 N.2   1 <1>  -0.4100 
 11 C        2.0440    -4.6520    -1.4840 C.3   1 <1>   0.0210 
 12 O        3.6030    -1.9640     0.2950 O.3   1 <1>  -0.0190 
 13 C        2.0940    -0.1950     0.9590 C.3   1 <1>  -0.0600 
 14 O       -4.3430    -2.6840     0.1310 O.3   1 <1>  -0.5600 
 15 C       -2.6980    -4.2590     0.4430 C.3   1 <1>  -0.1600 
 16 C        1.3830    -5.6920    -0.5730 C.3   1 <1>  -0.2400 
 17 C       -5.0200    -3.8810    -0.0560 C.3   1 <1>   0.1200 
 18 C       -4.0330    -4.9800     0.3280 C.3   1 <1>  -0.1600 
 19 H       -0.2490    -1.7670     1.4140 H     1 <1>   0.3700 
 20 H       -2.4910    -1.6420     1.5370 H     1 <1>   0.0800 
 21 H       -2.8640    -2.8720    -1.1930 H     1 <1>   0.0800 
 22 H       -2.1340    -0.4230    -1.2090 H     1 <1>   0.0800 
 23 H       -1.8890     0.4100     0.3180 H     1 <1>   0.0800 
 24 H       -3.4780    -0.1460    -0.1350 H     1 <1>   0.0800 
 25 H        2.9420    -5.0680    -1.9040 H     1 <1>   0.0800 
 26 H        1.3870    -4.4060    -2.2990 H     1 <1>   0.0800 
 27 H        1.0740     0.1100     0.8160 H     1 <1>   0.0800 
 28 H        2.7340     0.5500     0.5220 H     1 <1>   0.0800 
 29 H        2.3030    -0.2530     2.0120 H     1 <1>   0.0800 
 30 H       -2.4010    -4.1840     1.4740 H     1 <1>   0.0800 
 31 H       -1.9200    -4.7470    -0.1170 H     1 <1>   0.0800 
 32 H        2.0480    -5.9490     0.2330 H     1 <1>   0.0800 
 33 H        1.1570    -6.5820    -1.1330 H     1 <1>   0.0800 
 34 H        0.4710    -5.3030    -0.1600 H     1 <1>   0.0800 
 35 H       -5.2940    -3.9490    -1.0960 H     1 <1>   0.0800 
 36 H       -5.9020    -3.8830     0.5610 H     1 <1>   0.0800 
 37 H       -4.3130    -5.4290     1.2640 H     1 <1>   0.0800 
 38 H       -4.0110    -5.7390    -0.4340 H     1 <1>   0.0800 
@<TRIPOS>BOND
  1   1   2  2   
  2   2   3  am  
  3   2   4  1   
  4   3   5  1   
  5   3  19  1   
  6   4   6  1   
  7   4   7  2   
  8   5   8  1   
  9   5   9  1   
 10   5  20  1   
 11   6  10  2   
 12   6  11  1   
 13   7  12  1   
 14   7  13  1   
 15   8  14  1   
 16   8  15  1   
 17   8  21  1   
 18   9  22  1   
 19   9  23  1   
 20   9  24  1   
 21  10  12  1   
 22  11  16  1   
 23  11  25  1   
 24  11  26  1   
 25  13  27  1   
 26  13  28  1   
 27  13  29  1   
 28  14  17  1   
 29  15  18  1   
 30  15  30  1   
 31  15  31  1   
 32  16  32  1   
 33  16  33  1   
 34  16  34  1   
 35  17  18  1   
 36  17  35  1   
 37  17  36  1   
 38  18  37  1   
 39  18  38  1   
@<TRIPOS>SUBSTRUCTURE
  1 ****   2 GROUP 4 **** **** 0

# MOE 2024.06 (io_trps.svl 2023.06)
