@<TRIPOS>MOLECULE
NONAME
35 35 1 0 0 
SMALL
USER_CHARGES


@<TRIPOS>ATOM
  1 BR       1.6380     1.6440    -3.0000 Br    1 <1>  -0.1110 
  2 C        3.2590     1.0780    -2.1270 C.ar  1 <1>   0.1110 
  3 C        4.4680     1.2920    -2.7590 C.ar  1 <1>  -0.1500 
  4 C        3.1740     0.4720    -0.8880 C.ar  1 <1>  -0.1500 
  5 C        5.6270     0.8810    -2.1250 C.ar  1 <1>  -0.1500 
  6 C        4.3440     0.0690    -0.2670 C.ar  1 <1>  -0.1500 
  7 C        5.5840     0.2640    -0.8760 C.ar  1 <1>   0.1170 
  8 N        6.7970    -0.1180    -0.2790 N.am  1 <1>  -0.5470 
  9 C        7.0650    -1.0470     0.6970 C.2   1 <1>   0.5690 
 10 O        6.2210    -1.7530     1.1950 O.2   1 <1>  -0.5700 
 11 C        8.5010    -1.2210     1.1800 C.3   1 <1>   0.1810 
 12 O        9.2010     0.0100     1.1230 O.3   1 <1>  -0.4300 
 13 C       10.5200     0.0890     1.2380 C.2   1 <1>   0.6590 
 14 O       11.1820    -0.8750     1.5290 O.2   1 <1>  -0.5700 
 15 C       11.1230     1.4740     0.9060 C.3   1 <1>   0.2810 
 16 N       10.6480     1.9630    -0.4200 N.am  1 <1>  -0.7300 
 17 C       12.6550     1.4930     0.8750 C.3   1 <1>  -0.2400 
 18 C        9.3710     2.3280    -0.6530 C.2   1 <1>   0.5690 
 19 O        8.7740     1.8510    -1.5810 O.2   1 <1>  -0.5700 
 20 C        8.6510     3.2590     0.2890 C.3   1 <1>  -0.1790 
 21 H        4.5000     1.7680    -3.7230 H     1 <1>   0.1500 
 22 H        2.2170     0.3210    -0.4220 H     1 <1>   0.1500 
 23 H        6.5750     1.0410    -2.6060 H     1 <1>   0.1500 
 24 H        4.2850    -0.3970     0.6990 H     1 <1>   0.1500 
 25 H        7.6160     0.3730    -0.6590 H     1 <1>   0.3700 
 26 H        9.0040    -1.9360     0.5540 H     1 <1>   0.0800 
 27 H        8.5080    -1.5690     2.1980 H     1 <1>   0.0800 
 28 H       10.7930     2.1580     1.6670 H     1 <1>   0.0800 
 29 H       11.0780     1.4600    -1.2000 H     1 <1>   0.3700 
 30 H       13.0270     0.8060     0.1360 H     1 <1>   0.0800 
 31 H       13.0410     1.1940     1.8340 H     1 <1>   0.0800 
 32 H       13.0140     2.4830     0.6590 H     1 <1>   0.0800 
 33 H        9.3340     3.9870     0.6870 H     1 <1>   0.0800 
 34 H        8.2120     2.6970     1.0920 H     1 <1>   0.0800 
 35 H        7.8700     3.7710    -0.2420 H     1 <1>   0.0800 
@<TRIPOS>BOND
  1   1   2  1   
  2   2   3  ar  
  3   2   4  ar  
  4   3   5  ar  
  5   3  21  1   
  6   4   6  ar  
  7   4  22  1   
  8   5   7  ar  
  9   5  23  1   
 10   6   7  ar  
 11   6  24  1   
 12   7   8  1   
 13   8   9  am  
 14   8  25  1   
 15   9  10  2   
 16   9  11  1   
 17  11  12  1   
 18  11  26  1   
 19  11  27  1   
 20  12  13  1   
 21  13  14  2   
 22  13  15  1   
 23  15  16  1   
 24  15  17  1   
 25  15  28  1   
 26  16  18  am  
 27  16  29  1   
 28  17  30  1   
 29  17  31  1   
 30  17  32  1   
 31  18  19  2   
 32  18  20  1   
 33  20  33  1   
 34  20  34  1   
 35  20  35  1   
@<TRIPOS>SUBSTRUCTURE
  1 ****   8 GROUP 4 **** **** 0

# MOE 2024.06 (io_trps.svl 2023.06)
