@<TRIPOS>MOLECULE
NONAME
29 29 1 0 0 
SMALL
USER_CHARGES


@<TRIPOS>ATOM
  1 S       -0.6210    -1.2210    -1.0680 S.3   1 <1>  -0.4600 
  2 C       -0.9530    -0.7820     0.6820 C.3   1 <1>   0.1310 
  3 C        1.1350    -0.8170    -1.2730 C.3   1 <1>  -0.0100 
  4 C       -2.3990    -1.0480     1.0850 C.2   1 <1>   0.5690 
  5 O       -2.7090    -0.8230     2.2290 O.2   1 <1>  -0.5700 
  6 N       -3.2600    -1.5280     0.1350 N.am  1 <1>  -0.5470 
  7 C       -4.6210    -1.8730     0.1600 C.ar  1 <1>   0.1170 
  8 C       -5.1670    -2.4730    -0.9680 C.ar  1 <1>  -0.1500 
  9 C       -5.4570    -1.6420     1.2480 C.ar  1 <1>  -0.1500 
 10 C       -6.5020    -2.8350    -1.0110 C.ar  1 <1>  -0.1500 
 11 C       -6.7910    -2.0030     1.2090 C.ar  1 <1>  -0.1500 
 12 C       -7.3240    -2.6040     0.0800 C.ar  1 <1>  -0.1430 
 13 C       -8.7910    -3.0000     0.0380 C.3   1 <1>  -0.0170 
 14 C       -9.6420    -1.8520    -0.5100 C.3   1 <1>  -0.2400 
 15 H       -0.7290     0.2620     0.7990 H     1 <1>   0.0800 
 16 H       -0.2910    -1.3690     1.2910 H     1 <1>   0.0800 
 17 H        1.4080    -1.0500    -2.2870 H     1 <1>   0.0800 
 18 H        1.7000    -1.4140    -0.5790 H     1 <1>   0.0800 
 19 H        1.2630     0.2330    -1.0760 H     1 <1>   0.0800 
 20 H       -2.8010    -1.6740    -0.7670 H     1 <1>   0.3700 
 21 H       -4.5450    -2.6620    -1.8230 H     1 <1>   0.1500 
 22 H       -5.0740    -1.1760     2.1360 H     1 <1>   0.1500 
 23 H       -6.9000    -3.2970    -1.8960 H     1 <1>   0.1500 
 24 H       -7.4150    -1.8120     2.0640 H     1 <1>   0.1500 
 25 H       -9.1260    -3.2570     1.0280 H     1 <1>   0.0800 
 26 H       -8.9140    -3.8700    -0.5840 H     1 <1>   0.0800 
 27 H       -9.5370    -0.9830     0.1150 H     1 <1>   0.0800 
 28 H      -10.6780    -2.1380    -0.5370 H     1 <1>   0.0800 
 29 H       -9.3250    -1.5990    -1.5060 H     1 <1>   0.0800 
@<TRIPOS>BOND
  1   1   2  1   
  2   1   3  1   
  3   2   4  1   
  4   2  15  1   
  5   2  16  1   
  6   3  17  1   
  7   3  18  1   
  8   3  19  1   
  9   4   5  2   
 10   4   6  am  
 11   6   7  1   
 12   6  20  1   
 13   7   8  ar  
 14   7   9  ar  
 15   8  10  ar  
 16   8  21  1   
 17   9  11  ar  
 18   9  22  1   
 19  10  12  ar  
 20  10  23  1   
 21  11  12  ar  
 22  11  24  1   
 23  12  13  1   
 24  13  14  1   
 25  13  25  1   
 26  13  26  1   
 27  14  27  1   
 28  14  28  1   
 29  14  29  1   
@<TRIPOS>SUBSTRUCTURE
  1 ****   7 GROUP 4 **** **** 0

# MOE 2024.06 (io_trps.svl 2023.06)
