@<TRIPOS>MOLECULE
ka-06760
41 42 1 0 0 
SMALL
USER_CHARGES


@<TRIPOS>ATOM
  1 O        3.3580    -3.5630    -1.7840 O.3   1 <1>  -0.3630 
  2 C        3.6250    -4.7440    -1.1860 C.ar  1 <1>   0.0830 
  3 C        2.6050    -2.5870    -1.0830 C.3   1 <1>   0.1200 
  4 C        4.4790    -4.8150    -0.0540 C.ar  1 <1>   0.0000 
  5 C        3.0190    -5.8650    -1.6930 C.ar  1 <1>  -0.1500 
  6 C        1.1070    -2.9380    -1.0930 C.3   1 <1>   0.2000 
  7 C        4.5810    -6.0530     0.6190 C.ar  1 <1>   0.0000 
  8 C        5.2470    -3.7330     0.4300 C.ar  1 <1>  -0.1500 
  9 C        3.1630    -7.0940    -1.0470 C.ar  1 <1>  -0.1500 
 10 O        0.8740    -4.0940    -0.3410 O.3   1 <1>  -0.6800 
 11 C        0.2460    -1.8030    -0.5010 C.3   1 <1>   0.3430 
 12 C        3.9150    -7.1780     0.0920 C.ar  1 <1>  -0.1500 
 13 C        5.3620    -6.1330     1.7890 C.ar  1 <1>  -0.1500 
 14 C        6.0110    -3.8420     1.5600 C.ar  1 <1>  -0.1500 
 15 N       -1.0510    -2.3550    -0.0090 N.4   1 <1>  -0.9060 
 16 C        6.0580    -5.0530     2.2550 C.ar  1 <1>  -0.1500 
 17 C       -1.7250    -1.5700     1.0280 C.3   1 <1>   0.4230 
 18 C       -2.8430    -2.4320     1.5970 C.3   1 <1>  -0.2400 
 19 C       -2.2830    -0.2930     0.4080 C.3   1 <1>  -0.2400 
 20 H        2.9700    -2.5020    -0.0750 H     1 <1>   0.0800 
 21 H        2.7690    -1.6520    -1.5890 H     1 <1>   0.0800 
 22 H        2.4220    -5.8070    -2.5860 H     1 <1>   0.1500 
 23 H        0.7980    -3.1320    -2.1070 H     1 <1>   0.0800 
 24 H        5.2380    -2.8070    -0.1150 H     1 <1>   0.1500 
 25 H        2.6760    -7.9650    -1.4530 H     1 <1>   0.1500 
 26 H        1.5680    -4.7660    -0.5490 H     1 <1>   0.4000 
 27 H        0.0830    -1.0310    -1.2350 H     1 <1>   0.0800 
 28 H        0.7840    -1.3700     0.3260 H     1 <1>   0.0800 
 29 H        4.0200    -8.1200     0.6020 H     1 <1>   0.1500 
 30 H        5.4070    -7.0710     2.3130 H     1 <1>   0.1500 
 31 H        6.5870    -3.0080     1.9240 H     1 <1>   0.1500 
 32 H       -0.7930    -3.2860     0.3680 H     1 <1>   0.4500 
 33 H       -1.6910    -2.5470    -0.7850 H     1 <1>   0.4500 
 34 H        6.6550    -5.1220     3.1490 H     1 <1>   0.1500 
 35 H       -1.0290    -1.3230     1.8160 H     1 <1>   0.0800 
 36 H       -3.5600    -2.6960     0.8390 H     1 <1>   0.0800 
 37 H       -3.3590    -1.8900     2.3690 H     1 <1>   0.0800 
 38 H       -2.4430    -3.3270     2.0400 H     1 <1>   0.0800 
 39 H       -2.9670    -0.5140    -0.3920 H     1 <1>   0.0800 
 40 H       -1.4930     0.3380     0.0420 H     1 <1>   0.0800 
 41 H       -2.8180     0.2640     1.1570 H     1 <1>   0.0800 
@<TRIPOS>BOND
  1   1   2  1   
  2   1   3  1   
  3   2   4  ar  
  4   2   5  ar  
  5   3   6  1   
  6   3  20  1   
  7   3  21  1   
  8   4   7  ar  
  9   4   8  ar  
 10   5   9  ar  
 11   5  22  1   
 12   6  10  1   
 13   6  11  1   
 14   6  23  1   
 15   7  12  ar  
 16   7  13  ar  
 17   8  14  ar  
 18   8  24  1   
 19   9  12  ar  
 20   9  25  1   
 21  10  26  1   
 22  11  15  1   
 23  11  27  1   
 24  11  28  1   
 25  12  29  1   
 26  13  16  ar  
 27  13  30  1   
 28  14  16  ar  
 29  14  31  1   
 30  15  17  1   
 31  15  32  1   
 32  15  33  1   
 33  16  34  1   
 34  17  18  1   
 35  17  19  1   
 36  17  35  1   
 37  18  36  1   
 38  18  37  1   
 39  18  38  1   
 40  19  39  1   
 41  19  40  1   
 42  19  41  1   
@<TRIPOS>SUBSTRUCTURE
  1 ****  10 GROUP 4 **** **** 0

# MOE 2024.06 (io_trps.svl 2023.06)
