@<TRIPOS>MOLECULE
NONAME
44 45 1 0 0 
SMALL
USER_CHARGES


@<TRIPOS>ATOM
  1 BR      -0.6520    -1.9000    -0.9290 Br    1 <1>  -0.1110 
  2 C        1.2190    -2.0520    -0.5020 C.ar  1 <1>   0.1110 
  3 C        1.6140    -2.9850     0.4380 C.ar  1 <1>  -0.1500 
  4 C        2.1190    -1.2250    -1.1480 C.ar  1 <1>  -0.1500 
  5 C        2.9610    -3.0870     0.7390 C.ar  1 <1>  -0.1500 
  6 C        3.4650    -1.3350    -0.8400 C.ar  1 <1>  -0.1500 
  7 C        3.8890    -2.2690     0.1080 C.ar  1 <1>   0.0830 
  8 O        5.1870    -2.4400     0.4680 O.3   1 <1>  -0.3630 
  9 C        6.2120    -1.6470    -0.0780 C.3   1 <1>   0.1200 
 10 C        7.5270    -2.1150     0.5540 C.3   1 <1>   0.3430 
 11 N        8.7240    -1.3640     0.0470 N.4   1 <1>  -0.9590 
 12 C        9.9760    -2.0600     0.4650 C.3   1 <1>   0.3430 
 13 C        8.7270     0.0630     0.4900 C.3   1 <1>   0.3430 
 14 C       11.1790    -1.3830    -0.1870 C.3   1 <1>  -0.1600 
 15 C        9.8980     0.7970    -0.1610 C.3   1 <1>  -0.1600 
 16 C       11.2480     0.1200     0.1440 C.3   1 <1>  -0.0190 
 17 C       12.3850     0.7920    -0.6220 C.2   1 <1>   0.6590 
 18 O       12.3610     0.8740    -1.8220 O.2   1 <1>  -0.5700 
 19 O       13.3790     1.2650     0.1120 O.3   1 <1>  -0.4300 
 20 C       14.4880     1.9050    -0.4790 C.3   1 <1>   0.1200 
 21 C       15.4410     2.3240     0.6350 C.3   1 <1>  -0.2400 
 22 H        0.8850    -3.6120     0.9200 H     1 <1>   0.1500 
 23 H        1.7670    -0.5140    -1.8740 H     1 <1>   0.1500 
 24 H        3.2960    -3.8040     1.4670 H     1 <1>   0.1500 
 25 H        4.1540    -0.6890    -1.3480 H     1 <1>   0.1500 
 26 H        6.0000    -0.6210     0.1660 H     1 <1>   0.0800 
 27 H        6.2210    -1.8000    -1.1430 H     1 <1>   0.0800 
 28 H        7.6450    -3.1630     0.3310 H     1 <1>   0.0800 
 29 H        7.4570    -2.0050     1.6240 H     1 <1>   0.0800 
 30 H        8.7090    -1.3740    -0.9830 H     1 <1>   0.4500 
 31 H        9.9420    -3.0960     0.1630 H     1 <1>   0.0800 
 32 H       10.0760    -2.0240     1.5380 H     1 <1>   0.0800 
 33 H        8.8200     0.1140     1.5640 H     1 <1>   0.0800 
 34 H        7.8060     0.5460     0.2070 H     1 <1>   0.0800 
 35 H       11.1300    -1.5240    -1.2540 H     1 <1>   0.0800 
 36 H       12.0800    -1.8630     0.1550 H     1 <1>   0.0800 
 37 H        9.9210     1.8110     0.1980 H     1 <1>   0.0800 
 38 H        9.7390     0.8410    -1.2250 H     1 <1>   0.0800 
 39 H       11.4540     0.2290     1.1950 H     1 <1>   0.0800 
 40 H       14.1360     2.7620    -1.0300 H     1 <1>   0.0800 
 41 H       14.9630     1.2130    -1.1550 H     1 <1>   0.0800 
 42 H       14.9520     3.0080     1.3050 H     1 <1>   0.0800 
 43 H       16.2980     2.8170     0.2110 H     1 <1>   0.0800 
 44 H       15.7790     1.4620     1.1800 H     1 <1>   0.0800 
@<TRIPOS>BOND
  1   1   2  1   
  2   2   3  ar  
  3   2   4  ar  
  4   3   5  ar  
  5   3  22  1   
  6   4   6  ar  
  7   4  23  1   
  8   5   7  ar  
  9   5  24  1   
 10   6   7  ar  
 11   6  25  1   
 12   7   8  1   
 13   8   9  1   
 14   9  10  1   
 15   9  26  1   
 16   9  27  1   
 17  10  11  1   
 18  10  28  1   
 19  10  29  1   
 20  11  12  1   
 21  11  13  1   
 22  11  30  1   
 23  12  14  1   
 24  12  31  1   
 25  12  32  1   
 26  13  15  1   
 27  13  33  1   
 28  13  34  1   
 29  14  16  1   
 30  14  35  1   
 31  14  36  1   
 32  15  16  1   
 33  15  37  1   
 34  15  38  1   
 35  16  17  1   
 36  16  39  1   
 37  17  18  2   
 38  17  19  1   
 39  19  20  1   
 40  20  21  1   
 41  20  40  1   
 42  20  41  1   
 43  21  42  1   
 44  21  43  1   
 45  21  44  1   
@<TRIPOS>SUBSTRUCTURE
  1 ****  11 GROUP 4 **** **** 0

# MOE 2024.06 (io_trps.svl 2023.06)
