@<TRIPOS>MOLECULE
NONAME
53 57 1 0 0 
SMALL
USER_CHARGES


@<TRIPOS>ATOM
  1 S       -0.4670    -0.8400    -0.7100 S.3   1 <1>  -0.0800 
  2 C       -1.7210     0.3320    -0.3250 C.ar  1 <1>   0.2970 
  3 C        0.8020     0.4010    -0.7130 C.2   1 <1>   0.0400 
  4 N       -2.9630    -0.0720    -0.1790 N.ar  1 <1>  -0.5670 
  5 C       -1.1870     1.6110    -0.2170 C.ar  1 <1>   0.0000 
  6 C        0.2450     1.6190    -0.4420 C.2   1 <1>   0.0830 
  7 C        2.1380    -0.0240    -0.9860 C.2   1 <1>   0.1400 
  8 C       -3.8030     0.9020     0.1320 C.ar  1 <1>   0.4100 
  9 C       -2.1000     2.6280     0.0970 C.ar  1 <1>  -0.1440 
 10 N        1.0150     2.7760    -0.3960 N.pl3 1 <1>  -0.8830 
 11 O        3.1450     0.8360    -0.9230 O.3   1 <1>  -0.2800 
 12 C        2.6410    -1.2440    -1.3300 C.2   1 <1>  -0.1500 
 13 N       -5.1240     0.5230     0.2730 N.pl3 1 <1>  -0.8380 
 14 C       -3.4180     2.2470     0.2950 C.ar  1 <1>  -0.1430 
 15 C       -1.6530     4.0830     0.2370 C.3   1 <1>  -0.0170 
 16 C        4.2930     0.2180    -1.2030 C.2   1 <1>   0.0550 
 17 C        4.0120    -1.0880    -1.4730 C.2   1 <1>  -0.1500 
 18 C       -5.4400    -0.6010     1.2060 C.3   1 <1>   0.2090 
 19 C       -5.9530     0.4970    -0.9670 C.3   1 <1>   0.2090 
 20 C       -4.4870     3.2670     0.6950 C.3   1 <1>  -0.0170 
 21 C       -2.8090     5.0850     0.3320 C.3   1 <1>  -0.1600 
 22 C        5.5620     0.9080    -1.2040 C.2   1 <1>   0.7150 
 23 C       -5.5660    -1.9480     0.4680 C.3   1 <1>   0.1200 
 24 C       -6.0230    -0.9170    -1.5720 C.3   1 <1>   0.1200 
 25 C       -3.8980     4.5600     1.2640 C.3   1 <1>  -0.1600 
 26 O        6.5350     0.4080    -1.7350 O.2   1 <1>  -0.5700 
 27 N        5.7760     2.1260    -0.6240 N.am  1 <1>  -0.7300 
 28 O       -6.4470    -1.8500    -0.6170 O.3   1 <1>  -0.5600 
 29 C        4.9630     2.8030     0.4180 C.3   1 <1>   0.0600 
 30 H        0.5730     3.6360    -0.7260 H     1 <1>   0.4000 
 31 H        1.9700     2.6630    -0.7600 H     1 <1>   0.4000 
 32 H        2.0950    -2.1600    -1.4690 H     1 <1>   0.1500 
 33 H       -1.0600     4.3620    -0.6130 H     1 <1>   0.0800 
 34 H       -1.0420     4.1630     1.1200 H     1 <1>   0.0800 
 35 H        4.7150    -1.8560    -1.7440 H     1 <1>   0.1500 
 36 H       -6.3660    -0.3880     1.7110 H     1 <1>   0.0800 
 37 H       -4.6680    -0.6770     1.9520 H     1 <1>   0.0800 
 38 H       -5.5360     1.1730    -1.6940 H     1 <1>   0.0800 
 39 H       -6.9480     0.8320    -0.7330 H     1 <1>   0.0800 
 40 H       -5.1400     2.8410     1.4370 H     1 <1>   0.0800 
 41 H       -5.0810     3.4940    -0.1720 H     1 <1>   0.0800 
 42 H       -3.2270     5.2400    -0.6480 H     1 <1>   0.0800 
 43 H       -2.4390     6.0290     0.6910 H     1 <1>   0.0800 
 44 H       -5.9460    -2.7010     1.1340 H     1 <1>   0.0800 
 45 H       -4.6040    -2.2640     0.1030 H     1 <1>   0.0800 
 46 H       -5.0550    -1.2130    -1.9380 H     1 <1>   0.0800 
 47 H       -6.7230    -0.9380    -2.3870 H     1 <1>   0.0800 
 48 H       -3.4790     4.3650     2.2370 H     1 <1>   0.0800 
 49 H       -4.6770     5.2940     1.3740 H     1 <1>   0.0800 
 50 H        6.7230     2.4850    -0.7610 H     1 <1>   0.3700 
 51 H        4.3350     2.0930     0.9290 H     1 <1>   0.0800 
 52 H        4.3440     3.5580    -0.0360 H     1 <1>   0.0800 
 53 H        5.6120     3.2680     1.1400 H     1 <1>   0.0800 
@<TRIPOS>BOND
  1   1   2  1   
  2   1   3  1   
  3   2   4  ar  
  4   2   5  ar  
  5   3   6  2   
  6   3   7  1   
  7   4   8  ar  
  8   5   6  1   
  9   5   9  ar  
 10   6  10  1   
 11   7  11  1   
 12   7  12  2   
 13   8  13  1   
 14   8  14  ar  
 15   9  14  ar  
 16   9  15  1   
 17  10  30  1   
 18  10  31  1   
 19  11  16  1   
 20  12  17  1   
 21  12  32  1   
 22  13  18  1   
 23  13  19  1   
 24  14  20  1   
 25  15  21  1   
 26  15  33  1   
 27  15  34  1   
 28  16  17  2   
 29  16  22  1   
 30  17  35  1   
 31  18  23  1   
 32  18  36  1   
 33  18  37  1   
 34  19  24  1   
 35  19  38  1   
 36  19  39  1   
 37  20  25  1   
 38  20  40  1   
 39  20  41  1   
 40  21  25  1   
 41  21  42  1   
 42  21  43  1   
 43  22  26  2   
 44  22  27  am  
 45  23  28  1   
 46  23  44  1   
 47  23  45  1   
 48  24  28  1   
 49  24  46  1   
 50  24  47  1   
 51  25  48  1   
 52  25  49  1   
 53  27  29  1   
 54  27  50  1   
 55  29  51  1   
 56  29  52  1   
 57  29  53  1   
@<TRIPOS>SUBSTRUCTURE
  1 ****   5 GROUP 4 **** **** 0

# MOE 2024.06 (io_trps.svl 2023.06)
