@<TRIPOS>MOLECULE
NONAME
44 45 1 0 0 
SMALL
USER_CHARGES


@<TRIPOS>ATOM
  1 S       -0.2500     0.5650     1.2690 S.o2  1 <1>   1.4470 
  2 O       -0.6900     1.0560     2.5580 O.2   1 <1>  -0.6500 
  3 O        0.5330    -0.6510     1.2210 O.2   1 <1>  -0.6500 
  4 N       -1.6660     0.2640     0.3870 N.am  1 <1>  -0.8490 
  5 C        0.5640     1.8990     0.3300 C.ar  1 <1>  -0.0090 
  6 C       -2.3410    -0.9530     0.8660 C.3   1 <1>   0.1960 
  7 C       -2.6050     1.3980     0.4240 C.3   1 <1>   0.1960 
  8 C        1.0320     1.7440    -0.9780 C.ar  1 <1>  -0.1440 
  9 C        0.7110     3.1470     0.9290 C.ar  1 <1>  -0.1500 
 10 C       -3.6270    -1.2480     0.0690 C.3   1 <1>   0.1960 
 11 C       -3.8720     1.1010    -0.3990 C.3   1 <1>   0.1960 
 12 C        1.6140     2.8140    -1.6410 C.ar  1 <1>  -0.1500 
 13 C        0.9280     0.4150    -1.7180 C.3   1 <1>  -0.0960 
 14 C        1.2920     4.2160     0.2700 C.ar  1 <1>  -0.1440 
 15 N       -4.5640    -0.1080     0.0870 N.am  1 <1>  -0.8490 
 16 C        1.7420     4.0430    -1.0240 C.ar  1 <1>  -0.1500 
 17 C        1.4340     5.5630     0.9570 C.3   1 <1>  -0.0970 
 18 S       -5.9800    -0.4480    -0.7780 S.o2  1 <1>   1.3330 
 19 O       -6.3100    -1.8370    -0.5520 O.2   1 <1>  -0.6500 
 20 O       -5.7950     0.0380    -2.1270 O.2   1 <1>  -0.6500 
 21 C       -7.2070     0.5650     0.0620 C.3   1 <1>  -0.0550 
 22 C       -8.6280     0.4530    -0.5160 C.3   1 <1>  -0.2400 
 23 H       -2.5900    -0.8500     1.9090 H     1 <1>   0.0800 
 24 H       -1.6770    -1.7950     0.7670 H     1 <1>   0.0800 
 25 H       -2.1280     2.2740     0.0190 H     1 <1>   0.0800 
 26 H       -2.8920     1.6120     1.4410 H     1 <1>   0.0800 
 27 H        0.3610     3.2860     1.9380 H     1 <1>   0.1500 
 28 H       -4.1010    -2.1120     0.5030 H     1 <1>   0.0800 
 29 H       -3.3660    -1.4900    -0.9480 H     1 <1>   0.0800 
 30 H       -3.5880     0.9760    -1.4310 H     1 <1>   0.0800 
 31 H       -4.5350     1.9460    -0.3370 H     1 <1>   0.0800 
 32 H        1.9760     2.7000    -2.6480 H     1 <1>   0.1500 
 33 H        1.4810    -0.3460    -1.1970 H     1 <1>   0.0800 
 34 H        1.3290     0.4920    -2.7120 H     1 <1>   0.0800 
 35 H       -0.0990     0.1070    -1.8000 H     1 <1>   0.0800 
 36 H        2.1950     4.8620    -1.5560 H     1 <1>   0.1500 
 37 H        0.6030     6.1930     0.6970 H     1 <1>   0.0800 
 38 H        2.3450     6.0450     0.6500 H     1 <1>   0.0800 
 39 H        1.4590     5.4430     2.0250 H     1 <1>   0.0800 
 40 H       -6.9020     1.5920     0.0170 H     1 <1>   0.0800 
 41 H       -7.2350     0.2800     1.0960 H     1 <1>   0.0800 
 42 H       -8.6340     0.7560    -1.5490 H     1 <1>   0.0800 
 43 H       -9.3060     1.0810     0.0350 H     1 <1>   0.0800 
 44 H       -8.9720    -0.5650    -0.4560 H     1 <1>   0.0800 
@<TRIPOS>BOND
  1   1   2  2   
  2   1   3  2   
  3   1   4  am  
  4   1   5  1   
  5   4   6  1   
  6   4   7  1   
  7   5   8  ar  
  8   5   9  ar  
  9   6  10  1   
 10   6  23  1   
 11   6  24  1   
 12   7  11  1   
 13   7  25  1   
 14   7  26  1   
 15   8  12  ar  
 16   8  13  1   
 17   9  14  ar  
 18   9  27  1   
 19  10  15  1   
 20  10  28  1   
 21  10  29  1   
 22  11  15  1   
 23  11  30  1   
 24  11  31  1   
 25  12  16  ar  
 26  12  32  1   
 27  13  33  1   
 28  13  34  1   
 29  13  35  1   
 30  14  16  ar  
 31  14  17  1   
 32  15  18  am  
 33  16  36  1   
 34  17  37  1   
 35  17  38  1   
 36  17  39  1   
 37  18  19  2   
 38  18  20  2   
 39  18  21  1   
 40  21  22  1   
 41  21  40  1   
 42  21  41  1   
 43  22  42  1   
 44  22  43  1   
 45  22  44  1   
@<TRIPOS>SUBSTRUCTURE
  1 ****   7 GROUP 4 **** **** 0

# MOE 2024.06 (io_trps.svl 2023.06)
