@<TRIPOS>MOLECULE
NONAME
26 27 1 0 0 
SMALL
USER_CHARGES


@<TRIPOS>ATOM
  1 F       -0.0850    -0.3960     0.4180 F     1 <1>  -0.3400 
  2 C        0.5460    -1.4910    -0.0040 C.3   1 <1>   1.2010 
  3 F        0.0530    -2.4920     0.7230 F     1 <1>  -0.3400 
  4 F        0.1160    -1.6970    -1.2480 F     1 <1>  -0.3400 
  5 C        2.1140    -1.3910     0.0860 C.2   1 <1>   0.3350 
  6 N        2.7750    -0.3510     0.5200 N.2   1 <1>  -0.7070 
  7 N        2.8980    -2.4300    -0.3020 N.2   1 <1>  -0.5650 
  8 N        4.0740    -0.7230     0.4140 N.pl3 1 <1>   0.5610 
  9 C        4.0800    -1.9800    -0.0850 C.2   1 <1>   0.2700 
 10 C        5.2970    -0.0730     0.7130 C.2   1 <1>   0.5650 
 11 N        5.2650    -2.6580    -0.3170 N.pl3 1 <1>  -0.5840 
 12 O        5.3440     1.0620     1.1650 O.2   1 <1>  -0.5700 
 13 C        6.4940    -0.8070     0.4610 C.2   1 <1>  -0.1360 
 14 C        6.4830    -2.0730    -0.0440 C.2   1 <1>  -0.0380 
 15 C        7.7200    -2.9240    -0.3400 C.3   1 <1>   0.0580 
 16 C        7.8570    -4.0350     0.7070 C.3   1 <1>  -0.2400 
 17 C        9.0190    -2.1090    -0.4010 C.3   1 <1>  -0.2400 
 18 H        5.1860    -3.6120    -0.6900 H     1 <1>   0.4000 
 19 H        7.4020    -0.2880     0.7020 H     1 <1>   0.1500 
 20 H        7.5840    -3.3810    -1.3060 H     1 <1>   0.0800 
 21 H        7.9820    -3.6120     1.6880 H     1 <1>   0.0800 
 22 H        8.7080    -4.6550     0.4880 H     1 <1>   0.0800 
 23 H        6.9790    -4.6570     0.7140 H     1 <1>   0.0800 
 24 H        9.2590    -1.6920     0.5600 H     1 <1>   0.0800 
 25 H        8.9270    -1.3130    -1.1180 H     1 <1>   0.0800 
 26 H        9.8350    -2.7410    -0.7060 H     1 <1>   0.0800 
@<TRIPOS>BOND
  1   1   2  1   
  2   2   3  1   
  3   2   4  1   
  4   2   5  1   
  5   5   6  2   
  6   5   7  1   
  7   6   8  1   
  8   7   9  2   
  9   8   9  1   
 10   8  10  1   
 11   9  11  1   
 12  10  12  2   
 13  10  13  1   
 14  11  14  1   
 15  11  18  1   
 16  13  14  2   
 17  13  19  1   
 18  14  15  1   
 19  15  16  1   
 20  15  17  1   
 21  15  20  1   
 22  16  21  1   
 23  16  22  1   
 24  16  23  1   
 25  17  24  1   
 26  17  25  1   
 27  17  26  1   
@<TRIPOS>SUBSTRUCTURE
  1 ****   9 GROUP 4 **** **** 0

# MOE 2024.06 (io_trps.svl 2023.06)
