@<TRIPOS>MOLECULE
NONAME
50 51 1 0 0 
SMALL
USER_CHARGES


@<TRIPOS>ATOM
  1 CL       0.4920     0.6690     1.4330 Cl    1 <1>  -0.1770 
  2 C        1.5110    -0.5500     0.6900 C.ar  1 <1>   0.1770 
  3 C        1.0890    -1.8700     0.4940 C.ar  1 <1>   0.0830 
  4 C        2.7790    -0.1450     0.3190 C.ar  1 <1>  -0.1500 
  5 O       -0.1520    -2.3340     0.8140 O.3   1 <1>  -0.3630 
  6 C        1.9840    -2.7830    -0.0590 C.ar  1 <1>  -0.1440 
  7 C        3.6580    -1.0520    -0.2460 C.ar  1 <1>  -0.1430 
  8 C       -1.2960    -1.5830     0.4900 C.3   1 <1>   0.1200 
  9 C        3.2550    -2.3650    -0.4270 C.ar  1 <1>  -0.1500 
 10 C        1.5930    -4.2400    -0.2680 C.3   1 <1>  -0.0960 
 11 C        5.0540    -0.6210    -0.6610 C.3   1 <1>  -0.0960 
 12 C       -2.4490    -2.5640     0.2650 C.3   1 <1>   0.3430 
 13 N       -3.7290    -1.8780    -0.1170 N.4   1 <1>  -0.9590 
 14 C       -4.2650    -1.0230     0.9850 C.3   1 <1>   0.3430 
 15 C       -4.7360    -2.8830    -0.5650 C.3   1 <1>   0.3430 
 16 C       -5.4930    -0.2600     0.4910 C.3   1 <1>  -0.1600 
 17 C       -5.9740    -2.1660    -1.0990 C.3   1 <1>  -0.1600 
 18 C       -6.5790    -1.2040    -0.0580 C.3   1 <1>  -0.0190 
 19 C       -7.7390    -0.4100    -0.6510 C.2   1 <1>   0.6590 
 20 O       -7.5890     0.2750    -1.6290 O.2   1 <1>  -0.5700 
 21 O       -8.8990    -0.5210    -0.0240 O.3   1 <1>  -0.4300 
 22 C      -10.0460     0.1650    -0.4740 C.3   1 <1>   0.1200 
 23 C      -11.2000    -0.1780     0.4630 C.3   1 <1>  -0.2400 
 24 H        3.0720     0.8770     0.4770 H     1 <1>   0.1500 
 25 H       -1.0920    -1.0160    -0.4030 H     1 <1>   0.0800 
 26 H       -1.5070    -0.9360     1.3200 H     1 <1>   0.0800 
 27 H        3.9450    -3.0680    -0.8610 H     1 <1>   0.1500 
 28 H        1.2570    -4.6650     0.6610 H     1 <1>   0.0800 
 29 H        2.4270    -4.8190    -0.6200 H     1 <1>   0.0800 
 30 H        0.8010    -4.3080    -0.9910 H     1 <1>   0.0800 
 31 H        5.3260     0.3050    -0.1870 H     1 <1>   0.0800 
 32 H        5.0930    -0.4880    -1.7270 H     1 <1>   0.0800 
 33 H        5.7730    -1.3690    -0.3780 H     1 <1>   0.0800 
 34 H       -2.6000    -3.1360     1.1670 H     1 <1>   0.0800 
 35 H       -2.1600    -3.2420    -0.5210 H     1 <1>   0.0800 
 36 H       -3.5410    -1.2630    -0.9230 H     1 <1>   0.4500 
 37 H       -3.5190    -0.3150     1.3090 H     1 <1>   0.0800 
 38 H       -4.5360    -1.6380     1.8290 H     1 <1>   0.0800 
 39 H       -5.0130    -3.5180     0.2620 H     1 <1>   0.0800 
 40 H       -4.3200    -3.5030    -1.3430 H     1 <1>   0.0800 
 41 H       -5.1920     0.4380    -0.2720 H     1 <1>   0.0800 
 42 H       -5.9010     0.3150     1.3050 H     1 <1>   0.0800 
 43 H       -6.7120    -2.8980    -1.3770 H     1 <1>   0.0800 
 44 H       -5.7100    -1.6250    -1.9920 H     1 <1>   0.0800 
 45 H       -6.9680    -1.7890     0.7590 H     1 <1>   0.0800 
 46 H      -10.2600    -0.1490    -1.4820 H     1 <1>   0.0800 
 47 H       -9.8390     1.2220    -0.4620 H     1 <1>   0.0800 
 48 H      -11.3900    -1.2360     0.4480 H     1 <1>   0.0800 
 49 H      -12.0900     0.3330     0.1420 H     1 <1>   0.0800 
 50 H      -10.9700     0.1330     1.4660 H     1 <1>   0.0800 
@<TRIPOS>BOND
  1   1   2  1   
  2   2   3  ar  
  3   2   4  ar  
  4   3   5  1   
  5   3   6  ar  
  6   4   7  ar  
  7   4  24  1   
  8   5   8  1   
  9   6   9  ar  
 10   6  10  1   
 11   7   9  ar  
 12   7  11  1   
 13   8  12  1   
 14   8  25  1   
 15   8  26  1   
 16   9  27  1   
 17  10  28  1   
 18  10  29  1   
 19  10  30  1   
 20  11  31  1   
 21  11  32  1   
 22  11  33  1   
 23  12  13  1   
 24  12  34  1   
 25  12  35  1   
 26  13  14  1   
 27  13  15  1   
 28  13  36  1   
 29  14  16  1   
 30  14  37  1   
 31  14  38  1   
 32  15  17  1   
 33  15  39  1   
 34  15  40  1   
 35  16  18  1   
 36  16  41  1   
 37  16  42  1   
 38  17  18  1   
 39  17  43  1   
 40  17  44  1   
 41  18  19  1   
 42  18  45  1   
 43  19  20  2   
 44  19  21  1   
 45  21  22  1   
 46  22  23  1   
 47  22  46  1   
 48  22  47  1   
 49  23  48  1   
 50  23  49  1   
 51  23  50  1   
@<TRIPOS>SUBSTRUCTURE
  1 ****  12 GROUP 4 **** **** 0

# MOE 2024.06 (io_trps.svl 2023.06)
