@<TRIPOS>MOLECULE
NONAME
37 37 1 0 0 
SMALL
USER_CHARGES


@<TRIPOS>ATOM
  1 BR       0.1500     0.3890    -0.4490 Br    1 <1>  -0.1110 
  2 C        1.6390    -0.7870    -0.1270 C.ar  1 <1>   0.1110 
  3 C        2.9190    -0.2810    -0.2220 C.ar  1 <1>  -0.1500 
  4 C        1.3850    -2.1080     0.1920 C.ar  1 <1>  -0.1500 
  5 C        3.9920    -1.1270     0.0100 C.ar  1 <1>   0.0830 
  6 C        2.4590    -2.9500     0.4230 C.ar  1 <1>  -0.1500 
  7 O        5.2290    -0.5820    -0.0950 O.3   1 <1>  -0.3630 
  8 C        3.7560    -2.4650     0.3330 C.ar  1 <1>  -0.1500 
  9 C        6.3890    -1.3450     0.1180 C.3   1 <1>   0.1200 
 10 C        7.5830    -0.4110    -0.0850 C.3   1 <1>  -0.1600 
 11 C        8.8980    -1.1510     0.1270 C.3   1 <1>   0.3430 
 12 N       10.0200    -0.2030    -0.0840 N.4   1 <1>  -0.9060 
 13 C       11.3550    -0.7890     0.1280 C.3   1 <1>   0.4230 
 14 C       12.3520     0.3690     0.2690 C.3   1 <1>  -0.1600 
 15 C       11.6850    -1.6990    -1.0560 C.3   1 <1>  -0.2400 
 16 C       13.7620    -0.0880     0.6740 C.3   1 <1>  -0.2400 
 17 H        3.0820     0.7500    -0.4710 H     1 <1>   0.1500 
 18 H        0.3720    -2.4650     0.2560 H     1 <1>   0.1500 
 19 H        2.2850    -3.9830     0.6720 H     1 <1>   0.1500 
 20 H        4.5630    -3.1470     0.5190 H     1 <1>   0.1500 
 21 H        6.3960    -2.1520    -0.5960 H     1 <1>   0.0800 
 22 H        6.3580    -1.7300     1.1230 H     1 <1>   0.0800 
 23 H        7.5020     0.3980     0.6200 H     1 <1>   0.0800 
 24 H        7.5420    -0.0210    -1.0870 H     1 <1>   0.0800 
 25 H        8.9680    -1.9710    -0.5700 H     1 <1>   0.0800 
 26 H        8.9350    -1.5490     1.1290 H     1 <1>   0.0800 
 27 H        9.9110     0.5930     0.5540 H     1 <1>   0.4500 
 28 H        9.9810     0.1780    -1.0370 H     1 <1>   0.4500 
 29 H       11.3590    -1.3640     1.0420 H     1 <1>   0.0800 
 30 H       12.0050     1.0440     1.0330 H     1 <1>   0.0800 
 31 H       12.4210     0.9160    -0.6560 H     1 <1>   0.0800 
 32 H       11.7230    -1.1430    -1.9750 H     1 <1>   0.0800 
 33 H       10.9720    -2.4970    -1.1490 H     1 <1>   0.0800 
 34 H       12.6470    -2.1570    -0.9080 H     1 <1>   0.0800 
 35 H       13.7340    -0.6710     1.5790 H     1 <1>   0.0800 
 36 H       14.3880     0.7700     0.8500 H     1 <1>   0.0800 
 37 H       14.2240    -0.6740    -0.1020 H     1 <1>   0.0800 
@<TRIPOS>BOND
  1   1   2  1   
  2   2   3  ar  
  3   2   4  ar  
  4   3   5  ar  
  5   3  17  1   
  6   4   6  ar  
  7   4  18  1   
  8   5   7  1   
  9   5   8  ar  
 10   6   8  ar  
 11   6  19  1   
 12   7   9  1   
 13   8  20  1   
 14   9  10  1   
 15   9  21  1   
 16   9  22  1   
 17  10  11  1   
 18  10  23  1   
 19  10  24  1   
 20  11  12  1   
 21  11  25  1   
 22  11  26  1   
 23  12  13  1   
 24  12  27  1   
 25  12  28  1   
 26  13  14  1   
 27  13  15  1   
 28  13  29  1   
 29  14  16  1   
 30  14  30  1   
 31  14  31  1   
 32  15  32  1   
 33  15  33  1   
 34  15  34  1   
 35  16  35  1   
 36  16  36  1   
 37  16  37  1   
@<TRIPOS>SUBSTRUCTURE
  1 ****   9 GROUP 4 **** **** 0

# MOE 2024.06 (io_trps.svl 2023.06)
