@<TRIPOS>MOLECULE
NONAME
37 37 1 0 0 
SMALL
USER_CHARGES


@<TRIPOS>ATOM
  1 O        0.5310     2.3760    -2.0200 O.2   1 <1>  -0.5700 
  2 C        0.2480     2.4960    -0.8440 C.2   1 <1>   0.5440 
  3 N        1.1770     2.1530     0.0950 N.am  1 <1>  -0.7300 
  4 C       -1.0610     2.9880    -0.4610 C.ar  1 <1>   0.0860 
  5 C        2.5190     1.6050    -0.1690 C.3   1 <1>   0.2200 
  6 C       -1.7910     2.4800     0.6250 C.ar  1 <1>   0.0820 
  7 C       -1.6500     4.0190    -1.1950 C.ar  1 <1>  -0.1500 
  8 C        2.4950     0.1260     0.2540 C.3   1 <1>  -0.1600 
  9 C        3.5430     2.4650     0.5950 C.3   1 <1>  -0.1600 
 10 O       -1.3300     1.4600     1.3860 O.3   1 <1>  -0.2330 
 11 C       -3.0210     3.0160     0.9750 C.ar  1 <1>  -0.1500 
 12 C       -2.8830     4.5440    -0.8560 C.ar  1 <1>  -0.1500 
 13 C        3.8030    -0.6320    -0.0080 C.3   1 <1>  -0.2400 
 14 C        4.8690     2.6310    -0.1630 C.3   1 <1>  -0.2400 
 15 C       -1.1770     0.2010     0.9750 C.2   1 <1>   0.6590 
 16 C       -3.5700     4.0450     0.2360 C.ar  1 <1>  -0.1500 
 17 O       -0.5520    -0.5760     1.6420 O.2   1 <1>  -0.5700 
 18 C       -1.8210    -0.2440    -0.3230 C.3   1 <1>  -0.1790 
 19 H        0.9230     2.1890     1.0840 H     1 <1>   0.3700 
 20 H        2.7200     1.6680    -1.2270 H     1 <1>   0.0800 
 21 H       -1.1210     4.4150    -2.0460 H     1 <1>   0.1500 
 22 H        1.7130    -0.3650    -0.2990 H     1 <1>   0.0800 
 23 H        2.2530     0.0520     1.3010 H     1 <1>   0.0800 
 24 H        3.7310     2.0400     1.5650 H     1 <1>   0.0800 
 25 H        3.1390     3.4520     0.7410 H     1 <1>   0.0800 
 26 H       -3.5500     2.6240     1.8270 H     1 <1>   0.1500 
 27 H       -3.3090     5.3420    -1.4410 H     1 <1>   0.1500 
 28 H        4.1040    -0.5200    -1.0340 H     1 <1>   0.0800 
 29 H        3.6600    -1.6800     0.1930 H     1 <1>   0.0800 
 30 H        4.5870    -0.2740     0.6340 H     1 <1>   0.0800 
 31 H        5.3490     1.6850    -0.3290 H     1 <1>   0.0800 
 32 H        5.5370     3.2560     0.4020 H     1 <1>   0.0800 
 33 H        4.6940     3.0990    -1.1170 H     1 <1>   0.0800 
 34 H       -4.5280     4.4580     0.5060 H     1 <1>   0.1500 
 35 H       -2.8430     0.0820    -0.3620 H     1 <1>   0.0800 
 36 H       -1.7970    -1.3160    -0.3820 H     1 <1>   0.0800 
 37 H       -1.2810     0.1560    -1.1600 H     1 <1>   0.0800 
@<TRIPOS>BOND
  1   1   2  2   
  2   2   3  am  
  3   2   4  1   
  4   3   5  1   
  5   3  19  1   
  6   4   6  ar  
  7   4   7  ar  
  8   5   8  1   
  9   5   9  1   
 10   5  20  1   
 11   6  10  1   
 12   6  11  ar  
 13   7  12  ar  
 14   7  21  1   
 15   8  13  1   
 16   8  22  1   
 17   8  23  1   
 18   9  14  1   
 19   9  24  1   
 20   9  25  1   
 21  10  15  1   
 22  11  16  ar  
 23  11  26  1   
 24  12  16  ar  
 25  12  27  1   
 26  13  28  1   
 27  13  29  1   
 28  13  30  1   
 29  14  31  1   
 30  14  32  1   
 31  14  33  1   
 32  15  17  2   
 33  15  18  1   
 34  16  34  1   
 35  18  35  1   
 36  18  36  1   
 37  18  37  1   
@<TRIPOS>SUBSTRUCTURE
  1 ****   2 GROUP 4 **** **** 0

# MOE 2024.06 (io_trps.svl 2023.06)
