@<TRIPOS>MOLECULE
NONAME
46 47 1 0 0 
SMALL
USER_CHARGES


@<TRIPOS>ATOM
  1 CL       1.3930    -0.2100     2.3430 Cl    1 <1>  -0.1770 
  2 C        2.5000    -0.5790     1.0360 C.ar  1 <1>   0.1770 
  3 C        2.6520     0.3380    -0.0030 C.ar  1 <1>   0.1170 
  4 C        3.1950    -1.7730     1.0760 C.ar  1 <1>  -0.1500 
  5 N        1.9080     1.5350     0.0240 N.am  1 <1>  -0.5470 
  6 C        3.5340     0.0030    -1.0280 C.ar  1 <1>  -0.1500 
  7 C        4.0720    -2.0800     0.0500 C.ar  1 <1>  -0.1500 
  8 C        2.0920     2.7240    -0.6190 C.2   1 <1>   0.5690 
  9 C        4.2370    -1.1900    -0.9990 C.ar  1 <1>  -0.1500 
 10 O        2.9880     2.9370    -1.3960 O.2   1 <1>  -0.5700 
 11 C        1.1350     3.8530    -0.3070 C.3   1 <1>  -0.0990 
 12 C        1.6450     5.2210    -0.7840 C.3   1 <1>   0.3430 
 13 N        2.6290     5.8560     0.1550 N.4   1 <1>  -0.9590 
 14 C        2.7340     7.3320    -0.1440 C.3   1 <1>   0.3430 
 15 C        3.9970     5.2070     0.0710 C.3   1 <1>   0.3430 
 16 C        3.7430     8.0460     0.7730 C.3   1 <1>   0.1400 
 17 C        5.0450     5.8990     0.9630 C.3   1 <1>   0.1400 
 18 N        5.0700     7.3690     0.7080 N.am  1 <1>  -0.6600 
 19 C        6.1970     8.0440     0.3120 C.2   1 <1>   0.7800 
 20 O        6.1700     9.2150    -0.0050 O.2   1 <1>  -0.5700 
 21 O        7.3390     7.3620     0.2610 O.3   1 <1>  -0.4300 
 22 C        8.5380     7.9880    -0.1370 C.3   1 <1>   0.1200 
 23 C        9.6490     6.9420    -0.1070 C.3   1 <1>  -0.2400 
 24 H        3.0510    -2.4520     1.8970 H     1 <1>   0.1500 
 25 H        1.1260     1.4900     0.6820 H     1 <1>   0.3700 
 26 H        3.6780     0.6650    -1.8620 H     1 <1>   0.1500 
 27 H        4.6210    -3.0060     0.0650 H     1 <1>   0.1500 
 28 H        4.9160    -1.4300    -1.8010 H     1 <1>   0.1500 
 29 H        0.9090     3.8820     0.7420 H     1 <1>   0.0800 
 30 H        0.2240     3.6400    -0.8350 H     1 <1>   0.0800 
 31 H        0.7910     5.8720    -0.8780 H     1 <1>   0.0800 
 32 H        2.0830     5.1200    -1.7650 H     1 <1>   0.0800 
 33 H        2.2940     5.7590     1.1210 H     1 <1>   0.4500 
 34 H        1.7700     7.7990    -0.0300 H     1 <1>   0.0800 
 35 H        3.0500     7.4730    -1.1650 H     1 <1>   0.0800 
 36 H        4.3450     5.2310    -0.9490 H     1 <1>   0.0800 
 37 H        3.9340     4.1720     0.3620 H     1 <1>   0.0800 
 38 H        3.3900     8.0390     1.7890 H     1 <1>   0.0800 
 39 H        3.8270     9.0750     0.4670 H     1 <1>   0.0800 
 40 H        6.0080     5.4580     0.7680 H     1 <1>   0.0800 
 41 H        4.8150     5.7230     1.9990 H     1 <1>   0.0800 
 42 H        8.7470     8.7930     0.5480 H     1 <1>   0.0800 
 43 H        8.4070     8.3830    -1.1300 H     1 <1>   0.0800 
 44 H        9.7670     6.5540     0.8890 H     1 <1>   0.0800 
 45 H       10.5770     7.3920    -0.4100 H     1 <1>   0.0800 
 46 H        9.4210     6.1390    -0.7850 H     1 <1>   0.0800 
@<TRIPOS>BOND
  1   1   2  1   
  2   2   3  ar  
  3   2   4  ar  
  4   3   5  1   
  5   3   6  ar  
  6   4   7  ar  
  7   4  24  1   
  8   5   8  am  
  9   5  25  1   
 10   6   9  ar  
 11   6  26  1   
 12   7   9  ar  
 13   7  27  1   
 14   8  10  2   
 15   8  11  1   
 16   9  28  1   
 17  11  12  1   
 18  11  29  1   
 19  11  30  1   
 20  12  13  1   
 21  12  31  1   
 22  12  32  1   
 23  13  14  1   
 24  13  15  1   
 25  13  33  1   
 26  14  16  1   
 27  14  34  1   
 28  14  35  1   
 29  15  17  1   
 30  15  36  1   
 31  15  37  1   
 32  16  18  1   
 33  16  38  1   
 34  16  39  1   
 35  17  18  1   
 36  17  40  1   
 37  17  41  1   
 38  18  19  am  
 39  19  20  2   
 40  19  21  1   
 41  21  22  1   
 42  22  23  1   
 43  22  42  1   
 44  22  43  1   
 45  23  44  1   
 46  23  45  1   
 47  23  46  1   
@<TRIPOS>SUBSTRUCTURE
  1 ****  15 GROUP 4 **** **** 0

# MOE 2024.06 (io_trps.svl 2023.06)
