@<TRIPOS>MOLECULE
NONAME
48 49 1 0 0 
SMALL
USER_CHARGES


@<TRIPOS>ATOM
  1 O       -0.4470    -0.8640     1.6010 O.2   1 <1>  -0.5700 
  2 C       -0.9020    -1.6890     0.8300 C.2   1 <1>   0.5440 
  3 N       -0.0440    -2.5690     0.1920 N.am  1 <1>  -0.6600 
  4 C       -2.3360    -1.7250     0.6240 C.ar  1 <1>   0.0860 
  5 C        1.4260    -2.2840     0.1390 C.3   1 <1>   0.2200 
  6 C       -0.5320    -3.8360    -0.4310 C.3   1 <1>   0.1400 
  7 C       -3.2100    -1.9000     1.6960 C.ar  1 <1>  -0.1500 
  8 C       -2.9020    -1.5750    -0.6420 C.ar  1 <1>  -0.1500 
  9 C        1.8790    -2.0250    -1.3060 C.3   1 <1>  -0.1600 
 10 C        2.2490    -3.4020     0.7970 C.3   1 <1>  -0.1600 
 11 C       -0.9430    -4.8330     0.6530 C.3   1 <1>  -0.2400 
 12 C       -4.5780    -1.9510     1.5110 C.ar  1 <1>  -0.1500 
 13 C       -4.2700    -1.6260    -0.8300 C.ar  1 <1>  -0.1500 
 14 C        3.3820    -1.7110    -1.3630 C.3   1 <1>  -0.1600 
 15 C        3.7510    -3.0820     0.7400 C.3   1 <1>  -0.1600 
 16 C       -5.1340    -1.8250     0.2430 C.ar  1 <1>   0.1170 
 17 C        4.2080    -2.8250    -0.7030 C.3   1 <1>  -0.1600 
 18 N       -6.5240    -1.8830     0.1050 N.am  1 <1>  -0.5470 
 19 C       -7.3070    -2.1780    -0.9780 C.2   1 <1>   0.5690 
 20 O       -6.8720    -2.4840    -2.0600 O.2   1 <1>  -0.5700 
 21 C       -8.8120    -2.1210    -0.7890 C.3   1 <1>  -0.0990 
 22 C       -9.3430    -3.2270     0.1380 C.3   1 <1>  -0.2400 
 23 H        1.6290    -1.3820     0.6920 H     1 <1>   0.0800 
 24 H        0.2390    -4.2750    -1.0380 H     1 <1>   0.0800 
 25 H       -1.3680    -3.6350    -1.0760 H     1 <1>   0.0800 
 26 H       -2.7940    -1.9950     2.6850 H     1 <1>   0.1500 
 27 H       -2.2540    -1.4130    -1.4850 H     1 <1>   0.1500 
 28 H        1.3270    -1.1910    -1.7030 H     1 <1>   0.0800 
 29 H        1.6860    -2.8850    -1.9190 H     1 <1>   0.0800 
 30 H        2.0820    -4.3360     0.2940 H     1 <1>   0.0800 
 31 H        1.9460    -3.5020     1.8240 H     1 <1>   0.0800 
 32 H       -0.1180    -5.0370     1.3100 H     1 <1>   0.0800 
 33 H       -1.2500    -5.7550     0.1940 H     1 <1>   0.0800 
 34 H       -1.7670    -4.4530     1.2270 H     1 <1>   0.0800 
 35 H       -5.2190    -2.0940     2.3610 H     1 <1>   0.1500 
 36 H       -4.6660    -1.5060    -1.8220 H     1 <1>   0.1500 
 37 H        3.5690    -0.7810    -0.8530 H     1 <1>   0.0800 
 38 H        3.6880    -1.5920    -2.3880 H     1 <1>   0.0800 
 39 H        4.3100    -3.9020     1.1560 H     1 <1>   0.0800 
 40 H        3.9510    -2.2090     1.3380 H     1 <1>   0.0800 
 41 H        5.2490    -2.5500    -0.7070 H     1 <1>   0.0800 
 42 H        4.1060    -3.7310    -1.2760 H     1 <1>   0.0800 
 43 H       -7.0450    -1.7280     0.9640 H     1 <1>   0.3700 
 44 H       -9.2790    -2.2180    -1.7540 H     1 <1>   0.0800 
 45 H       -9.0770    -1.1560    -0.3970 H     1 <1>   0.0800 
 46 H       -9.0840    -4.1940    -0.2590 H     1 <1>   0.0800 
 47 H      -10.4140    -3.1640     0.2110 H     1 <1>   0.0800 
 48 H       -8.9250    -3.1360     1.1250 H     1 <1>   0.0800 
@<TRIPOS>BOND
  1   1   2  2   
  2   2   3  am  
  3   2   4  1   
  4   3   5  1   
  5   3   6  1   
  6   4   7  ar  
  7   4   8  ar  
  8   5   9  1   
  9   5  10  1   
 10   5  23  1   
 11   6  11  1   
 12   6  24  1   
 13   6  25  1   
 14   7  12  ar  
 15   7  26  1   
 16   8  13  ar  
 17   8  27  1   
 18   9  14  1   
 19   9  28  1   
 20   9  29  1   
 21  10  15  1   
 22  10  30  1   
 23  10  31  1   
 24  11  32  1   
 25  11  33  1   
 26  11  34  1   
 27  12  16  ar  
 28  12  35  1   
 29  13  16  ar  
 30  13  36  1   
 31  14  17  1   
 32  14  37  1   
 33  14  38  1   
 34  15  17  1   
 35  15  39  1   
 36  15  40  1   
 37  16  18  1   
 38  17  41  1   
 39  17  42  1   
 40  18  19  am  
 41  18  43  1   
 42  19  20  2   
 43  19  21  1   
 44  21  22  1   
 45  21  44  1   
 46  21  45  1   
 47  22  46  1   
 48  22  47  1   
 49  22  48  1   
@<TRIPOS>SUBSTRUCTURE
  1 ****   4 GROUP 4 **** **** 0

# MOE 2024.06 (io_trps.svl 2023.06)
