@<TRIPOS>MOLECULE
NONAME
45 46 1 0 0 
SMALL
USER_CHARGES


@<TRIPOS>ATOM
  1 O        0.1440    -0.3240     0.0180 O.2   1 <1>  -0.5700 
  2 C        0.0950    -1.5300     0.0920 C.2   1 <1>   0.5690 
  3 N       -1.1020    -2.2110     0.0390 N.am  1 <1>  -0.6600 
  4 C        1.4120    -2.2820     0.2480 C.3   1 <1>  -0.0990 
  5 C       -1.2170    -3.6880     0.2900 C.3   1 <1>   0.1400 
  6 C       -2.3560    -1.4480    -0.2610 C.3   1 <1>   0.1400 
  7 C        2.6600    -1.4160     0.0210 C.3   1 <1>  -0.0160 
  8 C       -2.3060    -4.0670     1.3050 C.3   1 <1>  -0.1600 
  9 C       -3.2220    -2.1240    -1.3350 C.3   1 <1>  -0.1600 
 10 C        3.9180    -2.2590     0.1610 C.ar  1 <1>  -0.1440 
 11 C       -3.6700    -4.4540     0.6970 C.3   1 <1>  -0.1600 
 12 C       -4.6060    -2.5740    -0.8360 C.3   1 <1>  -0.1600 
 13 C        4.5120    -2.4260     1.4020 C.ar  1 <1>  -0.1500 
 14 C        4.4780    -2.8740    -0.9480 C.ar  1 <1>  -0.1500 
 15 C       -4.6560    -3.2880     0.5260 C.3   1 <1>  -0.1600 
 16 C        5.6520    -3.1990     1.5310 C.ar  1 <1>  -0.1500 
 17 C        5.6200    -3.6470    -0.8230 C.ar  1 <1>  -0.1500 
 18 C        6.2140    -3.8140     0.4250 C.ar  1 <1>   0.0820 
 19 O        7.3320    -4.5540     0.6380 O.3   1 <1>  -0.3630 
 20 C        8.0000    -5.1950    -0.4260 C.3   1 <1>   0.0400 
 21 H        1.4310    -3.0900    -0.4600 H     1 <1>   0.0800 
 22 H        1.4540    -2.6920     1.2390 H     1 <1>   0.0800 
 23 H       -0.2900    -4.0570     0.6880 H     1 <1>   0.0800 
 24 H       -1.3760    -4.2060    -0.6390 H     1 <1>   0.0800 
 25 H       -2.1050    -0.4650    -0.6220 H     1 <1>   0.0800 
 26 H       -2.9020    -1.3000     0.6520 H     1 <1>   0.0800 
 27 H        2.6810    -0.6120     0.7360 H     1 <1>   0.0800 
 28 H        2.6220    -0.9750    -0.9600 H     1 <1>   0.0800 
 29 H       -2.4070    -3.3020     2.0550 H     1 <1>   0.0800 
 30 H       -1.9460    -4.9430     1.8140 H     1 <1>   0.0800 
 31 H       -2.7080    -2.9520    -1.7840 H     1 <1>   0.0800 
 32 H       -3.3810    -1.4120    -2.1250 H     1 <1>   0.0800 
 33 H       -4.1290    -5.1460     1.3830 H     1 <1>   0.0800 
 34 H       -3.5450    -4.9840    -0.2320 H     1 <1>   0.0800 
 35 H       -5.0340    -3.2210    -1.5820 H     1 <1>   0.0800 
 36 H       -5.2420    -1.7070    -0.7740 H     1 <1>   0.0800 
 37 H        4.0890    -1.9550     2.2720 H     1 <1>   0.1500 
 38 H        4.0260    -2.7510    -1.9170 H     1 <1>   0.1500 
 39 H       -4.5280    -2.5810     1.3260 H     1 <1>   0.0800 
 40 H       -5.6530    -3.6810     0.6340 H     1 <1>   0.0800 
 41 H        6.1150    -3.3290     2.4920 H     1 <1>   0.1500 
 42 H        6.0280    -4.1080    -1.7010 H     1 <1>   0.1500 
 43 H        8.8560    -5.7050    -0.0220 H     1 <1>   0.0800 
 44 H        8.3180    -4.4520    -1.1360 H     1 <1>   0.0800 
 45 H        7.3320    -5.9040    -0.8800 H     1 <1>   0.0800 
@<TRIPOS>BOND
  1   1   2  2   
  2   2   3  am  
  3   2   4  1   
  4   3   5  1   
  5   3   6  1   
  6   4   7  1   
  7   4  21  1   
  8   4  22  1   
  9   5   8  1   
 10   5  23  1   
 11   5  24  1   
 12   6   9  1   
 13   6  25  1   
 14   6  26  1   
 15   7  10  1   
 16   7  27  1   
 17   7  28  1   
 18   8  11  1   
 19   8  29  1   
 20   8  30  1   
 21   9  12  1   
 22   9  31  1   
 23   9  32  1   
 24  10  13  ar  
 25  10  14  ar  
 26  11  15  1   
 27  11  33  1   
 28  11  34  1   
 29  12  15  1   
 30  12  35  1   
 31  12  36  1   
 32  13  16  ar  
 33  13  37  1   
 34  14  17  ar  
 35  14  38  1   
 36  15  39  1   
 37  15  40  1   
 38  16  18  ar  
 39  16  41  1   
 40  17  18  ar  
 41  17  42  1   
 42  18  19  1   
 43  19  20  1   
 44  20  43  1   
 45  20  44  1   
 46  20  45  1   
@<TRIPOS>SUBSTRUCTURE
  1 ****   4 GROUP 4 **** **** 0

# MOE 2024.06 (io_trps.svl 2023.06)
