@<TRIPOS>MOLECULE
NONAME
29 30 1 0 0 
SMALL
USER_CHARGES


@<TRIPOS>ATOM
  1 F        1.1240    -1.1490    -1.5220 F     1 <1>  -0.1900 
  2 C        0.6620    -1.9860    -0.6320 C.ar  1 <1>   0.1900 
  3 C        1.3530    -2.1640     0.5650 C.ar  1 <1>   0.0860 
  4 C       -0.5050    -2.6600    -0.9380 C.ar  1 <1>  -0.1500 
  5 C        2.5770    -1.4580     0.8740 C.2   1 <1>   0.5440 
  6 C        0.7980    -3.0650     1.4740 C.ar  1 <1>  -0.1500 
  7 C       -1.0240    -3.5540    -0.0170 C.ar  1 <1>  -0.1500 
  8 O        2.5750    -0.6840     1.8140 O.2   1 <1>  -0.5700 
  9 N        3.7480    -1.6600     0.1690 N.am  1 <1>  -0.6600 
 10 C       -0.3700    -3.7520     1.1890 C.ar  1 <1>  -0.1500 
 11 C        4.9710    -0.8480     0.4270 C.3   1 <1>   0.1400 
 12 C        3.9190    -2.6990    -0.8860 C.3   1 <1>   0.1400 
 13 C        6.1310    -1.7700     0.8170 C.3   1 <1>  -0.1600 
 14 C        5.0730    -3.6340    -0.5090 C.3   1 <1>  -0.1600 
 15 C        6.3690    -2.8580    -0.2390 C.3   1 <1>  -0.1600 
 16 H       -0.9970    -2.4860    -1.8780 H     1 <1>   0.1500 
 17 H        1.2960    -3.2170     2.4170 H     1 <1>   0.1500 
 18 H       -1.9320    -4.0900    -0.2340 H     1 <1>   0.1500 
 19 H       -0.7750    -4.4430     1.9100 H     1 <1>   0.1500 
 20 H        4.7990    -0.1330     1.2140 H     1 <1>   0.0800 
 21 H        5.2200    -0.3020    -0.4660 H     1 <1>   0.0800 
 22 H        4.1330    -2.2110    -1.8210 H     1 <1>   0.0800 
 23 H        3.0220    -3.2790    -1.0090 H     1 <1>   0.0800 
 24 H        5.9040    -2.2240     1.7660 H     1 <1>   0.0800 
 25 H        7.0230    -1.1820     0.9410 H     1 <1>   0.0800 
 26 H        5.2330    -4.3390    -1.3050 H     1 <1>   0.0800 
 27 H        4.7940    -4.1900     0.3700 H     1 <1>   0.0800 
 28 H        7.1350    -3.5330     0.1000 H     1 <1>   0.0800 
 29 H        6.7080    -2.4000    -1.1530 H     1 <1>   0.0800 
@<TRIPOS>BOND
  1   1   2  1   
  2   2   3  ar  
  3   2   4  ar  
  4   3   5  1   
  5   3   6  ar  
  6   4   7  ar  
  7   4  16  1   
  8   5   8  2   
  9   5   9  am  
 10   6  10  ar  
 11   6  17  1   
 12   7  10  ar  
 13   7  18  1   
 14   9  11  1   
 15   9  12  1   
 16  10  19  1   
 17  11  13  1   
 18  11  20  1   
 19  11  21  1   
 20  12  14  1   
 21  12  22  1   
 22  12  23  1   
 23  13  15  1   
 24  13  24  1   
 25  13  25  1   
 26  14  15  1   
 27  14  26  1   
 28  14  27  1   
 29  15  28  1   
 30  15  29  1   
@<TRIPOS>SUBSTRUCTURE
  1 ****   5 GROUP 4 **** **** 0

# MOE 2024.06 (io_trps.svl 2023.06)
