@<TRIPOS>MOLECULE
NONAME
55 57 1 0 0 
SMALL
USER_CHARGES


@<TRIPOS>ATOM
  1 O        0.7540    -0.6170     0.8550 O.2   1 <1>  -0.5700 
  2 C        0.7100    -1.7950     0.5820 C.2   1 <1>   0.4950 
  3 C        1.8500    -2.6600     0.6400 C.2   1 <1>   0.0290 
  4 C       -0.6620    -2.3120     0.1830 C.3   1 <1>  -0.0990 
  5 C        1.6750    -4.0440     0.2940 C.2   1 <1>   0.4950 
  6 C        3.0700    -2.1360     1.0170 C.2   1 <1>  -0.0500 
  7 C       -0.6000    -3.5360    -0.7410 C.3   1 <1>   0.0000 
  8 O        2.5610    -4.8710     0.2810 O.2   1 <1>  -0.5700 
  9 C        0.3040    -4.5850    -0.0800 C.3   1 <1>  -0.0990 
 10 N        4.2350    -2.8170     1.1230 N.pl3 1 <1>  -0.8690 
 11 C       -2.0110    -4.1140    -0.9250 C.3   1 <1>  -0.2400 
 12 C       -0.0520    -3.1430    -2.1260 C.3   1 <1>  -0.2400 
 13 C        5.5540    -2.2630     1.4940 C.3   1 <1>   0.2090 
 14 C        6.5290    -2.3980     0.3160 C.3   1 <1>  -0.0800 
 15 C        6.7900    -3.8730    -0.0550 C.3   1 <1>  -0.1600 
 16 C        7.8610    -1.6980     0.6400 C.3   1 <1>  -0.1600 
 17 C        7.8180    -4.0030    -1.1810 C.3   1 <1>   0.1400 
 18 C        8.8750    -1.8450    -0.4980 C.3   1 <1>   0.1400 
 19 N        9.0690    -3.2880    -0.8040 N.am  1 <1>  -0.6600 
 20 C       10.2610    -3.9600    -0.6130 C.2   1 <1>   0.5440 
 21 O       10.2580    -5.1760    -0.5860 O.2   1 <1>  -0.5700 
 22 C       11.5170    -3.2570    -0.4300 C.ar  1 <1>   0.0860 
 23 C       11.9890    -2.3480    -1.3780 C.ar  1 <1>  -0.1500 
 24 C       12.2980    -3.4720     0.7040 C.ar  1 <1>  -0.1500 
 25 C       13.1800    -1.6690    -1.1920 C.ar  1 <1>  -0.1500 
 26 C       13.4900    -2.7970     0.8960 C.ar  1 <1>  -0.1500 
 27 C       13.9310    -1.8910    -0.0520 C.ar  1 <1>  -0.1500 
 28 H       -1.1920    -2.5560     1.0850 H     1 <1>   0.0800 
 29 H       -1.2040    -1.5200    -0.3030 H     1 <1>   0.0800 
 30 H        3.1210    -1.0820     1.2510 H     1 <1>   0.1500 
 31 H        0.4300    -5.4210    -0.7460 H     1 <1>   0.0800 
 32 H       -0.1560    -4.9580     0.8170 H     1 <1>   0.0800 
 33 H        4.2350    -3.8320     0.9080 H     1 <1>   0.4000 
 34 H       -2.6630    -3.3850    -1.3750 H     1 <1>   0.0800 
 35 H       -2.4350    -4.4050     0.0200 H     1 <1>   0.0800 
 36 H       -1.9850    -4.9800    -1.5630 H     1 <1>   0.0800 
 37 H        0.9380    -2.7270    -2.0660 H     1 <1>   0.0800 
 38 H       -0.6910    -2.4100    -2.5890 H     1 <1>   0.0800 
 39 H       -0.0110    -4.0030    -2.7710 H     1 <1>   0.0800 
 40 H        5.4410    -1.2240     1.7570 H     1 <1>   0.0800 
 41 H        5.9320    -2.7900     2.3530 H     1 <1>   0.0800 
 42 H        6.0890    -1.9020    -0.5330 H     1 <1>   0.0800 
 43 H        5.8750    -4.3400    -0.3740 H     1 <1>   0.0800 
 44 H        7.1520    -4.4130     0.8030 H     1 <1>   0.0800 
 45 H        8.2880    -2.1170     1.5350 H     1 <1>   0.0800 
 46 H        7.6870    -0.6510     0.8170 H     1 <1>   0.0800 
 47 H        7.4260    -3.5690    -2.0850 H     1 <1>   0.0800 
 48 H        8.0140    -5.0440    -1.3730 H     1 <1>   0.0800 
 49 H        9.8000    -1.3810    -0.2050 H     1 <1>   0.0800 
 50 H        8.5120    -1.3450    -1.3800 H     1 <1>   0.0800 
 51 H       11.4110    -2.1810    -2.2690 H     1 <1>   0.1500 
 52 H       11.9580    -4.1840     1.4370 H     1 <1>   0.1500 
 53 H       13.5250    -0.9700    -1.9350 H     1 <1>   0.1500 
 54 H       14.0760    -2.9780     1.7810 H     1 <1>   0.1500 
 55 H       14.8580    -1.3640     0.0960 H     1 <1>   0.1500 
@<TRIPOS>BOND
  1   1   2  2   
  2   2   3  1   
  3   2   4  1   
  4   3   5  1   
  5   3   6  2   
  6   4   7  1   
  7   4  28  1   
  8   4  29  1   
  9   5   8  2   
 10   5   9  1   
 11   6  10  1   
 12   6  30  1   
 13   7   9  1   
 14   7  11  1   
 15   7  12  1   
 16   9  31  1   
 17   9  32  1   
 18  10  13  1   
 19  10  33  1   
 20  11  34  1   
 21  11  35  1   
 22  11  36  1   
 23  12  37  1   
 24  12  38  1   
 25  12  39  1   
 26  13  14  1   
 27  13  40  1   
 28  13  41  1   
 29  14  15  1   
 30  14  16  1   
 31  14  42  1   
 32  15  17  1   
 33  15  43  1   
 34  15  44  1   
 35  16  18  1   
 36  16  45  1   
 37  16  46  1   
 38  17  19  1   
 39  17  47  1   
 40  17  48  1   
 41  18  19  1   
 42  18  49  1   
 43  18  50  1   
 44  19  20  am  
 45  20  21  2   
 46  20  22  1   
 47  22  23  ar  
 48  22  24  ar  
 49  23  25  ar  
 50  23  51  1   
 51  24  26  ar  
 52  24  52  1   
 53  25  27  ar  
 54  25  53  1   
 55  26  27  ar  
 56  26  54  1   
 57  27  55  1   
@<TRIPOS>SUBSTRUCTURE
  1 ****  14 GROUP 4 **** **** 0

# MOE 2024.06 (io_trps.svl 2023.06)
