@<TRIPOS>MOLECULE
NONAME
40 41 1 0 0 
SMALL
USER_CHARGES


@<TRIPOS>ATOM
  1 CL       0.5280     0.9200     1.3010 Cl    1 <1>  -0.1770 
  2 C        1.6810    -0.3010     0.8130 C.ar  1 <1>   0.1770 
  3 C        1.2940    -1.6230     0.6690 C.ar  1 <1>   0.1770 
  4 C        2.9880     0.0800     0.5720 C.ar  1 <1>  -0.1500 
  5 CL      -0.3580    -2.1140     0.9710 Cl    1 <1>  -0.1770 
  6 C        2.2160    -2.5760     0.2790 C.ar  1 <1>  -0.1500 
  7 C        3.9300    -0.8670     0.1830 C.ar  1 <1>   0.1170 
  8 C        3.5250    -2.1940     0.0360 C.ar  1 <1>  -0.1500 
  9 N        5.2450    -0.4490    -0.0640 N.am  1 <1>  -0.5470 
 10 C        6.4280    -1.1230     0.0420 C.2   1 <1>   0.6900 
 11 O        6.4690    -2.2460     0.5080 O.2   1 <1>  -0.5700 
 12 N        7.5900    -0.5050    -0.3600 N.am  1 <1>  -0.6600 
 13 C        8.8890    -1.0920     0.0680 C.3   1 <1>   0.2200 
 14 C        7.6010     0.5990    -1.3710 C.3   1 <1>   0.0600 
 15 C        9.9390    -0.0290     0.3990 C.3   1 <1>  -0.1600 
 16 C        9.4100    -2.0600    -0.9940 C.3   1 <1>  -0.1600 
 17 C       11.2260    -0.7080     0.8630 C.3   1 <1>   0.3430 
 18 C       10.7030    -2.7100    -0.5120 C.3   1 <1>   0.3430 
 19 N       11.7130    -1.6550    -0.1870 N.4   1 <1>  -0.9590 
 20 C       13.0080    -2.2780     0.2230 C.3   1 <1>   0.2630 
 21 H        3.2650     1.1100     0.6940 H     1 <1>   0.1500 
 22 H        1.9120    -3.6020     0.1670 H     1 <1>   0.1500 
 23 H        4.2390    -2.9380    -0.2710 H     1 <1>   0.1500 
 24 H        5.3710     0.5440    -0.2270 H     1 <1>   0.3700 
 25 H        8.7190    -1.6550     0.9730 H     1 <1>   0.0800 
 26 H        6.6720     0.6300    -1.9130 H     1 <1>   0.0800 
 27 H        8.3900     0.4450    -2.0860 H     1 <1>   0.0800 
 28 H        7.7520     1.5440    -0.8780 H     1 <1>   0.0800 
 29 H        9.5700     0.5980     1.1910 H     1 <1>   0.0800 
 30 H       10.1560     0.5880    -0.4530 H     1 <1>   0.0800 
 31 H        9.5820    -1.5570    -1.9270 H     1 <1>   0.0800 
 32 H        8.6780    -2.8320    -1.1560 H     1 <1>   0.0800 
 33 H       11.0360    -1.2460     1.7780 H     1 <1>   0.0800 
 34 H       11.9760     0.0420     1.0610 H     1 <1>   0.0800 
 35 H       11.0830    -3.3640    -1.2810 H     1 <1>   0.0800 
 36 H       10.4980    -3.3030     0.3650 H     1 <1>   0.0800 
 37 H       11.8740    -1.1100    -1.0470 H     1 <1>   0.4500 
 38 H       12.8770    -2.8600     1.1210 H     1 <1>   0.0800 
 39 H       13.7470    -1.5160     0.4110 H     1 <1>   0.0800 
 40 H       13.3760    -2.9250    -0.5570 H     1 <1>   0.0800 
@<TRIPOS>BOND
  1   1   2  1   
  2   2   3  ar  
  3   2   4  ar  
  4   3   5  1   
  5   3   6  ar  
  6   4   7  ar  
  7   4  21  1   
  8   6   8  ar  
  9   6  22  1   
 10   7   8  ar  
 11   7   9  1   
 12   8  23  1   
 13   9  10  am  
 14   9  24  1   
 15  10  11  2   
 16  10  12  am  
 17  12  13  1   
 18  12  14  1   
 19  13  15  1   
 20  13  16  1   
 21  13  25  1   
 22  14  26  1   
 23  14  27  1   
 24  14  28  1   
 25  15  17  1   
 26  15  29  1   
 27  15  30  1   
 28  16  18  1   
 29  16  31  1   
 30  16  32  1   
 31  17  19  1   
 32  17  33  1   
 33  17  34  1   
 34  18  19  1   
 35  18  35  1   
 36  18  36  1   
 37  19  20  1   
 38  19  37  1   
 39  20  38  1   
 40  20  39  1   
 41  20  40  1   
@<TRIPOS>SUBSTRUCTURE
  1 ****  10 GROUP 4 **** **** 0

# MOE 2024.06 (io_trps.svl 2023.06)
