@<TRIPOS>MOLECULE
NONAME
59 62 1 0 0 
SMALL
USER_CHARGES


@<TRIPOS>ATOM
  1 O       -4.1790     3.7020    -0.2870 O.2   1 <1>  -0.5700 
  2 C       -5.3450     3.3970    -0.2060 C.2   1 <1>   0.5690 
  3 N       -5.7180     2.0920    -0.0960 N.am  1 <1>  -0.7300 
  4 C       -6.4090     4.4910    -0.2220 C.3   1 <1>   0.1810 
  5 C       -4.8240     0.9080    -0.1780 C.3   1 <1>   0.1400 
  6 O       -7.7080     3.9340    -0.0730 O.3   1 <1>  -0.3620 
  7 C       -3.7040     0.9620     0.8870 C.3   1 <1>   0.3430 
  8 C       -8.8090     4.7260    -0.0540 C.ar  1 <1>   0.0830 
  9 N       -2.3090     0.7620     0.3480 N.4   1 <1>  -0.9590 
 10 C       -8.7740     6.1100    -0.1850 C.ar  1 <1>  -0.1500 
 11 C      -10.0310     4.0990     0.1060 C.ar  1 <1>  -0.1500 
 12 C       -1.9060     1.9030    -0.5390 C.3   1 <1>   0.2630 
 13 C       -2.1240    -0.5540    -0.3380 C.3   1 <1>   0.2630 
 14 C       -9.9490     6.8410    -0.1530 C.ar  1 <1>  -0.1500 
 15 C      -11.2000     4.8360     0.1360 C.ar  1 <1>  -0.1500 
 16 C      -11.1860     6.2220     0.0070 C.ar  1 <1>  -0.1430 
 17 C      -12.5210     7.0010     0.0480 C.3   1 <1>   0.1430 
 18 C      -13.2360     6.7520     1.3980 C.3   1 <1>  -0.1600 
 19 C      -13.4450     6.5220    -1.0980 C.3   1 <1>  -0.1600 
 20 C      -12.3400     8.5340    -0.1090 C.3   1 <1>  -0.1600 
 21 C      -14.5960     7.4740     1.4510 C.3   1 <1>  -0.0800 
 22 C      -14.8070     7.2430    -1.0550 C.3   1 <1>  -0.0800 
 23 C      -13.6910     9.2720    -0.0630 C.3   1 <1>  -0.0800 
 24 C      -15.4840     6.9630     0.3000 C.3   1 <1>  -0.1600 
 25 C      -14.3750     8.9880     1.2860 C.3   1 <1>  -0.1600 
 26 C      -14.5840     8.7580    -1.2060 C.3   1 <1>  -0.1600 
 27 H       -6.7320     1.9150    -0.0700 H     1 <1>   0.3700 
 28 H       -6.3690     5.0140    -1.1590 H     1 <1>   0.0800 
 29 H       -6.2350     5.1720     0.5900 H     1 <1>   0.0800 
 30 H       -4.4090     0.8690    -1.1690 H     1 <1>   0.0800 
 31 H       -5.4140     0.0210    -0.0230 H     1 <1>   0.0800 
 32 H       -3.9070     0.2110     1.6320 H     1 <1>   0.0800 
 33 H       -3.7520     1.9230     1.3750 H     1 <1>   0.0800 
 34 H       -1.6730     0.7870     1.1610 H     1 <1>   0.4500 
 35 H       -7.8510     6.6410    -0.3110 H     1 <1>   0.1500 
 36 H      -10.0670     3.0300     0.2070 H     1 <1>   0.1500 
 37 H       -2.5570     1.9650    -1.3960 H     1 <1>   0.0800 
 38 H       -0.8920     1.7780    -0.8810 H     1 <1>   0.0800 
 39 H       -1.9750     2.8350    -0.0020 H     1 <1>   0.0800 
 40 H       -2.7440    -0.6120    -1.2170 H     1 <1>   0.0800 
 41 H       -2.3850    -1.3630     0.3260 H     1 <1>   0.0800 
 42 H       -1.0950    -0.6770    -0.6370 H     1 <1>   0.0800 
 43 H       -9.8680     7.9060    -0.2580 H     1 <1>   0.1500 
 44 H      -12.1290     4.3110     0.2620 H     1 <1>   0.1500 
 45 H      -12.6100     7.0980     2.2020 H     1 <1>   0.0800 
 46 H      -13.3980     5.7010     1.5480 H     1 <1>   0.0800 
 47 H      -13.6140     5.4640    -1.0260 H     1 <1>   0.0800 
 48 H      -12.9660     6.7070    -2.0440 H     1 <1>   0.0800 
 49 H      -11.8590     8.7480    -1.0470 H     1 <1>   0.0800 
 50 H      -11.7140     8.9080     0.6820 H     1 <1>   0.0800 
 51 H      -15.0750     7.2780     2.3950 H     1 <1>   0.0800 
 52 H      -15.4320     6.8870    -1.8550 H     1 <1>   0.0800 
 53 H      -13.5310    10.3310    -0.1740 H     1 <1>   0.0800 
 54 H      -16.4420     7.4520     0.3350 H     1 <1>   0.0800 
 55 H      -15.6530     5.9060     0.4110 H     1 <1>   0.0800 
 56 H      -15.3190     9.5020     1.3310 H     1 <1>   0.0800 
 57 H      -13.7630     9.3560     2.0910 H     1 <1>   0.0800 
 58 H      -15.5300     9.2700    -1.1870 H     1 <1>   0.0800 
 59 H      -14.1190     8.9650    -2.1540 H     1 <1>   0.0800 
@<TRIPOS>BOND
  1   1   2  2   
  2   2   3  am  
  3   2   4  1   
  4   3   5  1   
  5   3  27  1   
  6   4   6  1   
  7   4  28  1   
  8   4  29  1   
  9   5   7  1   
 10   5  30  1   
 11   5  31  1   
 12   6   8  1   
 13   7   9  1   
 14   7  32  1   
 15   7  33  1   
 16   8  10  ar  
 17   8  11  ar  
 18   9  12  1   
 19   9  13  1   
 20   9  34  1   
 21  10  14  ar  
 22  10  35  1   
 23  11  15  ar  
 24  11  36  1   
 25  12  37  1   
 26  12  38  1   
 27  12  39  1   
 28  13  40  1   
 29  13  41  1   
 30  13  42  1   
 31  14  16  ar  
 32  14  43  1   
 33  15  16  ar  
 34  15  44  1   
 35  16  17  1   
 36  17  18  1   
 37  17  19  1   
 38  17  20  1   
 39  18  21  1   
 40  18  45  1   
 41  18  46  1   
 42  19  22  1   
 43  19  47  1   
 44  19  48  1   
 45  20  23  1   
 46  20  49  1   
 47  20  50  1   
 48  21  24  1   
 49  21  25  1   
 50  21  51  1   
 51  22  24  1   
 52  22  26  1   
 53  22  52  1   
 54  23  25  1   
 55  23  26  1   
 56  23  53  1   
 57  24  54  1   
 58  24  55  1   
 59  25  56  1   
 60  25  57  1   
 61  26  58  1   
 62  26  59  1   
@<TRIPOS>SUBSTRUCTURE
  1 ****   8 GROUP 4 **** **** 0

# MOE 2024.06 (io_trps.svl 2023.06)
