@<TRIPOS>MOLECULE
NONAME
33 35 1 0 0 
SMALL
USER_CHARGES


@<TRIPOS>ATOM
  1 CL      -0.4200    -0.7620    -0.8860 Cl    1 <1>  -0.1770 
  2 C       -1.4920     0.4270    -0.1900 C.ar  1 <1>   0.1770 
  3 C       -1.1810     1.7820    -0.2700 C.ar  1 <1>   0.0860 
  4 C       -2.6310    -0.0330     0.4480 C.ar  1 <1>  -0.1500 
  5 C       -2.0740     2.6600     0.3400 C.ar  1 <1>   0.1770 
  6 C       -0.0050     2.2510    -0.9510 C.2   1 <1>   0.5440 
  7 C       -3.5020     0.8680     1.0370 C.ar  1 <1>  -0.1500 
  8 CL      -1.7640     4.3790     0.3160 Cl    1 <1>  -0.1770 
  9 C       -3.2180     2.2220     0.9830 C.ar  1 <1>  -0.1500 
 10 O        0.0450     2.2390    -2.1630 O.2   1 <1>  -0.5700 
 11 N        1.0600     2.7210    -0.2390 N.am  1 <1>  -0.7300 
 12 C        2.3020     3.2750    -0.8240 C.3   1 <1>   0.2200 
 13 C        3.6240     2.5610    -0.1440 C.3   1 <1>  -0.0800 
 14 C        2.4250     4.9190    -0.4220 C.3   1 <1>  -0.1600 
 15 C        3.7040     3.8020     0.1980 C.3   1 <1>  -0.1600 
 16 C        5.2090     2.8100     0.2330 C.3   1 <1>  -0.1600 
 17 C        3.8040     5.0580     0.4680 C.3   1 <1>  -0.0800 
 18 C        5.3280     4.4590     0.6300 C.3   1 <1>  -0.1600 
 19 H       -2.8320    -1.0900     0.4820 H     1 <1>   0.1500 
 20 H       -4.3920     0.5180     1.5340 H     1 <1>   0.1500 
 21 H       -3.8810     2.9380     1.4370 H     1 <1>   0.1500 
 22 H        1.0040     2.7940     0.7760 H     1 <1>   0.3700 
 23 H        2.3050     3.1400    -1.8950 H     1 <1>   0.0800 
 24 H        3.3250     1.6110     0.2680 H     1 <1>   0.0800 
 25 H        2.4870     5.5190    -1.3160 H     1 <1>   0.0800 
 26 H        1.5650     5.2420     0.1420 H     1 <1>   0.0800 
 27 H        3.3050     3.5820     1.2180 H     1 <1>   0.0800 
 28 H        4.1540     4.0450    -0.9440 H     1 <1>   0.0800 
 29 H        5.4990     2.1990     1.0730 H     1 <1>   0.0800 
 30 H        5.8480     2.5640    -0.6010 H     1 <1>   0.0800 
 31 H        3.6150     5.7350     1.2850 H     1 <1>   0.0800 
 32 H        6.0160     4.9680    -0.0260 H     1 <1>   0.0800 
 33 H        5.6770     4.5780     1.6440 H     1 <1>   0.0800 
@<TRIPOS>BOND
  1   1   2  1   
  2   2   3  ar  
  3   2   4  ar  
  4   3   5  ar  
  5   3   6  1   
  6   4   7  ar  
  7   4  19  1   
  8   5   8  1   
  9   5   9  ar  
 10   6  10  2   
 11   6  11  am  
 12   7   9  ar  
 13   7  20  1   
 14   9  21  1   
 15  11  12  1   
 16  11  22  1   
 17  12  13  1   
 18  12  14  1   
 19  12  23  1   
 20  13  15  1   
 21  13  16  1   
 22  13  24  1   
 23  14  17  1   
 24  14  25  1   
 25  14  26  1   
 26  15  17  1   
 27  15  27  1   
 28  15  28  1   
 29  16  18  1   
 30  16  29  1   
 31  16  30  1   
 32  17  18  1   
 33  17  31  1   
 34  18  32  1   
 35  18  33  1   
@<TRIPOS>SUBSTRUCTURE
  1 ****  11 GROUP 4 **** **** 0

# MOE 2024.06 (io_trps.svl 2023.06)
