@<TRIPOS>MOLECULE
NONAME
36 36 1 0 0 
SMALL
USER_CHARGES


@<TRIPOS>ATOM
  1 S        0.1920    -0.3080     1.2640 S.o2  1 <1>   1.4470 
  2 O        0.1270    -0.5260     2.6930 O.2   1 <1>  -0.6500 
  3 O        0.5630     0.9940     0.7570 O.2   1 <1>  -0.6500 
  4 N        1.3550    -1.3960     0.6810 N.am  1 <1>  -0.8490 
  5 C       -1.3460    -0.8410     0.4620 C.ar  1 <1>  -0.0090 
  6 C        2.7200    -0.9510     1.1010 C.3   1 <1>   0.2570 
  7 C        1.0810    -2.7680     1.1320 C.3   1 <1>   0.1960 
  8 C       -1.4730    -0.8150    -0.9220 C.ar  1 <1>  -0.1500 
  9 C       -2.4280    -1.3000     1.2040 C.ar  1 <1>  -0.1500 
 10 C        3.8360    -1.2730     0.1000 C.2   1 <1>   0.5690 
 11 C        1.8810    -3.7930     0.3320 C.3   1 <1>  -0.2400 
 12 C       -2.6350    -1.2370    -1.5450 C.ar  1 <1>  -0.1500 
 13 C       -3.5930    -1.7240     0.5870 C.ar  1 <1>  -0.1500 
 14 O        4.9420    -1.5260     0.5140 O.2   1 <1>  -0.5700 
 15 N        3.5430    -1.2660    -1.2290 N.am  1 <1>  -0.7300 
 16 C       -3.7030    -1.6940    -0.7920 C.ar  1 <1>  -0.1430 
 17 C        4.4900    -1.5460    -2.3350 C.3   1 <1>   0.0600 
 18 C       -4.9790    -2.1580    -1.4720 C.3   1 <1>  -0.0970 
 19 H        2.9730    -1.3750     2.0570 H     1 <1>   0.0800 
 20 H        2.7460     0.1170     1.2210 H     1 <1>   0.0800 
 21 H        0.0370    -2.9920     0.9850 H     1 <1>   0.0800 
 22 H        1.2880    -2.8690     2.1860 H     1 <1>   0.0800 
 23 H       -0.6510    -0.4590    -1.5180 H     1 <1>   0.1500 
 24 H       -2.3610    -1.3280     2.2790 H     1 <1>   0.1500 
 25 H        1.7490    -3.6320    -0.7220 H     1 <1>   0.0800 
 26 H        1.5310    -4.7810     0.5700 H     1 <1>   0.0800 
 27 H        2.9260    -3.7510     0.5780 H     1 <1>   0.0800 
 28 H       -2.7040    -1.2060    -2.6180 H     1 <1>   0.1500 
 29 H       -4.4150    -2.0750     1.1870 H     1 <1>   0.1500 
 30 H        2.5620    -1.1070    -1.4800 H     1 <1>   0.3700 
 31 H        4.1760    -2.4270    -2.8680 H     1 <1>   0.0800 
 32 H        5.4810    -1.7100    -1.9450 H     1 <1>   0.0800 
 33 H        4.5170    -0.7100    -3.0120 H     1 <1>   0.0800 
 34 H       -5.1310    -1.6220    -2.3920 H     1 <1>   0.0800 
 35 H       -5.8280    -1.9850    -0.8360 H     1 <1>   0.0800 
 36 H       -4.9140    -3.2090    -1.6880 H     1 <1>   0.0800 
@<TRIPOS>BOND
  1   1   2  2   
  2   1   3  2   
  3   1   4  am  
  4   1   5  1   
  5   4   6  1   
  6   4   7  1   
  7   5   8  ar  
  8   5   9  ar  
  9   6  10  1   
 10   6  19  1   
 11   6  20  1   
 12   7  11  1   
 13   7  21  1   
 14   7  22  1   
 15   8  12  ar  
 16   8  23  1   
 17   9  13  ar  
 18   9  24  1   
 19  10  14  2   
 20  10  15  am  
 21  11  25  1   
 22  11  26  1   
 23  11  27  1   
 24  12  16  ar  
 25  12  28  1   
 26  13  16  ar  
 27  13  29  1   
 28  15  17  1   
 29  15  30  1   
 30  16  18  1   
 31  17  31  1   
 32  17  32  1   
 33  17  33  1   
 34  18  34  1   
 35  18  35  1   
 36  18  36  1   
@<TRIPOS>SUBSTRUCTURE
  1 ****   4 GROUP 4 **** **** 0

# MOE 2024.06 (io_trps.svl 2023.06)
