@<TRIPOS>MOLECULE
NONAME
50 52 1 0 0 
SMALL
USER_CHARGES


@<TRIPOS>ATOM
  1 S       -0.4530     0.1610    -0.5870 S.o2  1 <1>   1.4470 
  2 O       -1.0760     0.2110    -1.8920 O.2   1 <1>  -0.6500 
  3 O       -0.3640    -1.1050     0.1070 O.2   1 <1>  -0.6500 
  4 N       -1.3370     1.2080     0.4090 N.am  1 <1>  -0.8490 
  5 C        1.1880     0.9300    -0.6480 C.ar  1 <1>  -0.0090 
  6 C       -2.6040     0.5880     0.8420 C.3   1 <1>   0.1960 
  7 C       -1.6200     2.5010    -0.2470 C.3   1 <1>   0.1960 
  8 C        1.7880     1.4220     0.5060 C.ar  1 <1>  -0.1500 
  9 C        1.8910     1.0370    -1.8440 C.ar  1 <1>  -0.1500 
 10 C       -3.4200     1.4900     1.7900 C.3   1 <1>   0.2090 
 11 C       -2.3720     3.4780     0.6770 C.3   1 <1>   0.2090 
 12 C        3.0400     2.0100     0.4760 C.ar  1 <1>   0.0820 
 13 C        3.1400     1.6330    -1.8920 C.ar  1 <1>  -0.1500 
 14 N       -3.6070     2.8720     1.2540 N.pl3 1 <1>  -0.8380 
 15 O        3.5550     2.4340     1.6540 O.3   1 <1>  -0.3630 
 16 C        3.7170     2.1380    -0.7410 C.ar  1 <1>   0.0830 
 17 C       -4.8320     3.1990     0.6720 C.ar  1 <1>   0.1000 
 18 C        4.6800     1.7290     2.1320 C.3   1 <1>   0.0400 
 19 O        4.9250     2.7390    -0.8590 O.3   1 <1>  -0.3630 
 20 C       -5.7030     4.0920     1.2990 C.ar  1 <1>  -0.1430 
 21 C       -5.2040     2.6440    -0.5480 C.ar  1 <1>  -0.1500 
 22 C        4.9910     4.1120    -0.5370 C.3   1 <1>   0.0400 
 23 C       -6.9130     4.4100     0.7050 C.ar  1 <1>  -0.1500 
 24 C       -5.3320     4.7200     2.6350 C.3   1 <1>  -0.0970 
 25 C       -6.4130     2.9640    -1.1370 C.ar  1 <1>  -0.1500 
 26 C       -7.2700     3.8490    -0.5100 C.ar  1 <1>  -0.1500 
 27 H       -2.3950    -0.3340     1.3570 H     1 <1>   0.0800 
 28 H       -3.2050     0.3490    -0.0190 H     1 <1>   0.0800 
 29 H       -2.2120     2.3450    -1.1330 H     1 <1>   0.0800 
 30 H       -0.6970     2.9640    -0.5480 H     1 <1>   0.0800 
 31 H        1.2740     1.3410     1.4480 H     1 <1>   0.1500 
 32 H        1.4540     0.6500    -2.7510 H     1 <1>   0.1500 
 33 H       -2.9100     1.5540     2.7350 H     1 <1>   0.0800 
 34 H       -4.3820     1.0430     1.9680 H     1 <1>   0.0800 
 35 H       -2.6360     4.3630     0.1240 H     1 <1>   0.0800 
 36 H       -1.7230     3.7740     1.4820 H     1 <1>   0.0800 
 37 H        3.6720     1.7120    -2.8240 H     1 <1>   0.1500 
 38 H        4.9360     2.1190     3.1000 H     1 <1>   0.0800 
 39 H        5.5020     1.8650     1.4520 H     1 <1>   0.0800 
 40 H        4.4280     0.6850     2.2090 H     1 <1>   0.0800 
 41 H       -4.5420     1.9580    -1.0390 H     1 <1>   0.1500 
 42 H        5.9650     4.4740    -0.8110 H     1 <1>   0.0800 
 43 H        4.8390     4.2390     0.5190 H     1 <1>   0.0800 
 44 H        4.2330     4.6360    -1.0910 H     1 <1>   0.0800 
 45 H       -7.5880     5.0970     1.1840 H     1 <1>   0.1500 
 46 H       -5.1690     3.9460     3.3640 H     1 <1>   0.0800 
 47 H       -6.1090     5.3710     2.9900 H     1 <1>   0.0800 
 48 H       -4.4260     5.2870     2.5280 H     1 <1>   0.0800 
 49 H       -6.6860     2.5260    -2.0800 H     1 <1>   0.1500 
 50 H       -8.2130     4.1020    -0.9630 H     1 <1>   0.1500 
@<TRIPOS>BOND
  1   1   2  2   
  2   1   3  2   
  3   1   4  am  
  4   1   5  1   
  5   4   6  1   
  6   4   7  1   
  7   5   8  ar  
  8   5   9  ar  
  9   6  10  1   
 10   6  27  1   
 11   6  28  1   
 12   7  11  1   
 13   7  29  1   
 14   7  30  1   
 15   8  12  ar  
 16   8  31  1   
 17   9  13  ar  
 18   9  32  1   
 19  10  14  1   
 20  10  33  1   
 21  10  34  1   
 22  11  14  1   
 23  11  35  1   
 24  11  36  1   
 25  12  15  1   
 26  12  16  ar  
 27  13  16  ar  
 28  13  37  1   
 29  14  17  1   
 30  15  18  1   
 31  16  19  1   
 32  17  20  ar  
 33  17  21  ar  
 34  18  38  1   
 35  18  39  1   
 36  18  40  1   
 37  19  22  1   
 38  20  23  ar  
 39  20  24  1   
 40  21  25  ar  
 41  21  41  1   
 42  22  42  1   
 43  22  43  1   
 44  22  44  1   
 45  23  26  ar  
 46  23  45  1   
 47  24  46  1   
 48  24  47  1   
 49  24  48  1   
 50  25  26  ar  
 51  25  49  1   
 52  26  50  1   
@<TRIPOS>SUBSTRUCTURE
  1 ****   7 GROUP 4 **** **** 0

# MOE 2024.06 (io_trps.svl 2023.06)
