@<TRIPOS>MOLECULE
NONAME
51 53 1 0 0 
SMALL
USER_CHARGES


@<TRIPOS>ATOM
  1 S        0.3230     1.2690     3.6410 S.o2  1 <1>   1.4470 
  2 O       -0.0460     2.3620     4.5040 O.2   1 <1>  -0.6500 
  3 O        1.3890     0.3640     3.9980 O.2   1 <1>  -0.6500 
  4 N        0.7970     2.0580     2.1910 N.am  1 <1>  -0.7570 
  5 C       -1.1530     0.3410     3.1350 C.ar  1 <1>  -0.0090 
  6 C        1.0130     1.5090     0.9340 C.ar  1 <1>   0.1990 
  7 C       -2.0410     0.8400     2.1930 C.ar  1 <1>  -0.1500 
  8 C       -1.4290    -0.9050     3.6790 C.ar  1 <1>  -0.1500 
  9 C        0.9650     2.3380    -0.1800 C.ar  1 <1>  -0.1500 
 10 C        1.2560     0.1530     0.7380 C.ar  1 <1>  -0.1500 
 11 C       -3.1530     0.1270     1.7500 C.ar  1 <1>   0.0860 
 12 C       -2.5390    -1.6290     3.2820 C.ar  1 <1>  -0.1500 
 13 C        1.1370     1.8280    -1.4540 C.ar  1 <1>  -0.1500 
 14 C        1.4250    -0.3590    -0.5360 C.ar  1 <1>  -0.1500 
 15 C       -3.3980    -1.1260     2.3210 C.ar  1 <1>  -0.1430 
 16 C       -3.9910     0.6940     0.7080 C.2   1 <1>   0.5440 
 17 C        1.3620     0.4740    -1.6420 C.ar  1 <1>  -0.1430 
 18 C       -4.6050    -1.9510     1.8930 C.3   1 <1>  -0.0970 
 19 O       -5.1360     1.0120     0.9630 O.2   1 <1>  -0.5700 
 20 N       -3.5060     0.8890    -0.5690 N.am  1 <1>  -0.6600 
 21 C        1.5510    -0.0850    -3.0430 C.3   1 <1>  -0.0170 
 22 C       -4.3200     1.5350    -1.6430 C.3   1 <1>   0.1400 
 23 C       -2.1720     0.4160    -1.0490 C.3   1 <1>   0.1400 
 24 C        3.0210    -0.0030    -3.4590 C.3   1 <1>  -0.2400 
 25 C       -4.3340     0.6680    -2.9130 C.3   1 <1>   0.1200 
 26 C       -2.3160    -0.3870    -2.3520 C.3   1 <1>   0.1200 
 27 O       -3.0300     0.3430    -3.3090 O.3   1 <1>  -0.5600 
 28 H        0.6990     3.0620     2.2940 H     1 <1>   0.4200 
 29 H       -1.8700     1.8140     1.7670 H     1 <1>   0.1500 
 30 H       -0.7660    -1.3180     4.4220 H     1 <1>   0.1500 
 31 H        0.7920     3.3900    -0.0520 H     1 <1>   0.1500 
 32 H        1.3260    -0.5120     1.5790 H     1 <1>   0.1500 
 33 H       -2.7250    -2.5910     3.7280 H     1 <1>   0.1500 
 34 H        1.0960     2.4890    -2.3030 H     1 <1>   0.1500 
 35 H        1.6160    -1.4110    -0.6640 H     1 <1>   0.1500 
 36 H       -4.6030    -2.0900     0.8270 H     1 <1>   0.0800 
 37 H       -5.5110    -1.4400     2.1700 H     1 <1>   0.0800 
 38 H       -4.6040    -2.9180     2.3620 H     1 <1>   0.0800 
 39 H        0.9470     0.4700    -3.7400 H     1 <1>   0.0800 
 40 H        1.2270    -1.1110    -3.0750 H     1 <1>   0.0800 
 41 H       -3.8970     2.4960    -1.8760 H     1 <1>   0.0800 
 42 H       -5.3320     1.6930    -1.3140 H     1 <1>   0.0800 
 43 H       -1.6890    -0.2020    -0.3140 H     1 <1>   0.0800 
 44 H       -1.5430     1.2690    -1.2320 H     1 <1>   0.0800 
 45 H        3.3530     1.0210    -3.4530 H     1 <1>   0.0800 
 46 H        3.1490    -0.4010    -4.4500 H     1 <1>   0.0800 
 47 H        3.6320    -0.5670    -2.7770 H     1 <1>   0.0800 
 48 H       -4.7990     1.2030    -3.7210 H     1 <1>   0.0800 
 49 H       -4.8810    -0.2430    -2.7410 H     1 <1>   0.0800 
 50 H       -2.8310    -1.3140    -2.1700 H     1 <1>   0.0800 
 51 H       -1.3460    -0.6040    -2.7610 H     1 <1>   0.0800 
@<TRIPOS>BOND
  1   1   2  2   
  2   1   3  2   
  3   1   4  am  
  4   1   5  1   
  5   4   6  1   
  6   4  28  1   
  7   5   7  ar  
  8   5   8  ar  
  9   6   9  ar  
 10   6  10  ar  
 11   7  11  ar  
 12   7  29  1   
 13   8  12  ar  
 14   8  30  1   
 15   9  13  ar  
 16   9  31  1   
 17  10  14  ar  
 18  10  32  1   
 19  11  15  ar  
 20  11  16  1   
 21  12  15  ar  
 22  12  33  1   
 23  13  17  ar  
 24  13  34  1   
 25  14  17  ar  
 26  14  35  1   
 27  15  18  1   
 28  16  19  2   
 29  16  20  am  
 30  17  21  1   
 31  18  36  1   
 32  18  37  1   
 33  18  38  1   
 34  20  22  1   
 35  20  23  1   
 36  21  24  1   
 37  21  39  1   
 38  21  40  1   
 39  22  25  1   
 40  22  41  1   
 41  22  42  1   
 42  23  26  1   
 43  23  43  1   
 44  23  44  1   
 45  24  45  1   
 46  24  46  1   
 47  24  47  1   
 48  25  27  1   
 49  25  48  1   
 50  25  49  1   
 51  26  27  1   
 52  26  50  1   
 53  26  51  1   
@<TRIPOS>SUBSTRUCTURE
  1 ****  23 GROUP 4 **** **** 0

# MOE 2024.06 (io_trps.svl 2023.06)
