@<TRIPOS>MOLECULE
NONAME
51 52 1 0 0 
SMALL
USER_CHARGES


@<TRIPOS>ATOM
  1 N       -2.6310     0.3640     1.8230 N.1   1 <1>  -0.5570 
  2 C       -2.7360    -0.1840     0.8280 C.1   1 <1>   0.4840 
  3 C       -2.9220    -0.8470    -0.4200 C.ar  1 <1>   0.0730 
  4 C       -2.2890    -2.0770    -0.6610 C.ar  1 <1>   0.4610 
  5 C       -3.7490    -0.2800    -1.3960 C.ar  1 <1>   0.1000 
  6 N       -2.5000    -2.7010    -1.8370 N.ar  1 <1>  -0.1790 
  7 N       -1.4480    -2.7260     0.1940 N.pl3 1 <1>  -0.8380 
  8 N       -4.3820     0.9290    -1.2470 N.pl3 1 <1>  -0.8380 
  9 C       -3.9260    -0.9910    -2.6010 C.ar  1 <1>  -0.1500 
 10 C       -3.3040    -2.1850    -2.8090 C.ar  1 <1>   0.2110 
 11 C       -1.7570    -4.0690     0.7810 C.3   1 <1>   0.1290 
 12 C       -0.2420    -2.0750     0.8050 C.3   1 <1>   0.1290 
 13 C       -4.0380     2.0420    -2.1990 C.3   1 <1>   0.3530 
 14 C       -5.7540     1.0010    -0.6190 C.3   1 <1>   0.2090 
 15 C       -3.7060     3.3140    -1.4380 C.ar  1 <1>  -0.1440 
 16 C       -5.7480     1.3730     0.8860 C.3   1 <1>   0.3430 
 17 C       -4.4320     4.4750    -1.6650 C.ar  1 <1>  -0.1500 
 18 C       -2.6660     3.3320    -0.5190 C.ar  1 <1>  -0.1500 
 19 N       -5.2230     2.7480     1.1620 N.4   1 <1>  -0.9590 
 20 C       -4.1360     5.6320    -0.9660 C.ar  1 <1>  -0.1500 
 21 C       -2.3730     4.4880     0.1840 C.ar  1 <1>  -0.1500 
 22 C       -4.6660     2.8600     2.5440 C.3   1 <1>   0.2630 
 23 C       -6.2370     3.8150     0.9240 C.3   1 <1>   0.2630 
 24 C       -3.1100     5.6370    -0.0370 C.ar  1 <1>  -0.1500 
 25 H       -1.9830    -3.5730    -1.9620 H     1 <1>   0.4570 
 26 H       -4.5670    -0.5690    -3.3570 H     1 <1>   0.1500 
 27 H       -3.4240    -2.7410    -3.7260 H     1 <1>   0.1500 
 28 H       -2.6970    -4.4460     0.4150 H     1 <1>   0.0800 
 29 H       -1.8190    -3.9930     1.8540 H     1 <1>   0.0800 
 30 H       -0.9760    -4.7700     0.5340 H     1 <1>   0.0800 
 31 H       -0.0190    -1.1430     0.3140 H     1 <1>   0.0800 
 32 H        0.6140    -2.7220     0.7100 H     1 <1>   0.0800 
 33 H       -0.4140    -1.8830     1.8510 H     1 <1>   0.0800 
 34 H       -4.8590     2.2110    -2.8750 H     1 <1>   0.0800 
 35 H       -3.1800     1.7660    -2.7900 H     1 <1>   0.0800 
 36 H       -6.2220     0.0360    -0.7150 H     1 <1>   0.0800 
 37 H       -6.3710     1.7010    -1.1560 H     1 <1>   0.0800 
 38 H       -5.1450     0.6490     1.4060 H     1 <1>   0.0800 
 39 H       -6.7500     1.2930     1.2740 H     1 <1>   0.0800 
 40 H       -5.2260     4.4940    -2.3930 H     1 <1>   0.1500 
 41 H       -2.0740     2.4500    -0.3480 H     1 <1>   0.1500 
 42 H       -4.4340     2.9060     0.5000 H     1 <1>   0.4500 
 43 H       -4.6930     6.5360    -1.1520 H     1 <1>   0.1500 
 44 H       -1.5620     4.4980     0.8930 H     1 <1>   0.1500 
 45 H       -5.4410     2.7090     3.2770 H     1 <1>   0.0800 
 46 H       -4.2350     3.8370     2.6910 H     1 <1>   0.0800 
 47 H       -3.8940     2.1260     2.7030 H     1 <1>   0.0800 
 48 H       -7.0700     3.7010     1.5980 H     1 <1>   0.0800 
 49 H       -6.5970     3.7700    -0.0900 H     1 <1>   0.0800 
 50 H       -5.7930     4.7850     1.0820 H     1 <1>   0.0800 
 51 H       -2.8740     6.5410     0.5010 H     1 <1>   0.1500 
@<TRIPOS>BOND
  1   1   2  3   
  2   2   3  1   
  3   3   4  ar  
  4   3   5  ar  
  5   4   6  ar  
  6   4   7  1   
  7   5   8  1   
  8   5   9  ar  
  9   6  10  ar  
 10   6  25  1   
 11   7  11  1   
 12   7  12  1   
 13   8  13  1   
 14   8  14  1   
 15   9  10  ar  
 16   9  26  1   
 17  10  27  1   
 18  11  28  1   
 19  11  29  1   
 20  11  30  1   
 21  12  31  1   
 22  12  32  1   
 23  12  33  1   
 24  13  15  1   
 25  13  34  1   
 26  13  35  1   
 27  14  16  1   
 28  14  36  1   
 29  14  37  1   
 30  15  17  ar  
 31  15  18  ar  
 32  16  19  1   
 33  16  38  1   
 34  16  39  1   
 35  17  20  ar  
 36  17  40  1   
 37  18  21  ar  
 38  18  41  1   
 39  19  22  1   
 40  19  23  1   
 41  19  42  1   
 42  20  24  ar  
 43  20  43  1   
 44  21  24  ar  
 45  21  44  1   
 46  22  45  1   
 47  22  46  1   
 48  22  47  1   
 49  23  48  1   
 50  23  49  1   
 51  23  50  1   
 52  24  51  1   
@<TRIPOS>SUBSTRUCTURE
  1 ****   8 GROUP 4 **** **** 0

# MOE 2024.06 (io_trps.svl 2023.06)
