@<TRIPOS>MOLECULE
NONAME
38 38 1 0 0 
SMALL
USER_CHARGES


@<TRIPOS>ATOM
  1 S       -0.0110    -0.7330    -0.4230 S.3   1 <1>  -0.4600 
  2 C        1.2490     0.3280     0.3250 C.3   1 <1>   0.1500 
  3 C       -1.5200    -0.3310     0.4940 C.3   1 <1>   0.0700 
  4 C        2.4050     0.4100    -0.6690 C.3   1 <1>  -0.2400 
  5 C        1.6690    -0.3060     1.6500 C.3   1 <1>  -0.2400 
  6 C       -2.6700    -1.1170    -0.1350 C.3   1 <1>  -0.1600 
  7 C       -3.9850    -0.8280     0.5880 C.3   1 <1>   0.1200 
  8 O       -5.0020    -1.5770    -0.0340 O.3   1 <1>  -0.3630 
  9 C       -6.2940    -1.5380     0.3910 C.ar  1 <1>   0.0820 
 10 C       -7.2300    -2.3300    -0.2780 C.ar  1 <1>  -0.1440 
 11 C       -6.6970    -0.7450     1.4630 C.ar  1 <1>  -0.1500 
 12 C       -8.5570    -2.3340     0.1470 C.ar  1 <1>  -0.1440 
 13 C       -6.7850    -3.1920    -1.4610 C.3   1 <1>  -0.0970 
 14 C       -8.0160    -0.7450     1.8700 C.ar  1 <1>  -0.1500 
 15 C       -8.9390    -1.5370     1.2150 C.ar  1 <1>  -0.1500 
 16 C       -9.6200    -3.1940    -0.5240 C.3   1 <1>  -0.0970 
 17 H        0.8070     1.2980     0.4760 H     1 <1>   0.0800 
 18 H       -1.6720     0.7310     0.4140 H     1 <1>   0.0800 
 19 H       -1.3610    -0.6140     1.5190 H     1 <1>   0.0800 
 20 H        2.8060    -0.5700    -0.8580 H     1 <1>   0.0800 
 21 H        3.1860     1.0360    -0.2780 H     1 <1>   0.0800 
 22 H        2.0610     0.8290    -1.5970 H     1 <1>   0.0800 
 23 H        2.0350    -1.3040     1.4850 H     1 <1>   0.0800 
 24 H        0.8380    -0.3470     2.3280 H     1 <1>   0.0800 
 25 H        2.4500     0.2770     2.1040 H     1 <1>   0.0800 
 26 H       -2.4550    -2.1690    -0.0740 H     1 <1>   0.0800 
 27 H       -2.7660    -0.8380    -1.1700 H     1 <1>   0.0800 
 28 H       -4.2400     0.2150     0.5140 H     1 <1>   0.0800 
 29 H       -3.9270    -1.1300     1.6200 H     1 <1>   0.0800 
 30 H       -6.0040    -0.1220     1.9930 H     1 <1>   0.1500 
 31 H       -7.5620    -3.2770    -2.1970 H     1 <1>   0.0800 
 32 H       -5.9310    -2.7670    -1.9550 H     1 <1>   0.0800 
 33 H       -6.5240    -4.1740    -1.1120 H     1 <1>   0.0800 
 34 H       -8.3270    -0.1310     2.6970 H     1 <1>   0.1500 
 35 H       -9.9620    -1.5290     1.5470 H     1 <1>   0.1500 
 36 H       -9.2780    -4.2100    -0.6060 H     1 <1>   0.0800 
 37 H       -9.8340    -2.8120    -1.5050 H     1 <1>   0.0800 
 38 H      -10.5320    -3.1960     0.0460 H     1 <1>   0.0800 
@<TRIPOS>BOND
  1   1   2  1   
  2   1   3  1   
  3   2   4  1   
  4   2   5  1   
  5   2  17  1   
  6   3   6  1   
  7   3  18  1   
  8   3  19  1   
  9   4  20  1   
 10   4  21  1   
 11   4  22  1   
 12   5  23  1   
 13   5  24  1   
 14   5  25  1   
 15   6   7  1   
 16   6  26  1   
 17   6  27  1   
 18   7   8  1   
 19   7  28  1   
 20   7  29  1   
 21   8   9  1   
 22   9  10  ar  
 23   9  11  ar  
 24  10  12  ar  
 25  10  13  1   
 26  11  14  ar  
 27  11  30  1   
 28  12  15  ar  
 29  12  16  1   
 30  13  31  1   
 31  13  32  1   
 32  13  33  1   
 33  14  15  ar  
 34  14  34  1   
 35  15  35  1   
 36  16  36  1   
 37  16  37  1   
 38  16  38  1   
@<TRIPOS>SUBSTRUCTURE
  1 ****   7 GROUP 4 **** **** 0

# MOE 2024.06 (io_trps.svl 2023.06)
