@<TRIPOS>MOLECULE
NONAME
39 39 1 0 0 
SMALL
USER_CHARGES


@<TRIPOS>ATOM
  1 O       -0.0400     0.9090     1.5490 O.2   1 <1>  -0.5700 
  2 C        0.0230     1.6360     0.5750 C.2   1 <1>   0.6900 
  3 N        1.1700     2.2910     0.2520 N.am  1 <1>  -0.6600 
  4 N       -1.0540     1.8480    -0.2120 N.am  1 <1>  -0.7300 
  5 C        2.4830     1.5710     0.2410 C.3   1 <1>   0.2200 
  6 C        1.2300     3.7020     0.7130 C.3   1 <1>   0.1400 
  7 C       -2.3770     1.2180    -0.0480 C.3   1 <1>   0.1400 
  8 C        3.5240     2.4030    -0.5390 C.3   1 <1>  -0.1600 
  9 C        2.3390     0.1620    -0.3820 C.3   1 <1>  -0.1600 
 10 C        2.2250     4.5050    -0.1230 C.3   1 <1>  -0.1600 
 11 C       -3.4620     2.2760    -0.2480 C.3   1 <1>  -0.1600 
 12 C        3.6100     3.8600    -0.0720 C.3   1 <1>  -0.1600 
 13 C        3.6460    -0.6440    -0.4450 C.3   1 <1>  -0.2400 
 14 C       -4.8620     1.6710    -0.0850 C.3   1 <1>  -0.1600 
 15 C       -5.9480     2.7330    -0.2850 C.3   1 <1>  -0.2400 
 16 H       -0.8860     2.3730    -1.0670 H     1 <1>   0.3700 
 17 H        2.8130     1.4660     1.2620 H     1 <1>   0.0800 
 18 H        1.5280     3.7150     1.7480 H     1 <1>   0.0800 
 19 H        0.2530     4.1500     0.6410 H     1 <1>   0.0800 
 20 H       -2.4570     0.7910     0.9380 H     1 <1>   0.0800 
 21 H       -2.4850     0.4290    -0.7720 H     1 <1>   0.0800 
 22 H        3.2710     2.3810    -1.5850 H     1 <1>   0.0800 
 23 H        4.4960     1.9590    -0.4290 H     1 <1>   0.0800 
 24 H        1.9330     0.2520    -1.3740 H     1 <1>   0.0800 
 25 H        1.6480    -0.4150     0.2070 H     1 <1>   0.0800 
 26 H        2.2790     5.5100     0.2560 H     1 <1>   0.0800 
 27 H        1.8750     4.5520    -1.1400 H     1 <1>   0.0800 
 28 H       -3.3700     2.6990    -1.2330 H     1 <1>   0.0800 
 29 H       -3.3250     3.0580     0.4790 H     1 <1>   0.0800 
 30 H        4.2920     4.4050    -0.7010 H     1 <1>   0.0800 
 31 H        3.9860     3.8910     0.9370 H     1 <1>   0.0800 
 32 H        4.3350    -0.2150    -1.1490 H     1 <1>   0.0800 
 33 H        3.4340    -1.6510    -0.7600 H     1 <1>   0.0800 
 34 H        4.1090    -0.6830     0.5260 H     1 <1>   0.0800 
 35 H       -4.9600     1.2470     0.9000 H     1 <1>   0.0800 
 36 H       -5.0030     0.8810    -0.8040 H     1 <1>   0.0800 
 37 H       -5.8400     3.5220     0.4380 H     1 <1>   0.0800 
 38 H       -6.9210     2.2900    -0.1650 H     1 <1>   0.0800 
 39 H       -5.8840     3.1560    -1.2730 H     1 <1>   0.0800 
@<TRIPOS>BOND
  1   1   2  2   
  2   2   3  am  
  3   2   4  am  
  4   3   5  1   
  5   3   6  1   
  6   4   7  1   
  7   4  16  1   
  8   5   8  1   
  9   5   9  1   
 10   5  17  1   
 11   6  10  1   
 12   6  18  1   
 13   6  19  1   
 14   7  11  1   
 15   7  20  1   
 16   7  21  1   
 17   8  12  1   
 18   8  22  1   
 19   8  23  1   
 20   9  13  1   
 21   9  24  1   
 22   9  25  1   
 23  10  12  1   
 24  10  26  1   
 25  10  27  1   
 26  11  14  1   
 27  11  28  1   
 28  11  29  1   
 29  12  30  1   
 30  12  31  1   
 31  13  32  1   
 32  13  33  1   
 33  13  34  1   
 34  14  15  1   
 35  14  35  1   
 36  14  36  1   
 37  15  37  1   
 38  15  38  1   
 39  15  39  1   
@<TRIPOS>SUBSTRUCTURE
  1 ****   2 GROUP 4 **** **** 0

# MOE 2024.06 (io_trps.svl 2023.06)
