@<TRIPOS>MOLECULE
NONAME
42 44 1 0 0 
SMALL
USER_CHARGES


@<TRIPOS>ATOM
  1 S       -0.7900    -0.7550     0.6280 S.3   1 <1>  -0.0800 
  2 C        0.7710     0.0430     0.3920 C.2   1 <1>   0.1040 
  3 C       -1.6260     0.7010     0.1510 C.2   1 <1>  -0.1400 
  4 N        1.9530    -0.6410     0.6290 N.am  1 <1>  -0.4940 
  5 C        0.6080     1.3430    -0.0240 C.2   1 <1>  -0.0860 
  6 C       -0.7880     1.6780    -0.1500 C.2   1 <1>  -0.1810 
  7 C       -3.0870     0.9910     0.0380 C.3   1 <1>   0.0200 
  8 C        2.2420    -1.9310     1.0020 C.2   1 <1>   0.5690 
  9 C        1.6850     2.2530    -0.2960 C.2   1 <1>   0.8060 
 10 C       -1.5590     2.9100    -0.5550 C.3   1 <1>   0.0210 
 11 C       -3.0460     2.4680    -0.4320 C.3   1 <1>  -0.1600 
 12 O        1.4110    -2.7870     1.1720 O.2   1 <1>  -0.5700 
 13 C        3.6990    -2.3010     1.2280 C.3   1 <1>   0.1310 
 14 O        2.8610     1.9470    -0.1760 O.2   1 <1>  -0.5700 
 15 O        1.3880     3.4930    -0.7000 O.3   1 <1>  -0.4300 
 16 S        4.8330    -1.2250     0.2200 S.3   1 <1>  -0.2860 
 17 C        2.3910     4.4420    -0.9850 C.3   1 <1>   0.1200 
 18 C        6.4560    -1.6470     0.8580 C.2   1 <1>   0.2420 
 19 C        1.7060     5.7360    -1.4120 C.3   1 <1>  -0.2400 
 20 N        6.6610    -2.5180     1.7810 N.2   1 <1>  -0.3380 
 21 N        7.5690    -1.0710     0.4090 N.pl3 1 <1>   0.0480 
 22 N        7.9850    -2.5370     1.9720 N.2   1 <1>  -0.3380 
 23 C        8.4990    -1.6790     1.1540 C.2   1 <1>   0.0360 
 24 C        7.7260    -0.0360    -0.6290 C.3   1 <1>   0.0160 
 25 H        2.7910    -0.0700     0.4620 H     1 <1>   0.3700 
 26 H       -3.5710     0.8860     0.9930 H     1 <1>   0.0800 
 27 H       -3.5470     0.3500    -0.6930 H     1 <1>   0.0800 
 28 H       -1.3190     3.1890    -1.5660 H     1 <1>   0.0800 
 29 H       -1.3400     3.7270     0.1110 H     1 <1>   0.0800 
 30 H       -3.5560     3.0920     0.2810 H     1 <1>   0.0800 
 31 H       -3.5370     2.5620    -1.3840 H     1 <1>   0.0800 
 32 H        3.8810    -3.3180     0.9350 H     1 <1>   0.0800 
 33 H        3.9600    -2.1660     2.2610 H     1 <1>   0.0800 
 34 H        3.0140     4.0560    -1.7740 H     1 <1>   0.0800 
 35 H        2.9820     4.5930    -0.0960 H     1 <1>   0.0800 
 36 H        1.1130     5.5690    -2.2930 H     1 <1>   0.0800 
 37 H        2.4480     6.4810    -1.6360 H     1 <1>   0.0800 
 38 H        1.0800     6.1050    -0.6190 H     1 <1>   0.0800 
 39 H        9.5500    -1.4660     1.0710 H     1 <1>   0.1500 
 40 H        7.3590    -0.4150    -1.5660 H     1 <1>   0.0800 
 41 H        8.7640     0.2250    -0.7280 H     1 <1>   0.0800 
 42 H        7.1610     0.8350    -0.3500 H     1 <1>   0.0800 
@<TRIPOS>BOND
  1   1   2  1   
  2   1   3  1   
  3   2   4  1   
  4   2   5  2   
  5   3   6  2   
  6   3   7  1   
  7   4   8  am  
  8   4  25  1   
  9   5   6  1   
 10   5   9  1   
 11   6  10  1   
 12   7  11  1   
 13   7  26  1   
 14   7  27  1   
 15   8  12  2   
 16   8  13  1   
 17   9  14  2   
 18   9  15  1   
 19  10  11  1   
 20  10  28  1   
 21  10  29  1   
 22  11  30  1   
 23  11  31  1   
 24  13  16  1   
 25  13  32  1   
 26  13  33  1   
 27  15  17  1   
 28  16  18  1   
 29  17  19  1   
 30  17  34  1   
 31  17  35  1   
 32  18  20  2   
 33  18  21  1   
 34  19  36  1   
 35  19  37  1   
 36  19  38  1   
 37  20  22  1   
 38  21  23  1   
 39  21  24  1   
 40  22  23  2   
 41  23  39  1   
 42  24  40  1   
 43  24  41  1   
 44  24  42  1   
@<TRIPOS>SUBSTRUCTURE
  1 ****   4 GROUP 4 **** **** 0

# MOE 2024.06 (io_trps.svl 2023.06)
