@<TRIPOS>MOLECULE
NONAME
44 45 1 0 0 
SMALL
USER_CHARGES


@<TRIPOS>ATOM
  1 O       -0.4650    -0.8060     1.1870 O.3   1 <1>  -0.3630 
  2 C       -1.5400    -1.0310     0.3870 C.ar  1 <1>   0.0830 
  3 C        0.3940     0.2960     0.9930 C.3   1 <1>   0.0400 
  4 C       -2.2840    -2.1850     0.6150 C.ar  1 <1>  -0.1440 
  5 C       -1.9160    -0.1640    -0.6350 C.ar  1 <1>  -0.1500 
  6 C       -3.3900    -2.4570    -0.1730 C.ar  1 <1>  -0.1500 
  7 C       -1.8840    -3.1520     1.7220 C.3   1 <1>  -0.0960 
  8 C       -3.0230    -0.4420    -1.4150 C.ar  1 <1>  -0.1500 
  9 C       -3.7700    -1.5870    -1.1840 C.ar  1 <1>  -0.1440 
 10 C       -5.0000    -1.8770    -2.0230 C.3   1 <1>   0.4860 
 11 N       -6.2080    -1.7130    -1.1740 N.4   1 <1>  -0.9590 
 12 C       -7.4920    -2.0790    -1.8530 C.3   1 <1>   0.3430 
 13 C       -6.3130    -0.3740    -0.5060 C.3   1 <1>   0.3430 
 14 C       -8.6950    -1.9670    -0.8820 C.3   1 <1>   0.1100 
 15 C       -7.5060    -0.3370     0.4800 C.3   1 <1>   0.1100 
 16 N       -8.2790    -1.6050     0.4980 N.3   1 <1>  -0.8100 
 17 C       -9.4320    -1.4970     1.4190 C.3   1 <1>   0.1100 
 18 C      -10.0040    -2.8730     1.7820 C.3   1 <1>   0.1200 
 19 O      -11.0570    -2.7060     2.6670 O.3   1 <1>  -0.6800 
 20 H        1.1770     0.2410     1.7280 H     1 <1>   0.0800 
 21 H       -0.1670     1.2040     1.1260 H     1 <1>   0.0800 
 22 H        0.8160     0.2410     0.0060 H     1 <1>   0.0800 
 23 H       -1.3550     0.7300    -0.8360 H     1 <1>   0.1500 
 24 H       -3.9510    -3.3570     0.0110 H     1 <1>   0.1500 
 25 H       -0.8920    -3.5250     1.5360 H     1 <1>   0.0800 
 26 H       -2.5580    -3.9860     1.7820 H     1 <1>   0.0800 
 27 H       -1.8840    -2.6410     2.6690 H     1 <1>   0.0800 
 28 H       -3.2880     0.2450    -2.2010 H     1 <1>   0.1500 
 29 H       -4.9440    -2.8860    -2.3990 H     1 <1>   0.0800 
 30 H       -5.0390    -1.2000    -2.8600 H     1 <1>   0.0800 
 31 H       -6.1390    -2.3610    -0.3760 H     1 <1>   0.4500 
 32 H       -7.4360    -3.0920    -2.2180 H     1 <1>   0.0800 
 33 H       -7.6620    -1.4340    -2.6990 H     1 <1>   0.0800 
 34 H       -6.4380     0.4000    -1.2450 H     1 <1>   0.0800 
 35 H       -5.4080    -0.1620     0.0410 H     1 <1>   0.0800 
 36 H       -9.2100    -2.9120    -0.8730 H     1 <1>   0.0800 
 37 H       -9.3840    -1.2300    -1.2600 H     1 <1>   0.0800 
 38 H       -8.1530     0.4830     0.2170 H     1 <1>   0.0800 
 39 H       -7.1260    -0.1410     1.4690 H     1 <1>   0.0800 
 40 H      -10.2040    -0.8910     0.9750 H     1 <1>   0.0800 
 41 H       -9.1080    -1.0240     2.3310 H     1 <1>   0.0800 
 42 H       -9.2590    -3.4900     2.2540 H     1 <1>   0.0800 
 43 H      -10.3960    -3.3710     0.9140 H     1 <1>   0.0800 
 44 H      -10.7370    -2.4410     3.5520 H     1 <1>   0.4000 
@<TRIPOS>BOND
  1   1   2  1   
  2   1   3  1   
  3   2   4  ar  
  4   2   5  ar  
  5   3  20  1   
  6   3  21  1   
  7   3  22  1   
  8   4   6  ar  
  9   4   7  1   
 10   5   8  ar  
 11   5  23  1   
 12   6   9  ar  
 13   6  24  1   
 14   7  25  1   
 15   7  26  1   
 16   7  27  1   
 17   8   9  ar  
 18   8  28  1   
 19   9  10  1   
 20  10  11  1   
 21  10  29  1   
 22  10  30  1   
 23  11  12  1   
 24  11  13  1   
 25  11  31  1   
 26  12  14  1   
 27  12  32  1   
 28  12  33  1   
 29  13  15  1   
 30  13  34  1   
 31  13  35  1   
 32  14  16  1   
 33  14  36  1   
 34  14  37  1   
 35  15  16  1   
 36  15  38  1   
 37  15  39  1   
 38  16  17  1   
 39  17  18  1   
 40  17  40  1   
 41  17  41  1   
 42  18  19  1   
 43  18  42  1   
 44  18  43  1   
 45  19  44  1   
@<TRIPOS>SUBSTRUCTURE
  1 ****  11 GROUP 4 **** **** 0

# MOE 2024.06 (io_trps.svl 2023.06)
