@<TRIPOS>MOLECULE
NONAME
41 43 1 0 0 
SMALL
USER_CHARGES


@<TRIPOS>ATOM
  1 N       -0.1440    -0.0030    -0.6520 N.4   1 <1>  -0.9590 
  2 C        1.2690     0.4490    -0.9210 C.3   1 <1>   0.4230 
  3 C       -0.8050     0.7730     0.4720 C.3   1 <1>   0.3430 
  4 C       -0.1330    -1.4700    -0.3870 C.3   1 <1>   0.3430 
  5 C        2.3140     0.2900     0.3330 C.3   1 <1>  -0.0800 
  6 C        1.3380     2.0370    -1.4400 C.3   1 <1>  -0.1600 
  7 C       -2.3430     0.5940     0.6310 C.3   1 <1>   0.3430 
  8 C       -1.3890    -2.1660    -0.9160 C.3   1 <1>  -0.1600 
  9 C        2.4570     1.5210    -0.1780 C.3   1 <1>  -0.1600 
 10 C        3.5750     1.0030     1.0930 C.3   1 <1>  -0.1600 
 11 C        2.5720     2.7660    -0.6490 C.3   1 <1>  -0.0800 
 12 N       -2.8640    -0.8270     0.6120 N.4   1 <1>  -0.9590 
 13 C       -2.7370    -1.4640    -0.7300 C.3   1 <1>   0.3430 
 14 C        3.6600     2.5870     0.5620 C.3   1 <1>  -0.1600 
 15 C       -4.3140    -0.8210     1.0110 C.3   1 <1>   0.2630 
 16 H       -0.6340     0.1740    -1.5390 H     1 <1>   0.4500 
 17 H        1.6640    -0.1520    -1.7280 H     1 <1>   0.0800 
 18 H       -0.6150     1.8250     0.3370 H     1 <1>   0.0800 
 19 H       -0.3410     0.5010     1.4060 H     1 <1>   0.0800 
 20 H       -0.0370    -1.6420     0.6730 H     1 <1>   0.0800 
 21 H        0.7260    -1.9220    -0.8600 H     1 <1>   0.0800 
 22 H        1.6700     0.0950     1.1740 H     1 <1>   0.0800 
 23 H        0.4230     2.5760    -1.2580 H     1 <1>   0.0800 
 24 H        1.5190     2.0630    -2.5030 H     1 <1>   0.0800 
 25 H       -2.8290     1.1550    -0.1510 H     1 <1>   0.0800 
 26 H       -2.6270     1.0570     1.5620 H     1 <1>   0.0800 
 27 H       -1.4460    -3.1370    -0.4550 H     1 <1>   0.0800 
 28 H       -1.2570    -2.3520    -1.9670 H     1 <1>   0.0800 
 29 H        3.2460     1.1460    -0.9700 H     1 <1>   0.0800 
 30 H        1.6880     1.9200     0.6200 H     1 <1>   0.0800 
 31 H        4.4950     0.4870     0.8590 H     1 <1>   0.0800 
 32 H        3.4580     0.9730     2.1660 H     1 <1>   0.0800 
 33 H        3.2310     3.0080    -1.4740 H     1 <1>   0.0800 
 34 H       -2.3780    -1.4060     1.3140 H     1 <1>   0.4500 
 35 H       -3.5170    -2.2000    -0.8610 H     1 <1>   0.0800 
 36 H       -2.8710    -0.7180    -1.4970 H     1 <1>   0.0800 
 37 H        4.6590     2.8170     0.2240 H     1 <1>   0.0800 
 38 H        3.4340     3.2670     1.3710 H     1 <1>   0.0800 
 39 H       -4.8990    -0.2430     0.3130 H     1 <1>   0.0800 
 40 H       -4.4340    -0.3950     1.9950 H     1 <1>   0.0800 
 41 H       -4.7030    -1.8280     1.0310 H     1 <1>   0.0800 
@<TRIPOS>BOND
  1   1   2  1   
  2   1   3  1   
  3   1   4  1   
  4   1  16  1   
  5   2   5  1   
  6   2   6  1   
  7   2  17  1   
  8   3   7  1   
  9   3  18  1   
 10   3  19  1   
 11   4   8  1   
 12   4  20  1   
 13   4  21  1   
 14   5   9  1   
 15   5  10  1   
 16   5  22  1   
 17   6  11  1   
 18   6  23  1   
 19   6  24  1   
 20   7  12  1   
 21   7  25  1   
 22   7  26  1   
 23   8  13  1   
 24   8  27  1   
 25   8  28  1   
 26   9  11  1   
 27   9  29  1   
 28   9  30  1   
 29  10  14  1   
 30  10  31  1   
 31  10  32  1   
 32  11  14  1   
 33  11  33  1   
 34  12  13  1   
 35  12  15  1   
 36  12  34  1   
 37  13  35  1   
 38  13  36  1   
 39  14  37  1   
 40  14  38  1   
 41  15  39  1   
 42  15  40  1   
 43  15  41  1   
@<TRIPOS>SUBSTRUCTURE
  1 ****   1 GROUP 4 **** **** 0

# MOE 2024.06 (io_trps.svl 2023.06)
