@<TRIPOS>MOLECULE
NONAME
30 30 1 0 0 
SMALL
USER_CHARGES


@<TRIPOS>ATOM
  1 O        0.3540     1.0730     1.0770 O.2   1 <1>  -0.5700 
  2 C        0.1200     1.9410     0.2580 C.2   1 <1>   0.5440 
  3 N        1.1320     2.3290    -0.5750 N.am  1 <1>  -0.7300 
  4 C       -1.1980     2.5430     0.1640 C.ar  1 <1>   0.0860 
  5 C        2.4980     1.7480    -0.5670 C.3   1 <1>   0.1400 
  6 C       -2.3360     1.8440     0.5720 C.ar  1 <1>  -0.1500 
  7 C       -1.3900     3.8360    -0.3320 C.ar  1 <1>  -0.1500 
  8 C        3.3380     2.3950     0.5370 C.3   1 <1>   0.1200 
  9 C       -3.6020     2.3920     0.4800 C.ar  1 <1>  -0.1500 
 10 C       -2.6530     4.3910    -0.4280 C.ar  1 <1>  -0.1500 
 11 O        4.6070     1.8350     0.5360 O.3   1 <1>  -0.6800 
 12 C       -3.7690     3.6770    -0.0260 C.ar  1 <1>   0.0820 
 13 O       -4.9670     4.2900    -0.1540 O.3   1 <1>  -0.3630 
 14 C       -6.1670     3.6630     0.2330 C.3   1 <1>   0.1200 
 15 C       -7.3150     4.6290    -0.0420 C.3   1 <1>  -0.2400 
 16 H        0.9350     2.9940    -1.3240 H     1 <1>   0.3700 
 17 H        2.9620     1.9140    -1.5230 H     1 <1>   0.0800 
 18 H        2.4260     0.6880    -0.3900 H     1 <1>   0.0800 
 19 H       -2.2160     0.8500     0.9680 H     1 <1>   0.1500 
 20 H       -0.5430     4.4210    -0.6390 H     1 <1>   0.1500 
 21 H        2.8940     2.2290     1.5040 H     1 <1>   0.0800 
 22 H        3.4440     3.4510     0.3600 H     1 <1>   0.0800 
 23 H       -4.4420     1.8080     0.8070 H     1 <1>   0.1500 
 24 H       -2.7860     5.3860    -0.8130 H     1 <1>   0.1500 
 25 H        4.5730     0.9180     0.8760 H     1 <1>   0.4000 
 26 H       -6.1070     3.4320     1.2830 H     1 <1>   0.0800 
 27 H       -6.2820     2.7610    -0.3420 H     1 <1>   0.0800 
 28 H       -7.1810     5.5330     0.5250 H     1 <1>   0.0800 
 29 H       -8.2480     4.1790     0.2440 H     1 <1>   0.0800 
 30 H       -7.3550     4.8660    -1.0900 H     1 <1>   0.0800 
@<TRIPOS>BOND
  1   1   2  2   
  2   2   3  am  
  3   2   4  1   
  4   3   5  1   
  5   3  16  1   
  6   4   6  ar  
  7   4   7  ar  
  8   5   8  1   
  9   5  17  1   
 10   5  18  1   
 11   6   9  ar  
 12   6  19  1   
 13   7  10  ar  
 14   7  20  1   
 15   8  11  1   
 16   8  21  1   
 17   8  22  1   
 18   9  12  ar  
 19   9  23  1   
 20  10  12  ar  
 21  10  24  1   
 22  11  25  1   
 23  12  13  1   
 24  13  14  1   
 25  14  15  1   
 26  14  26  1   
 27  14  27  1   
 28  15  28  1   
 29  15  29  1   
 30  15  30  1   
@<TRIPOS>SUBSTRUCTURE
  1 ****   4 GROUP 4 **** **** 0

# MOE 2024.06 (io_trps.svl 2023.06)
