@<TRIPOS>MOLECULE
NONAME
40 41 1 0 0 
SMALL
USER_CHARGES


@<TRIPOS>ATOM
  1 S       -1.0960    -1.9120     2.5700 S.3   1 <1>  -0.2420 
  2 C       -1.2970    -3.5350     1.9070 C.2   1 <1>   0.7710 
  3 C       -0.5190    -1.2970     1.0100 C.ar  1 <1>   0.1020 
  4 O       -1.7030    -4.4480     2.5920 O.2   1 <1>  -0.5700 
  5 N       -0.9200    -3.5660     0.5900 N.am  1 <1>  -0.4770 
  6 C       -0.5010    -2.3200     0.0760 C.ar  1 <1>   0.1170 
  7 C       -0.1440     0.0010     0.7330 C.ar  1 <1>  -0.1500 
  8 C       -0.9820    -4.8310    -0.2070 C.3   1 <1>   0.2010 
  9 C       -0.0910    -2.0090    -1.2160 C.ar  1 <1>  -0.1500 
 10 C        0.2690     0.2890    -0.5580 C.ar  1 <1>  -0.1500 
 11 C        0.3680    -5.2980    -0.7600 C.2   1 <1>   0.5690 
 12 C        0.2920    -0.7120    -1.5230 C.ar  1 <1>  -0.1500 
 13 O        0.5330    -5.1740    -1.9530 O.2   1 <1>  -0.5700 
 14 N        1.3420    -5.8510     0.0400 N.am  1 <1>  -0.6600 
 15 C        2.6670    -6.2170    -0.5330 C.3   1 <1>   0.1400 
 16 C        1.1940    -6.1300     1.4930 C.3   1 <1>   0.1400 
 17 C        3.6280    -5.0340    -0.3970 C.3   1 <1>  -0.1600 
 18 C        0.6280    -7.5330     1.6880 C.3   1 <1>  -0.2400 
 19 C        5.0070    -5.3680    -0.9800 C.3   1 <1>  -0.1600 
 20 C        5.9640    -4.1800    -0.8460 C.3   1 <1>  -0.2400 
 21 H       -0.1740     0.7570     1.4970 H     1 <1>   0.1500 
 22 H       -1.6490    -4.6760    -1.0350 H     1 <1>   0.0800 
 23 H       -1.3970    -5.6200     0.3920 H     1 <1>   0.0800 
 24 H       -0.0680    -2.7620    -1.9820 H     1 <1>   0.1500 
 25 H        0.5720     1.2900    -0.8160 H     1 <1>   0.1500 
 26 H        0.6130    -0.4770    -2.5240 H     1 <1>   0.1500 
 27 H        2.5570    -6.4760    -1.5730 H     1 <1>   0.0800 
 28 H        3.0610    -7.0780    -0.0210 H     1 <1>   0.0800 
 29 H        0.5500    -5.4070     1.9540 H     1 <1>   0.0800 
 30 H        2.1540    -6.0550     1.9760 H     1 <1>   0.0800 
 31 H        3.7340    -4.7720     0.6400 H     1 <1>   0.0800 
 32 H        3.2160    -4.1900    -0.9240 H     1 <1>   0.0800 
 33 H       -0.3400    -7.6180     1.2290 H     1 <1>   0.0800 
 34 H        0.5220    -7.7340     2.7390 H     1 <1>   0.0800 
 35 H        1.2890    -8.2680     1.2650 H     1 <1>   0.0800 
 36 H        4.9060    -5.6240    -2.0210 H     1 <1>   0.0800 
 37 H        5.4230    -6.2180    -0.4650 H     1 <1>   0.0800 
 38 H        5.5760    -3.3250    -1.3720 H     1 <1>   0.0800 
 39 H        6.9230    -4.4310    -1.2630 H     1 <1>   0.0800 
 40 H        6.0980    -3.9190     0.1890 H     1 <1>   0.0800 
@<TRIPOS>BOND
  1   1   2  1   
  2   1   3  1   
  3   2   4  2   
  4   2   5  am  
  5   3   6  ar  
  6   3   7  ar  
  7   5   6  1   
  8   5   8  1   
  9   6   9  ar  
 10   7  10  ar  
 11   7  21  1   
 12   8  11  1   
 13   8  22  1   
 14   8  23  1   
 15   9  12  ar  
 16   9  24  1   
 17  10  12  ar  
 18  10  25  1   
 19  11  13  2   
 20  11  14  am  
 21  12  26  1   
 22  14  15  1   
 23  14  16  1   
 24  15  17  1   
 25  15  27  1   
 26  15  28  1   
 27  16  18  1   
 28  16  29  1   
 29  16  30  1   
 30  17  19  1   
 31  17  31  1   
 32  17  32  1   
 33  18  33  1   
 34  18  34  1   
 35  18  35  1   
 36  19  20  1   
 37  19  36  1   
 38  19  37  1   
 39  20  38  1   
 40  20  39  1   
 41  20  40  1   
@<TRIPOS>SUBSTRUCTURE
  1 ****   5 GROUP 4 **** **** 0

# MOE 2024.06 (io_trps.svl 2023.06)
