@<TRIPOS>MOLECULE
NONAME
32 33 1 0 0 
SMALL
USER_CHARGES


@<TRIPOS>ATOM
  1 F       -1.8320     1.2280     1.5240 F     1 <1>  -0.1900 
  2 C       -1.0350     1.9130     0.7460 C.ar  1 <1>   0.1900 
  3 C       -0.9430     1.5640    -0.5870 C.ar  1 <1>  -0.1500 
  4 C       -0.3160     2.9610     1.2880 C.ar  1 <1>  -0.1500 
  5 C       -0.0960     2.2950    -1.4030 C.ar  1 <1>  -0.1500 
  6 C        0.5290     3.6860     0.4630 C.ar  1 <1>  -0.1500 
  7 C        0.6420     3.3530    -0.8880 C.ar  1 <1>   0.0830 
  8 O        1.4450     4.0070    -1.7670 O.3   1 <1>  -0.3630 
  9 C        2.3570     5.0120    -1.3820 C.3   1 <1>   0.1200 
 10 C        3.6090     4.3590    -0.7820 C.3   1 <1>  -0.1600 
 11 C        4.6510     5.4150    -0.3880 C.3   1 <1>  -0.1600 
 12 C        5.9130     4.7590     0.1890 C.3   1 <1>   0.0960 
 13 N        6.8970     5.7900     0.5710 N.pl3 1 <1>   0.0480 
 14 C        7.0830     6.3490     1.7870 C.2   1 <1>   0.0360 
 15 C        7.8050     6.3880    -0.2210 C.2   1 <1>  -0.3020 
 16 N        8.0230     7.2370     1.8210 N.2   1 <1>  -0.5650 
 17 C        8.4800     7.2630     0.5560 C.2   1 <1>   0.0770 
 18 H       -1.5200     0.7430    -0.9730 H     1 <1>   0.1500 
 19 H       -0.4200     3.2000     2.3310 H     1 <1>   0.1500 
 20 H       -0.0020     2.0500    -2.4460 H     1 <1>   0.1500 
 21 H        1.0830     4.5000     0.8880 H     1 <1>   0.1500 
 22 H        1.8760     5.6910    -0.7010 H     1 <1>   0.0800 
 23 H        2.6190     5.5550    -2.2730 H     1 <1>   0.0800 
 24 H        4.0320     3.6930    -1.5150 H     1 <1>   0.0800 
 25 H        3.3370     3.7850     0.0850 H     1 <1>   0.0800 
 26 H        4.2280     6.0790     0.3470 H     1 <1>   0.0800 
 27 H        4.9200     5.9930    -1.2570 H     1 <1>   0.0800 
 28 H        6.3630     4.1090    -0.5410 H     1 <1>   0.0800 
 29 H        5.6660     4.1780     1.0590 H     1 <1>   0.0800 
 30 H        6.4920     6.0670     2.6410 H     1 <1>   0.1500 
 31 H        7.9220     6.1670    -1.2660 H     1 <1>   0.1500 
 32 H        9.2830     7.9210     0.2670 H     1 <1>   0.1500 
@<TRIPOS>BOND
  1   1   2  1   
  2   2   3  ar  
  3   2   4  ar  
  4   3   5  ar  
  5   3  18  1   
  6   4   6  ar  
  7   4  19  1   
  8   5   7  ar  
  9   5  20  1   
 10   6   7  ar  
 11   6  21  1   
 12   7   8  1   
 13   8   9  1   
 14   9  10  1   
 15   9  22  1   
 16   9  23  1   
 17  10  11  1   
 18  10  24  1   
 19  10  25  1   
 20  11  12  1   
 21  11  26  1   
 22  11  27  1   
 23  12  13  1   
 24  12  28  1   
 25  12  29  1   
 26  13  14  1   
 27  13  15  1   
 28  14  16  2   
 29  14  30  1   
 30  15  17  2   
 31  15  31  1   
 32  16  17  1   
 33  17  32  1   
@<TRIPOS>SUBSTRUCTURE
  1 ****  10 GROUP 4 **** **** 0

# MOE 2024.06 (io_trps.svl 2023.06)
