@<TRIPOS>MOLECULE
NONAME
37 39 1 0 0 
SMALL
USER_CHARGES


@<TRIPOS>ATOM
  1 O       -0.3170     0.0570    -0.7730 O.3   1 <1>  -0.3630 
  2 C       -1.4650    -0.5720    -0.3990 C.ar  1 <1>   0.0830 
  3 C        0.8170    -0.6900    -1.1740 C.3   1 <1>   0.0400 
  4 C       -2.6110     0.2100    -0.2830 C.ar  1 <1>  -0.1440 
  5 C       -1.5210    -1.9330    -0.1210 C.ar  1 <1>  -0.1500 
  6 C       -3.8010    -0.3850     0.1200 C.ar  1 <1>  -0.1500 
  7 C       -2.4810     1.6950    -0.5950 C.3   1 <1>   0.7480 
  8 C       -2.7080    -2.5200     0.2760 C.ar  1 <1>   0.0830 
  9 C       -3.8530    -1.7400     0.3970 C.ar  1 <1>  -0.1500 
 10 N       -1.6840     2.2450     0.5340 N.4   1 <1>  -0.9060 
 11 C       -3.7830     2.5020    -0.7250 C.2   1 <1>   0.0460 
 12 O       -2.6730    -3.8520     0.5270 O.3   1 <1>  -0.3630 
 13 C       -1.6050     3.7390     0.5880 C.3   1 <1>   0.3430 
 14 N       -4.8420     2.1680    -1.4890 N.2   1 <1>  -0.5650 
 15 C       -4.0030     3.6780    -0.0990 C.2   1 <1>  -0.3320 
 16 C       -3.8410    -4.5680     0.8640 C.3   1 <1>   0.0400 
 17 C       -2.9970     4.3720     0.8000 C.3   1 <1>   0.0200 
 18 C       -5.6850     3.1330    -1.2940 C.2   1 <1>   0.0360 
 19 N       -5.2370     4.0880    -0.4510 N.pl3 1 <1>   0.0330 
 20 H        1.5650    -0.0080    -1.5350 H     1 <1>   0.0800 
 21 H        0.5320    -1.3660    -1.9620 H     1 <1>   0.0800 
 22 H        1.2000    -1.2340    -0.3270 H     1 <1>   0.0800 
 23 H       -0.6590    -2.5680    -0.1980 H     1 <1>   0.1500 
 24 H       -4.7090     0.1880     0.2190 H     1 <1>   0.1500 
 25 H       -1.9320     1.8030    -1.5160 H     1 <1>   0.0800 
 26 H       -4.7890    -2.1690     0.7010 H     1 <1>   0.1500 
 27 H       -0.7680     1.7830     0.4550 H     1 <1>   0.4500 
 28 H       -2.1400     1.8720     1.3700 H     1 <1>   0.4500 
 29 H       -1.1980     4.1040    -0.3410 H     1 <1>   0.0800 
 30 H       -0.9470     4.0470     1.3850 H     1 <1>   0.0800 
 31 H       -3.5750    -5.6020     0.9850 H     1 <1>   0.0800 
 32 H       -4.5560    -4.4650     0.0680 H     1 <1>   0.0800 
 33 H       -4.2330    -4.1820     1.7890 H     1 <1>   0.0800 
 34 H       -2.9470     5.4210     0.5650 H     1 <1>   0.0800 
 35 H       -3.2960     4.2740     1.8300 H     1 <1>   0.0800 
 36 H       -6.6570     3.1870    -1.7550 H     1 <1>   0.1500 
 37 H       -5.7410     4.9360    -0.1670 H     1 <1>   0.2700 
@<TRIPOS>BOND
  1   1   2  1   
  2   1   3  1   
  3   2   4  ar  
  4   2   5  ar  
  5   3  20  1   
  6   3  21  1   
  7   3  22  1   
  8   4   6  ar  
  9   4   7  1   
 10   5   8  ar  
 11   5  23  1   
 12   6   9  ar  
 13   6  24  1   
 14   7  10  1   
 15   7  11  1   
 16   7  25  1   
 17   8   9  ar  
 18   8  12  1   
 19   9  26  1   
 20  10  13  1   
 21  10  27  1   
 22  10  28  1   
 23  11  14  1   
 24  11  15  2   
 25  12  16  1   
 26  13  17  1   
 27  13  29  1   
 28  13  30  1   
 29  14  18  2   
 30  15  17  1   
 31  15  19  1   
 32  16  31  1   
 33  16  32  1   
 34  16  33  1   
 35  17  34  1   
 36  17  35  1   
 37  18  19  1   
 38  18  36  1   
 39  19  37  1   
@<TRIPOS>SUBSTRUCTURE
  1 ****   4 GROUP 4 **** **** 0

# MOE 2024.06 (io_trps.svl 2023.06)
