@<TRIPOS>MOLECULE
NONAME
31 33 1 0 0 
SMALL
USER_CHARGES


@<TRIPOS>ATOM
  1 S       -0.3420     0.1480    -0.7830 S.3   1 <1>  -0.0800 
  2 C       -0.0150     1.1780     0.6070 C.2   1 <1>   0.4340 
  3 C       -2.0360     0.5800    -0.6470 C.ar  1 <1>   0.0400 
  4 S        1.6800     1.2950     1.1650 S.3   1 <1>  -0.2860 
  5 N       -1.0150     1.7720     1.1160 N.2   1 <1>  -0.5650 
  6 C       -2.1770     1.4480     0.4230 C.ar  1 <1>   0.2270 
  7 C       -3.0900     0.1620    -1.4350 C.ar  1 <1>  -0.1500 
  8 C        2.6690     0.2470    -0.0060 C.3   1 <1>   0.1310 
  9 C       -3.4490     1.9180     0.7180 C.ar  1 <1>  -0.1500 
 10 C       -4.3580     0.6420    -1.1360 C.ar  1 <1>   0.1000 
 11 C        4.1430     0.2830     0.3650 C.2   1 <1>   0.5690 
 12 C       -4.5240     1.5150    -0.0570 C.ar  1 <1>  -0.1500 
 13 N       -5.4460     0.2630    -1.8960 N.pl3 1 <1>  -0.9000 
 14 O        4.6460    -0.7120     0.8260 O.2   1 <1>  -0.5700 
 15 N        4.9040     1.3870     0.1600 N.am  1 <1>  -0.5790 
 16 C        4.5150     2.7000    -0.3790 C.3   1 <1>   0.0490 
 17 C        5.4750     3.3940    -1.2860 C.3   1 <1>  -0.2000 
 18 C        5.2590     3.8970     0.1090 C.3   1 <1>  -0.2000 
 19 H       -2.9330    -0.5170    -2.2520 H     1 <1>   0.1500 
 20 H        2.5200     0.6290    -0.9980 H     1 <1>   0.0800 
 21 H        2.2950    -0.7570     0.0690 H     1 <1>   0.0800 
 22 H       -3.5770     2.5890     1.5470 H     1 <1>   0.1500 
 23 H       -5.5100     1.8740     0.1740 H     1 <1>   0.1500 
 24 H       -6.2720     0.8670    -1.8590 H     1 <1>   0.4000 
 25 H       -5.2580    -0.0810    -2.8420 H     1 <1>   0.4000 
 26 H        5.8800     1.3060     0.4500 H     1 <1>   0.3700 
 27 H        3.4590     2.8050    -0.5660 H     1 <1>   0.1000 
 28 H        5.0890     3.9820    -2.1010 H     1 <1>   0.1000 
 29 H        6.4050     2.9110    -1.5290 H     1 <1>   0.1000 
 30 H        6.0370     3.7650     0.8410 H     1 <1>   0.1000 
 31 H        4.7210     4.8200     0.2400 H     1 <1>   0.1000 
@<TRIPOS>BOND
  1   1   2  1   
  2   1   3  1   
  3   2   4  1   
  4   2   5  2   
  5   3   6  ar  
  6   3   7  ar  
  7   4   8  1   
  8   5   6  1   
  9   6   9  ar  
 10   7  10  ar  
 11   7  19  1   
 12   8  11  1   
 13   8  20  1   
 14   8  21  1   
 15   9  12  ar  
 16   9  22  1   
 17  10  12  ar  
 18  10  13  1   
 19  11  14  2   
 20  11  15  am  
 21  12  23  1   
 22  13  24  1   
 23  13  25  1   
 24  15  16  1   
 25  15  26  1   
 26  16  17  1   
 27  16  18  1   
 28  16  27  1   
 29  17  18  1   
 30  17  28  1   
 31  17  29  1   
 32  18  30  1   
 33  18  31  1   
@<TRIPOS>SUBSTRUCTURE
  1 ****   2 GROUP 4 **** **** 0

# MOE 2024.06 (io_trps.svl 2023.06)
