@<TRIPOS>MOLECULE
NONAME
52 54 1 0 0 
SMALL
USER_CHARGES


@<TRIPOS>ATOM
  1 N       -0.1200    -0.0390    -0.3600 N.pl3 1 <1>  -0.8380 
  2 C       -1.3620     0.5600    -0.5640 C.ar  1 <1>   0.1000 
  3 C        0.8810     0.7510     0.4110 C.3   1 <1>   0.2090 
  4 C        0.4300    -0.8150    -1.5060 C.3   1 <1>   0.2090 
  5 C       -2.5260     0.0600     0.0320 C.ar  1 <1>  -0.1440 
  6 C       -1.4460     1.6780    -1.3870 C.ar  1 <1>  -0.1500 
  7 C        2.0630    -0.1430     0.8400 C.3   1 <1>   0.3430 
  8 C        1.6210    -1.6850    -1.0530 C.3   1 <1>   0.3430 
  9 C       -3.7490     0.6770    -0.2190 C.ar  1 <1>  -0.1440 
 10 C       -2.4660    -1.1640     0.9480 C.3   1 <1>  -0.0970 
 11 C       -2.6570     2.2920    -1.6250 C.ar  1 <1>  -0.1500 
 12 N        2.6780    -0.8900    -0.3220 N.4   1 <1>  -0.9590 
 13 C       -3.8050     1.7910    -1.0430 C.ar  1 <1>  -0.1500 
 14 C       -5.0520     0.1680     0.3840 C.3   1 <1>  -0.0970 
 15 C        3.8050    -1.7590     0.1190 C.3   1 <1>   0.3430 
 16 C        5.1630    -1.1140    -0.2010 C.3   1 <1>  -0.0800 
 17 C        6.2860    -2.0850     0.2070 C.3   1 <1>  -0.1600 
 18 C        5.3660     0.2550     0.4830 C.3   1 <1>  -0.1600 
 19 C        7.6740    -1.5050    -0.0950 C.3   1 <1>  -0.1600 
 20 C        6.7560     0.8330     0.1850 C.3   1 <1>  -0.1600 
 21 C        7.8650    -0.1460     0.5870 C.3   1 <1>  -0.1600 
 22 H        0.4050     1.1620     1.2860 H     1 <1>   0.0800 
 23 H        1.2380     1.5700    -0.1880 H     1 <1>   0.0800 
 24 H        0.7410    -0.1400    -2.2840 H     1 <1>   0.0800 
 25 H       -0.3450    -1.4470    -1.9060 H     1 <1>   0.0800 
 26 H       -0.5600     2.0690    -1.8460 H     1 <1>   0.1500 
 27 H        1.6950    -0.8490     1.5660 H     1 <1>   0.0800 
 28 H        2.8060     0.4680     1.3230 H     1 <1>   0.0800 
 29 H        2.0520    -2.1640    -1.9160 H     1 <1>   0.0800 
 30 H        1.2390    -2.4560    -0.4040 H     1 <1>   0.0800 
 31 H       -2.8080    -2.0300     0.4130 H     1 <1>   0.0800 
 32 H       -3.0870    -1.0190     1.8120 H     1 <1>   0.0800 
 33 H       -1.4710    -1.3520     1.3030 H     1 <1>   0.0800 
 34 H       -2.7120     3.1570    -2.2630 H     1 <1>   0.1500 
 35 H        3.0530    -0.1950    -0.9800 H     1 <1>   0.4500 
 36 H       -4.7450     2.2770    -1.2380 H     1 <1>   0.1500 
 37 H       -5.0620     0.3500     1.4430 H     1 <1>   0.0800 
 38 H       -5.1580    -0.8870     0.2060 H     1 <1>   0.0800 
 39 H       -5.9000     0.6640    -0.0520 H     1 <1>   0.0800 
 40 H        3.7530    -2.7070    -0.3910 H     1 <1>   0.0800 
 41 H        3.7340    -1.9510     1.1780 H     1 <1>   0.0800 
 42 H        5.2280    -0.9800    -1.2680 H     1 <1>   0.0800 
 43 H        6.1810    -3.0180    -0.3210 H     1 <1>   0.0800 
 44 H        6.2240    -2.2950     1.2620 H     1 <1>   0.0800 
 45 H        5.2590     0.1480     1.5490 H     1 <1>   0.0800 
 46 H        4.6350     0.9660     0.1400 H     1 <1>   0.0800 
 47 H        7.7950    -1.3900    -1.1590 H     1 <1>   0.0800 
 48 H        8.4340    -2.1870     0.2480 H     1 <1>   0.0800 
 49 H        6.8880     1.7580     0.7210 H     1 <1>   0.0800 
 50 H        6.8420     1.0500    -0.8660 H     1 <1>   0.0800 
 51 H        8.8230     0.2620     0.3130 H     1 <1>   0.0800 
 52 H        7.8590    -0.2770     1.6560 H     1 <1>   0.0800 
@<TRIPOS>BOND
  1   1   2  1   
  2   1   3  1   
  3   1   4  1   
  4   2   5  ar  
  5   2   6  ar  
  6   3   7  1   
  7   3  22  1   
  8   3  23  1   
  9   4   8  1   
 10   4  24  1   
 11   4  25  1   
 12   5   9  ar  
 13   5  10  1   
 14   6  11  ar  
 15   6  26  1   
 16   7  12  1   
 17   7  27  1   
 18   7  28  1   
 19   8  12  1   
 20   8  29  1   
 21   8  30  1   
 22   9  13  ar  
 23   9  14  1   
 24  10  31  1   
 25  10  32  1   
 26  10  33  1   
 27  11  13  ar  
 28  11  34  1   
 29  12  15  1   
 30  12  35  1   
 31  13  36  1   
 32  14  37  1   
 33  14  38  1   
 34  14  39  1   
 35  15  16  1   
 36  15  40  1   
 37  15  41  1   
 38  16  17  1   
 39  16  18  1   
 40  16  42  1   
 41  17  19  1   
 42  17  43  1   
 43  17  44  1   
 44  18  20  1   
 45  18  45  1   
 46  18  46  1   
 47  19  21  1   
 48  19  47  1   
 49  19  48  1   
 50  20  21  1   
 51  20  49  1   
 52  20  50  1   
 53  21  51  1   
 54  21  52  1   
@<TRIPOS>SUBSTRUCTURE
  1 ****   3 GROUP 4 **** **** 0

# MOE 2024.06 (io_trps.svl 2023.06)
