@<TRIPOS>MOLECULE
NONAME
59 63 1 0 0 
SMALL
USER_CHARGES


@<TRIPOS>ATOM
  1 O        0.8690    -0.0970     1.6820 O.2   1 <1>  -0.5700 
  2 C        1.9050     0.0470     1.0900 C.2   1 <1>   0.4950 
  3 C        2.7270    -1.0400     0.6500 C.2   1 <1>  -0.1360 
  4 C        2.3800     1.4420     0.7410 C.3   1 <1>  -0.0990 
  5 C        3.9280    -0.9170     0.0490 C.2   1 <1>  -0.2760 
  6 C        3.9190     1.5090     0.6980 C.3   1 <1>  -0.1600 
  7 C        4.6060     0.4400    -0.1970 C.3   1 <1>   0.2760 
  8 C        4.6780    -2.1330    -0.4640 C.3   1 <1>  -0.0220 
  9 C        6.1290     0.3900     0.0900 C.2   1 <1>  -0.2760 
 10 C        4.4100     0.8220    -1.6710 C.3   1 <1>  -0.2400 
 11 C        6.1280    -2.1430     0.0230 C.3   1 <1>  -0.0190 
 12 C        6.7960     1.3760     0.7210 C.2   1 <1>  -0.2880 
 13 C        6.8660    -0.8670    -0.4420 C.3   1 <1>   0.0580 
 14 C        6.7770    -3.4300    -0.4600 C.2   1 <1>   0.6590 
 15 C        8.2980     1.4250     0.9560 C.3   1 <1>  -0.0220 
 16 C        8.3560    -0.8650     0.0080 C.3   1 <1>  -0.0800 
 17 O        6.8920    -3.6870    -1.6310 O.2   1 <1>  -0.5700 
 18 O        7.1960    -4.2610     0.4870 O.3   1 <1>  -0.4300 
 19 C        9.0230     0.5190    -0.0570 C.3   1 <1>   0.0000 
 20 C        9.3460    -1.7910    -0.7210 C.3   1 <1>  -0.1600 
 21 C        7.7870    -5.5060     0.1720 C.3   1 <1>   0.0400 
 22 C       10.5160     0.1670     0.2170 C.3   1 <1>   0.2800 
 23 C        8.8830     1.1600    -1.4730 C.3   1 <1>  -0.2400 
 24 C       10.7300    -1.1340    -0.5810 C.3   1 <1>  -0.1600 
 25 O       11.4000     1.1430    -0.2830 O.3   1 <1>  -0.4300 
 26 C       10.9750    -0.0220     1.6820 C.3   1 <1>  -0.1600 
 27 C       12.4990     1.2570     0.4350 C.2   1 <1>   0.6590 
 28 C       12.4520     0.3630     1.6430 C.3   1 <1>  -0.0990 
 29 O       13.4070     1.9900     0.1590 O.2   1 <1>  -0.5700 
 30 H        2.2810    -2.0010     0.8280 H     1 <1>   0.1500 
 31 H        2.0090     2.1310     1.4780 H     1 <1>   0.0800 
 32 H        1.9640     1.7170    -0.2100 H     1 <1>   0.0800 
 33 H        4.2630     1.3670     1.7080 H     1 <1>   0.0800 
 34 H        4.2130     2.4960     0.3870 H     1 <1>   0.0800 
 35 H        4.6580    -2.1350    -1.5400 H     1 <1>   0.0800 
 36 H        4.1860    -3.0330    -0.1340 H     1 <1>   0.0800 
 37 H        3.3650     0.8590    -1.9190 H     1 <1>   0.0800 
 38 H        4.8800     0.1090    -2.3210 H     1 <1>   0.0800 
 39 H        4.8460     1.7860    -1.8630 H     1 <1>   0.0800 
 40 H        6.1190    -2.1560     1.0980 H     1 <1>   0.0800 
 41 H        6.3330     2.2610     1.1190 H     1 <1>   0.1500 
 42 H        6.8460    -0.8390    -1.5180 H     1 <1>   0.0800 
 43 H        8.4600     1.1160     1.9710 H     1 <1>   0.0800 
 44 H        8.6570     2.4350     0.8500 H     1 <1>   0.0800 
 45 H        8.3640    -1.1610     1.0440 H     1 <1>   0.0800 
 46 H        9.0890    -1.8770    -1.7640 H     1 <1>   0.0800 
 47 H        9.3600    -2.7730    -0.2840 H     1 <1>   0.0800 
 48 H        8.0390    -6.0070     1.0900 H     1 <1>   0.0800 
 49 H        8.6740    -5.3330    -0.4130 H     1 <1>   0.0800 
 50 H        7.0820    -6.0930    -0.3900 H     1 <1>   0.0800 
 51 H        7.8580     1.3400    -1.7390 H     1 <1>   0.0800 
 52 H        9.3150     0.5420    -2.2380 H     1 <1>   0.0800 
 53 H        9.3860     2.1110    -1.5000 H     1 <1>   0.0800 
 54 H       11.1100    -0.9070    -1.5630 H     1 <1>   0.0800 
 55 H       11.4200    -1.8030    -0.0960 H     1 <1>   0.0800 
 56 H       10.8110    -1.0190     2.0490 H     1 <1>   0.0800 
 57 H       10.4810     0.6680     2.3370 H     1 <1>   0.0800 
 58 H       13.0800    -0.4910     1.4720 H     1 <1>   0.0800 
 59 H       12.7650     0.8890     2.5270 H     1 <1>   0.0800 
@<TRIPOS>BOND
  1   1   2  2   
  2   2   3  1   
  3   2   4  1   
  4   3   5  2   
  5   3  30  1   
  6   4   6  1   
  7   4  31  1   
  8   4  32  1   
  9   5   7  1   
 10   5   8  1   
 11   6   7  1   
 12   6  33  1   
 13   6  34  1   
 14   7   9  1   
 15   7  10  1   
 16   8  11  1   
 17   8  35  1   
 18   8  36  1   
 19   9  12  2   
 20   9  13  1   
 21  10  37  1   
 22  10  38  1   
 23  10  39  1   
 24  11  13  1   
 25  11  14  1   
 26  11  40  1   
 27  12  15  1   
 28  12  41  1   
 29  13  16  1   
 30  13  42  1   
 31  14  17  2   
 32  14  18  1   
 33  15  19  1   
 34  15  43  1   
 35  15  44  1   
 36  16  19  1   
 37  16  20  1   
 38  16  45  1   
 39  18  21  1   
 40  19  22  1   
 41  19  23  1   
 42  20  24  1   
 43  20  46  1   
 44  20  47  1   
 45  21  48  1   
 46  21  49  1   
 47  21  50  1   
 48  22  24  1   
 49  22  25  1   
 50  22  26  1   
 51  23  51  1   
 52  23  52  1   
 53  23  53  1   
 54  24  54  1   
 55  24  55  1   
 56  25  27  1   
 57  26  28  1   
 58  26  56  1   
 59  26  57  1   
 60  27  28  1   
 61  27  29  2   
 62  28  58  1   
 63  28  59  1   
@<TRIPOS>SUBSTRUCTURE
  1 ****  13 GROUP 4 **** **** 0

# MOE 2024.06 (io_trps.svl 2023.06)
