@<TRIPOS>MOLECULE
NONAME
42 44 1 0 0 
SMALL
USER_CHARGES


@<TRIPOS>ATOM
  1 S        0.0350     0.7960    -1.2780 S.3   1 <1>  -0.0800 
  2 C       -1.5050     0.7530    -0.4470 C.ar  1 <1>   0.0400 
  3 C        0.6320     1.9330    -0.0750 C.2   1 <1>   0.1980 
  4 C       -1.4210     1.5940     0.6460 C.ar  1 <1>   0.2270 
  5 C       -2.6360     0.0320    -0.7720 C.ar  1 <1>  -0.1500 
  6 N       -0.2040     2.2420     0.8290 N.2   1 <1>  -0.5650 
  7 C        2.0540     2.4180    -0.2380 C.3   1 <1>  -0.0600 
  8 C       -2.5410     1.7200     1.4530 C.ar  1 <1>  -0.1500 
  9 C       -3.7620     0.1420     0.0450 C.ar  1 <1>   0.0860 
 10 C       -3.6880     1.0050     1.1500 C.ar  1 <1>  -0.1500 
 11 C       -4.9780    -0.5990    -0.2360 C.2   1 <1>   0.5440 
 12 O       -6.0530    -0.0330    -0.1600 O.2   1 <1>  -0.5700 
 13 N       -4.9590    -1.9360    -0.5740 N.am  1 <1>  -0.6600 
 14 C       -3.9000    -2.8890    -0.1160 C.3   1 <1>   0.1400 
 15 C       -6.1640    -2.6140    -1.1450 C.3   1 <1>   0.1400 
 16 C       -4.4820    -3.9060     0.8800 C.3   1 <1>   0.1400 
 17 C       -6.7470    -3.6260    -0.1470 C.3   1 <1>   0.1400 
 18 N       -5.6910    -4.5770     0.3170 N.am  1 <1>  -0.6600 
 19 C       -5.6340    -5.8780    -0.1120 C.2   1 <1>   0.7800 
 20 O       -4.5880    -6.4790    -0.2340 O.2   1 <1>  -0.5700 
 21 O       -6.7590    -6.5110    -0.4280 O.3   1 <1>  -0.4300 
 22 C       -7.7330    -6.7240     0.5650 C.3   1 <1>   0.1200 
 23 C       -8.9640    -7.3250    -0.1060 C.3   1 <1>  -0.2400 
 24 H       -2.6480    -0.6010    -1.6410 H     1 <1>   0.1500 
 25 H        2.7300     1.5840    -0.1990 H     1 <1>   0.0800 
 26 H        2.2970     3.1020     0.5540 H     1 <1>   0.0800 
 27 H        2.1620     2.9210    -1.1810 H     1 <1>   0.0800 
 28 H       -2.4970     2.3770     2.3030 H     1 <1>   0.1500 
 29 H       -4.5600     1.1110     1.7740 H     1 <1>   0.1500 
 30 H       -3.0910    -2.3660     0.3590 H     1 <1>   0.0800 
 31 H       -3.5030    -3.4160    -0.9670 H     1 <1>   0.0800 
 32 H       -5.8820    -3.1290    -2.0470 H     1 <1>   0.0800 
 33 H       -6.9180    -1.8920    -1.4050 H     1 <1>   0.0800 
 34 H       -4.7540    -3.3960     1.7880 H     1 <1>   0.0800 
 35 H       -3.7290    -4.6350     1.1270 H     1 <1>   0.0800 
 36 H       -7.5530    -4.1560    -0.6230 H     1 <1>   0.0800 
 37 H       -7.1490    -3.0960     0.6990 H     1 <1>   0.0800 
 38 H       -7.9740    -5.7890     1.0390 H     1 <1>   0.0800 
 39 H       -7.3230    -7.4030     1.2940 H     1 <1>   0.0800 
 40 H       -9.3560    -6.6460    -0.8420 H     1 <1>   0.0800 
 41 H       -9.7250    -7.5120     0.6300 H     1 <1>   0.0800 
 42 H       -8.7080    -8.2580    -0.5780 H     1 <1>   0.0800 
@<TRIPOS>BOND
  1   1   2  1   
  2   1   3  1   
  3   2   4  ar  
  4   2   5  ar  
  5   3   6  2   
  6   3   7  1   
  7   4   6  1   
  8   4   8  ar  
  9   5   9  ar  
 10   5  24  1   
 11   7  25  1   
 12   7  26  1   
 13   7  27  1   
 14   8  10  ar  
 15   8  28  1   
 16   9  10  ar  
 17   9  11  1   
 18  10  29  1   
 19  11  12  2   
 20  11  13  am  
 21  13  14  1   
 22  13  15  1   
 23  14  16  1   
 24  14  30  1   
 25  14  31  1   
 26  15  17  1   
 27  15  32  1   
 28  15  33  1   
 29  16  18  1   
 30  16  34  1   
 31  16  35  1   
 32  17  18  1   
 33  17  36  1   
 34  17  37  1   
 35  18  19  am  
 36  19  20  2   
 37  19  21  1   
 38  21  22  1   
 39  22  23  1   
 40  22  38  1   
 41  22  39  1   
 42  23  40  1   
 43  23  41  1   
 44  23  42  1   
@<TRIPOS>SUBSTRUCTURE
  1 ****  14 GROUP 4 **** **** 0

# MOE 2024.06 (io_trps.svl 2023.06)
