@<TRIPOS>MOLECULE
NONAME
33 33 1 0 0 
SMALL
USER_CHARGES


@<TRIPOS>ATOM
  1 CL      -2.2700    -1.4350    -1.2700 Cl    1 <1>  -0.1770 
  2 C       -1.2790    -2.5240    -0.3330 C.ar  1 <1>   0.1770 
  3 C        0.0790    -2.5680    -0.5560 C.ar  1 <1>  -0.1500 
  4 C       -1.8740    -3.3230     0.6200 C.ar  1 <1>  -0.1500 
  5 C        0.9090    -3.4250     0.1750 C.ar  1 <1>   0.0860 
  6 C       -1.0840    -4.1830     1.3580 C.ar  1 <1>  -0.1500 
  7 C        0.2950    -4.2450     1.1460 C.ar  1 <1>   0.0830 
  8 C        2.3380    -3.4130    -0.1110 C.2   1 <1>   0.5440 
  9 O        1.0670    -5.1010     1.8670 O.3   1 <1>  -0.3630 
 10 O        2.7530    -2.9580    -1.1600 O.2   1 <1>  -0.5700 
 11 N        3.2580    -3.8930     0.7730 N.am  1 <1>  -0.7300 
 12 C        0.5410    -6.0220     2.8000 C.3   1 <1>   0.0400 
 13 C        4.7230    -3.8960     0.5990 C.3   1 <1>   0.2200 
 14 C        5.1240    -5.0160    -0.3760 C.3   1 <1>   0.1200 
 15 C        5.3440    -4.0580     1.9870 C.3   1 <1>  -0.2400 
 16 O        6.5160    -5.1200    -0.4520 O.3   1 <1>  -0.5600 
 17 C        6.9570    -6.0590    -1.3770 C.3   1 <1>   0.0400 
 18 H        0.5020    -1.9270    -1.3090 H     1 <1>   0.1500 
 19 H       -2.9370    -3.2680     0.7760 H     1 <1>   0.1500 
 20 H       -1.5680    -4.7960     2.0940 H     1 <1>   0.1500 
 21 H        2.9010    -4.3940     1.5920 H     1 <1>   0.3700 
 22 H        1.3570    -6.6000     3.1970 H     1 <1>   0.0800 
 23 H       -0.1530    -6.6730     2.2980 H     1 <1>   0.0800 
 24 H        0.0590    -5.4810     3.5950 H     1 <1>   0.0800 
 25 H        5.0210    -2.9510     0.1750 H     1 <1>   0.0800 
 26 H        4.7430    -4.7890    -1.3570 H     1 <1>   0.0800 
 27 H        4.7330    -5.9580    -0.0370 H     1 <1>   0.0800 
 28 H        5.0810    -5.0100     2.4110 H     1 <1>   0.0800 
 29 H        5.0150    -3.2660     2.6350 H     1 <1>   0.0800 
 30 H        6.4150    -4.0060     1.9100 H     1 <1>   0.0800 
 31 H        8.0320    -6.0690    -1.3570 H     1 <1>   0.0800 
 32 H        6.6150    -5.7780    -2.3580 H     1 <1>   0.0800 
 33 H        6.5780    -7.0300    -1.1070 H     1 <1>   0.0800 
@<TRIPOS>BOND
  1   1   2  1   
  2   2   3  ar  
  3   2   4  ar  
  4   3   5  ar  
  5   3  18  1   
  6   4   6  ar  
  7   4  19  1   
  8   5   7  ar  
  9   5   8  1   
 10   6   7  ar  
 11   6  20  1   
 12   7   9  1   
 13   8  10  2   
 14   8  11  am  
 15   9  12  1   
 16  11  13  1   
 17  11  21  1   
 18  12  22  1   
 19  12  23  1   
 20  12  24  1   
 21  13  14  1   
 22  13  15  1   
 23  13  25  1   
 24  14  16  1   
 25  14  26  1   
 26  14  27  1   
 27  15  28  1   
 28  15  29  1   
 29  15  30  1   
 30  16  17  1   
 31  17  31  1   
 32  17  32  1   
 33  17  33  1   
@<TRIPOS>SUBSTRUCTURE
  1 ****   8 GROUP 4 **** **** 0

# MOE 2024.06 (io_trps.svl 2023.06)
