@<TRIPOS>MOLECULE
NONAME
43 43 1 0 0 
SMALL
USER_CHARGES


@<TRIPOS>ATOM
  1 O        0.0910    -1.4240    -0.3600 O.3   1 <1>  -0.3630 
  2 C       -1.1730    -1.3840     0.1420 C.ar  1 <1>   0.0830 
  3 C        1.2210    -1.3380     0.4710 C.3   1 <1>   0.1200 
  4 C       -2.2290    -1.4810    -0.7610 C.ar  1 <1>  -0.1440 
  5 C       -1.4420    -1.2530     1.5040 C.ar  1 <1>  -0.1500 
  6 C        2.4580    -1.4180    -0.4260 C.3   1 <1>  -0.1600 
  7 C       -3.5340    -1.4450    -0.2960 C.ar  1 <1>  -0.1500 
  8 C       -1.9640    -1.6260    -2.2520 C.3   1 <1>  -0.0960 
  9 C       -2.7490    -1.2180     1.9560 C.ar  1 <1>  -0.1500 
 10 C        3.7590    -1.3390     0.3860 C.3   1 <1>  -0.1600 
 11 C       -3.7950    -1.3140     1.0570 C.ar  1 <1>  -0.1500 
 12 C        4.9740    -1.4180    -0.5430 C.3   1 <1>   0.3430 
 13 N        6.2430    -1.2370     0.2200 N.4   1 <1>  -0.9590 
 14 C        7.3590    -0.9450    -0.7210 C.3   1 <1>   0.3430 
 15 C        6.5460    -2.4050     1.0930 C.3   1 <1>   0.3430 
 16 C        8.5390    -0.3510     0.0410 C.3   1 <1>  -0.2400 
 17 C        6.5220    -1.9410     2.5430 C.3   1 <1>  -0.2400 
 18 H        1.1920    -2.1600     1.1660 H     1 <1>   0.0800 
 19 H        1.1830    -0.3990     0.9960 H     1 <1>   0.0800 
 20 H       -0.6540    -1.1750     2.2270 H     1 <1>   0.1500 
 21 H        2.4190    -0.6050    -1.1320 H     1 <1>   0.0800 
 22 H        2.4240    -2.3470    -0.9700 H     1 <1>   0.0800 
 23 H       -4.3570    -1.5190    -0.9850 H     1 <1>   0.1500 
 24 H       -1.4040    -0.7780    -2.6050 H     1 <1>   0.0800 
 25 H       -2.8830    -1.6860    -2.8070 H     1 <1>   0.0800 
 26 H       -1.3940    -2.5180    -2.4350 H     1 <1>   0.0800 
 27 H       -2.9540    -1.1160     3.0070 H     1 <1>   0.1500 
 28 H        3.7750    -2.1530     1.0890 H     1 <1>   0.0800 
 29 H        3.7770    -0.4080     0.9260 H     1 <1>   0.0800 
 30 H       -4.8110    -1.2870     1.4080 H     1 <1>   0.1500 
 31 H        4.8870    -0.6390    -1.2840 H     1 <1>   0.0800 
 32 H        4.9820    -2.3660    -1.0560 H     1 <1>   0.0800 
 33 H        6.1320    -0.4150     0.8270 H     1 <1>   0.4500 
 34 H        7.0330    -0.2300    -1.4600 H     1 <1>   0.0800 
 35 H        7.6620    -1.8440    -1.2330 H     1 <1>   0.0800 
 36 H        7.5190    -2.8080     0.8590 H     1 <1>   0.0800 
 37 H        5.8150    -3.1850     0.9470 H     1 <1>   0.0800 
 38 H        8.2470     0.5400     0.5660 H     1 <1>   0.0800 
 39 H        9.3110    -0.0840    -0.6600 H     1 <1>   0.0800 
 40 H        8.9600    -1.0590     0.7320 H     1 <1>   0.0800 
 41 H        7.2700    -1.1880     2.7180 H     1 <1>   0.0800 
 42 H        6.7400    -2.7770     3.1840 H     1 <1>   0.0800 
 43 H        5.5540    -1.5610     2.8130 H     1 <1>   0.0800 
@<TRIPOS>BOND
  1   1   2  1   
  2   1   3  1   
  3   2   4  ar  
  4   2   5  ar  
  5   3   6  1   
  6   3  18  1   
  7   3  19  1   
  8   4   7  ar  
  9   4   8  1   
 10   5   9  ar  
 11   5  20  1   
 12   6  10  1   
 13   6  21  1   
 14   6  22  1   
 15   7  11  ar  
 16   7  23  1   
 17   8  24  1   
 18   8  25  1   
 19   8  26  1   
 20   9  11  ar  
 21   9  27  1   
 22  10  12  1   
 23  10  28  1   
 24  10  29  1   
 25  11  30  1   
 26  12  13  1   
 27  12  31  1   
 28  12  32  1   
 29  13  14  1   
 30  13  15  1   
 31  13  33  1   
 32  14  16  1   
 33  14  34  1   
 34  14  35  1   
 35  15  17  1   
 36  15  36  1   
 37  15  37  1   
 38  16  38  1   
 39  16  39  1   
 40  16  40  1   
 41  17  41  1   
 42  17  42  1   
 43  17  43  1   
@<TRIPOS>SUBSTRUCTURE
  1 ****   3 GROUP 4 **** **** 0

# MOE 2024.06 (io_trps.svl 2023.06)
