@<TRIPOS>MOLECULE
NONAME
45 47 1 0 0 
SMALL
USER_CHARGES


@<TRIPOS>ATOM
  1 O        0.4190     1.2110    -2.5930 O.2   1 <1>  -0.5700 
  2 C       -0.1900     2.0050    -1.8950 C.2   1 <1>   0.5440 
  3 N       -1.4210     1.6430    -1.3920 N.am  1 <1>  -0.6600 
  4 C        0.4360     3.2620    -1.5490 C.ar  1 <1>   0.0860 
  5 C       -2.1230     0.4100    -1.8450 C.3   1 <1>   0.1400 
  6 C       -1.9680     2.2090    -0.1290 C.3   1 <1>   0.1400 
  7 C        1.6580     3.2660    -0.8630 C.ar  1 <1>   0.1170 
  8 C       -0.1630     4.4830    -1.8600 C.ar  1 <1>  -0.1500 
  9 C       -2.0260    -0.6660    -0.7580 C.3   1 <1>  -0.1600 
 10 C       -1.8350     1.1630     0.9820 C.3   1 <1>  -0.1600 
 11 N        2.2690     2.0420    -0.5700 N.am  1 <1>  -0.5470 
 12 C        2.2350     4.4770    -0.4960 C.ar  1 <1>  -0.1500 
 13 C        0.4210     5.6800    -1.4940 C.ar  1 <1>  -0.1500 
 14 C       -2.5270    -0.1580     0.6050 C.3   1 <1>  -0.0800 
 15 C        2.7900     1.5860     0.6160 C.2   1 <1>   0.5440 
 16 C        1.6230     5.6760    -0.8070 C.ar  1 <1>  -0.1500 
 17 C       -2.2900    -1.2160     1.6880 C.3   1 <1>  -0.2400 
 18 O        3.1800     2.3800     1.4460 O.2   1 <1>  -0.5700 
 19 C        2.8540     0.1630     0.8770 C.ar  1 <1>   0.0860 
 20 C        1.9390    -0.7270     0.3090 C.ar  1 <1>   0.1600 
 21 C        3.8140    -0.3820     1.7200 C.ar  1 <1>  -0.1500 
 22 N        1.9110    -2.0370     0.4960 N.ar  1 <1>  -0.6200 
 23 C        3.8040    -1.7440     1.9280 C.ar  1 <1>  -0.1500 
 24 C        2.8450    -2.5180     1.3000 C.ar  1 <1>   0.1600 
 25 H       -1.6920     0.0440    -2.7620 H     1 <1>   0.0800 
 26 H       -3.1550     0.6460    -2.0360 H     1 <1>   0.0800 
 27 H       -3.0050     2.4610    -0.2760 H     1 <1>   0.0800 
 28 H       -1.4440     3.1040     0.1580 H     1 <1>   0.0800 
 29 H       -1.0980     4.4830    -2.3940 H     1 <1>   0.1500 
 30 H       -1.0010    -0.9820    -0.6810 H     1 <1>   0.0800 
 31 H       -2.6030    -1.5210    -1.0600 H     1 <1>   0.0800 
 32 H       -2.2700     1.5540     1.8850 H     1 <1>   0.0800 
 33 H       -0.7900     0.9910     1.1700 H     1 <1>   0.0800 
 34 H        2.0500     1.3200    -1.2690 H     1 <1>   0.3700 
 35 H        3.1700     4.4760     0.0350 H     1 <1>   0.1500 
 36 H       -0.0530     6.6150    -1.7410 H     1 <1>   0.1500 
 37 H       -3.5870     0.0230     0.5300 H     1 <1>   0.0800 
 38 H        2.0820     6.6060    -0.5160 H     1 <1>   0.1500 
 39 H       -1.2390    -1.4290     1.7860 H     1 <1>   0.0800 
 40 H       -2.8010    -2.1280     1.4370 H     1 <1>   0.0800 
 41 H       -2.6590    -0.8700     2.6370 H     1 <1>   0.0800 
 42 H        1.1760    -0.3300    -0.3380 H     1 <1>   0.1500 
 43 H        4.5420     0.2530     2.1970 H     1 <1>   0.1500 
 44 H        4.5320    -2.2040     2.5720 H     1 <1>   0.1500 
 45 H        2.8440    -3.5820     1.4680 H     1 <1>   0.1500 
@<TRIPOS>BOND
  1   1   2  2   
  2   2   3  am  
  3   2   4  1   
  4   3   5  1   
  5   3   6  1   
  6   4   7  ar  
  7   4   8  ar  
  8   5   9  1   
  9   5  25  1   
 10   5  26  1   
 11   6  10  1   
 12   6  27  1   
 13   6  28  1   
 14   7  11  1   
 15   7  12  ar  
 16   8  13  ar  
 17   8  29  1   
 18   9  14  1   
 19   9  30  1   
 20   9  31  1   
 21  10  14  1   
 22  10  32  1   
 23  10  33  1   
 24  11  15  am  
 25  11  34  1   
 26  12  16  ar  
 27  12  35  1   
 28  13  16  ar  
 29  13  36  1   
 30  14  17  1   
 31  14  37  1   
 32  15  18  2   
 33  15  19  1   
 34  16  38  1   
 35  17  39  1   
 36  17  40  1   
 37  17  41  1   
 38  19  20  ar  
 39  19  21  ar  
 40  20  22  ar  
 41  20  42  1   
 42  21  23  ar  
 43  21  43  1   
 44  22  24  ar  
 45  23  24  ar  
 46  23  44  1   
 47  24  45  1   
@<TRIPOS>SUBSTRUCTURE
  1 ****  11 GROUP 4 **** **** 0

# MOE 2024.06 (io_trps.svl 2023.06)
