@<TRIPOS>MOLECULE
NONAME
30 31 1 0 0 
SMALL
USER_CHARGES


@<TRIPOS>ATOM
  1 S       -0.2410     0.0940    -0.5620 S.o2  1 <1>   1.3330 
  2 O       -0.9670     1.2440    -1.0370 O.2   1 <1>  -0.6500 
  3 O        0.3960    -0.8180    -1.4810 O.2   1 <1>  -0.6500 
  4 N       -1.3520    -0.7630     0.3360 N.am  1 <1>  -0.9140 
  5 C        0.9410     0.5970     0.6680 C.3   1 <1>  -0.1350 
  6 C       -2.1520    -1.6460    -0.4790 C.3   1 <1>   0.4190 
  7 C       -3.6210    -1.3860    -0.1370 C.ar  1 <1>  -0.1430 
  8 C       -1.6850    -3.0820    -0.1980 C.3   1 <1>  -0.1600 
  9 C       -4.4710    -2.4050     0.2890 C.ar  1 <1>  -0.1430 
 10 C       -4.1300    -0.1000    -0.2800 C.ar  1 <1>  -0.1500 
 11 C       -2.7820    -4.1120    -0.4840 C.3   1 <1>  -0.1600 
 12 C       -5.7920    -2.1180     0.5970 C.ar  1 <1>  -0.1500 
 13 C       -3.9880    -3.8430     0.4200 C.3   1 <1>  -0.0170 
 14 C       -5.4500     0.1790     0.0260 C.ar  1 <1>  -0.1500 
 15 C       -6.2810    -0.8310     0.4700 C.ar  1 <1>  -0.1500 
 16 H       -2.0240    -0.0660     0.6480 H     1 <1>   0.4200 
 17 H        0.4610     1.1850     1.4260 H     1 <1>   0.0800 
 18 H        1.7150     1.1840     0.2150 H     1 <1>   0.0800 
 19 H        1.3850    -0.2650     1.1260 H     1 <1>   0.0800 
 20 H       -2.0320    -1.4360    -1.5310 H     1 <1>   0.0800 
 21 H       -1.3990    -3.1710     0.8360 H     1 <1>   0.0800 
 22 H       -0.8210    -3.2920    -0.8040 H     1 <1>   0.0800 
 23 H       -3.5060     0.7010    -0.6410 H     1 <1>   0.1500 
 24 H       -2.4080    -5.1050    -0.3030 H     1 <1>   0.0800 
 25 H       -3.0820    -4.0470    -1.5160 H     1 <1>   0.0800 
 26 H       -6.4500    -2.8990     0.9350 H     1 <1>   0.1500 
 27 H       -4.7810    -4.5210     0.1580 H     1 <1>   0.0800 
 28 H       -3.7190    -4.0250     1.4460 H     1 <1>   0.0800 
 29 H       -5.8290     1.1800    -0.0840 H     1 <1>   0.1500 
 30 H       -7.3080    -0.6180     0.7110 H     1 <1>   0.1500 
@<TRIPOS>BOND
  1   1   2  2   
  2   1   3  2   
  3   1   4  am  
  4   1   5  1   
  5   4   6  1   
  6   4  16  1   
  7   5  17  1   
  8   5  18  1   
  9   5  19  1   
 10   6   7  1   
 11   6   8  1   
 12   6  20  1   
 13   7   9  ar  
 14   7  10  ar  
 15   8  11  1   
 16   8  21  1   
 17   8  22  1   
 18   9  12  ar  
 19   9  13  1   
 20  10  14  ar  
 21  10  23  1   
 22  11  13  1   
 23  11  24  1   
 24  11  25  1   
 25  12  15  ar  
 26  12  26  1   
 27  13  27  1   
 28  13  28  1   
 29  14  15  ar  
 30  14  29  1   
 31  15  30  1   
@<TRIPOS>SUBSTRUCTURE
  1 ****   6 GROUP 4 **** **** 0

# MOE 2024.06 (io_trps.svl 2023.06)
