@<TRIPOS>MOLECULE
NONAME
27 28 1 0 0 
SMALL
USER_CHARGES


@<TRIPOS>ATOM
  1 CL       1.1010     0.2100     2.4140 Cl    1 <1>  -0.1770 
  2 C        2.1390    -0.7390     1.3780 C.ar  1 <1>   0.1770 
  3 C        3.2760    -0.1560     0.8500 C.ar  1 <1>  -0.1500 
  4 C        1.8060    -2.0520     1.1080 C.ar  1 <1>  -0.1500 
  5 C        4.1140    -0.8920     0.0230 C.ar  1 <1>   0.1000 
  6 C        2.6350    -2.7980     0.2860 C.ar  1 <1>  -0.1500 
  7 N        5.2870    -0.3350    -0.5280 N.pl3 1 <1>  -0.8380 
  8 C        3.7770    -2.2300    -0.2560 C.ar  1 <1>   0.1000 
  9 C        5.2650     1.0520    -1.0930 C.3   1 <1>   0.2090 
 10 C        6.5640    -0.6650     0.1800 C.3   1 <1>   0.2090 
 11 N        4.5950    -2.9740    -1.0970 N.pl3 1 <1>  -0.9000 
 12 C        5.8550     2.1010    -0.1270 C.3   1 <1>   0.1200 
 13 C        7.0220     0.4840     1.0950 C.3   1 <1>   0.1200 
 14 O        7.0900     1.6900     0.3870 O.3   1 <1>  -0.5600 
 15 H        3.5000     0.8610     1.0930 H     1 <1>   0.1500 
 16 H        0.9170    -2.4810     1.5340 H     1 <1>   0.1500 
 17 H        2.4000    -3.8230     0.0660 H     1 <1>   0.1500 
 18 H        4.2550     1.3240    -1.3470 H     1 <1>   0.0800 
 19 H        5.8390     1.0610    -2.0030 H     1 <1>   0.0800 
 20 H        7.3300    -0.8610    -0.5490 H     1 <1>   0.0800 
 21 H        6.4320    -1.5580     0.7670 H     1 <1>   0.0800 
 22 H        4.0870    -3.4040    -1.8720 H     1 <1>   0.4000 
 23 H        5.2970    -2.3230    -1.4760 H     1 <1>   0.4000 
 24 H        5.1870     2.2790     0.6960 H     1 <1>   0.0800 
 25 H        6.0090     3.0300    -0.6460 H     1 <1>   0.0800 
 26 H        8.0020     0.2760     1.4840 H     1 <1>   0.0800 
 27 H        6.3400     0.6010     1.9180 H     1 <1>   0.0800 
@<TRIPOS>BOND
  1   1   2  1   
  2   2   3  ar  
  3   2   4  ar  
  4   3   5  ar  
  5   3  15  1   
  6   4   6  ar  
  7   4  16  1   
  8   5   7  1   
  9   5   8  ar  
 10   6   8  ar  
 11   6  17  1   
 12   7   9  1   
 13   7  10  1   
 14   8  11  1   
 15   9  12  1   
 16   9  18  1   
 17   9  19  1   
 18  10  13  1   
 19  10  20  1   
 20  10  21  1   
 21  11  22  1   
 22  11  23  1   
 23  12  14  1   
 24  12  24  1   
 25  12  25  1   
 26  13  14  1   
 27  13  26  1   
 28  13  27  1   
@<TRIPOS>SUBSTRUCTURE
  1 ****   5 GROUP 4 **** **** 0

# MOE 2024.06 (io_trps.svl 2023.06)
