@<TRIPOS>MOLECULE
NONAME
40 41 1 0 0 
SMALL
USER_CHARGES


@<TRIPOS>ATOM
  1 CL       2.9340    -1.6890    -4.3250 Cl    1 <1>  -0.1770 
  2 C        3.2670    -1.8410    -2.6160 C.ar  1 <1>   0.1770 
  3 C        2.3850    -2.5040    -1.7790 C.ar  1 <1>   0.1770 
  4 C        4.4300    -1.2870    -2.1140 C.ar  1 <1>  -0.1500 
  5 CL       0.9100    -3.2100    -2.4040 Cl    1 <1>  -0.1770 
  6 C        2.6650    -2.6180    -0.4310 C.ar  1 <1>  -0.1500 
  7 C        4.7280    -1.3880    -0.7590 C.ar  1 <1>   0.1170 
  8 C        3.8310    -2.0630     0.0710 C.ar  1 <1>  -0.1500 
  9 N        5.9230    -0.8130    -0.2970 N.am  1 <1>  -0.5470 
 10 C        6.3630    -0.5030     0.9620 C.2   1 <1>   0.5690 
 11 O        5.7480    -0.7370     1.9730 O.2   1 <1>  -0.5700 
 12 C        7.7370     0.1620     1.0870 C.3   1 <1>   0.1710 
 13 N        8.8510    -0.6000     0.4420 N.3   1 <1>  -0.8100 
 14 C       10.1230     0.1590     0.5370 C.3   1 <1>   0.1100 
 15 C        9.0080    -1.9350     1.0850 C.3   1 <1>   0.1100 
 16 C       11.3310    -0.6090    -0.0580 C.3   1 <1>   0.3430 
 17 C       10.2330    -2.7260     0.5630 C.3   1 <1>   0.3430 
 18 N       10.9420    -1.9790    -0.5310 N.4   1 <1>  -0.9590 
 19 C       12.0770    -2.7150    -1.1410 C.3   1 <1>   0.3430 
 20 C       11.5520    -3.9030    -1.9390 C.3   1 <1>  -0.2400 
 21 H        5.0930    -0.7740    -2.7850 H     1 <1>   0.1500 
 22 H        1.9770    -3.1330     0.2170 H     1 <1>   0.1500 
 23 H        4.0340    -2.1630     1.1220 H     1 <1>   0.1500 
 24 H        6.5930    -0.5660    -1.0250 H     1 <1>   0.3700 
 25 H        7.9480     0.3000     2.1340 H     1 <1>   0.0800 
 26 H        7.6670     1.1370     0.6390 H     1 <1>   0.0800 
 27 H       10.3350     0.3880     1.5690 H     1 <1>   0.0800 
 28 H       10.0200     1.0960     0.0170 H     1 <1>   0.0800 
 29 H        8.1240    -2.5250     0.9080 H     1 <1>   0.0800 
 30 H        9.1010    -1.8200     2.1530 H     1 <1>   0.0800 
 31 H       12.1020    -0.6840     0.6910 H     1 <1>   0.0800 
 32 H       11.7320    -0.0410    -0.8810 H     1 <1>   0.0800 
 33 H        9.8960    -3.6830     0.2010 H     1 <1>   0.0800 
 34 H       10.9100    -2.9070     1.3810 H     1 <1>   0.0800 
 35 H       10.2160    -1.8100    -1.2420 H     1 <1>   0.4500 
 36 H       12.7580    -3.0530    -0.3760 H     1 <1>   0.0800 
 37 H       12.6160    -2.0600    -1.8080 H     1 <1>   0.0800 
 38 H       11.0950    -4.6360    -1.3000 H     1 <1>   0.0800 
 39 H       12.3750    -4.3780    -2.4420 H     1 <1>   0.0800 
 40 H       10.8490    -3.5810    -2.6870 H     1 <1>   0.0800 
@<TRIPOS>BOND
  1   1   2  1   
  2   2   3  ar  
  3   2   4  ar  
  4   3   5  1   
  5   3   6  ar  
  6   4   7  ar  
  7   4  21  1   
  8   6   8  ar  
  9   6  22  1   
 10   7   8  ar  
 11   7   9  1   
 12   8  23  1   
 13   9  10  am  
 14   9  24  1   
 15  10  11  2   
 16  10  12  1   
 17  12  13  1   
 18  12  25  1   
 19  12  26  1   
 20  13  14  1   
 21  13  15  1   
 22  14  16  1   
 23  14  27  1   
 24  14  28  1   
 25  15  17  1   
 26  15  29  1   
 27  15  30  1   
 28  16  18  1   
 29  16  31  1   
 30  16  32  1   
 31  17  18  1   
 32  17  33  1   
 33  17  34  1   
 34  18  19  1   
 35  18  35  1   
 36  19  20  1   
 37  19  36  1   
 38  19  37  1   
 39  20  38  1   
 40  20  39  1   
 41  20  40  1   
@<TRIPOS>SUBSTRUCTURE
  1 ****   9 GROUP 4 **** **** 0

# MOE 2024.06 (io_trps.svl 2023.06)
