@<TRIPOS>MOLECULE
NONAME
29 29 1 0 0 
SMALL
USER_CHARGES


@<TRIPOS>ATOM
  1 CL       0.7850    -0.3050    -1.6650 Cl    1 <1>  -0.1770 
  2 C        1.8250    -0.9440    -0.4100 C.ar  1 <1>   0.1770 
  3 C        3.0540    -0.3590    -0.0720 C.ar  1 <1>   0.0820 
  4 C        1.3870    -2.0930     0.2190 C.ar  1 <1>  -0.1500 
  5 O        3.5530     0.7780    -0.6360 O.3   1 <1>  -0.3630 
  6 C        3.8550    -0.9710     0.8920 C.ar  1 <1>  -0.1440 
  7 C        2.1900    -2.6710     1.1810 C.ar  1 <1>   0.1770 
  8 C        2.7120     1.8940    -0.8710 C.3   1 <1>   0.0400 
  9 C        3.4150    -2.1280     1.5210 C.ar  1 <1>  -0.1500 
 10 C        5.2010    -0.3760     1.2600 C.3   1 <1>   0.4870 
 11 CL       1.6550    -4.1230     1.9840 Cl    1 <1>  -0.1770 
 12 N        6.0400    -0.3940     0.0440 N.4   1 <1>  -0.9060 
 13 C        7.3610     0.2690     0.2320 C.3   1 <1>   0.3430 
 14 C        8.1760     0.2920    -1.0660 C.3   1 <1>   0.1200 
 15 O        9.3840     0.9010    -0.7840 O.3   1 <1>  -0.6800 
 16 H        0.4420    -2.5350    -0.0390 H     1 <1>   0.1500 
 17 H        3.3040     2.7890    -0.7930 H     1 <1>   0.0800 
 18 H        1.9230     1.9160    -0.1390 H     1 <1>   0.0800 
 19 H        2.3050     1.8250    -1.8640 H     1 <1>   0.0800 
 20 H        4.0020    -2.6240     2.2760 H     1 <1>   0.1500 
 21 H        5.6640    -0.9500     2.0460 H     1 <1>   0.0800 
 22 H        5.0620     0.6370     1.6010 H     1 <1>   0.0800 
 23 H        5.4790     0.0990    -0.6720 H     1 <1>   0.4500 
 24 H        6.1430    -1.3630    -0.2770 H     1 <1>   0.4500 
 25 H        7.9280    -0.2570     0.9840 H     1 <1>   0.0800 
 26 H        7.2140     1.2850     0.5620 H     1 <1>   0.0800 
 27 H        7.6810     0.8700    -1.8280 H     1 <1>   0.0800 
 28 H        8.3800    -0.7040    -1.4190 H     1 <1>   0.0800 
 29 H        9.9620     0.9560    -1.5760 H     1 <1>   0.4000 
@<TRIPOS>BOND
  1   1   2  1   
  2   2   3  ar  
  3   2   4  ar  
  4   3   5  1   
  5   3   6  ar  
  6   4   7  ar  
  7   4  16  1   
  8   5   8  1   
  9   6   9  ar  
 10   6  10  1   
 11   7   9  ar  
 12   7  11  1   
 13   8  17  1   
 14   8  18  1   
 15   8  19  1   
 16   9  20  1   
 17  10  12  1   
 18  10  21  1   
 19  10  22  1   
 20  12  13  1   
 21  12  23  1   
 22  12  24  1   
 23  13  14  1   
 24  13  25  1   
 25  13  26  1   
 26  14  15  1   
 27  14  27  1   
 28  14  28  1   
 29  15  29  1   
@<TRIPOS>SUBSTRUCTURE
  1 ****   6 GROUP 4 **** **** 0

# MOE 2024.06 (io_trps.svl 2023.06)
