@<TRIPOS>MOLECULE
NONAME
50 52 1 0 0 
SMALL
USER_CHARGES


@<TRIPOS>ATOM
  1 S        0.9630    -0.0930    -0.5110 S.3   1 <1>  -0.0800 
  2 C        2.2190    -0.8830     0.3930 C.2   1 <1>   0.4420 
  3 C       -0.1540    -1.1860     0.2290 C.2   1 <1>   0.1980 
  4 N        1.7640    -1.8300     1.1280 N.2   1 <1>  -0.3380 
  5 N        3.5350    -0.4960     0.2950 N.am  1 <1>  -0.4940 
  6 N        0.4110    -1.9980     1.0300 N.2   1 <1>  -0.3380 
  7 C       -1.6190    -1.0430    -0.1550 C.3   1 <1>   0.0200 
  8 C        4.1850     0.4060    -0.4920 C.2   1 <1>   0.5690 
  9 C       -2.5270    -2.0560     0.5550 C.3   1 <1>  -0.2400 
 10 O        3.6490     1.0970    -1.3220 O.2   1 <1>  -0.5700 
 11 C        5.6960     0.5160    -0.2840 C.3   1 <1>   0.1710 
 12 N        6.2930    -0.6950     0.3510 N.3   1 <1>  -0.8100 
 13 C        7.6360    -0.3940     0.9010 C.3   1 <1>   0.1100 
 14 C        6.4030    -1.8120    -0.6240 C.3   1 <1>   0.1100 
 15 C        8.2880    -1.6160     1.5780 C.3   1 <1>   0.2090 
 16 C        7.0070    -3.0860     0.0000 C.3   1 <1>   0.2090 
 17 N        8.2990    -2.8140     0.6900 N.pl3 1 <1>  -0.8380 
 18 C        9.4870    -3.1470     0.0360 C.ar  1 <1>   0.1000 
 19 C       10.2530    -4.2450     0.4440 C.ar  1 <1>  -0.1430 
 20 C        9.9190    -2.3780    -1.0370 C.ar  1 <1>  -0.1500 
 21 C       11.4370    -4.5490    -0.2250 C.ar  1 <1>  -0.1430 
 22 C        9.7480    -5.0720     1.6270 C.3   1 <1>  -0.0970 
 23 C       11.0890    -2.6820    -1.7010 C.ar  1 <1>  -0.1500 
 24 C       11.8440    -3.7650    -1.2940 C.ar  1 <1>  -0.1500 
 25 C       12.3200    -5.7240     0.1730 C.3   1 <1>  -0.0970 
 26 H        4.1820    -1.0220     0.8890 H     1 <1>   0.3700 
 27 H       -1.7080    -1.1720    -1.2190 H     1 <1>   0.0800 
 28 H       -1.9410    -0.0470     0.0890 H     1 <1>   0.0800 
 29 H       -2.2270    -3.0590     0.3090 H     1 <1>   0.0800 
 30 H       -3.5490    -1.9160     0.2520 H     1 <1>   0.0800 
 31 H       -2.4600    -1.9300     1.6210 H     1 <1>   0.0800 
 32 H        5.8630     1.3700     0.3480 H     1 <1>   0.0800 
 33 H        6.1690     0.7100    -1.2310 H     1 <1>   0.0800 
 34 H        7.5550     0.3930     1.6300 H     1 <1>   0.0800 
 35 H        8.2850    -0.0490     0.1150 H     1 <1>   0.0800 
 36 H        7.0190    -1.5130    -1.4540 H     1 <1>   0.0800 
 37 H        5.4300    -2.0560    -1.0120 H     1 <1>   0.0800 
 38 H        7.7430    -1.8560     2.4740 H     1 <1>   0.0800 
 39 H        9.2970    -1.3740     1.8610 H     1 <1>   0.0800 
 40 H        7.1630    -3.8220    -0.7700 H     1 <1>   0.0800 
 41 H        6.3130    -3.4960     0.7120 H     1 <1>   0.0800 
 42 H        9.3330    -1.5380    -1.3500 H     1 <1>   0.1500 
 43 H        9.7590    -4.4650     2.5130 H     1 <1>   0.0800 
 44 H       10.3320    -5.9510     1.8090 H     1 <1>   0.0800 
 45 H        8.7360    -5.3810     1.4410 H     1 <1>   0.0800 
 46 H       11.4130    -2.0800    -2.5300 H     1 <1>   0.1500 
 47 H       12.7550    -3.9910    -1.8190 H     1 <1>   0.1500 
 48 H       11.7820    -6.6460     0.0460 H     1 <1>   0.0800 
 49 H       12.6200    -5.6260     1.2010 H     1 <1>   0.0800 
 50 H       13.2070    -5.7660    -0.4320 H     1 <1>   0.0800 
@<TRIPOS>BOND
  1   1   2  1   
  2   1   3  1   
  3   2   4  2   
  4   2   5  1   
  5   3   6  2   
  6   3   7  1   
  7   4   6  1   
  8   5   8  am  
  9   5  26  1   
 10   7   9  1   
 11   7  27  1   
 12   7  28  1   
 13   8  10  2   
 14   8  11  1   
 15   9  29  1   
 16   9  30  1   
 17   9  31  1   
 18  11  12  1   
 19  11  32  1   
 20  11  33  1   
 21  12  13  1   
 22  12  14  1   
 23  13  15  1   
 24  13  34  1   
 25  13  35  1   
 26  14  16  1   
 27  14  36  1   
 28  14  37  1   
 29  15  17  1   
 30  15  38  1   
 31  15  39  1   
 32  16  17  1   
 33  16  40  1   
 34  16  41  1   
 35  17  18  1   
 36  18  19  ar  
 37  18  20  ar  
 38  19  21  ar  
 39  19  22  1   
 40  20  23  ar  
 41  20  42  1   
 42  21  24  ar  
 43  21  25  1   
 44  22  43  1   
 45  22  44  1   
 46  22  45  1   
 47  23  24  ar  
 48  23  46  1   
 49  24  47  1   
 50  25  48  1   
 51  25  49  1   
 52  25  50  1   
@<TRIPOS>SUBSTRUCTURE
  1 ****  14 GROUP 4 **** **** 0

# MOE 2024.06 (io_trps.svl 2023.06)
