@<TRIPOS>MOLECULE
NONAME
40 41 1 0 0 
SMALL
USER_CHARGES


@<TRIPOS>ATOM
  1 CL       0.5180     0.1920    -1.4870 Cl    1 <1>  -0.1770 
  2 C        1.1310    -1.3540    -0.9450 C.ar  1 <1>   0.1770 
  3 C        0.2700    -2.3580    -0.5360 C.ar  1 <1>   0.1900 
  4 C        2.4960    -1.5670    -0.9290 C.ar  1 <1>  -0.1500 
  5 F       -1.0240    -2.1600    -0.5490 F     1 <1>  -0.1900 
  6 C        0.7510    -3.5810    -0.1100 C.ar  1 <1>  -0.1500 
  7 C        3.0100    -2.7890    -0.5010 C.ar  1 <1>   0.1170 
  8 C        2.1210    -3.7890    -0.0980 C.ar  1 <1>  -0.1500 
  9 N        4.4020    -2.9680    -0.5090 N.am  1 <1>  -0.5470 
 10 C        5.1960    -3.8130     0.2190 C.2   1 <1>   0.5690 
 11 O        4.7680    -4.5710     1.0540 O.2   1 <1>  -0.5700 
 12 C        6.7020    -3.7760    -0.0380 C.3   1 <1>  -0.0190 
 13 C        7.2560    -5.1540    -0.4410 C.3   1 <1>  -0.1600 
 14 C        7.4830    -3.2430     1.1830 C.3   1 <1>  -0.1600 
 15 C        8.7650    -5.1060    -0.7420 C.3   1 <1>   0.1960 
 16 C        8.9540    -3.6860     1.2030 C.3   1 <1>   0.1960 
 17 N        9.4220    -3.9220    -0.1640 N.am  1 <1>  -0.8490 
 18 S       11.1090    -4.0500    -0.2740 S.o2  1 <1>   1.3330 
 19 O       11.5750    -4.6580     0.9520 O.2   1 <1>  -0.6500 
 20 O       11.4180    -4.6630    -1.5460 O.2   1 <1>  -0.6500 
 21 C       11.6400    -2.3320    -0.3370 C.3   1 <1>  -0.0550 
 22 C       13.1630    -2.1400    -0.4510 C.3   1 <1>  -0.2400 
 23 H        3.1500    -0.7770    -1.2460 H     1 <1>   0.1500 
 24 H        0.0690    -4.3520     0.2040 H     1 <1>   0.1500 
 25 H        2.4970    -4.7420     0.2280 H     1 <1>   0.1500 
 26 H        4.9080    -2.3350    -1.1260 H     1 <1>   0.3700 
 27 H        6.8900    -3.1110    -0.8620 H     1 <1>   0.0800 
 28 H        6.7340    -5.5300    -1.3030 H     1 <1>   0.0800 
 29 H        7.0860    -5.8510     0.3610 H     1 <1>   0.0800 
 30 H        7.0240    -3.5870     2.0940 H     1 <1>   0.0800 
 31 H        7.4340    -2.1690     1.1910 H     1 <1>   0.0800 
 32 H        8.9110    -5.0880    -1.8100 H     1 <1>   0.0800 
 33 H        9.2290    -6.0050    -0.3650 H     1 <1>   0.0800 
 34 H        9.0580    -4.5940     1.7770 H     1 <1>   0.0800 
 35 H        9.5470    -2.9250     1.6820 H     1 <1>   0.0800 
 36 H       11.3000    -1.8280     0.5470 H     1 <1>   0.0800 
 37 H       11.1720    -1.8600    -1.1790 H     1 <1>   0.0800 
 38 H       13.6570    -2.5840     0.3960 H     1 <1>   0.0800 
 39 H       13.4070    -1.0930    -0.4860 H     1 <1>   0.0800 
 40 H       13.5280    -2.6110    -1.3470 H     1 <1>   0.0800 
@<TRIPOS>BOND
  1   1   2  1   
  2   2   3  ar  
  3   2   4  ar  
  4   3   5  1   
  5   3   6  ar  
  6   4   7  ar  
  7   4  23  1   
  8   6   8  ar  
  9   6  24  1   
 10   7   8  ar  
 11   7   9  1   
 12   8  25  1   
 13   9  10  am  
 14   9  26  1   
 15  10  11  2   
 16  10  12  1   
 17  12  13  1   
 18  12  14  1   
 19  12  27  1   
 20  13  15  1   
 21  13  28  1   
 22  13  29  1   
 23  14  16  1   
 24  14  30  1   
 25  14  31  1   
 26  15  17  1   
 27  15  32  1   
 28  15  33  1   
 29  16  17  1   
 30  16  34  1   
 31  16  35  1   
 32  17  18  am  
 33  18  19  2   
 34  18  20  2   
 35  18  21  1   
 36  21  22  1   
 37  21  36  1   
 38  21  37  1   
 39  22  38  1   
 40  22  39  1   
 41  22  40  1   
@<TRIPOS>SUBSTRUCTURE
  1 ****  12 GROUP 4 **** **** 0

# MOE 2024.06 (io_trps.svl 2023.06)
