@<TRIPOS>MOLECULE
NONAME
46 49 1 0 0 
SMALL
USER_CHARGES


@<TRIPOS>ATOM
  1 O        0.4650    -1.1630     0.2270 O.2   1 <1>  -0.5700 
  2 C        1.4290    -1.7830     0.6580 C.2   1 <1>   0.6160 
  3 N        2.6730    -1.6500     0.0540 N.am  1 <1>  -0.4690 
  4 C        1.3080    -2.6410     1.7830 C.2   1 <1>  -0.1360 
  5 C        3.7850    -2.3020     0.5880 C.2   1 <1>  -0.0290 
  6 C        2.7200    -0.9620    -1.2760 C.3   1 <1>   0.1400 
  7 C        2.3830    -3.3030     2.2820 C.2   1 <1>  -0.1500 
  8 C        3.6450    -3.1190     1.6690 C.2   1 <1>  -0.1500 
  9 C        5.1690    -2.0770    -0.0310 C.3   1 <1>   0.0580 
 10 C        4.1400    -0.4880    -1.6020 C.3   1 <1>  -0.0800 
 11 C        5.8840    -0.9560     0.7520 C.3   1 <1>   0.3430 
 12 C        5.0580    -1.7190    -1.5150 C.3   1 <1>  -0.1600 
 13 C        4.4830     0.6420    -0.6010 C.3   1 <1>   0.3430 
 14 N        5.7610     0.4280     0.1500 N.4   1 <1>  -0.9590 
 15 C        6.9500     0.7950    -0.6740 C.3   1 <1>   0.4860 
 16 C        8.1790     0.8350     0.2100 C.ar  1 <1>  -0.1440 
 17 C        9.0760    -0.2270     0.1830 C.ar  1 <1>   0.0820 
 18 C        8.4160     1.9220     1.0380 C.ar  1 <1>  -0.1500 
 19 O        8.7880    -1.2650    -0.6450 O.3   1 <1>  -0.3620 
 20 C       10.2070    -0.1920     0.9950 C.ar  1 <1>  -0.1500 
 21 C        9.5410     1.9490     1.8420 C.ar  1 <1>  -0.1500 
 22 C        9.7470    -2.2690    -0.9150 C.3   1 <1>   0.0400 
 23 C       10.4340     0.8930     1.8210 C.ar  1 <1>  -0.1500 
 24 H        0.3260    -2.7350     2.2070 H     1 <1>   0.1500 
 25 H        2.0460    -0.1210    -1.2800 H     1 <1>   0.0800 
 26 H        2.3800    -1.6550    -2.0270 H     1 <1>   0.0800 
 27 H        2.3040    -3.9610     3.1310 H     1 <1>   0.1500 
 28 H        4.4800    -3.6470     2.0980 H     1 <1>   0.1500 
 29 H        5.7440    -2.9810     0.0770 H     1 <1>   0.0800 
 30 H        4.1450    -0.0940    -2.6030 H     1 <1>   0.0800 
 31 H        6.9240    -1.2160     0.8460 H     1 <1>   0.0800 
 32 H        5.4760    -0.9440     1.7500 H     1 <1>   0.0800 
 33 H        4.6300    -2.5460    -2.0590 H     1 <1>   0.0800 
 34 H        6.0270    -1.5280    -1.9370 H     1 <1>   0.0800 
 35 H        3.6800     0.7040     0.1180 H     1 <1>   0.0800 
 36 H        4.5140     1.5860    -1.1220 H     1 <1>   0.0800 
 37 H        5.7800     1.0820     0.9410 H     1 <1>   0.4500 
 38 H        6.8080     1.7680    -1.1150 H     1 <1>   0.0800 
 39 H        7.0970     0.0860    -1.4700 H     1 <1>   0.0800 
 40 H        7.7410     2.7610     1.0650 H     1 <1>   0.1500 
 41 H       10.9200    -0.9960     1.0020 H     1 <1>   0.1500 
 42 H        9.7280     2.7940     2.4850 H     1 <1>   0.1500 
 43 H        9.3460    -2.9290    -1.6630 H     1 <1>   0.0800 
 44 H        9.9460    -2.8200    -0.0130 H     1 <1>   0.0800 
 45 H       10.6460    -1.8050    -1.2850 H     1 <1>   0.0800 
 46 H       11.3100     0.9190     2.4480 H     1 <1>   0.1500 
@<TRIPOS>BOND
  1   1   2  2   
  2   2   3  am  
  3   2   4  1   
  4   3   5  1   
  5   3   6  1   
  6   4   7  2   
  7   4  24  1   
  8   5   8  2   
  9   5   9  1   
 10   6  10  1   
 11   6  25  1   
 12   6  26  1   
 13   7   8  1   
 14   7  27  1   
 15   8  28  1   
 16   9  11  1   
 17   9  12  1   
 18   9  29  1   
 19  10  12  1   
 20  10  13  1   
 21  10  30  1   
 22  11  14  1   
 23  11  31  1   
 24  11  32  1   
 25  12  33  1   
 26  12  34  1   
 27  13  14  1   
 28  13  35  1   
 29  13  36  1   
 30  14  15  1   
 31  14  37  1   
 32  15  16  1   
 33  15  38  1   
 34  15  39  1   
 35  16  17  ar  
 36  16  18  ar  
 37  17  19  1   
 38  17  20  ar  
 39  18  21  ar  
 40  18  40  1   
 41  19  22  1   
 42  20  23  ar  
 43  20  41  1   
 44  21  23  ar  
 45  21  42  1   
 46  22  43  1   
 47  22  44  1   
 48  22  45  1   
 49  23  46  1   
@<TRIPOS>SUBSTRUCTURE
  1 ****  11 GROUP 4 **** **** 0

# MOE 2024.06 (io_trps.svl 2023.06)
