@<TRIPOS>MOLECULE
NONAME
43 45 1 0 0 
SMALL
USER_CHARGES


@<TRIPOS>ATOM
  1 F       -0.4740    -1.0590    -0.2130 F     1 <1>  -0.1900 
  2 C       -1.6940    -1.5120    -0.1220 C.ar  1 <1>   0.1900 
  3 C       -2.4370    -1.6640    -1.2770 C.ar  1 <1>  -0.1500 
  4 C       -2.1990    -1.8250     1.1240 C.ar  1 <1>  -0.1500 
  5 C       -3.7330    -2.1410    -1.1760 C.ar  1 <1>  -0.1500 
  6 C       -3.4960    -2.3030     1.2160 C.ar  1 <1>  -0.1500 
  7 C       -4.2690    -2.4560     0.0690 C.ar  1 <1>  -0.1430 
  8 C       -5.6950    -2.9650     0.1730 C.3   1 <1>   0.4870 
  9 N       -6.5540    -1.8730     0.7050 N.4   1 <1>  -0.9590 
 10 C       -7.9490    -2.3550     1.0150 C.3   1 <1>   0.3430 
 11 C       -6.5900    -0.6800    -0.2210 C.3   1 <1>   0.3430 
 12 C       -8.8490    -1.2430     1.5950 C.3   1 <1>   0.2090 
 13 C       -7.4600     0.4730     0.3230 C.3   1 <1>   0.2090 
 14 N       -8.8030    -0.0080     0.7620 N.pl3 1 <1>  -0.8380 
 15 C       -9.8930     0.2560    -0.0650 C.ar  1 <1>   0.1000 
 16 C      -10.8440     1.2140     0.2880 C.ar  1 <1>  -0.1430 
 17 C      -10.0500    -0.4400    -1.2610 C.ar  1 <1>  -0.1500 
 18 C      -11.9220     1.4570    -0.5470 C.ar  1 <1>  -0.1500 
 19 C      -10.7120     2.0000     1.5850 C.3   1 <1>  -0.0970 
 20 C      -11.1270    -0.1930    -2.0900 C.ar  1 <1>  -0.1500 
 21 C      -12.0660     0.7580    -1.7330 C.ar  1 <1>  -0.1500 
 22 H       -2.0000    -1.4140    -2.2290 H     1 <1>   0.1500 
 23 H       -1.5820    -1.6990     1.9970 H     1 <1>   0.1500 
 24 H       -4.3090    -2.2660    -2.0790 H     1 <1>   0.1500 
 25 H       -3.8840    -2.5550     2.1890 H     1 <1>   0.1500 
 26 H       -5.7200    -3.8150     0.8360 H     1 <1>   0.0800 
 27 H       -6.0470    -3.2780    -0.7970 H     1 <1>   0.0800 
 28 H       -6.1250    -1.5480     1.5800 H     1 <1>   0.4500 
 29 H       -7.9120    -3.1710     1.7170 H     1 <1>   0.0800 
 30 H       -8.4140    -2.7180     0.1130 H     1 <1>   0.0800 
 31 H       -6.9900    -0.9760    -1.1760 H     1 <1>   0.0800 
 32 H       -5.5910    -0.3090    -0.3850 H     1 <1>   0.0800 
 33 H       -8.5350    -1.0020     2.5960 H     1 <1>   0.0800 
 34 H       -9.8650    -1.5970     1.6510 H     1 <1>   0.0800 
 35 H       -7.5820     1.2210    -0.4430 H     1 <1>   0.0800 
 36 H       -6.9660     0.9410     1.1560 H     1 <1>   0.0800 
 37 H       -9.3300    -1.1780    -1.5470 H     1 <1>   0.1500 
 38 H      -12.6590     2.1940    -0.2820 H     1 <1>   0.1500 
 39 H      -10.7310     1.3270     2.4220 H     1 <1>   0.0800 
 40 H      -11.5130     2.7080     1.6960 H     1 <1>   0.0800 
 41 H       -9.7800     2.5350     1.5920 H     1 <1>   0.0800 
 42 H      -11.2410    -0.7340    -3.0130 H     1 <1>   0.1500 
 43 H      -12.9070     0.9550    -2.3750 H     1 <1>   0.1500 
@<TRIPOS>BOND
  1   1   2  1   
  2   2   3  ar  
  3   2   4  ar  
  4   3   5  ar  
  5   3  22  1   
  6   4   6  ar  
  7   4  23  1   
  8   5   7  ar  
  9   5  24  1   
 10   6   7  ar  
 11   6  25  1   
 12   7   8  1   
 13   8   9  1   
 14   8  26  1   
 15   8  27  1   
 16   9  10  1   
 17   9  11  1   
 18   9  28  1   
 19  10  12  1   
 20  10  29  1   
 21  10  30  1   
 22  11  13  1   
 23  11  31  1   
 24  11  32  1   
 25  12  14  1   
 26  12  33  1   
 27  12  34  1   
 28  13  14  1   
 29  13  35  1   
 30  13  36  1   
 31  14  15  1   
 32  15  16  ar  
 33  15  17  ar  
 34  16  18  ar  
 35  16  19  1   
 36  17  20  ar  
 37  17  37  1   
 38  18  21  ar  
 39  18  38  1   
 40  19  39  1   
 41  19  40  1   
 42  19  41  1   
 43  20  21  ar  
 44  20  42  1   
 45  21  43  1   
@<TRIPOS>SUBSTRUCTURE
  1 ****  11 GROUP 4 **** **** 0

# MOE 2024.06 (io_trps.svl 2023.06)
