@<TRIPOS>MOLECULE
NONAME
46 48 1 0 0 
SMALL
USER_CHARGES


@<TRIPOS>ATOM
  1 CL      -0.5580    -2.1200    -1.8800 Cl    1 <1>  -0.1770 
  2 C        0.6680    -2.9180    -0.9270 C.ar  1 <1>   0.1770 
  3 C        0.4050    -3.3890     0.3500 C.ar  1 <1>  -0.0090 
  4 C        1.9150    -3.0610    -1.5070 C.ar  1 <1>  -0.1500 
  5 S       -1.2290    -3.2110     1.1010 S.o2  1 <1>   1.4470 
  6 C        1.4440    -4.0160     1.0280 C.ar  1 <1>  -0.1500 
  7 C        2.9280    -3.6910    -0.8100 C.ar  1 <1>  -0.1500 
  8 O       -1.6380    -1.8250     1.0500 O.2   1 <1>  -0.6500 
  9 O       -1.2460    -3.8870     2.3820 O.2   1 <1>  -0.6500 
 10 N       -2.2300    -4.1130     0.0700 N.am  1 <1>  -0.8490 
 11 C        2.7140    -4.1910     0.4760 C.ar  1 <1>   0.0860 
 12 C       -2.1210    -5.5560     0.3040 C.3   1 <1>   0.1960 
 13 C       -3.6240    -3.6660     0.1340 C.3   1 <1>   0.1960 
 14 C        3.7610    -4.8690     1.2200 C.2   1 <1>   0.5440 
 15 C       -2.8900    -6.3250    -0.7740 C.3   1 <1>  -0.1600 
 16 C       -4.4590    -4.3780    -0.9360 C.3   1 <1>  -0.1600 
 17 O        3.7530    -4.8880     2.4340 O.2   1 <1>  -0.5700 
 18 N        4.7720    -5.5100     0.5740 N.am  1 <1>  -0.7300 
 19 C       -4.3630    -5.9030    -0.8100 C.3   1 <1>  -0.1600 
 20 C        5.9690    -6.1040     1.2050 C.3   1 <1>   0.2840 
 21 C        7.1870    -5.8340     0.3250 C.ar  1 <1>   0.1670 
 22 N        7.0660    -6.1090    -0.9710 N.ar  1 <1>  -0.6200 
 23 C        8.3400    -5.3180     0.9000 C.ar  1 <1>  -0.1500 
 24 C        8.1370    -5.8670    -1.7110 C.ar  1 <1>   0.1600 
 25 C        9.4450    -5.0700     0.1150 C.ar  1 <1>  -0.1500 
 26 C        9.3300    -5.3580    -1.2280 C.ar  1 <1>  -0.1500 
 27 H        2.0850    -2.6780    -2.4980 H     1 <1>   0.1500 
 28 H        1.2690    -4.3880     2.0260 H     1 <1>   0.1500 
 29 H        3.8970    -3.7890    -1.2680 H     1 <1>   0.1500 
 30 H       -2.5150    -5.8020     1.2770 H     1 <1>   0.0800 
 31 H       -1.0860    -5.8530     0.2750 H     1 <1>   0.0800 
 32 H       -3.6770    -2.6050    -0.0450 H     1 <1>   0.0800 
 33 H       -4.0260    -3.8630     1.1150 H     1 <1>   0.0800 
 34 H       -2.8210    -7.3810    -0.5790 H     1 <1>   0.0800 
 35 H       -2.4330    -6.1350    -1.7300 H     1 <1>   0.0800 
 36 H       -4.1070    -4.0700    -1.9050 H     1 <1>   0.0800 
 37 H       -5.4860    -4.0700    -0.8490 H     1 <1>   0.0800 
 38 H        4.8410    -5.5260    -0.4480 H     1 <1>   0.3700 
 39 H       -4.8490    -6.2180     0.0980 H     1 <1>   0.0800 
 40 H       -4.8630    -6.3730    -1.6390 H     1 <1>   0.0800 
 41 H        5.8280    -7.1660     1.2940 H     1 <1>   0.0800 
 42 H        6.1110    -5.6910     2.1880 H     1 <1>   0.0800 
 43 H        8.3760    -5.1100     1.9550 H     1 <1>   0.1500 
 44 H        8.0620    -6.0880    -2.7620 H     1 <1>   0.1500 
 45 H       10.3540    -4.6710     0.5300 H     1 <1>   0.1500 
 46 H       10.1550    -5.1890    -1.8960 H     1 <1>   0.1500 
@<TRIPOS>BOND
  1   1   2  1   
  2   2   3  ar  
  3   2   4  ar  
  4   3   5  1   
  5   3   6  ar  
  6   4   7  ar  
  7   4  27  1   
  8   5   8  2   
  9   5   9  2   
 10   5  10  am  
 11   6  11  ar  
 12   6  28  1   
 13   7  11  ar  
 14   7  29  1   
 15  10  12  1   
 16  10  13  1   
 17  11  14  1   
 18  12  15  1   
 19  12  30  1   
 20  12  31  1   
 21  13  16  1   
 22  13  32  1   
 23  13  33  1   
 24  14  17  2   
 25  14  18  am  
 26  15  19  1   
 27  15  34  1   
 28  15  35  1   
 29  16  19  1   
 30  16  36  1   
 31  16  37  1   
 32  18  20  1   
 33  18  38  1   
 34  19  39  1   
 35  19  40  1   
 36  20  21  1   
 37  20  41  1   
 38  20  42  1   
 39  21  22  ar  
 40  21  23  ar  
 41  22  24  ar  
 42  23  25  ar  
 43  23  43  1   
 44  24  26  ar  
 45  24  44  1   
 46  25  26  ar  
 47  25  45  1   
 48  26  46  1   
@<TRIPOS>SUBSTRUCTURE
  1 ****  11 GROUP 4 **** **** 0

# MOE 2024.06 (io_trps.svl 2023.06)
