@<TRIPOS>MOLECULE
NONAME
40 42 1 0 0 
SMALL
USER_CHARGES


@<TRIPOS>ATOM
  1 S       -0.0950    -0.4560    -0.2640 S.o2  1 <1>   1.0900 
  2 O        0.1420    -1.6320     0.5400 O.2   1 <1>  -0.6500 
  3 O        0.7380    -0.1370    -1.3990 O.2   1 <1>  -0.6500 
  4 C       -1.7920    -0.4280    -0.7860 C.3   1 <1>  -0.0550 
  5 C       -0.2260     0.9620     0.8050 C.3   1 <1>  -0.0550 
  6 C       -2.5930     0.3990     0.2350 C.3   1 <1>   0.3000 
  7 C       -1.6360     1.5420     0.6420 C.3   1 <1>  -0.1600 
  8 N       -3.8920     0.9290    -0.3350 N.am  1 <1>  -0.6600 
  9 C       -2.9480    -0.4840     1.4430 C.3   1 <1>  -0.2400 
 10 C       -4.7460     1.7210     0.4250 C.2   1 <1>   0.6160 
 11 C       -4.3970     0.3030    -1.6050 C.3   1 <1>   0.0600 
 12 O       -4.2880     2.4700     1.2650 O.2   1 <1>  -0.5700 
 13 C       -6.1720     1.7420     0.2430 C.2   1 <1>   0.0290 
 14 C       -6.8910     0.5140     0.4410 C.2   1 <1>   0.7060 
 15 C       -6.8580     2.8730    -0.0750 C.2   1 <1>  -0.1780 
 16 O       -6.3740    -0.5480     0.7220 O.2   1 <1>  -0.5700 
 17 O       -8.2200     0.5190     0.2860 O.3   1 <1>  -0.2330 
 18 C       -8.2710     2.8420    -0.2350 C.ar  1 <1>   0.0280 
 19 C       -8.9260     1.6210    -0.0430 C.ar  1 <1>   0.0820 
 20 C       -9.0350     3.9600    -0.5720 C.ar  1 <1>  -0.1500 
 21 C      -10.3020     1.5240    -0.1860 C.ar  1 <1>  -0.1500 
 22 C      -10.4050     3.8600    -0.7140 C.ar  1 <1>  -0.1500 
 23 C      -11.0420     2.6410    -0.5210 C.ar  1 <1>  -0.1500 
 24 H       -2.1810    -1.4230    -0.8860 H     1 <1>   0.0800 
 25 H       -1.8140     0.0630    -1.7370 H     1 <1>   0.0800 
 26 H        0.5200     1.6980     0.5700 H     1 <1>   0.0800 
 27 H       -0.0880     0.6490     1.8230 H     1 <1>   0.0800 
 28 H       -1.6230     2.2810    -0.1400 H     1 <1>   0.0800 
 29 H       -1.9280     2.0160     1.5620 H     1 <1>   0.0800 
 30 H       -2.0770    -0.9460     1.8710 H     1 <1>   0.0800 
 31 H       -3.6260    -1.2650     1.1470 H     1 <1>   0.0800 
 32 H       -3.4170     0.0990     2.2160 H     1 <1>   0.0800 
 33 H       -3.7280     0.5150    -2.4200 H     1 <1>   0.0800 
 34 H       -5.3590     0.6930    -1.8850 H     1 <1>   0.0800 
 35 H       -4.4880    -0.7630    -1.4780 H     1 <1>   0.0800 
 36 H       -6.3520     3.8150    -0.2060 H     1 <1>   0.1500 
 37 H       -8.5490     4.9080    -0.7210 H     1 <1>   0.1500 
 38 H      -10.7860     0.5750    -0.0330 H     1 <1>   0.1500 
 39 H      -10.9860     4.7280    -0.9740 H     1 <1>   0.1500 
 40 H      -12.1100     2.5700    -0.6330 H     1 <1>   0.1500 
@<TRIPOS>BOND
  1   1   2  2   
  2   1   3  2   
  3   1   4  1   
  4   1   5  1   
  5   4   6  1   
  6   4  24  1   
  7   4  25  1   
  8   5   7  1   
  9   5  26  1   
 10   5  27  1   
 11   6   7  1   
 12   6   8  1   
 13   6   9  1   
 14   7  28  1   
 15   7  29  1   
 16   8  10  am  
 17   8  11  1   
 18   9  30  1   
 19   9  31  1   
 20   9  32  1   
 21  10  12  2   
 22  10  13  1   
 23  11  33  1   
 24  11  34  1   
 25  11  35  1   
 26  13  14  1   
 27  13  15  2   
 28  14  16  2   
 29  14  17  1   
 30  15  18  1   
 31  15  36  1   
 32  17  19  1   
 33  18  19  ar  
 34  18  20  ar  
 35  19  21  ar  
 36  20  22  ar  
 37  20  37  1   
 38  21  23  ar  
 39  21  38  1   
 40  22  23  ar  
 41  22  39  1   
 42  23  40  1   
@<TRIPOS>SUBSTRUCTURE
  1 ****  10 GROUP 4 **** **** 0

# MOE 2024.06 (io_trps.svl 2023.06)
