@<TRIPOS>MOLECULE
NONAME
53 57 1 0 0 
SMALL
USER_CHARGES


@<TRIPOS>ATOM
  1 O       -1.0280     0.2460     1.7970 O.2   1 <1>  -0.5700 
  2 C       -0.6250    -0.4570     0.8830 C.2   1 <1>   0.7150 
  3 N       -0.3670     0.1850    -0.3070 N.am  1 <1>  -0.6600 
  4 C       -0.5400    -1.8930     1.0180 C.2   1 <1>   0.0550 
  5 C        0.2200     1.5640    -0.2760 C.3   1 <1>   0.1400 
  6 C       -1.3820     0.0310    -1.3870 C.3   1 <1>   0.1400 
  7 O       -0.2660    -2.6700    -0.0270 O.3   1 <1>  -0.2800 
  8 C       -0.7120    -2.6900     2.1100 C.2   1 <1>  -0.1500 
  9 C       -0.8750     2.6540    -0.3720 C.3   1 <1>   0.3430 
 10 C       -2.5550     1.0210    -1.1690 C.3   1 <1>   0.3430 
 11 C       -0.2540    -3.9230     0.3640 C.2   1 <1>  -0.0400 
 12 C       -0.5260    -4.0040     1.6840 C.2   1 <1>  -0.1500 
 13 N       -2.2440     2.0740    -0.1240 N.4   1 <1>  -0.9590 
 14 C        0.0450    -5.0050    -0.6490 C.3   1 <1>  -0.0600 
 15 C       -3.3350     3.0560     0.1520 C.3   1 <1>   0.5030 
 16 C       -2.9590     3.9140     1.3830 C.3   1 <1>  -0.1600 
 17 C       -4.6460     2.3030     0.4750 C.3   1 <1>  -0.1600 
 18 C       -3.5730     3.9850    -1.0580 C.3   1 <1>  -0.1600 
 19 C       -4.0800     4.9170     1.7070 C.3   1 <1>  -0.0800 
 20 C       -5.7780     3.2960     0.7940 C.3   1 <1>  -0.0800 
 21 C       -4.7010     4.9880    -0.7420 C.3   1 <1>  -0.0800 
 22 C       -5.3770     4.1480     2.0110 C.3   1 <1>  -0.1600 
 23 C       -4.3060     5.8300     0.4860 C.3   1 <1>  -0.1600 
 24 C       -5.9950     4.2170    -0.4220 C.3   1 <1>  -0.1600 
 25 H        0.9200     1.6770    -1.0860 H     1 <1>   0.0800 
 26 H        0.7700     1.6970     0.6400 H     1 <1>   0.0800 
 27 H       -1.7580    -0.9780    -1.4080 H     1 <1>   0.0800 
 28 H       -0.9170     0.2200    -2.3400 H     1 <1>   0.0800 
 29 H       -0.9460    -2.3840     3.1150 H     1 <1>   0.1500 
 30 H       -0.8440     3.1050    -1.3490 H     1 <1>   0.0800 
 31 H       -0.6470     3.4200     0.3490 H     1 <1>   0.0800 
 32 H       -3.4140     0.4510    -0.8580 H     1 <1>   0.0800 
 33 H       -2.7990     1.4890    -2.1080 H     1 <1>   0.0800 
 34 H       -0.5890    -4.8810     2.3040 H     1 <1>   0.1500 
 35 H       -2.1160     1.5390     0.7580 H     1 <1>   0.4500 
 36 H       -0.6870    -4.9830    -1.4350 H     1 <1>   0.0800 
 37 H        0.0240    -5.9710    -0.1790 H     1 <1>   0.0800 
 38 H        1.0200    -4.8460    -1.0740 H     1 <1>   0.0800 
 39 H       -2.0660     4.4810     1.2040 H     1 <1>   0.0800 
 40 H       -2.7940     3.2810     2.2370 H     1 <1>   0.0800 
 41 H       -4.5000     1.6530     1.3200 H     1 <1>   0.0800 
 42 H       -4.9700     1.7100    -0.3590 H     1 <1>   0.0800 
 43 H       -2.6810     4.5380    -1.2910 H     1 <1>   0.0800 
 44 H       -3.8550     3.4130    -1.9220 H     1 <1>   0.0800 
 45 H       -3.8060     5.5140     2.5610 H     1 <1>   0.0800 
 46 H       -6.6880     2.7620     1.0120 H     1 <1>   0.0800 
 47 H       -4.8650     5.6360    -1.5870 H     1 <1>   0.0800 
 48 H       -5.2390     3.5180     2.8730 H     1 <1>   0.0800 
 49 H       -6.1660     4.8430     2.2440 H     1 <1>   0.0800 
 50 H       -3.4130     6.3940     0.2760 H     1 <1>   0.0800 
 51 H       -5.0860     6.5390     0.7050 H     1 <1>   0.0800 
 52 H       -6.7880     4.9140    -0.2100 H     1 <1>   0.0800 
 53 H       -6.3000     3.6370    -1.2750 H     1 <1>   0.0800 
@<TRIPOS>BOND
  1   1   2  2   
  2   2   3  am  
  3   2   4  1   
  4   3   5  1   
  5   3   6  1   
  6   4   7  1   
  7   4   8  2   
  8   5   9  1   
  9   5  25  1   
 10   5  26  1   
 11   6  10  1   
 12   6  27  1   
 13   6  28  1   
 14   7  11  1   
 15   8  12  1   
 16   8  29  1   
 17   9  13  1   
 18   9  30  1   
 19   9  31  1   
 20  10  13  1   
 21  10  32  1   
 22  10  33  1   
 23  11  12  2   
 24  11  14  1   
 25  12  34  1   
 26  13  15  1   
 27  13  35  1   
 28  14  36  1   
 29  14  37  1   
 30  14  38  1   
 31  15  16  1   
 32  15  17  1   
 33  15  18  1   
 34  16  19  1   
 35  16  39  1   
 36  16  40  1   
 37  17  20  1   
 38  17  41  1   
 39  17  42  1   
 40  18  21  1   
 41  18  43  1   
 42  18  44  1   
 43  19  22  1   
 44  19  23  1   
 45  19  45  1   
 46  20  22  1   
 47  20  24  1   
 48  20  46  1   
 49  21  23  1   
 50  21  24  1   
 51  21  47  1   
 52  22  48  1   
 53  22  49  1   
 54  23  50  1   
 55  23  51  1   
 56  24  52  1   
 57  24  53  1   
@<TRIPOS>SUBSTRUCTURE
  1 ****  13 GROUP 4 **** **** 0

# MOE 2024.06 (io_trps.svl 2023.06)
