@<TRIPOS>MOLECULE
NONAME
33 33 1 0 0 
SMALL
USER_CHARGES


@<TRIPOS>ATOM
  1 F        0.5780    -1.8750     2.4560 F     1 <1>  -0.3400 
  2 C       -0.3460    -1.9150     1.5040 C.3   1 <1>   1.0200 
  3 F       -0.5680    -0.6470     1.1830 F     1 <1>  -0.3400 
  4 F       -1.4490    -2.3170     2.1160 F     1 <1>  -0.3400 
  5 C        0.0260    -2.7460     0.2800 C.3   1 <1>   0.0610 
  6 C        1.3160    -2.1360    -0.2770 C.2   1 <1>   0.5690 
  7 C        0.3450    -4.1660     0.7410 C.3   1 <1>   1.0200 
  8 C       -1.1000    -2.7160    -0.8370 C.3   1 <1>  -0.1600 
  9 O        1.2860    -1.6860    -1.3950 O.2   1 <1>  -0.5700 
 10 N        2.4820    -2.0800     0.4420 N.am  1 <1>  -0.5470 
 11 F        0.6880    -4.9420    -0.2760 F     1 <1>  -0.3400 
 12 F        1.3470    -4.2640     1.6070 F     1 <1>  -0.3400 
 13 F       -0.6700    -4.7850     1.3260 F     1 <1>  -0.3400 
 14 C       -2.4870    -3.3170    -0.5410 C.3   1 <1>  -0.2400 
 15 C        3.7270    -1.6340     0.0480 C.ar  1 <1>   0.4270 
 16 N        4.6610    -2.5500     0.2440 N.ar  1 <1>  -0.6200 
 17 C        3.9840    -0.3490    -0.4530 C.ar  1 <1>  -0.1430 
 18 C        5.8880    -2.2150    -0.1140 C.ar  1 <1>   0.1600 
 19 C        5.2730    -0.0270    -0.8190 C.ar  1 <1>  -0.1500 
 20 C        2.9110     0.7260    -0.5960 C.3   1 <1>  -0.0970 
 21 C        6.2430    -0.9910    -0.6470 C.ar  1 <1>  -0.1500 
 22 H       -0.7240    -3.2230    -1.7120 H     1 <1>   0.0800 
 23 H       -1.2590    -1.6920    -1.1350 H     1 <1>   0.0800 
 24 H        2.5780    -2.6900     1.2550 H     1 <1>   0.3700 
 25 H       -2.4330    -4.3720    -0.3400 H     1 <1>   0.0800 
 26 H       -3.1140    -3.1920    -1.4070 H     1 <1>   0.0800 
 27 H       -2.9770    -2.8230     0.2790 H     1 <1>   0.0800 
 28 H        6.6540    -2.9580     0.0250 H     1 <1>   0.1500 
 29 H        5.5230     0.9390    -1.2220 H     1 <1>   0.1500 
 30 H        3.3440     1.7060    -0.5140 H     1 <1>   0.0800 
 31 H        2.4360     0.6430    -1.5580 H     1 <1>   0.0800 
 32 H        2.1650     0.6290     0.1710 H     1 <1>   0.0800 
 33 H        7.2650    -0.7930    -0.9180 H     1 <1>   0.1500 
@<TRIPOS>BOND
  1   1   2  1   
  2   2   3  1   
  3   2   4  1   
  4   2   5  1   
  5   5   6  1   
  6   5   7  1   
  7   5   8  1   
  8   6   9  2   
  9   6  10  am  
 10   7  11  1   
 11   7  12  1   
 12   7  13  1   
 13   8  14  1   
 14   8  22  1   
 15   8  23  1   
 16  10  15  1   
 17  10  24  1   
 18  14  25  1   
 19  14  26  1   
 20  14  27  1   
 21  15  16  ar  
 22  15  17  ar  
 23  16  18  ar  
 24  17  19  ar  
 25  17  20  1   
 26  18  21  ar  
 27  18  28  1   
 28  19  21  ar  
 29  19  29  1   
 30  20  30  1   
 31  20  31  1   
 32  20  32  1   
 33  21  33  1   
@<TRIPOS>SUBSTRUCTURE
  1 ****   6 GROUP 4 **** **** 0

# MOE 2024.06 (io_trps.svl 2023.06)
