@<TRIPOS>MOLECULE
NONAME
42 43 1 0 0 
SMALL
USER_CHARGES


@<TRIPOS>ATOM
  1 O        0.0130     0.8520    -0.4800 O.2   1 <1>  -0.5700 
  2 C        0.9250     1.5520    -0.8390 C.2   1 <1>   0.5690 
  3 N        0.7340     2.4600    -1.8170 N.am  1 <1>  -0.8000 
  4 C        2.2890     1.3940    -0.1770 C.3   1 <1>   0.1810 
  5 O        3.2400     2.3030    -0.7200 O.3   1 <1>  -0.3630 
  6 C        4.5240     2.3220    -0.2910 C.ar  1 <1>   0.0830 
  7 C        5.3590     3.2620    -0.8720 C.ar  1 <1>  -0.1500 
  8 C        5.0320     1.4640     0.6800 C.ar  1 <1>  -0.1500 
  9 C        6.6880     3.3480    -0.5020 C.ar  1 <1>  -0.1500 
 10 C        6.3630     1.5480     1.0510 C.ar  1 <1>  -0.1500 
 11 C        7.1980     2.4850     0.4580 C.ar  1 <1>  -0.1430 
 12 C        8.6570     2.5570     0.8410 C.3   1 <1>   0.4860 
 13 N        9.3740     1.6910    -0.1160 N.4   1 <1>  -0.9060 
 14 C       10.8240     1.5760     0.1140 C.3   1 <1>   0.4230 
 15 C       11.5190     2.9030    -0.2230 C.3   1 <1>  -0.1600 
 16 C       11.3550     0.4380    -0.7630 C.3   1 <1>  -0.1600 
 17 C       13.0450     2.7760    -0.0970 C.3   1 <1>  -0.1600 
 18 C       12.8790     0.3030    -0.6340 C.3   1 <1>  -0.1600 
 19 C       13.5810     1.6270    -0.9610 C.3   1 <1>  -0.1600 
 20 H       -0.1810     2.5620    -2.2570 H     1 <1>   0.3700 
 21 H        1.4870     3.0700    -2.1410 H     1 <1>   0.3700 
 22 H        2.6410     0.3930    -0.3390 H     1 <1>   0.0800 
 23 H        2.1950     1.5880     0.8750 H     1 <1>   0.0800 
 24 H        4.9560     3.9270    -1.6160 H     1 <1>   0.1500 
 25 H        4.4090     0.7300     1.1570 H     1 <1>   0.1500 
 26 H        7.3070     4.0940    -0.9700 H     1 <1>   0.1500 
 27 H        6.7310     0.8750     1.8070 H     1 <1>   0.1500 
 28 H        8.7940     2.2040     1.8510 H     1 <1>   0.0800 
 29 H        9.0070     3.5750     0.7740 H     1 <1>   0.0800 
 30 H        9.2000     2.0420    -1.0630 H     1 <1>   0.4500 
 31 H        8.9400     0.7630    -0.0790 H     1 <1>   0.4500 
 32 H       11.0150     1.3300     1.1470 H     1 <1>   0.0800 
 33 H       11.1940     3.6810     0.4450 H     1 <1>   0.0800 
 34 H       11.2850     3.1950    -1.2320 H     1 <1>   0.0800 
 35 H       11.1170     0.6260    -1.7960 H     1 <1>   0.0800 
 36 H       10.9040    -0.4940    -0.4700 H     1 <1>   0.0800 
 37 H       13.3130     2.6000     0.9320 H     1 <1>   0.0800 
 38 H       13.5130     3.6980    -0.4000 H     1 <1>   0.0800 
 39 H       13.2340    -0.4630    -1.3030 H     1 <1>   0.0800 
 40 H       13.1360     0.0020     0.3680 H     1 <1>   0.0800 
 41 H       14.6410     1.5210    -0.7990 H     1 <1>   0.0800 
 42 H       13.4370     1.8630    -2.0030 H     1 <1>   0.0800 
@<TRIPOS>BOND
  1   1   2  2   
  2   2   3  am  
  3   2   4  1   
  4   3  20  1   
  5   3  21  1   
  6   4   5  1   
  7   4  22  1   
  8   4  23  1   
  9   5   6  1   
 10   6   7  ar  
 11   6   8  ar  
 12   7   9  ar  
 13   7  24  1   
 14   8  10  ar  
 15   8  25  1   
 16   9  11  ar  
 17   9  26  1   
 18  10  11  ar  
 19  10  27  1   
 20  11  12  1   
 21  12  13  1   
 22  12  28  1   
 23  12  29  1   
 24  13  14  1   
 25  13  30  1   
 26  13  31  1   
 27  14  15  1   
 28  14  16  1   
 29  14  32  1   
 30  15  17  1   
 31  15  33  1   
 32  15  34  1   
 33  16  18  1   
 34  16  35  1   
 35  16  36  1   
 36  17  19  1   
 37  17  37  1   
 38  17  38  1   
 39  18  19  1   
 40  18  39  1   
 41  18  40  1   
 42  19  41  1   
 43  19  42  1   
@<TRIPOS>SUBSTRUCTURE
  1 ****  11 GROUP 4 **** **** 0

# MOE 2024.06 (io_trps.svl 2023.06)
