@<TRIPOS>MOLECULE
NONAME
49 51 1 0 0 
SMALL
USER_CHARGES


@<TRIPOS>ATOM
  1 F       -1.0120     0.1220     0.8930 F     1 <1>  -0.1900 
  2 C       -2.0620     0.8820     0.7090 C.ar  1 <1>   0.1900 
  3 C       -2.8230     0.7030    -0.4310 C.ar  1 <1>  -0.1500 
  4 C       -2.3710     1.8340     1.6620 C.ar  1 <1>  -0.1500 
  5 C       -3.9320     1.5100    -0.6190 C.ar  1 <1>  -0.1500 
  6 C       -3.4840     2.6320     1.4590 C.ar  1 <1>  -0.1500 
  7 C       -4.2720     2.4790     0.3230 C.ar  1 <1>   0.1000 
  8 N       -5.3810     3.2990     0.1540 N.pl3 1 <1>  -0.8380 
  9 C       -6.7090     2.6210     0.1900 C.3   1 <1>   0.2090 
 10 C       -5.3100     4.2720    -0.9740 C.3   1 <1>   0.2090 
 11 C       -7.8540     3.6500     0.2470 C.3   1 <1>   0.1100 
 12 C       -6.4710     5.2830    -0.9030 C.3   1 <1>   0.1100 
 13 N       -7.7950     4.6190    -0.8730 N.3   1 <1>  -0.8100 
 14 C       -8.8890     5.6330    -0.8370 C.3   1 <1>   0.1710 
 15 C      -10.3250     5.0900    -0.8720 C.2   1 <1>   0.5690 
 16 O      -10.9080     5.0490    -1.9290 O.2   1 <1>  -0.5700 
 17 N      -10.9050     4.7080     0.3050 N.am  1 <1>  -0.7300 
 18 C      -12.2500     4.1310     0.5170 C.3   1 <1>   0.2200 
 19 C      -12.3940     2.7940    -0.2190 C.3   1 <1>  -0.1600 
 20 C      -13.3470     5.1230     0.1120 C.3   1 <1>  -0.1600 
 21 C      -13.7880     2.1900     0.0100 C.3   1 <1>  -0.1600 
 22 C      -14.7420     4.5210     0.3420 C.3   1 <1>  -0.1600 
 23 C      -14.8920     3.1790    -0.3910 C.3   1 <1>  -0.1600 
 24 H       -2.5490    -0.0480    -1.1490 H     1 <1>   0.1500 
 25 H       -1.7570     1.9440     2.5370 H     1 <1>   0.1500 
 26 H       -4.5400     1.3930    -1.4960 H     1 <1>   0.1500 
 27 H       -3.7570     3.3840     2.1770 H     1 <1>   0.1500 
 28 H       -6.7570     1.9820     1.0540 H     1 <1>   0.0800 
 29 H       -6.8300     2.0110    -0.6880 H     1 <1>   0.0800 
 30 H       -5.3580     3.7460    -1.9120 H     1 <1>   0.0800 
 31 H       -4.3730     4.7990    -0.9300 H     1 <1>   0.0800 
 32 H       -7.8010     4.1720     1.1870 H     1 <1>   0.0800 
 33 H       -8.7840     3.1110     0.2050 H     1 <1>   0.0800 
 34 H       -6.4170     5.9270    -1.7630 H     1 <1>   0.0800 
 35 H       -6.3440     5.8860    -0.0210 H     1 <1>   0.0800 
 36 H       -8.7800     6.2770    -1.6920 H     1 <1>   0.0800 
 37 H       -8.7800     6.2430     0.0410 H     1 <1>   0.0800 
 38 H      -10.3450     4.7750     1.1530 H     1 <1>   0.3700 
 39 H      -12.3590     3.9380     1.5710 H     1 <1>   0.0800 
 40 H      -11.6440     2.1060     0.1270 H     1 <1>   0.0800 
 41 H      -12.2550     2.9450    -1.2750 H     1 <1>   0.0800 
 42 H      -13.2470     5.3690    -0.9300 H     1 <1>   0.0800 
 43 H      -13.2480     6.0270     0.6860 H     1 <1>   0.0800 
 44 H      -13.9010     1.9300     1.0490 H     1 <1>   0.0800 
 45 H      -13.8880     1.2880    -0.5690 H     1 <1>   0.0800 
 46 H      -15.4920     5.2080    -0.0110 H     1 <1>   0.0800 
 47 H      -14.9000     4.3720     1.3960 H     1 <1>   0.0800 
 48 H      -15.8560     2.7540    -0.1710 H     1 <1>   0.0800 
 49 H      -14.8430     3.3510    -1.4530 H     1 <1>   0.0800 
@<TRIPOS>BOND
  1   1   2  1   
  2   2   3  ar  
  3   2   4  ar  
  4   3   5  ar  
  5   3  24  1   
  6   4   6  ar  
  7   4  25  1   
  8   5   7  ar  
  9   5  26  1   
 10   6   7  ar  
 11   6  27  1   
 12   7   8  1   
 13   8   9  1   
 14   8  10  1   
 15   9  11  1   
 16   9  28  1   
 17   9  29  1   
 18  10  12  1   
 19  10  30  1   
 20  10  31  1   
 21  11  13  1   
 22  11  32  1   
 23  11  33  1   
 24  12  13  1   
 25  12  34  1   
 26  12  35  1   
 27  13  14  1   
 28  14  15  1   
 29  14  36  1   
 30  14  37  1   
 31  15  16  2   
 32  15  17  am  
 33  17  18  1   
 34  17  38  1   
 35  18  19  1   
 36  18  20  1   
 37  18  39  1   
 38  19  21  1   
 39  19  40  1   
 40  19  41  1   
 41  20  22  1   
 42  20  42  1   
 43  20  43  1   
 44  21  23  1   
 45  21  44  1   
 46  21  45  1   
 47  22  23  1   
 48  22  46  1   
 49  22  47  1   
 50  23  48  1   
 51  23  49  1   
@<TRIPOS>SUBSTRUCTURE
  1 ****  11 GROUP 4 **** **** 0

# MOE 2024.06 (io_trps.svl 2023.06)
