@<TRIPOS>MOLECULE
NONAME
26 28 1 0 0 
SMALL
USER_CHARGES


@<TRIPOS>ATOM
  1 O        0.6480     0.0840    -0.2920 O.2   1 <1>  -0.5700 
  2 C        1.6560     0.7010    -0.0760 C.2   1 <1>   0.6590 
  3 O        2.8530     0.1550    -0.2720 O.3   1 <1>  -0.2330 
  4 C        1.6000     2.1240     0.4490 C.3   1 <1>  -0.0990 
  5 C        4.0070     0.8700    -0.2670 C.ar  1 <1>   0.0830 
  6 C        2.6560     2.9930    -0.2370 C.3   1 <1>  -0.0170 
  7 C        3.9870     2.2610    -0.2400 C.ar  1 <1>  -0.1440 
  8 C        5.2080     0.1850    -0.2870 C.ar  1 <1>  -0.1500 
  9 C        5.1830     2.9610    -0.2320 C.ar  1 <1>  -0.1500 
 10 C        6.3970     0.8910    -0.2740 C.ar  1 <1>   0.0830 
 11 C        6.3920     2.2830    -0.2470 C.ar  1 <1>  -0.1430 
 12 O        7.5630     0.1980    -0.2860 O.3   1 <1>  -0.2330 
 13 C        7.7090     3.0390    -0.2520 C.3   1 <1>  -0.0170 
 14 C        8.7520     0.7650    -0.0970 C.2   1 <1>   0.6590 
 15 C        8.7840     2.1890     0.4280 C.3   1 <1>  -0.0990 
 16 O        9.7690     0.1670    -0.3190 O.2   1 <1>  -0.5700 
 17 H        1.7880     2.0950     1.5060 H     1 <1>   0.0800 
 18 H        0.6190     2.5300     0.2870 H     1 <1>   0.0800 
 19 H        2.7410     3.9360     0.2740 H     1 <1>   0.0800 
 20 H        2.3620     3.1830    -1.2550 H     1 <1>   0.0800 
 21 H        5.2180    -0.8900    -0.3120 H     1 <1>   0.1500 
 22 H        5.1730     4.0370    -0.2180 H     1 <1>   0.1500 
 23 H        7.6100     3.9800     0.2600 H     1 <1>   0.0800 
 24 H        7.9940     3.2340    -1.2710 H     1 <1>   0.0800 
 25 H        8.6040     2.1570     1.4870 H     1 <1>   0.0800 
 26 H        9.7580     2.6130     0.2610 H     1 <1>   0.0800 
@<TRIPOS>BOND
  1   1   2  2   
  2   2   3  1   
  3   2   4  1   
  4   3   5  1   
  5   4   6  1   
  6   4  17  1   
  7   4  18  1   
  8   5   7  ar  
  9   5   8  ar  
 10   6   7  1   
 11   6  19  1   
 12   6  20  1   
 13   7   9  ar  
 14   8  10  ar  
 15   8  21  1   
 16   9  11  ar  
 17   9  22  1   
 18  10  11  ar  
 19  10  12  1   
 20  11  13  1   
 21  12  14  1   
 22  13  15  1   
 23  13  23  1   
 24  13  24  1   
 25  14  15  1   
 26  14  16  2   
 27  15  25  1   
 28  15  26  1   
@<TRIPOS>SUBSTRUCTURE
  1 ****   8 GROUP 4 **** **** 0

# MOE 2024.06 (io_trps.svl 2023.06)
