@<TRIPOS>MOLECULE
NONAME
37 38 1 0 0 
SMALL
USER_CHARGES


@<TRIPOS>ATOM
  1 S       -0.0950     0.4190    -0.4760 S.3   1 <1>   0.1810 
  2 N        1.5230     0.9410    -0.3810 N.2   1 <1>  -0.5100 
  3 C        0.2950    -1.2750    -0.3460 C.2   1 <1>   0.1040 
  4 C        2.2680    -0.0870    -0.2640 C.2   1 <1>   0.1080 
  5 N       -0.6780    -2.2610    -0.3620 N.am  1 <1>  -0.4940 
  6 C        1.6490    -1.3880    -0.2370 C.2   1 <1>  -0.0860 
  7 C        3.7680     0.1360    -0.1640 C.3   1 <1>  -0.0590 
  8 C       -2.0490    -2.2400    -0.4840 C.2   1 <1>   0.7160 
  9 C        2.3120    -2.6580    -0.1170 C.2   1 <1>   0.8060 
 10 O       -2.6320    -1.1800    -0.5660 O.2   1 <1>  -0.5700 
 11 C       -2.7400    -3.5170    -0.5160 C.2   1 <1>  -0.0860 
 12 O        1.7050    -3.7150    -0.1460 O.2   1 <1>  -0.5700 
 13 O        3.6390    -2.7040     0.0360 O.3   1 <1>  -0.4300 
 14 C       -4.1080    -3.7420    -0.0840 C.2   1 <1>  -0.1810 
 15 C       -2.1690    -4.6690    -0.9550 C.2   1 <1>  -0.1100 
 16 C        4.3370    -3.9230     0.1620 C.3   1 <1>   0.1200 
 17 C       -4.5240    -5.0190    -0.2030 C.2   1 <1>  -0.1400 
 18 C       -4.9620    -2.6020     0.4580 C.3   1 <1>  -0.0590 
 19 S       -3.2530    -6.0280    -0.8550 S.3   1 <1>  -0.0800 
 20 C        5.8200    -3.6030     0.3160 C.3   1 <1>  -0.2400 
 21 C       -5.8260    -5.7380     0.1010 C.3   1 <1>  -0.0600 
 22 H       -0.3100    -3.2110    -0.2540 H     1 <1>   0.3700 
 23 H        3.9930     1.1860    -0.2200 H     1 <1>   0.0800 
 24 H        4.2730    -0.3600    -0.9720 H     1 <1>   0.0800 
 25 H        4.1370    -0.2360     0.7750 H     1 <1>   0.0800 
 26 H       -1.1880    -4.8710    -1.3470 H     1 <1>   0.1500 
 27 H        4.1590    -4.5140    -0.7210 H     1 <1>   0.0800 
 28 H        3.9630    -4.4450     1.0280 H     1 <1>   0.0800 
 29 H       -4.4530    -2.1130     1.2690 H     1 <1>   0.0800 
 30 H       -5.9080    -2.9540     0.8220 H     1 <1>   0.0800 
 31 H       -5.1470    -1.8820    -0.3190 H     1 <1>   0.0800 
 32 H        6.1790    -3.0760    -0.5500 H     1 <1>   0.0800 
 33 H        6.3790    -4.5160     0.4150 H     1 <1>   0.0800 
 34 H        5.9830    -3.0060     1.1960 H     1 <1>   0.0800 
 35 H       -6.5690    -5.0610     0.4770 H     1 <1>   0.0800 
 36 H       -5.6540    -6.5040     0.8360 H     1 <1>   0.0800 
 37 H       -6.2030    -6.1960    -0.7950 H     1 <1>   0.0800 
@<TRIPOS>BOND
  1   1   2  1   
  2   1   3  1   
  3   2   4  2   
  4   3   5  1   
  5   3   6  2   
  6   4   6  1   
  7   4   7  1   
  8   5   8  am  
  9   5  22  1   
 10   6   9  1   
 11   7  23  1   
 12   7  24  1   
 13   7  25  1   
 14   8  10  2   
 15   8  11  1   
 16   9  12  2   
 17   9  13  1   
 18  11  14  1   
 19  11  15  2   
 20  13  16  1   
 21  14  17  2   
 22  14  18  1   
 23  15  19  1   
 24  15  26  1   
 25  16  20  1   
 26  16  27  1   
 27  16  28  1   
 28  17  19  1   
 29  17  21  1   
 30  18  29  1   
 31  18  30  1   
 32  18  31  1   
 33  20  32  1   
 34  20  33  1   
 35  20  34  1   
 36  21  35  1   
 37  21  36  1   
 38  21  37  1   
@<TRIPOS>SUBSTRUCTURE
  1 ****   5 GROUP 4 **** **** 0

# MOE 2024.06 (io_trps.svl 2023.06)
