@<TRIPOS>MOLECULE
NONAME
17 18 1 0 0 
SMALL
USER_CHARGES


@<TRIPOS>ATOM
  1 S        0.0620     0.3170    -0.2650 S.3   1 <1>  -0.2860 
  2 C       -1.7110     0.0780    -0.1550 C.2   1 <1>   0.2420 
  3 C        0.7470    -1.3510     0.1380 C.3   1 <1>   0.0700 
  4 N       -2.5740     1.0140    -0.2730 N.2   1 <1>  -0.5650 
  5 N       -2.2570    -1.1210     0.0590 N.pl3 1 <1>   0.3140 
  6 C       -0.2000    -2.4330    -0.3990 C.3   1 <1>   0.2000 
  7 C       -3.7070     0.3120    -0.1130 C.2   1 <1>   0.3660 
  8 N       -3.5760    -0.9630     0.0900 N.2   1 <1>  -0.7070 
  9 C       -1.5910    -2.4200     0.2480 C.3   1 <1>   0.0960 
 10 O        0.3790    -3.6730    -0.1660 O.3   1 <1>  -0.6800 
 11 H        0.8450    -1.3970     1.2080 H     1 <1>   0.0800 
 12 H        1.7130    -1.4090    -0.3330 H     1 <1>   0.0800 
 13 H       -0.2970    -2.3320    -1.4670 H     1 <1>   0.0800 
 14 H       -4.6650     0.8050    -0.1540 H     1 <1>   0.1500 
 15 H       -2.2070    -3.1770    -0.2020 H     1 <1>   0.0800 
 16 H       -1.5200    -2.6020     1.3040 H     1 <1>   0.0800 
 17 H        0.5640    -3.8210     0.7820 H     1 <1>   0.4000 
@<TRIPOS>BOND
  1   1   2  1   
  2   1   3  1   
  3   2   4  2   
  4   2   5  1   
  5   3   6  1   
  6   3  11  1   
  7   3  12  1   
  8   4   7  1   
  9   5   8  1   
 10   5   9  1   
 11   6   9  1   
 12   6  10  1   
 13   6  13  1   
 14   7   8  2   
 15   7  14  1   
 16   9  15  1   
 17   9  16  1   
 18  10  17  1   
@<TRIPOS>SUBSTRUCTURE
  1 ****   5 GROUP 4 **** **** 0

# MOE 2024.06 (io_trps.svl 2023.06)
