@<TRIPOS>MOLECULE
NONAME
55 56 1 0 0 
SMALL
USER_CHARGES


@<TRIPOS>ATOM
  1 S       -0.9090    -0.4730    -2.4210 S.o2  1 <1>   1.3330 
  2 O       -2.3460    -0.3730    -2.3610 O.2   1 <1>  -0.6500 
  3 O       -0.2590    -0.9390    -3.6230 O.2   1 <1>  -0.6500 
  4 N       -0.2520     1.0770    -2.0370 N.am  1 <1>  -0.6930 
  5 C       -0.3370    -1.4540    -1.0510 C.3   1 <1>  -0.1350 
  6 C       -0.8320     1.9050    -1.0860 C.ar  1 <1>   0.1990 
  7 C        0.9200     1.5460    -2.8010 C.3   1 <1>   0.3390 
  8 C       -0.2710     2.0340     0.1780 C.ar  1 <1>  -0.1500 
  9 C       -1.9810     2.6210    -1.3800 C.ar  1 <1>  -0.1500 
 10 C        2.2030     1.0090    -2.1800 C.ar  1 <1>  -0.1430 
 11 C       -0.8280     2.8710     1.1310 C.ar  1 <1>  -0.1430 
 12 C       -2.5460     3.4580    -0.4370 C.ar  1 <1>  -0.1500 
 13 C        2.7490    -0.1900    -2.6100 C.ar  1 <1>  -0.1500 
 14 C        2.8500     1.7190    -1.1810 C.ar  1 <1>  -0.1500 
 15 C       -1.9760     3.5930     0.8200 C.ar  1 <1>  -0.1430 
 16 C       -0.1710     2.9780     2.5000 C.3   1 <1>  -0.0970 
 17 C        3.9080    -0.6760    -2.0350 C.ar  1 <1>  -0.1500 
 18 C        4.0110     1.2290    -0.6110 C.ar  1 <1>  -0.1500 
 19 C       -2.6290     4.5260     1.8300 C.3   1 <1>  -0.0970 
 20 C        4.5640     0.0120    -1.0150 C.ar  1 <1>   0.0860 
 21 C        5.7710    -0.5260    -0.4100 C.2   1 <1>   0.5440 
 22 O        6.5070    -1.2470    -1.0530 O.2   1 <1>  -0.5700 
 23 N        6.0690    -0.2330     0.8960 N.am  1 <1>  -0.7300 
 24 C        7.2340    -0.6250     1.6970 C.3   1 <1>   0.3000 
 25 C        8.5150    -0.0990     1.0490 C.3   1 <1>  -0.2400 
 26 C        7.2680    -2.1450     1.8550 C.3   1 <1>  -0.2400 
 27 C        7.0530     0.0260     3.0670 C.3   1 <1>  -0.2400 
 28 H       -0.6640    -2.4680    -1.1640 H     1 <1>   0.0800 
 29 H       -0.7290    -1.0650    -0.1320 H     1 <1>   0.0800 
 30 H        0.7340    -1.4380    -1.0040 H     1 <1>   0.0800 
 31 H        0.9390     2.6230    -2.7890 H     1 <1>   0.0800 
 32 H        0.8410     1.2380    -3.8290 H     1 <1>   0.0800 
 33 H        0.6080     1.4640     0.4070 H     1 <1>   0.1500 
 34 H       -2.4340     2.5120    -2.3490 H     1 <1>   0.1500 
 35 H       -3.4390     4.0030    -0.6910 H     1 <1>   0.1500 
 36 H        2.2760    -0.7530    -3.3980 H     1 <1>   0.1500 
 37 H        2.4490     2.6610    -0.8460 H     1 <1>   0.1500 
 38 H        0.7030     2.3550     2.5600 H     1 <1>   0.0800 
 39 H       -0.8600     2.6670     3.2640 H     1 <1>   0.0800 
 40 H        0.1250     3.9940     2.6880 H     1 <1>   0.0800 
 41 H        4.3210    -1.6100    -2.3800 H     1 <1>   0.1500 
 42 H        4.5000     1.8060     0.1520 H     1 <1>   0.1500 
 43 H       -2.9280     3.9730     2.7020 H     1 <1>   0.0800 
 44 H       -3.5030     4.9950     1.4140 H     1 <1>   0.0800 
 45 H       -1.9390     5.2970     2.1200 H     1 <1>   0.0800 
 46 H        5.3730     0.2740     1.4350 H     1 <1>   0.3700 
 47 H        8.6840    -0.5750     0.1000 H     1 <1>   0.0800 
 48 H        9.3610    -0.3080     1.6770 H     1 <1>   0.0800 
 49 H        8.4530     0.9640     0.8990 H     1 <1>   0.0800 
 50 H        6.3450    -2.5030     2.2730 H     1 <1>   0.0800 
 51 H        8.0740    -2.4320     2.5060 H     1 <1>   0.0800 
 52 H        7.4280    -2.6210     0.9040 H     1 <1>   0.0800 
 53 H        7.0120     1.0970     2.9750 H     1 <1>   0.0800 
 54 H        7.8830    -0.2230     3.7040 H     1 <1>   0.0800 
 55 H        6.1540    -0.3260     3.5390 H     1 <1>   0.0800 
@<TRIPOS>BOND
  1   1   2  2   
  2   1   3  2   
  3   1   4  am  
  4   1   5  1   
  5   4   6  1   
  6   4   7  1   
  7   5  28  1   
  8   5  29  1   
  9   5  30  1   
 10   6   8  ar  
 11   6   9  ar  
 12   7  10  1   
 13   7  31  1   
 14   7  32  1   
 15   8  11  ar  
 16   8  33  1   
 17   9  12  ar  
 18   9  34  1   
 19  10  13  ar  
 20  10  14  ar  
 21  11  15  ar  
 22  11  16  1   
 23  12  15  ar  
 24  12  35  1   
 25  13  17  ar  
 26  13  36  1   
 27  14  18  ar  
 28  14  37  1   
 29  15  19  1   
 30  16  38  1   
 31  16  39  1   
 32  16  40  1   
 33  17  20  ar  
 34  17  41  1   
 35  18  20  ar  
 36  18  42  1   
 37  19  43  1   
 38  19  44  1   
 39  19  45  1   
 40  20  21  1   
 41  21  22  2   
 42  21  23  am  
 43  23  24  1   
 44  23  46  1   
 45  24  25  1   
 46  24  26  1   
 47  24  27  1   
 48  25  47  1   
 49  25  48  1   
 50  25  49  1   
 51  26  50  1   
 52  26  51  1   
 53  26  52  1   
 54  27  53  1   
 55  27  54  1   
 56  27  55  1   
@<TRIPOS>SUBSTRUCTURE
  1 ****  14 GROUP 4 **** **** 0

# MOE 2024.06 (io_trps.svl 2023.06)
