@<TRIPOS>MOLECULE
NONAME
52 54 1 0 0 
SMALL
USER_CHARGES


@<TRIPOS>ATOM
  1 O       -0.0870    -1.0970     0.6850 O.3   1 <1>  -0.3630 
  2 C       -1.1590    -1.3760    -0.1220 C.ar  1 <1>   0.0830 
  3 C       -0.0160     0.1130     1.4050 C.3   1 <1>   0.1200 
  4 C       -1.1590    -2.5830    -0.8460 C.ar  1 <1>   0.1000 
  5 C       -2.2390    -0.5040    -0.2440 C.ar  1 <1>  -0.1500 
  6 C        1.3020     0.1320     2.1740 C.3   1 <1>  -0.2400 
  7 N       -0.1290    -3.5330    -0.7960 N.pl3 1 <1>  -0.8380 
  8 C       -2.2400    -2.8700    -1.6660 C.ar  1 <1>  -0.1500 
  9 C       -3.3060    -0.8150    -1.0690 C.ar  1 <1>  -0.1500 
 10 C        1.1520    -3.1760    -1.4780 C.3   1 <1>   0.2090 
 11 C       -0.0190    -4.3420     0.4530 C.3   1 <1>   0.2090 
 12 C       -3.3070    -1.9990    -1.7810 C.ar  1 <1>  -0.1500 
 13 C        2.2370    -2.7020    -0.4900 C.3   1 <1>   0.3430 
 14 C        1.0940    -3.8320     1.3920 C.3   1 <1>   0.3430 
 15 N        2.4090    -3.6330     0.6860 N.4   1 <1>  -0.9590 
 16 C        3.4610    -3.1480     1.6140 C.3   1 <1>   0.4860 
 17 C        4.7890    -3.1490     0.8830 C.ar  1 <1>  -0.1430 
 18 C        5.3900    -4.3510     0.5410 C.ar  1 <1>  -0.1500 
 19 C        5.4120    -1.9590     0.5430 C.ar  1 <1>  -0.1500 
 20 C        6.5920    -4.3900    -0.1460 C.ar  1 <1>   0.0830 
 21 C        6.6160    -1.9760    -0.1390 C.ar  1 <1>  -0.1500 
 22 O        7.0380    -5.6510    -0.4120 O.3   1 <1>  -0.3630 
 23 C        7.2120    -3.1770    -0.4920 C.ar  1 <1>   0.0830 
 24 C        8.3290    -5.9210    -0.9130 C.3   1 <1>   0.0400 
 25 O        8.3780    -3.1050    -1.1680 O.3   1 <1>  -0.5330 
 26 H       -0.8520     0.1590     2.0830 H     1 <1>   0.0800 
 27 H       -0.0590     0.9320     0.7060 H     1 <1>   0.0800 
 28 H       -2.2820     0.4260     0.2900 H     1 <1>   0.1500 
 29 H        1.3410    -0.6890     2.8670 H     1 <1>   0.0800 
 30 H        1.3740     1.0490     2.7330 H     1 <1>   0.0800 
 31 H        2.1320     0.0860     1.4930 H     1 <1>   0.0800 
 32 H       -2.2410    -3.7910    -2.2200 H     1 <1>   0.1500 
 33 H       -4.1370    -0.1350    -1.1580 H     1 <1>   0.1500 
 34 H        0.9670    -2.3960    -2.1970 H     1 <1>   0.0800 
 35 H        1.5090    -4.0340    -2.0200 H     1 <1>   0.0800 
 36 H        0.1720    -5.3670     0.1880 H     1 <1>   0.0800 
 37 H       -0.9610    -4.3150     0.9770 H     1 <1>   0.0800 
 38 H       -4.1350    -2.2420    -2.4240 H     1 <1>   0.1500 
 39 H        1.9630    -1.7230    -0.1370 H     1 <1>   0.0800 
 40 H        3.1700    -2.6070    -1.0220 H     1 <1>   0.0800 
 41 H        1.2120    -4.5330     2.2010 H     1 <1>   0.0800 
 42 H        0.7680    -2.8970     1.8160 H     1 <1>   0.0800 
 43 H        2.7200    -4.5340     0.3060 H     1 <1>   0.4500 
 44 H        3.5290    -3.7980     2.4720 H     1 <1>   0.0800 
 45 H        3.2260    -2.1530     1.9560 H     1 <1>   0.0800 
 46 H        4.9400    -5.2920     0.8040 H     1 <1>   0.1500 
 47 H        4.9760    -1.0090     0.8050 H     1 <1>   0.1500 
 48 H        7.0900    -1.0440    -0.3950 H     1 <1>   0.1500 
 49 H        8.4710    -6.9860    -0.9230 H     1 <1>   0.0800 
 50 H        9.0580    -5.4610    -0.2690 H     1 <1>   0.0800 
 51 H        8.4030    -5.5340    -1.9140 H     1 <1>   0.0800 
 52 H        8.6870    -2.1930    -1.3120 H     1 <1>   0.4500 
@<TRIPOS>BOND
  1   1   2  1   
  2   1   3  1   
  3   2   4  ar  
  4   2   5  ar  
  5   3   6  1   
  6   3  26  1   
  7   3  27  1   
  8   4   7  1   
  9   4   8  ar  
 10   5   9  ar  
 11   5  28  1   
 12   6  29  1   
 13   6  30  1   
 14   6  31  1   
 15   7  10  1   
 16   7  11  1   
 17   8  12  ar  
 18   8  32  1   
 19   9  12  ar  
 20   9  33  1   
 21  10  13  1   
 22  10  34  1   
 23  10  35  1   
 24  11  14  1   
 25  11  36  1   
 26  11  37  1   
 27  12  38  1   
 28  13  15  1   
 29  13  39  1   
 30  13  40  1   
 31  14  15  1   
 32  14  41  1   
 33  14  42  1   
 34  15  16  1   
 35  15  43  1   
 36  16  17  1   
 37  16  44  1   
 38  16  45  1   
 39  17  18  ar  
 40  17  19  ar  
 41  18  20  ar  
 42  18  46  1   
 43  19  21  ar  
 44  19  47  1   
 45  20  22  1   
 46  20  23  ar  
 47  21  23  ar  
 48  21  48  1   
 49  22  24  1   
 50  23  25  1   
 51  24  49  1   
 52  24  50  1   
 53  24  51  1   
 54  25  52  1   
@<TRIPOS>SUBSTRUCTURE
  1 ****  13 GROUP 4 **** **** 0

# MOE 2024.06 (io_trps.svl 2023.06)
