@<TRIPOS>MOLECULE
NONAME
42 44 1 0 0 
SMALL
USER_CHARGES


@<TRIPOS>ATOM
  1 BR      -0.0180     1.4820    -1.0860 Br    1 <1>  -0.1110 
  2 C        1.4070     0.2640    -0.6450 C.ar  1 <1>   0.1110 
  3 C        2.6690     0.7820    -0.4050 C.ar  1 <1>  -0.1500 
  4 C        1.1280    -1.0920    -0.5830 C.ar  1 <1>  -0.1500 
  5 C        3.6770    -0.1140    -0.0930 C.ar  1 <1>  -0.1440 
  6 C        2.1490    -1.9740    -0.2620 C.ar  1 <1>  -0.1500 
  7 C        3.4220    -1.4740    -0.0140 C.ar  1 <1>   0.1170 
  8 C        5.1490     0.1450     0.1970 C.3   1 <1>   0.4850 
  9 N        4.5770    -2.1660     0.3430 N.am  1 <1>  -0.4770 
 10 O        5.2180     1.0140     1.2830 O.3   1 <1>  -0.6800 
 11 C        5.6090    -1.2920     0.5450 C.2   1 <1>   0.5690 
 12 C        5.8340     0.7910    -1.0080 C.3   1 <1>  -0.0990 
 13 C        4.6790    -3.6310     0.5310 C.3   1 <1>   0.1400 
 14 O        6.6920    -1.5860     0.9970 O.2   1 <1>  -0.5700 
 15 C        7.3380     0.6400    -0.9690 C.2   1 <1>   0.5940 
 16 C        4.8720    -4.3100    -0.8300 C.3   1 <1>  -0.1600 
 17 O        7.7960    -0.2340    -1.6620 O.2   1 <1>  -0.5700 
 18 C        8.1370     1.5470    -0.1900 C.2   1 <1>  -0.0450 
 19 C        5.0370    -5.8330    -0.7180 C.3   1 <1>  -0.1600 
 20 S        9.8900     1.3180    -0.1740 S.3   1 <1>  -0.0800 
 21 C        7.8430     2.6240     0.5900 C.2   1 <1>  -0.1500 
 22 C        3.7730    -6.5340    -0.2080 C.3   1 <1>  -0.2400 
 23 C       10.1410     2.6840     0.8870 C.2   1 <1>  -0.1100 
 24 C        8.9650     3.2600     1.1930 C.2   1 <1>  -0.1500 
 25 H        2.8480     1.8410    -0.4600 H     1 <1>   0.1500 
 26 H        0.1310    -1.4460    -0.7800 H     1 <1>   0.1500 
 27 H        1.9580    -3.0300    -0.2050 H     1 <1>   0.1500 
 28 H        4.9110     0.5420     2.0820 H     1 <1>   0.4000 
 29 H        5.5630     1.8260    -1.0800 H     1 <1>   0.0800 
 30 H        5.4840     0.3030    -1.8990 H     1 <1>   0.0800 
 31 H        3.7870    -3.9870     1.0140 H     1 <1>   0.0800 
 32 H        5.5190    -3.8510     1.1680 H     1 <1>   0.0800 
 33 H        5.7590    -3.9060    -1.2880 H     1 <1>   0.0800 
 34 H        4.0360    -4.0880    -1.4690 H     1 <1>   0.0800 
 35 H        5.8650    -6.0610    -0.0670 H     1 <1>   0.0800 
 36 H        5.2770    -6.2230    -1.6930 H     1 <1>   0.0800 
 37 H        6.8510     3.0010     0.7700 H     1 <1>   0.1500 
 38 H        3.5530    -6.2510     0.8060 H     1 <1>   0.0800 
 39 H        3.9150    -7.6000    -0.2320 H     1 <1>   0.0800 
 40 H        2.9290    -6.2920    -0.8300 H     1 <1>   0.0800 
 41 H       11.1510     2.9140     1.1730 H     1 <1>   0.1500 
 42 H        8.8420     4.1180     1.8310 H     1 <1>   0.1500 
@<TRIPOS>BOND
  1   1   2  1   
  2   2   3  ar  
  3   2   4  ar  
  4   3   5  ar  
  5   3  25  1   
  6   4   6  ar  
  7   4  26  1   
  8   5   7  ar  
  9   5   8  1   
 10   6   7  ar  
 11   6  27  1   
 12   7   9  1   
 13   8  10  1   
 14   8  11  1   
 15   8  12  1   
 16   9  11  am  
 17   9  13  1   
 18  10  28  1   
 19  11  14  2   
 20  12  15  1   
 21  12  29  1   
 22  12  30  1   
 23  13  16  1   
 24  13  31  1   
 25  13  32  1   
 26  15  17  2   
 27  15  18  1   
 28  16  19  1   
 29  16  33  1   
 30  16  34  1   
 31  18  20  1   
 32  18  21  2   
 33  19  22  1   
 34  19  35  1   
 35  19  36  1   
 36  20  23  1   
 37  21  24  1   
 38  21  37  1   
 39  22  38  1   
 40  22  39  1   
 41  22  40  1   
 42  23  24  2   
 43  23  41  1   
 44  24  42  1   
@<TRIPOS>SUBSTRUCTURE
  1 ****   8 GROUP 4 **** **** 0

# MOE 2024.06 (io_trps.svl 2023.06)
