@<TRIPOS>MOLECULE
NONAME
41 42 1 0 0 
SMALL
USER_CHARGES


@<TRIPOS>ATOM
  1 S        0.2000    -0.0030     1.0200 S.o2  1 <1>   1.4470 
  2 O        0.5550    -0.2540     2.3980 O.2   1 <1>  -0.6500 
  3 O        0.1890     1.3450     0.5000 O.2   1 <1>  -0.6500 
  4 N        1.3030    -0.8080     0.0480 N.am  1 <1>  -0.9140 
  5 C       -1.3750    -0.8160     0.6360 C.ar  1 <1>  -0.0090 
  6 C        2.6320    -0.9510     0.6070 C.3   1 <1>   0.2760 
  7 C       -2.5370    -0.0750     0.4670 C.ar  1 <1>  -0.1500 
  8 C       -1.4640    -2.1980     0.5260 C.ar  1 <1>  -0.1500 
  9 C        3.3820     0.3800     0.5740 C.3   1 <1>  -0.1600 
 10 C        3.4430    -1.8070    -0.3580 C.3   1 <1>  -0.1600 
 11 C       -3.7570    -0.6700     0.1700 C.ar  1 <1>   0.1170 
 12 C       -2.6700    -2.8210     0.2530 C.ar  1 <1>  -0.1500 
 13 C        3.8610     0.5540    -0.8710 C.3   1 <1>  -0.1600 
 14 C        3.9200    -0.8590    -1.4660 C.3   1 <1>  -0.1600 
 15 N       -4.9280     0.0860    -0.0100 N.am  1 <1>  -0.5470 
 16 C       -3.8230    -2.0640     0.0790 C.ar  1 <1>   0.0830 
 17 C       -5.1940     1.2790    -0.6040 C.2   1 <1>   0.5690 
 18 O       -5.0420    -2.6190    -0.1780 O.3   1 <1>  -0.3630 
 19 O       -6.3200     1.7020    -0.6170 O.2   1 <1>  -0.5700 
 20 C       -4.1150     2.0880    -1.2850 C.3   1 <1>  -0.1790 
 21 C       -5.2040    -4.0130    -0.3250 C.3   1 <1>   0.0400 
 22 H        1.4130    -0.1970    -0.7580 H     1 <1>   0.4200 
 23 H        2.5970    -1.3910     1.5910 H     1 <1>   0.0800 
 24 H       -2.4840     0.9920     0.5810 H     1 <1>   0.1500 
 25 H       -0.5770    -2.7950     0.6590 H     1 <1>   0.1500 
 26 H        4.2450     0.2900     1.2120 H     1 <1>   0.0800 
 27 H        2.8030     1.2150     0.9240 H     1 <1>   0.0800 
 28 H        2.8780    -2.6400    -0.7390 H     1 <1>   0.0800 
 29 H        4.3020    -2.1880     0.1660 H     1 <1>   0.0800 
 30 H       -2.6870    -3.8920     0.1830 H     1 <1>   0.1500 
 31 H        4.8240     1.0360    -0.9020 H     1 <1>   0.0800 
 32 H        3.1570     1.1540    -1.4220 H     1 <1>   0.0800 
 33 H        3.2600    -0.9240    -2.3150 H     1 <1>   0.0800 
 34 H        4.9170    -1.1120    -1.7830 H     1 <1>   0.0800 
 35 H       -5.7840    -0.4280     0.2130 H     1 <1>   0.3700 
 36 H       -3.4180     1.4410    -1.7820 H     1 <1>   0.0800 
 37 H       -3.6040     2.6930    -0.5620 H     1 <1>   0.0800 
 38 H       -4.5640     2.7330    -2.0180 H     1 <1>   0.0800 
 39 H       -6.2400    -4.2080    -0.5360 H     1 <1>   0.0800 
 40 H       -4.9220    -4.4980     0.5930 H     1 <1>   0.0800 
 41 H       -4.5960    -4.3520    -1.1450 H     1 <1>   0.0800 
@<TRIPOS>BOND
  1   1   2  2   
  2   1   3  2   
  3   1   4  am  
  4   1   5  1   
  5   4   6  1   
  6   4  22  1   
  7   5   7  ar  
  8   5   8  ar  
  9   6   9  1   
 10   6  10  1   
 11   6  23  1   
 12   7  11  ar  
 13   7  24  1   
 14   8  12  ar  
 15   8  25  1   
 16   9  13  1   
 17   9  26  1   
 18   9  27  1   
 19  10  14  1   
 20  10  28  1   
 21  10  29  1   
 22  11  15  1   
 23  11  16  ar  
 24  12  16  ar  
 25  12  30  1   
 26  13  14  1   
 27  13  31  1   
 28  13  32  1   
 29  14  33  1   
 30  14  34  1   
 31  15  17  am  
 32  15  35  1   
 33  16  18  1   
 34  17  19  2   
 35  17  20  1   
 36  18  21  1   
 37  20  36  1   
 38  20  37  1   
 39  20  38  1   
 40  21  39  1   
 41  21  40  1   
 42  21  41  1   
@<TRIPOS>SUBSTRUCTURE
  1 ****   5 GROUP 4 **** **** 0

# MOE 2024.06 (io_trps.svl 2023.06)
