@<TRIPOS>MOLECULE
NONAME
61 63 1 0 0 
SMALL
USER_CHARGES


@<TRIPOS>ATOM
  1 O        1.1060     0.4160     1.6520 O.3   1 <1>  -0.3630 
  2 C        2.1920     0.3110     0.8310 C.ar  1 <1>   0.0830 
  3 C        0.1060     1.3910     1.4520 C.3   1 <1>   0.0400 
  4 C        3.2780    -0.4810     1.2270 C.ar  1 <1>   0.0830 
  5 C        2.2590     0.9890    -0.3830 C.ar  1 <1>  -0.1500 
  6 O        3.3360    -1.1970     2.3850 O.3   1 <1>  -0.3630 
  7 C        4.4000    -0.5600     0.4210 C.ar  1 <1>  -0.1500 
  8 C        3.3900     0.8970    -1.1910 C.ar  1 <1>   0.0830 
  9 C        2.2220    -1.9710     2.7720 C.3   1 <1>   0.0400 
 10 C        4.4680     0.1170    -0.7850 C.ar  1 <1>  -0.1440 
 11 O        3.4980     1.5570    -2.3780 O.3   1 <1>  -0.3630 
 12 C        5.7300    -0.0100    -1.6290 C.3   1 <1>   0.2530 
 13 C        2.3620     2.0930    -3.0240 C.3   1 <1>   0.0400 
 14 N        6.8700     0.6630    -0.9730 N.3   1 <1>  -0.8100 
 15 C        6.6060     2.1040    -0.7660 C.3   1 <1>   0.1100 
 16 C        8.1220     0.4390    -1.7140 C.3   1 <1>   0.1100 
 17 C        7.7820     2.7910    -0.0490 C.3   1 <1>   0.3430 
 18 C        9.3160     1.1060    -1.0030 C.3   1 <1>   0.3430 
 19 N        9.0820     2.5790    -0.7790 N.4   1 <1>  -0.9590 
 20 C       10.2120     3.2900    -0.1160 C.3   1 <1>   0.4230 
 21 C       11.3260     3.4930    -1.1520 C.3   1 <1>  -0.1600 
 22 C       10.6640     2.5710     1.1700 C.3   1 <1>  -0.1600 
 23 C       12.5350     4.2960    -0.6420 C.3   1 <1>  -0.1600 
 24 C       11.4660     3.5070     2.0870 C.3   1 <1>  -0.1600 
 25 C       13.4100     3.4920     0.3290 C.3   1 <1>  -0.1600 
 26 C       12.9740     3.5540     1.8010 C.3   1 <1>  -0.1600 
 27 H       -0.5730     1.3470     2.2850 H     1 <1>   0.0800 
 28 H       -0.4220     1.1700     0.5420 H     1 <1>   0.0800 
 29 H        0.5680     2.3620     1.4090 H     1 <1>   0.0800 
 30 H        1.4350     1.5920    -0.6990 H     1 <1>   0.1500 
 31 H        5.2300    -1.1590     0.7490 H     1 <1>   0.1500 
 32 H        2.5690    -2.7620     3.4120 H     1 <1>   0.0800 
 33 H        1.7550    -2.3840     1.8950 H     1 <1>   0.0800 
 34 H        1.5330    -1.3460     3.3110 H     1 <1>   0.0800 
 35 H        5.5790     0.3970    -2.6140 H     1 <1>   0.0800 
 36 H        5.9530    -1.0570    -1.7420 H     1 <1>   0.0800 
 37 H        1.6180     1.3220    -3.1200 H     1 <1>   0.0800 
 38 H        2.6610     2.4340    -3.9990 H     1 <1>   0.0800 
 39 H        1.9890     2.9210    -2.4480 H     1 <1>   0.0800 
 40 H        5.7300     2.2270    -0.1520 H     1 <1>   0.0800 
 41 H        6.4140     2.5850    -1.7090 H     1 <1>   0.0800 
 42 H        8.0340     0.8240    -2.7160 H     1 <1>   0.0800 
 43 H        8.3090    -0.6200    -1.7800 H     1 <1>   0.0800 
 44 H        7.8490     2.3820     0.9460 H     1 <1>   0.0800 
 45 H        7.5750     3.8440     0.0390 H     1 <1>   0.0800 
 46 H       10.2060     0.9580    -1.5910 H     1 <1>   0.0800 
 47 H        9.4580     0.6130    -0.0550 H     1 <1>   0.0800 
 48 H        8.9600     3.0020    -1.7050 H     1 <1>   0.4500 
 49 H        9.8640     4.2700     0.1690 H     1 <1>   0.0800 
 50 H       10.9150     4.0330    -1.9860 H     1 <1>   0.0800 
 51 H       11.6770     2.5440    -1.5150 H     1 <1>   0.0800 
 52 H       11.2450     1.6940     0.9460 H     1 <1>   0.0800 
 53 H        9.7980     2.2610     1.7250 H     1 <1>   0.0800 
 54 H       12.2270     5.2260    -0.1950 H     1 <1>   0.0800 
 55 H       13.1430     4.5450    -1.4960 H     1 <1>   0.0800 
 56 H       11.3410     3.1830     3.1080 H     1 <1>   0.0800 
 57 H       11.0620     4.5040     2.0320 H     1 <1>   0.0800 
 58 H       14.4160     3.8740     0.2760 H     1 <1>   0.0800 
 59 H       13.4610     2.4650     0.0110 H     1 <1>   0.0800 
 60 H       13.4490     2.7370     2.3180 H     1 <1>   0.0800 
 61 H       13.3650     4.4580     2.2380 H     1 <1>   0.0800 
@<TRIPOS>BOND
  1   1   2  1   
  2   1   3  1   
  3   2   4  ar  
  4   2   5  ar  
  5   3  27  1   
  6   3  28  1   
  7   3  29  1   
  8   4   6  1   
  9   4   7  ar  
 10   5   8  ar  
 11   5  30  1   
 12   6   9  1   
 13   7  10  ar  
 14   7  31  1   
 15   8  10  ar  
 16   8  11  1   
 17   9  32  1   
 18   9  33  1   
 19   9  34  1   
 20  10  12  1   
 21  11  13  1   
 22  12  14  1   
 23  12  35  1   
 24  12  36  1   
 25  13  37  1   
 26  13  38  1   
 27  13  39  1   
 28  14  15  1   
 29  14  16  1   
 30  15  17  1   
 31  15  40  1   
 32  15  41  1   
 33  16  18  1   
 34  16  42  1   
 35  16  43  1   
 36  17  19  1   
 37  17  44  1   
 38  17  45  1   
 39  18  19  1   
 40  18  46  1   
 41  18  47  1   
 42  19  20  1   
 43  19  48  1   
 44  20  21  1   
 45  20  22  1   
 46  20  49  1   
 47  21  23  1   
 48  21  50  1   
 49  21  51  1   
 50  22  24  1   
 51  22  52  1   
 52  22  53  1   
 53  23  25  1   
 54  23  54  1   
 55  23  55  1   
 56  24  26  1   
 57  24  56  1   
 58  24  57  1   
 59  25  26  1   
 60  25  58  1   
 61  25  59  1   
 62  26  60  1   
 63  26  61  1   
@<TRIPOS>SUBSTRUCTURE
  1 ****  15 GROUP 4 **** **** 0

# MOE 2024.06 (io_trps.svl 2023.06)
