@<TRIPOS>MOLECULE
NONAME
46 46 1 0 0 
SMALL
USER_CHARGES


@<TRIPOS>ATOM
  1 O        0.4270    -0.1390    -0.4670 O.3   1 <1>  -0.5600 
  2 C        1.4480     0.4230     0.2750 C.3   1 <1>   0.1200 
  3 C       -0.8350    -0.0240     0.1110 C.3   1 <1>   0.0400 
  4 C        2.7310     0.1940    -0.5200 C.3   1 <1>  -0.1600 
  5 C        3.9360     0.7770     0.2050 C.3   1 <1>   0.3430 
  6 N        5.1470     0.5270    -0.6140 N.4   1 <1>  -0.9060 
  7 C        6.3990     1.0160    -0.0050 C.3   1 <1>   0.4230 
  8 C        6.4430     2.5460    -0.0400 C.3   1 <1>  -0.1600 
  9 C        7.5710     0.4300    -0.7920 C.3   1 <1>  -0.1600 
 10 C        7.7810     3.0740     0.4980 C.3   1 <1>  -0.1600 
 11 C        8.9140     0.9460    -0.2530 C.3   1 <1>  -0.1600 
 12 C        8.9950     2.4920    -0.2680 C.3   1 <1>  -0.0800 
 13 C       10.3750     3.0570     0.2130 C.3   1 <1>   0.0000 
 14 C       10.6930     2.7080     1.6780 C.3   1 <1>  -0.2400 
 15 C       11.5190     2.5090    -0.6610 C.3   1 <1>  -0.2400 
 16 C       10.4110     4.5910     0.0750 C.3   1 <1>  -0.2400 
 17 H        1.4850    -0.0670     1.2340 H     1 <1>   0.0800 
 18 H        1.2440     1.4740     0.3990 H     1 <1>   0.0800 
 19 H       -1.5480    -0.4920    -0.5460 H     1 <1>   0.0800 
 20 H       -1.0820     1.0170     0.2270 H     1 <1>   0.0800 
 21 H       -0.8400    -0.5250     1.0630 H     1 <1>   0.0800 
 22 H        2.6200     0.6640    -1.4810 H     1 <1>   0.0800 
 23 H        2.8610    -0.8660    -0.6520 H     1 <1>   0.0800 
 24 H        4.0400     0.3100     1.1720 H     1 <1>   0.0800 
 25 H        3.7940     1.8360     0.3480 H     1 <1>   0.0800 
 26 H        5.0380     0.9650    -1.5360 H     1 <1>   0.4500 
 27 H        5.2360    -0.4820    -0.7790 H     1 <1>   0.4500 
 28 H        6.4670     0.6810     1.0180 H     1 <1>   0.0800 
 29 H        5.6550     2.9590     0.5640 H     1 <1>   0.0800 
 30 H        6.3200     2.8970    -1.0510 H     1 <1>   0.0800 
 31 H        7.4940     0.7020    -1.8310 H     1 <1>   0.0800 
 32 H        7.5650    -0.6430    -0.7160 H     1 <1>   0.0800 
 33 H        7.8580     2.8310     1.5430 H     1 <1>   0.0800 
 34 H        7.7670     4.1460     0.4130 H     1 <1>   0.0800 
 35 H        9.6940     0.5260    -0.8620 H     1 <1>   0.0800 
 36 H        9.0520     0.5820     0.7500 H     1 <1>   0.0800 
 37 H        8.8880     2.7980    -1.2960 H     1 <1>   0.0800 
 38 H       11.6480     3.1170     1.9570 H     1 <1>   0.0800 
 39 H       10.7410     1.6450     1.8260 H     1 <1>   0.0800 
 40 H        9.9590     3.1170     2.3470 H     1 <1>   0.0800 
 41 H       11.6670     1.4570    -0.5040 H     1 <1>   0.0800 
 42 H       12.4480     2.9970    -0.4200 H     1 <1>   0.0800 
 43 H       11.3160     2.6780    -1.7040 H     1 <1>   0.0800 
 44 H        9.7460     5.0660     0.7730 H     1 <1>   0.0800 
 45 H       10.1390     4.8900    -0.9210 H     1 <1>   0.0800 
 46 H       11.3990     4.9670     0.2770 H     1 <1>   0.0800 
@<TRIPOS>BOND
  1   1   2  1   
  2   1   3  1   
  3   2   4  1   
  4   2  17  1   
  5   2  18  1   
  6   3  19  1   
  7   3  20  1   
  8   3  21  1   
  9   4   5  1   
 10   4  22  1   
 11   4  23  1   
 12   5   6  1   
 13   5  24  1   
 14   5  25  1   
 15   6   7  1   
 16   6  26  1   
 17   6  27  1   
 18   7   8  1   
 19   7   9  1   
 20   7  28  1   
 21   8  10  1   
 22   8  29  1   
 23   8  30  1   
 24   9  11  1   
 25   9  31  1   
 26   9  32  1   
 27  10  12  1   
 28  10  33  1   
 29  10  34  1   
 30  11  12  1   
 31  11  35  1   
 32  11  36  1   
 33  12  13  1   
 34  12  37  1   
 35  13  14  1   
 36  13  15  1   
 37  13  16  1   
 38  14  38  1   
 39  14  39  1   
 40  14  40  1   
 41  15  41  1   
 42  15  42  1   
 43  15  43  1   
 44  16  44  1   
 45  16  45  1   
 46  16  46  1   
@<TRIPOS>SUBSTRUCTURE
  1 ****   7 GROUP 4 **** **** 0

# MOE 2024.06 (io_trps.svl 2023.06)
