@<TRIPOS>MOLECULE
NONAME
48 51 1 0 0 
SMALL
USER_CHARGES


@<TRIPOS>ATOM
  1 CL       0.2230    -0.3670     0.1710 Cl    1 <1>  -0.1770 
  2 C        1.9680    -0.4290     0.1920 C.ar  1 <1>   0.1770 
  3 C        2.6100    -1.6210    -0.0820 C.ar  1 <1>  -0.1500 
  4 C        2.6840     0.7160     0.4840 C.ar  1 <1>  -0.1500 
  5 C        3.9930    -1.6620    -0.0660 C.ar  1 <1>  -0.1500 
  6 C        4.0670     0.6640     0.4990 C.ar  1 <1>  -0.1500 
  7 C        4.7440    -0.5240     0.2220 C.ar  1 <1>   0.1170 
  8 N        6.1530    -0.5660     0.2240 N.am  1 <1>  -0.4770 
  9 C        6.9720    -1.5880     0.6130 C.2   1 <1>   0.5690 
 10 C        6.9560     0.5810    -0.2510 C.3   1 <1>   0.1400 
 11 O        6.6380    -2.6590     1.0550 O.2   1 <1>  -0.5700 
 12 C        8.4210    -1.2340     0.4250 C.3   1 <1>  -0.0990 
 13 C        8.3600     0.0030    -0.4840 C.3   1 <1>  -0.0190 
 14 C        9.4840     1.0040    -0.2550 C.2   1 <1>   0.5690 
 15 O        9.2040     2.1630    -0.0780 O.2   1 <1>  -0.5700 
 16 N       10.7640     0.5170    -0.2730 N.am  1 <1>  -0.4940 
 17 C       12.0140     1.1100    -0.1540 C.2   1 <1>   0.1040 
 18 S       12.1690     2.8580    -0.0690 S.3   1 <1>  -0.0800 
 19 C       13.2390     0.5000    -0.0970 C.2   1 <1>  -0.0860 
 20 C       13.9130     2.7420     0.0000 C.2   1 <1>  -0.1400 
 21 C       14.3200     1.4640    -0.0410 C.2   1 <1>  -0.1810 
 22 C       13.3810    -0.9370    -0.0870 C.2   1 <1>   0.7160 
 23 C       14.7430     4.0050     0.0690 C.3   1 <1>   0.0200 
 24 C       15.8110     1.1430    -0.0510 C.3   1 <1>   0.0210 
 25 O       12.4900    -1.6690    -0.4790 O.2   1 <1>  -0.5700 
 26 N       14.4710    -1.5620     0.4050 N.am  1 <1>  -0.8000 
 27 C       16.2020     3.6340     0.3890 C.3   1 <1>  -0.1600 
 28 C       16.6560     2.3870    -0.3940 C.3   1 <1>  -0.1600 
 29 H        2.0340    -2.5010    -0.3030 H     1 <1>   0.1500 
 30 H        2.1620     1.6320     0.6990 H     1 <1>   0.1500 
 31 H        4.4950    -2.5900    -0.2790 H     1 <1>   0.1500 
 32 H        4.6200     1.5540     0.7370 H     1 <1>   0.1500 
 33 H        6.9680     1.3340     0.5190 H     1 <1>   0.0800 
 34 H        6.5460     0.9930    -1.1570 H     1 <1>   0.0800 
 35 H        8.9590    -2.0470    -0.0280 H     1 <1>   0.0800 
 36 H        8.8420    -0.9990     1.3860 H     1 <1>   0.0800 
 37 H        8.4090    -0.3180    -1.5090 H     1 <1>   0.0800 
 38 H       10.8400    -0.4960    -0.4180 H     1 <1>   0.3700 
 39 H       14.3550     4.6620     0.8270 H     1 <1>   0.0800 
 40 H       14.6880     4.5070    -0.8800 H     1 <1>   0.0800 
 41 H       16.0180     0.3790    -0.7790 H     1 <1>   0.0800 
 42 H       16.0960     0.7820     0.9210 H     1 <1>   0.0800 
 43 H       14.4670    -2.5800     0.4580 H     1 <1>   0.3700 
 44 H       15.1720    -1.0710     0.9550 H     1 <1>   0.3700 
 45 H       16.2860     3.4340     1.4430 H     1 <1>   0.0800 
 46 H       16.8410     4.4690     0.1590 H     1 <1>   0.0800 
 47 H       16.5660     2.5880    -1.4480 H     1 <1>   0.0800 
 48 H       17.6920     2.1840    -0.1860 H     1 <1>   0.0800 
@<TRIPOS>BOND
  1   1   2  1   
  2   2   3  ar  
  3   2   4  ar  
  4   3   5  ar  
  5   3  29  1   
  6   4   6  ar  
  7   4  30  1   
  8   5   7  ar  
  9   5  31  1   
 10   6   7  ar  
 11   6  32  1   
 12   7   8  1   
 13   8   9  am  
 14   8  10  1   
 15   9  11  2   
 16   9  12  1   
 17  10  13  1   
 18  10  33  1   
 19  10  34  1   
 20  12  13  1   
 21  12  35  1   
 22  12  36  1   
 23  13  14  1   
 24  13  37  1   
 25  14  15  2   
 26  14  16  am  
 27  16  17  1   
 28  16  38  1   
 29  17  18  1   
 30  17  19  2   
 31  18  20  1   
 32  19  21  1   
 33  19  22  1   
 34  20  21  2   
 35  20  23  1   
 36  21  24  1   
 37  22  25  2   
 38  22  26  am  
 39  23  27  1   
 40  23  39  1   
 41  23  40  1   
 42  24  28  1   
 43  24  41  1   
 44  24  42  1   
 45  26  43  1   
 46  26  44  1   
 47  27  28  1   
 48  27  45  1   
 49  27  46  1   
 50  28  47  1   
 51  28  48  1   
@<TRIPOS>SUBSTRUCTURE
  1 ****  14 GROUP 4 **** **** 0

# MOE 2024.06 (io_trps.svl 2023.06)
