@<TRIPOS>MOLECULE
NONAME
35 36 1 0 0 
SMALL
USER_CHARGES


@<TRIPOS>ATOM
  1 S        1.0160    -1.0760    -2.0390 S.3   1 <1>  -0.0800 
  2 C        1.6080    -0.4160    -0.5100 C.2   1 <1>  -0.0450 
  3 C        0.3290    -2.4820    -1.2550 C.2   1 <1>  -0.1100 
  4 C        2.3210     0.8390    -0.5300 C.2   1 <1>   0.7150 
  5 C        1.2570    -1.2680     0.4890 C.2   1 <1>  -0.1500 
  6 C        0.5430    -2.4290     0.0720 C.2   1 <1>  -0.1500 
  7 O        2.0430     1.6870    -1.3590 O.2   1 <1>  -0.5700 
  8 N        3.3260     1.1140     0.3770 N.am  1 <1>  -0.6600 
  9 C        4.1990     0.0630     0.9760 C.3   1 <1>   0.1400 
 10 C        3.7910     2.5070     0.6270 C.3   1 <1>   0.1400 
 11 C        5.6270     0.1970     0.4250 C.3   1 <1>  -0.0190 
 12 C        5.2180     2.6780     0.0980 C.3   1 <1>  -0.1600 
 13 C        6.5350    -0.8690     1.0440 C.2   1 <1>   0.6590 
 14 C        6.1700     1.6190     0.6770 C.3   1 <1>  -0.1600 
 15 O        6.3010    -1.3060     2.1390 O.2   1 <1>  -0.5700 
 16 O        7.6000    -1.3080     0.3780 O.3   1 <1>  -0.4300 
 17 C        7.9340    -1.0150    -0.9590 C.3   1 <1>   0.1200 
 18 C        9.2430    -1.7270    -1.2790 C.3   1 <1>  -0.2400 
 19 H       -0.1680    -3.2050    -1.8760 H     1 <1>   0.1500 
 20 H        1.4780    -1.1080     1.5300 H     1 <1>   0.1500 
 21 H        0.2200    -3.1700     0.7830 H     1 <1>   0.1500 
 22 H        3.8310    -0.9220     0.7480 H     1 <1>   0.0800 
 23 H        4.2020     0.1790     2.0480 H     1 <1>   0.0800 
 24 H        3.7680     2.6980     1.6860 H     1 <1>   0.0800 
 25 H        3.1370     3.2190     0.1500 H     1 <1>   0.0800 
 26 H        5.5610     0.0260    -0.6330 H     1 <1>   0.0800 
 27 H        5.5730     3.6620     0.3510 H     1 <1>   0.0800 
 28 H        5.1970     2.6070    -0.9760 H     1 <1>   0.0800 
 29 H        7.1440     1.7320     0.2350 H     1 <1>   0.0800 
 30 H        6.2720     1.7760     1.7380 H     1 <1>   0.0800 
 31 H        8.0480     0.0500    -1.0660 H     1 <1>   0.0800 
 32 H        7.1440    -1.3720    -1.5980 H     1 <1>   0.0800 
 33 H       10.0240    -1.3770    -0.6280 H     1 <1>   0.0800 
 34 H        9.5290    -1.5280    -2.2950 H     1 <1>   0.0800 
 35 H        9.1260    -2.7890    -1.1570 H     1 <1>   0.0800 
@<TRIPOS>BOND
  1   1   2  1   
  2   1   3  1   
  3   2   4  1   
  4   2   5  2   
  5   3   6  2   
  6   3  19  1   
  7   4   7  2   
  8   4   8  am  
  9   5   6  1   
 10   5  20  1   
 11   6  21  1   
 12   8   9  1   
 13   8  10  1   
 14   9  11  1   
 15   9  22  1   
 16   9  23  1   
 17  10  12  1   
 18  10  24  1   
 19  10  25  1   
 20  11  13  1   
 21  11  14  1   
 22  11  26  1   
 23  12  14  1   
 24  12  27  1   
 25  12  28  1   
 26  13  15  2   
 27  13  16  1   
 28  14  29  1   
 29  14  30  1   
 30  16  17  1   
 31  17  18  1   
 32  17  31  1   
 33  17  32  1   
 34  18  33  1   
 35  18  34  1   
 36  18  35  1   
@<TRIPOS>SUBSTRUCTURE
  1 ****   9 GROUP 4 **** **** 0

# MOE 2024.06 (io_trps.svl 2023.06)
