@<TRIPOS>MOLECULE
NONAME
51 52 1 0 0 
SMALL
USER_CHARGES


@<TRIPOS>ATOM
  1 O       -6.0090    -8.3300    -0.3580 O.3   1 <1>  -0.3630 
  2 C       -7.1600    -9.0380    -0.2300 C.ar  1 <1>   0.0830 
  3 C       -4.7560    -8.9840    -0.4280 C.3   1 <1>   0.1200 
  4 C       -8.3230    -8.3130    -0.0330 C.ar  1 <1>  -0.1500 
  5 C       -7.2240   -10.4250    -0.2840 C.ar  1 <1>  -0.1500 
  6 C       -3.6290    -7.9440    -0.4970 C.3   1 <1>   0.2000 
  7 C       -9.5470    -8.9480     0.1140 C.ar  1 <1>  -0.1440 
  8 C       -8.4420   -11.0640    -0.1380 C.ar  1 <1>  -0.1500 
  9 O       -2.4110    -8.6140    -0.4440 O.3   1 <1>  -0.6800 
 10 C       -3.6830    -6.8900     0.6350 C.3   1 <1>   0.1100 
 11 C       -9.6070   -10.3370     0.0610 C.ar  1 <1>  -0.1430 
 12 C      -10.7980    -8.1070     0.3290 C.3   1 <1>  -0.0970 
 13 N       -3.8810    -5.5110     0.1250 N.3   1 <1>  -0.8100 
 14 C      -10.9250   -11.0820     0.2170 C.3   1 <1>  -0.0970 
 15 C       -3.5800    -4.5130     1.1670 C.3   1 <1>   0.1100 
 16 C       -5.2340    -5.3130    -0.4380 C.3   1 <1>   0.1100 
 17 C       -3.7380    -3.0770     0.6290 C.3   1 <1>   0.3430 
 18 C       -5.4140    -3.8840    -0.9850 C.3   1 <1>   0.3430 
 19 N       -5.1100    -2.8400     0.0590 N.4   1 <1>  -0.9590 
 20 C       -5.2080    -1.4460    -0.4800 C.3   1 <1>   0.3430 
 21 C       -6.6410    -1.0520    -0.8680 C.3   1 <1>   0.1200 
 22 O       -6.6120     0.2640    -1.2910 O.3   1 <1>  -0.6800 
 23 H       -4.7450    -9.5950    -1.3140 H     1 <1>   0.0800 
 24 H       -4.6530    -9.5930     0.4520 H     1 <1>   0.0800 
 25 H       -8.2620    -7.2430     0.0050 H     1 <1>   0.1500 
 26 H       -6.3490   -11.0250    -0.4400 H     1 <1>   0.1500 
 27 H       -3.6580    -7.4550    -1.4550 H     1 <1>   0.0800 
 28 H       -8.4790   -12.1380    -0.1810 H     1 <1>   0.1500 
 29 H       -2.2890    -9.0620     0.4140 H     1 <1>   0.4000 
 30 H       -2.7530    -6.9250     1.1770 H     1 <1>   0.0800 
 31 H       -4.4730    -7.1310     1.3270 H     1 <1>   0.0800 
 32 H      -10.5630    -7.0590     0.3420 H     1 <1>   0.0800 
 33 H      -11.2550    -8.3620     1.2680 H     1 <1>   0.0800 
 34 H      -11.5010    -8.2850    -0.4640 H     1 <1>   0.0800 
 35 H      -11.3620   -10.8630     1.1740 H     1 <1>   0.0800 
 36 H      -10.7790   -12.1450     0.1500 H     1 <1>   0.0800 
 37 H      -11.6090   -10.7870    -0.5580 H     1 <1>   0.0800 
 38 H       -2.5620    -4.6450     1.4970 H     1 <1>   0.0800 
 39 H       -4.2250    -4.6580     2.0170 H     1 <1>   0.0800 
 40 H       -5.9810    -5.5170     0.3110 H     1 <1>   0.0800 
 41 H       -5.3910    -6.0000    -1.2510 H     1 <1>   0.0800 
 42 H       -2.9950    -2.9210    -0.1360 H     1 <1>   0.0800 
 43 H       -3.5440    -2.3780     1.4270 H     1 <1>   0.0800 
 44 H       -6.4240    -3.7710    -1.3400 H     1 <1>   0.0800 
 45 H       -4.7500    -3.7600    -1.8240 H     1 <1>   0.0800 
 46 H       -5.7810    -2.9580     0.8290 H     1 <1>   0.4500 
 47 H       -4.5740    -1.3480    -1.3460 H     1 <1>   0.0800 
 48 H       -4.8650    -0.7500     0.2670 H     1 <1>   0.0800 
 49 H       -7.3030    -1.1140    -0.0220 H     1 <1>   0.0800 
 50 H       -7.0080    -1.6520    -1.6820 H     1 <1>   0.0800 
 51 H       -7.5030     0.5880    -1.5460 H     1 <1>   0.4000 
@<TRIPOS>BOND
  1   1   2  1   
  2   1   3  1   
  3   2   4  ar  
  4   2   5  ar  
  5   3   6  1   
  6   3  23  1   
  7   3  24  1   
  8   4   7  ar  
  9   4  25  1   
 10   5   8  ar  
 11   5  26  1   
 12   6   9  1   
 13   6  10  1   
 14   6  27  1   
 15   7  11  ar  
 16   7  12  1   
 17   8  11  ar  
 18   8  28  1   
 19   9  29  1   
 20  10  13  1   
 21  10  30  1   
 22  10  31  1   
 23  11  14  1   
 24  12  32  1   
 25  12  33  1   
 26  12  34  1   
 27  13  15  1   
 28  13  16  1   
 29  14  35  1   
 30  14  36  1   
 31  14  37  1   
 32  15  17  1   
 33  15  38  1   
 34  15  39  1   
 35  16  18  1   
 36  16  40  1   
 37  16  41  1   
 38  17  19  1   
 39  17  42  1   
 40  17  43  1   
 41  18  19  1   
 42  18  44  1   
 43  18  45  1   
 44  19  20  1   
 45  19  46  1   
 46  20  21  1   
 47  20  47  1   
 48  20  48  1   
 49  21  22  1   
 50  21  49  1   
 51  21  50  1   
 52  22  51  1   
@<TRIPOS>SUBSTRUCTURE
  1 ****  16 GROUP 4 **** **** 0

# MOE 2024.06 (io_trps.svl 2023.06)
