@<TRIPOS>MOLECULE
NONAME
58 62 1 0 0 
SMALL
USER_CHARGES


@<TRIPOS>ATOM
  1 O       -0.8570    -0.8390     1.7390 O.3   1 <1>  -0.6800 
  2 C       -1.5440    -1.0200     0.5390 C.3   1 <1>   0.2800 
  3 C       -0.8270    -2.0860    -0.3510 C.3   1 <1>   0.1440 
  4 C       -2.9280    -1.5820     0.9350 C.3   1 <1>  -0.0800 
  5 C       -1.6340     0.3870    -0.1490 C.3   1 <1>   0.3430 
  6 C        0.5700    -1.6000    -0.8250 C.ar  1 <1>  -0.1440 
  7 C       -1.7200    -2.4010    -1.5840 C.3   1 <1>   0.3430 
  8 C       -0.6750    -3.3940     0.4600 C.3   1 <1>   0.1100 
  9 C       -3.8210    -1.8090    -0.2910 C.3   1 <1>   0.3430 
 10 C       -2.7830    -2.8900     1.7350 C.3   1 <1>   0.1100 
 11 N       -0.3430     1.1680    -0.2240 N.4   1 <1>  -0.9590 
 12 C        0.8630    -1.3130    -2.1610 C.ar  1 <1>  -0.1500 
 13 C        1.5920    -1.4160     0.1050 C.ar  1 <1>  -0.1500 
 14 N       -3.1820    -2.6800    -1.3300 N.4   1 <1>  -0.9590 
 15 N       -1.9610    -3.8690     1.0090 N.3   1 <1>  -0.8100 
 16 C       -0.0710     1.9290     1.0370 C.3   1 <1>   0.3430 
 17 C       -0.2820     2.0670    -1.4130 C.3   1 <1>   0.3430 
 18 C        2.1110    -0.8500    -2.5380 C.ar  1 <1>  -0.1500 
 19 C        2.8380    -0.9510    -0.2710 C.ar  1 <1>  -0.1500 
 20 C       -3.4470    -4.1450    -1.0620 C.3   1 <1>   0.3430 
 21 C       -2.7060    -4.7880     0.1310 C.3   1 <1>   0.1100 
 22 C        1.3290     2.5410     0.9770 C.3   1 <1>  -0.1600 
 23 C        1.1090     2.6940    -1.5240 C.3   1 <1>  -0.1600 
 24 C        3.1000    -0.6640    -1.5940 C.ar  1 <1>  -0.1500 
 25 C        1.4990     3.4470    -0.2470 C.3   1 <1>  -0.1600 
 26 H       -0.8040    -1.6860     2.2340 H     1 <1>   0.4000 
 27 H       -3.4280    -0.8670     1.5660 H     1 <1>   0.0800 
 28 H       -2.3610     0.9780     0.3830 H     1 <1>   0.0800 
 29 H       -2.0130     0.2480    -1.1460 H     1 <1>   0.0800 
 30 H       -1.2850    -3.2330    -2.1150 H     1 <1>   0.0800 
 31 H       -1.6700    -1.5500    -2.2400 H     1 <1>   0.0800 
 32 H       -0.0030    -3.2450     1.2880 H     1 <1>   0.0800 
 33 H       -0.2300    -4.1610    -0.1530 H     1 <1>   0.0800 
 34 H       -4.0530    -0.8530    -0.7300 H     1 <1>   0.0800 
 35 H       -4.7540    -2.2490     0.0260 H     1 <1>   0.0800 
 36 H       -2.3190    -2.6920     2.6870 H     1 <1>   0.0800 
 37 H       -3.7510    -3.3130     1.9530 H     1 <1>   0.0800 
 38 H        0.4400     0.4930    -0.3110 H     1 <1>   0.4500 
 39 H        0.1600    -1.4370    -2.9640 H     1 <1>   0.1500 
 40 H        1.4520    -1.6310     1.1500 H     1 <1>   0.1500 
 41 H       -3.6810    -2.5000    -2.2150 H     1 <1>   0.4500 
 42 H       -0.1290     1.2790     1.8940 H     1 <1>   0.0800 
 43 H       -0.8010     2.7120     1.1580 H     1 <1>   0.0800 
 44 H       -1.0180     2.8480    -1.3190 H     1 <1>   0.0800 
 45 H       -0.4870     1.5080    -2.3120 H     1 <1>   0.0800 
 46 H        2.3250    -0.6400    -3.5730 H     1 <1>   0.1500 
 47 H        3.6140    -0.8210     0.4670 H     1 <1>   0.1500 
 48 H       -3.1990    -4.7160    -1.9420 H     1 <1>   0.0800 
 49 H       -4.5040    -4.2850    -0.9020 H     1 <1>   0.0800 
 50 H       -3.4260    -5.3240     0.7270 H     1 <1>   0.0800 
 51 H       -2.0270    -5.5340    -0.2470 H     1 <1>   0.0800 
 52 H        2.0620     1.7530     0.9580 H     1 <1>   0.0800 
 53 H        1.4990     3.1150     1.8720 H     1 <1>   0.0800 
 54 H        1.1240     3.3760    -2.3570 H     1 <1>   0.0800 
 55 H        1.8330     1.9250    -1.7280 H     1 <1>   0.0800 
 56 H        4.0750    -0.3100    -1.8890 H     1 <1>   0.1500 
 57 H        2.5220     3.7810    -0.3170 H     1 <1>   0.0800 
 58 H        0.8770     4.3200    -0.1390 H     1 <1>   0.0800 
@<TRIPOS>BOND
  1   1   2  1   
  2   1  26  1   
  3   2   3  1   
  4   2   4  1   
  5   2   5  1   
  6   3   6  1   
  7   3   7  1   
  8   3   8  1   
  9   4   9  1   
 10   4  10  1   
 11   4  27  1   
 12   5  11  1   
 13   5  28  1   
 14   5  29  1   
 15   6  12  ar  
 16   6  13  ar  
 17   7  14  1   
 18   7  30  1   
 19   7  31  1   
 20   8  15  1   
 21   8  32  1   
 22   8  33  1   
 23   9  14  1   
 24   9  34  1   
 25   9  35  1   
 26  10  15  1   
 27  10  36  1   
 28  10  37  1   
 29  11  16  1   
 30  11  17  1   
 31  11  38  1   
 32  12  18  ar  
 33  12  39  1   
 34  13  19  ar  
 35  13  40  1   
 36  14  20  1   
 37  14  41  1   
 38  15  21  1   
 39  16  22  1   
 40  16  42  1   
 41  16  43  1   
 42  17  23  1   
 43  17  44  1   
 44  17  45  1   
 45  18  24  ar  
 46  18  46  1   
 47  19  24  ar  
 48  19  47  1   
 49  20  21  1   
 50  20  48  1   
 51  20  49  1   
 52  21  50  1   
 53  21  51  1   
 54  22  25  1   
 55  22  52  1   
 56  22  53  1   
 57  23  25  1   
 58  23  54  1   
 59  23  55  1   
 60  24  56  1   
 61  25  57  1   
 62  25  58  1   
@<TRIPOS>SUBSTRUCTURE
  1 ****   3 GROUP 4 **** **** 0

# MOE 2024.06 (io_trps.svl 2023.06)
