@<TRIPOS>MOLECULE
NONAME
46 49 1 0 0 
SMALL
USER_CHARGES


@<TRIPOS>ATOM
  1 N        0.9380    -0.5940     1.1890 N.ar  1 <1>  -0.6200 
  2 C        1.4370    -0.8390    -0.0150 C.ar  1 <1>   0.4100 
  3 C       -0.2190    -1.1800     1.4550 C.ar  1 <1>   0.1600 
  4 N        2.6410    -0.2350    -0.3050 N.pl3 1 <1>  -0.8380 
  5 C        0.8190    -1.6490    -0.9620 C.ar  1 <1>  -0.1500 
  6 C       -0.9100    -2.0010     0.5810 C.ar  1 <1>  -0.1500 
  7 C        3.7760    -0.7330     0.5240 C.3   1 <1>   0.2090 
  8 C        2.5610     1.2530    -0.3840 C.3   1 <1>   0.2090 
  9 C       -0.3830    -2.2500    -0.6700 C.ar  1 <1>  -0.1500 
 10 C        5.1100    -0.0750     0.1210 C.3   1 <1>   0.3430 
 11 C        3.9150     1.8790    -0.7730 C.3   1 <1>   0.3430 
 12 N        5.0490     1.4380     0.1280 N.4   1 <1>  -0.9590 
 13 C        6.3560     2.0900    -0.2300 C.3   1 <1>   0.4230 
 14 C        7.5280     1.5060     0.5830 C.3   1 <1>  -0.0170 
 15 C        6.2750     3.6030     0.0170 C.3   1 <1>  -0.1600 
 16 C        8.8120     2.3040     0.4270 C.ar  1 <1>  -0.1430 
 17 C        7.5340     4.2980    -0.5120 C.3   1 <1>  -0.0170 
 18 C        8.8120     3.6020    -0.0710 C.ar  1 <1>  -0.1430 
 19 C       10.0100     1.7170     0.8070 C.ar  1 <1>  -0.1500 
 20 C       10.0090     4.2910    -0.1860 C.ar  1 <1>  -0.1500 
 21 C       11.2000     2.4100     0.6900 C.ar  1 <1>  -0.1500 
 22 C       11.2000     3.6990     0.1920 C.ar  1 <1>  -0.1500 
 23 H       -0.6440    -0.9960     2.4280 H     1 <1>   0.1500 
 24 H        1.2920    -1.7940    -1.9140 H     1 <1>   0.1500 
 25 H       -1.8460    -2.4400     0.8750 H     1 <1>   0.1500 
 26 H        3.8550    -1.8000     0.4040 H     1 <1>   0.0800 
 27 H        3.5770    -0.5370     1.5650 H     1 <1>   0.0800 
 28 H        2.2390     1.6490     0.5640 H     1 <1>   0.0800 
 29 H        1.8200     1.5240    -1.1170 H     1 <1>   0.0800 
 30 H       -0.8880    -2.8830    -1.3790 H     1 <1>   0.1500 
 31 H        5.3700    -0.4210    -0.8660 H     1 <1>   0.0800 
 32 H        5.8710    -0.4190     0.8010 H     1 <1>   0.0800 
 33 H        3.8060     2.9490    -0.7410 H     1 <1>   0.0800 
 34 H        4.1340     1.6010    -1.7900 H     1 <1>   0.0800 
 35 H        4.8070     1.7260     1.0850 H     1 <1>   0.4500 
 36 H        6.5610     1.9260    -1.2760 H     1 <1>   0.0800 
 37 H        7.7290     0.5020     0.2580 H     1 <1>   0.0800 
 38 H        7.2770     1.4930     1.6290 H     1 <1>   0.0800 
 39 H        6.1960     3.7950     1.0740 H     1 <1>   0.0800 
 40 H        5.4350     4.0510    -0.4770 H     1 <1>   0.0800 
 41 H        7.5460     5.3190    -0.1700 H     1 <1>   0.0800 
 42 H        7.5140     4.3150    -1.5880 H     1 <1>   0.0800 
 43 H       10.0300     0.7160     1.2010 H     1 <1>   0.1500 
 44 H       10.0250     5.2950    -0.5730 H     1 <1>   0.1500 
 45 H       12.1270     1.9490     0.9860 H     1 <1>   0.1500 
 46 H       12.1250     4.2410     0.1000 H     1 <1>   0.1500 
@<TRIPOS>BOND
  1   1   2  ar  
  2   1   3  ar  
  3   2   4  1   
  4   2   5  ar  
  5   3   6  ar  
  6   3  23  1   
  7   4   7  1   
  8   4   8  1   
  9   5   9  ar  
 10   5  24  1   
 11   6   9  ar  
 12   6  25  1   
 13   7  10  1   
 14   7  26  1   
 15   7  27  1   
 16   8  11  1   
 17   8  28  1   
 18   8  29  1   
 19   9  30  1   
 20  10  12  1   
 21  10  31  1   
 22  10  32  1   
 23  11  12  1   
 24  11  33  1   
 25  11  34  1   
 26  12  13  1   
 27  12  35  1   
 28  13  14  1   
 29  13  15  1   
 30  13  36  1   
 31  14  16  1   
 32  14  37  1   
 33  14  38  1   
 34  15  17  1   
 35  15  39  1   
 36  15  40  1   
 37  16  18  ar  
 38  16  19  ar  
 39  17  18  1   
 40  17  41  1   
 41  17  42  1   
 42  18  20  ar  
 43  19  21  ar  
 44  19  43  1   
 45  20  22  ar  
 46  20  44  1   
 47  21  22  ar  
 48  21  45  1   
 49  22  46  1   
@<TRIPOS>SUBSTRUCTURE
  1 ****  12 GROUP 4 **** **** 0

# MOE 2024.06 (io_trps.svl 2023.06)
