@<TRIPOS>MOLECULE
NONAME
46 48 1 0 0 
SMALL
USER_CHARGES


@<TRIPOS>ATOM
  1 O        0.5820     0.0090     0.2640 O.3   1 <1>  -0.3630 
  2 C        0.4650    -1.3490     0.2100 C.ar  1 <1>   0.0830 
  3 C        1.5870     0.5900     1.0680 C.3   1 <1>   0.0400 
  4 C        1.5540    -2.2370    -0.0400 C.ar  1 <1>   0.3100 
  5 C       -0.8020    -1.8230     0.4040 C.ar  1 <1>  -0.1500 
  6 N        2.7860    -1.7080    -0.2690 N.ar  1 <1>  -0.6200 
  7 C        1.3060    -3.6410    -0.0530 C.ar  1 <1>   0.0000 
  8 C       -1.0540    -3.1870     0.3880 C.ar  1 <1>  -0.1500 
  9 C        3.7910    -2.5020    -0.4830 C.ar  1 <1>   0.4100 
 10 C       -0.0330    -4.0860     0.1720 C.ar  1 <1>   0.0830 
 11 C        2.4280    -4.4840    -0.3040 C.ar  1 <1>  -0.1440 
 12 N        5.0350    -1.9280    -0.6920 N.pl3 1 <1>  -0.8380 
 13 C        3.6350    -3.8950    -0.5160 C.ar  1 <1>  -0.1500 
 14 O       -0.2890    -5.4230     0.1690 O.3   1 <1>  -0.3630 
 15 C        2.3720    -6.0070    -0.3620 C.3   1 <1>  -0.0970 
 16 C        6.2810    -2.5300    -0.1490 C.3   1 <1>   0.2090 
 17 C        5.1400    -0.6840    -1.5020 C.3   1 <1>   0.2090 
 18 C       -1.5780    -5.9670     0.3520 C.3   1 <1>   0.0400 
 19 C        7.0680    -1.5590     0.7410 C.3   1 <1>  -0.1600 
 20 C        5.3660     0.5240    -0.5890 C.3   1 <1>  -0.1600 
 21 C        7.7350    -0.4160    -0.0400 C.3   1 <1>  -0.1600 
 22 C        6.8380     0.8140    -0.2490 C.3   1 <1>  -0.1600 
 23 H        1.2390     1.5500     1.4010 H     1 <1>   0.0800 
 24 H        2.4740     0.7120     0.4730 H     1 <1>   0.0800 
 25 H        1.7850    -0.0490     1.9100 H     1 <1>   0.0800 
 26 H       -1.6090    -1.1340     0.5740 H     1 <1>   0.1500 
 27 H       -2.0680    -3.4950     0.5520 H     1 <1>   0.1500 
 28 H        4.5050    -4.4820    -0.7290 H     1 <1>   0.1500 
 29 H        2.0290    -6.3990     0.5790 H     1 <1>   0.0800 
 30 H        3.3390    -6.4290    -0.5640 H     1 <1>   0.0800 
 31 H        1.7040    -6.3210    -1.1430 H     1 <1>   0.0800 
 32 H        6.8960    -2.8660    -0.9650 H     1 <1>   0.0800 
 33 H        6.0290    -3.3880     0.4500 H     1 <1>   0.0800 
 34 H        4.2210    -0.5430    -2.0460 H     1 <1>   0.0800 
 35 H        5.9330    -0.7750    -2.2230 H     1 <1>   0.0800 
 36 H       -1.4990    -7.0370     0.2940 H     1 <1>   0.0800 
 37 H       -2.2250    -5.6060    -0.4280 H     1 <1>   0.0800 
 38 H       -1.9430    -5.6810     1.3230 H     1 <1>   0.0800 
 39 H        7.8450    -2.1290     1.2170 H     1 <1>   0.0800 
 40 H        6.4310    -1.1780     1.5200 H     1 <1>   0.0800 
 41 H        4.8050     0.3710     0.3170 H     1 <1>   0.0800 
 42 H        4.9550     1.3930    -1.0690 H     1 <1>   0.0800 
 43 H        8.0700    -0.7840    -0.9940 H     1 <1>   0.0800 
 44 H        8.6120    -0.0950     0.4960 H     1 <1>   0.0800 
 45 H        6.8580     1.4150     0.6440 H     1 <1>   0.0800 
 46 H        7.2670     1.4080    -1.0380 H     1 <1>   0.0800 
@<TRIPOS>BOND
  1   1   2  1   
  2   1   3  1   
  3   2   4  ar  
  4   2   5  ar  
  5   3  23  1   
  6   3  24  1   
  7   3  25  1   
  8   4   6  ar  
  9   4   7  ar  
 10   5   8  ar  
 11   5  26  1   
 12   6   9  ar  
 13   7  10  ar  
 14   7  11  ar  
 15   8  10  ar  
 16   8  27  1   
 17   9  12  1   
 18   9  13  ar  
 19  10  14  1   
 20  11  13  ar  
 21  11  15  1   
 22  12  16  1   
 23  12  17  1   
 24  13  28  1   
 25  14  18  1   
 26  15  29  1   
 27  15  30  1   
 28  15  31  1   
 29  16  19  1   
 30  16  32  1   
 31  16  33  1   
 32  17  20  1   
 33  17  34  1   
 34  17  35  1   
 35  18  36  1   
 36  18  37  1   
 37  18  38  1   
 38  19  21  1   
 39  19  39  1   
 40  19  40  1   
 41  20  22  1   
 42  20  41  1   
 43  20  42  1   
 44  21  22  1   
 45  21  43  1   
 46  21  44  1   
 47  22  45  1   
 48  22  46  1   
@<TRIPOS>SUBSTRUCTURE
  1 ****   6 GROUP 4 **** **** 0

# MOE 2024.06 (io_trps.svl 2023.06)
