@<TRIPOS>MOLECULE
NONAME
46 48 1 0 0 
SMALL
USER_CHARGES


@<TRIPOS>ATOM
  1 CL      -4.0000     4.6200     2.4980 Cl    1 <1>  -0.1770 
  2 C       -3.8840     3.2720     1.3900 C.ar  1 <1>   0.1770 
  3 C       -2.6600     2.6840     1.1170 C.ar  1 <1>   0.1770 
  4 C       -5.0380     2.8030     0.7910 C.ar  1 <1>  -0.1500 
  5 CL      -1.1930     3.2690     1.8700 Cl    1 <1>  -0.1770 
  6 C       -2.5840     1.6200     0.2380 C.ar  1 <1>  -0.1500 
  7 C       -4.9820     1.7310    -0.0930 C.ar  1 <1>   0.1170 
  8 C       -3.7420     1.1500    -0.3620 C.ar  1 <1>  -0.1500 
  9 N       -6.1760     1.2880    -0.6800 N.am  1 <1>  -0.5470 
 10 C       -6.5100     0.1600    -1.3740 C.2   1 <1>   0.5690 
 11 O       -5.7500    -0.7470    -1.6120 O.2   1 <1>  -0.5700 
 12 C       -7.9570     0.0700    -1.8620 C.3   1 <1>   0.1710 
 13 N       -8.9080     0.9040    -1.0650 N.3   1 <1>  -0.8100 
 14 C       -9.1940     0.2660     0.2440 C.3   1 <1>   0.1100 
 15 C      -10.1720     1.1030    -1.8050 C.3   1 <1>   0.1100 
 16 C      -10.1540     1.1130     1.0940 C.3   1 <1>   0.1400 
 17 C      -11.1700     1.9700    -1.0170 C.3   1 <1>   0.1400 
 18 N      -11.4130     1.4050     0.3460 N.am  1 <1>  -0.6600 
 19 C      -12.6540     1.2340     0.9220 C.2   1 <1>   0.5690 
 20 O      -12.7480     0.7960     2.0490 O.2   1 <1>  -0.5700 
 21 C      -13.9530     1.5730     0.1420 C.3   1 <1>   0.2610 
 22 O      -13.9800     2.9220    -0.2480 O.3   1 <1>  -0.5600 
 23 C      -15.2580     1.4230     0.9260 C.3   1 <1>  -0.1600 
 24 C      -14.5040     3.7010     0.7800 C.3   1 <1>   0.1200 
 25 C      -15.4360     2.7870     1.5740 C.3   1 <1>  -0.1600 
 26 H       -5.9760     3.2740     1.0180 H     1 <1>   0.1500 
 27 H       -1.6320     1.1660     0.0270 H     1 <1>   0.1500 
 28 H       -3.6700     0.3250    -1.0470 H     1 <1>   0.1500 
 29 H       -7.0060     1.8730    -0.5310 H     1 <1>   0.3700 
 30 H       -8.2670    -0.9600    -1.8510 H     1 <1>   0.0800 
 31 H       -7.9610     0.4040    -2.8840 H     1 <1>   0.0800 
 32 H       -8.2780     0.1310     0.7940 H     1 <1>   0.0800 
 33 H       -9.6340    -0.7060     0.0930 H     1 <1>   0.0800 
 34 H      -10.6280     0.1510    -2.0170 H     1 <1>   0.0800 
 35 H       -9.9630     1.5900    -2.7430 H     1 <1>   0.0800 
 36 H       -9.6770     2.0410     1.3540 H     1 <1>   0.0800 
 37 H      -10.3700     0.5860     2.0080 H     1 <1>   0.0800 
 38 H      -12.0830     2.0360    -1.5790 H     1 <1>   0.0800 
 39 H      -10.7740     2.9650    -0.9180 H     1 <1>   0.0800 
 40 H      -13.9830     0.9680    -0.7450 H     1 <1>   0.0800 
 41 H      -15.2290     0.6200     1.6420 H     1 <1>   0.0800 
 42 H      -16.0580     1.2390     0.2310 H     1 <1>   0.0800 
 43 H      -15.0250     4.5380     0.3470 H     1 <1>   0.0800 
 44 H      -13.6870     4.0470     1.3900 H     1 <1>   0.0800 
 45 H      -15.1250     2.7650     2.6050 H     1 <1>   0.0800 
 46 H      -16.4560     3.1240     1.5200 H     1 <1>   0.0800 
@<TRIPOS>BOND
  1   1   2  1   
  2   2   3  ar  
  3   2   4  ar  
  4   3   5  1   
  5   3   6  ar  
  6   4   7  ar  
  7   4  26  1   
  8   6   8  ar  
  9   6  27  1   
 10   7   8  ar  
 11   7   9  1   
 12   8  28  1   
 13   9  10  am  
 14   9  29  1   
 15  10  11  2   
 16  10  12  1   
 17  12  13  1   
 18  12  30  1   
 19  12  31  1   
 20  13  14  1   
 21  13  15  1   
 22  14  16  1   
 23  14  32  1   
 24  14  33  1   
 25  15  17  1   
 26  15  34  1   
 27  15  35  1   
 28  16  18  1   
 29  16  36  1   
 30  16  37  1   
 31  17  18  1   
 32  17  38  1   
 33  17  39  1   
 34  18  19  am  
 35  19  20  2   
 36  19  21  1   
 37  21  22  1   
 38  21  23  1   
 39  21  40  1   
 40  22  24  1   
 41  23  25  1   
 42  23  41  1   
 43  23  42  1   
 44  24  25  1   
 45  24  43  1   
 46  24  44  1   
 47  25  45  1   
 48  25  46  1   
@<TRIPOS>SUBSTRUCTURE
  1 ****  13 GROUP 4 **** **** 0

# MOE 2024.06 (io_trps.svl 2023.06)
