@<TRIPOS>MOLECULE
NONAME
44 45 1 0 0 
SMALL
USER_CHARGES


@<TRIPOS>ATOM
  1 CL      -3.8240     2.1120    -1.1090 Cl    1 <1>  -0.1770 
  2 C       -2.2410     2.6230    -0.5760 C.ar  1 <1>   0.1770 
  3 C       -2.0570     3.9280    -0.1610 C.ar  1 <1>  -0.1500 
  4 C       -1.2030     1.7120    -0.5740 C.ar  1 <1>  -0.1500 
  5 C       -0.8040     4.3430     0.2600 C.ar  1 <1>  -0.1440 
  6 C        0.0570     2.1100    -0.1570 C.ar  1 <1>  -0.1440 
  7 C        0.2530     3.4330     0.2400 C.ar  1 <1>   0.0830 
  8 C       -0.6200     5.7760     0.7400 C.3   1 <1>  -0.0960 
  9 C        1.1870     1.0900    -0.1340 C.3   1 <1>  -0.0960 
 10 O        1.4850     3.8370     0.6210 O.3   1 <1>  -0.3630 
 11 C        2.3040     4.3410    -0.4010 C.3   1 <1>   0.1200 
 12 C        3.6400     4.7240     0.2330 C.3   1 <1>  -0.1600 
 13 C        4.5970     5.2710    -0.8230 C.3   1 <1>   0.3430 
 14 N        5.8570     5.7490    -0.1870 N.4   1 <1>  -0.9590 
 15 C        6.6240     6.6130    -1.1310 C.3   1 <1>   0.3430 
 16 C        6.7000     4.6250     0.3270 C.3   1 <1>   0.3430 
 17 C        7.8310     7.2200    -0.4120 C.3   1 <1>  -0.1600 
 18 C        7.9100     5.1880     1.0760 C.3   1 <1>  -0.1600 
 19 C        8.7320     6.1380     0.1960 C.3   1 <1>  -0.1600 
 20 H       -2.8940     4.6020    -0.1680 H     1 <1>   0.1500 
 21 H       -1.3910     0.7040    -0.8950 H     1 <1>   0.1500 
 22 H       -1.5640     6.2050     1.0250 H     1 <1>   0.0800 
 23 H       -0.1920     6.3750    -0.0420 H     1 <1>   0.0800 
 24 H        0.0290     5.8000     1.5980 H     1 <1>   0.0800 
 25 H        0.7950     0.0890    -0.1150 H     1 <1>   0.0800 
 26 H        1.7930     1.2260     0.7440 H     1 <1>   0.0800 
 27 H        1.8020     1.2010    -1.0070 H     1 <1>   0.0800 
 28 H        1.8120     5.1950    -0.8370 H     1 <1>   0.0800 
 29 H        2.4240     3.5730    -1.1460 H     1 <1>   0.0800 
 30 H        4.0520     3.8460     0.6950 H     1 <1>   0.0800 
 31 H        3.4560     5.4740     0.9820 H     1 <1>   0.0800 
 32 H        4.1180     6.0940    -1.3300 H     1 <1>   0.0800 
 33 H        4.8180     4.5090    -1.5530 H     1 <1>   0.0800 
 34 H        5.6080     6.3340     0.6220 H     1 <1>   0.4500 
 35 H        5.9950     7.4070    -1.5030 H     1 <1>   0.0800 
 36 H        6.9640     6.0270    -1.9700 H     1 <1>   0.0800 
 37 H        7.0380     4.0150    -0.4950 H     1 <1>   0.0800 
 38 H        6.1290     4.0040     0.9980 H     1 <1>   0.0800 
 39 H        7.4900     7.8910     0.3570 H     1 <1>   0.0800 
 40 H        8.4020     7.8030    -1.1150 H     1 <1>   0.0800 
 41 H        8.5350     4.3720     1.3970 H     1 <1>   0.0800 
 42 H        7.5760     5.7020     1.9600 H     1 <1>   0.0800 
 43 H        9.5120     6.5970     0.7820 H     1 <1>   0.0800 
 44 H        9.2050     5.5780    -0.5940 H     1 <1>   0.0800 
@<TRIPOS>BOND
  1   1   2  1   
  2   2   3  ar  
  3   2   4  ar  
  4   3   5  ar  
  5   3  20  1   
  6   4   6  ar  
  7   4  21  1   
  8   5   7  ar  
  9   5   8  1   
 10   6   7  ar  
 11   6   9  1   
 12   7  10  1   
 13   8  22  1   
 14   8  23  1   
 15   8  24  1   
 16   9  25  1   
 17   9  26  1   
 18   9  27  1   
 19  10  11  1   
 20  11  12  1   
 21  11  28  1   
 22  11  29  1   
 23  12  13  1   
 24  12  30  1   
 25  12  31  1   
 26  13  14  1   
 27  13  32  1   
 28  13  33  1   
 29  14  15  1   
 30  14  16  1   
 31  14  34  1   
 32  15  17  1   
 33  15  35  1   
 34  15  36  1   
 35  16  18  1   
 36  16  37  1   
 37  16  38  1   
 38  17  19  1   
 39  17  39  1   
 40  17  40  1   
 41  18  19  1   
 42  18  41  1   
 43  18  42  1   
 44  19  43  1   
 45  19  44  1   
@<TRIPOS>SUBSTRUCTURE
  1 ****  11 GROUP 4 **** **** 0

# MOE 2024.06 (io_trps.svl 2023.06)
