@<TRIPOS>MOLECULE
NONAME
46 48 1 0 0 
SMALL
USER_CHARGES


@<TRIPOS>ATOM
  1 O        0.3810    -0.0950     0.2270 O.2   1 <1>  -0.5700 
  2 C        0.8240     0.9720    -0.1510 C.2   1 <1>   0.6900 
  3 N        2.1660     1.1170    -0.4060 N.am  1 <1>  -0.6600 
  4 N        0.0090     2.0600    -0.2920 N.am  1 <1>  -0.5470 
  5 C        2.7570     2.1790    -1.2670 C.3   1 <1>   0.1400 
  6 C        3.1490     0.0860     0.0290 C.3   1 <1>   0.1400 
  7 C       -1.3810     2.1900    -0.2600 C.ar  1 <1>   0.1170 
  8 C        3.8550     2.9000    -0.4850 C.3   1 <1>  -0.1600 
  9 C        4.2690     0.7620     0.8220 C.3   1 <1>  -0.1600 
 10 C       -2.2520     1.1320    -0.5030 C.ar  1 <1>  -0.1500 
 11 C       -1.9380     3.4360     0.0070 C.ar  1 <1>  -0.1500 
 12 C        4.8950     1.9020     0.0140 C.3   1 <1>   0.5600 
 13 C       -3.6200     1.3140    -0.4740 C.ar  1 <1>  -0.1500 
 14 C       -3.3080     3.6160     0.0350 C.ar  1 <1>  -0.1500 
 15 O        5.8390     2.5760     0.7710 O.3   1 <1>  -0.5600 
 16 O        5.5930     1.3950    -1.0770 O.3   1 <1>  -0.5600 
 17 C       -4.1930     2.5600    -0.2040 C.ar  1 <1>   0.0860 
 18 C        7.0780     2.0010     0.5640 C.3   1 <1>   0.1200 
 19 C        6.9200     1.2240    -0.7290 C.3   1 <1>   0.1200 
 20 C       -5.6320     2.7360    -0.1780 C.2   1 <1>   0.6340 
 21 O       -6.4200     1.8370    -0.3950 O.2   1 <1>  -0.5700 
 22 O       -6.1120     3.9530     0.0980 O.3   1 <1>  -0.4300 
 23 C       -7.4980     4.2090     0.1430 C.3   1 <1>   0.1200 
 24 C       -7.6970     5.6830     0.4810 C.3   1 <1>  -0.2400 
 25 H        0.5350     2.9250    -0.3220 H     1 <1>   0.3700 
 26 H        2.0120     2.8820    -1.5940 H     1 <1>   0.0800 
 27 H        3.1820     1.7190    -2.1440 H     1 <1>   0.0800 
 28 H        3.5550    -0.4030    -0.8400 H     1 <1>   0.0800 
 29 H        2.6750    -0.6610     0.6430 H     1 <1>   0.0800 
 30 H        3.4160     3.4030     0.3560 H     1 <1>   0.0800 
 31 H        4.3350     3.6290    -1.1100 H     1 <1>   0.0800 
 32 H        5.0140     0.0350     1.0860 H     1 <1>   0.0800 
 33 H        3.8520     1.1610     1.7280 H     1 <1>   0.0800 
 34 H       -1.8550     0.1560    -0.7190 H     1 <1>   0.1500 
 35 H       -1.2920     4.2730     0.1990 H     1 <1>   0.1500 
 36 H       -4.2660     0.4730    -0.6640 H     1 <1>   0.1500 
 37 H       -3.7020     4.5950     0.2480 H     1 <1>   0.1500 
 38 H        7.3060     1.3520     1.3910 H     1 <1>   0.0800 
 39 H        7.8180     2.7780     0.4840 H     1 <1>   0.0800 
 40 H        7.5400     1.6190    -1.5140 H     1 <1>   0.0800 
 41 H        7.1170     0.1760    -0.5890 H     1 <1>   0.0800 
 42 H       -7.9370     3.5760     0.8950 H     1 <1>   0.0800 
 43 H       -7.9200     3.9720    -0.8200 H     1 <1>   0.0800 
 44 H       -7.2620     5.9050     1.4390 H     1 <1>   0.0800 
 45 H       -8.7470     5.9060     0.5220 H     1 <1>   0.0800 
 46 H       -7.2440     6.3000    -0.2740 H     1 <1>   0.0800 
@<TRIPOS>BOND
  1   1   2  2   
  2   2   3  am  
  3   2   4  am  
  4   3   5  1   
  5   3   6  1   
  6   4   7  1   
  7   4  25  1   
  8   5   8  1   
  9   5  26  1   
 10   5  27  1   
 11   6   9  1   
 12   6  28  1   
 13   6  29  1   
 14   7  10  ar  
 15   7  11  ar  
 16   8  12  1   
 17   8  30  1   
 18   8  31  1   
 19   9  12  1   
 20   9  32  1   
 21   9  33  1   
 22  10  13  ar  
 23  10  34  1   
 24  11  14  ar  
 25  11  35  1   
 26  12  15  1   
 27  12  16  1   
 28  13  17  ar  
 29  13  36  1   
 30  14  17  ar  
 31  14  37  1   
 32  15  18  1   
 33  16  19  1   
 34  17  20  1   
 35  18  19  1   
 36  18  38  1   
 37  18  39  1   
 38  19  40  1   
 39  19  41  1   
 40  20  21  2   
 41  20  22  1   
 42  22  23  1   
 43  23  24  1   
 44  23  42  1   
 45  23  43  1   
 46  24  44  1   
 47  24  45  1   
 48  24  46  1   
@<TRIPOS>SUBSTRUCTURE
  1 ****   4 GROUP 4 **** **** 0

# MOE 2024.06 (io_trps.svl 2023.06)
