@<TRIPOS>MOLECULE
Structure2285
26 27 1 0 0 
SMALL
USER_CHARGES


@<TRIPOS>ATOM
  1 N       -0.0890    -0.3740     0.4600 N.ar  1 <1>  -0.6200 
  2 C        0.6490    -1.3110    -0.0950 C.ar  1 <1>   0.1660 
  3 C       -1.3770    -0.3850     0.1490 C.ar  1 <1>   0.4700 
  4 C        0.0890    -2.2370    -0.9510 C.ar  1 <1>  -0.1500 
  5 C        2.1320    -1.2740     0.2800 C.3   1 <1>   0.0630 
  6 N       -2.0110    -1.2210    -0.6540 N.ar  1 <1>  -0.6200 
  7 C       -1.2600    -2.1480    -1.2010 C.ar  1 <1>   0.1600 
  8 C        2.8340    -0.1030    -0.4270 C.3   1 <1>  -0.1600 
  9 C        2.9070    -2.5780     0.0200 C.3   1 <1>  -0.1600 
 10 C        4.3000     0.0040    -0.0140 C.3   1 <1>   0.3430 
 11 C        4.3690    -2.4390     0.4480 C.3   1 <1>   0.3430 
 12 N        4.9910    -1.2910    -0.2690 N.4   1 <1>  -0.9060 
 13 H       -1.9830     0.3810     0.6060 H     1 <1>   0.1500 
 14 H        0.6570    -3.0130    -1.4240 H     1 <1>   0.1500 
 15 H        2.1670    -1.0870     1.3420 H     1 <1>   0.0800 
 16 H       -1.7360    -2.8530    -1.8630 H     1 <1>   0.1500 
 17 H        2.3360     0.8160    -0.1680 H     1 <1>   0.0800 
 18 H        2.7590    -0.2150    -1.4950 H     1 <1>   0.0800 
 19 H        2.8730    -2.8420    -1.0220 H     1 <1>   0.0800 
 20 H        2.4530    -3.3790     0.5790 H     1 <1>   0.0800 
 21 H        4.3570     0.2480     1.0360 H     1 <1>   0.0800 
 22 H        4.7760     0.7970    -0.5700 H     1 <1>   0.0800 
 23 H        4.9010    -3.3500     0.2220 H     1 <1>   0.0800 
 24 H        4.4180    -2.2750     1.5130 H     1 <1>   0.0800 
 25 H        5.9800    -1.2100     0.0030 H     1 <1>   0.4500 
 26 H        4.9790    -1.4780    -1.2790 H     1 <1>   0.4500 
@<TRIPOS>BOND
  1   1   2  ar  
  2   1   3  ar  
  3   2   4  ar  
  4   2   5  1   
  5   3   6  ar  
  6   3  13  1   
  7   4   7  ar  
  8   4  14  1   
  9   5   8  1   
 10   5   9  1   
 11   5  15  1   
 12   6   7  ar  
 13   7  16  1   
 14   8  10  1   
 15   8  17  1   
 16   8  18  1   
 17   9  11  1   
 18   9  19  1   
 19   9  20  1   
 20  10  12  1   
 21  10  21  1   
 22  10  22  1   
 23  11  12  1   
 24  11  23  1   
 25  11  24  1   
 26  12  25  1   
 27  12  26  1   
@<TRIPOS>SUBSTRUCTURE
  1 ****   5 GROUP 4 **** **** 0

# MOE 2024.06 (io_trps.svl 2023.06)
