@<TRIPOS>MOLECULE
NONAME
35 36 1 0 0 
SMALL
USER_CHARGES


@<TRIPOS>ATOM
  1 CL       0.3930    -0.2070    -1.2480 Cl    1 <1>  -0.1770 
  2 C        2.0390     0.1510    -0.7860 C.ar  1 <1>   0.1770 
  3 C        2.9100     0.6700    -1.7240 C.ar  1 <1>  -0.1500 
  4 C        2.4470    -0.0870     0.5130 C.ar  1 <1>  -0.1500 
  5 C        4.2140     0.9530    -1.3530 C.ar  1 <1>  -0.1500 
  6 C        3.7520     0.2000     0.8750 C.ar  1 <1>  -0.1500 
  7 C        4.6540     0.7200    -0.0520 C.ar  1 <1>   0.1170 
  8 N        5.9830     1.0350     0.2700 N.am  1 <1>  -0.5470 
  9 C        6.8010     0.6000     1.2800 C.2   1 <1>   0.5690 
 10 O        6.4630    -0.2150     2.1040 O.2   1 <1>  -0.5700 
 11 C        8.2070     1.1700     1.3800 C.3   1 <1>   0.1310 
 12 S        8.7850     1.8650    -0.2480 S.3   1 <1>  -0.2860 
 13 C       10.3950     2.5410     0.1720 C.2   1 <1>   0.2430 
 14 N       10.8790     2.5280     1.3610 N.2   1 <1>  -0.3380 
 15 N       11.2000     3.1040    -0.7280 N.pl3 1 <1>   0.0480 
 16 N       12.0770     3.1110     1.2670 N.2   1 <1>  -0.3380 
 17 C       12.2550     3.4440     0.0280 C.2   1 <1>   0.0060 
 18 C       10.9650     3.2770    -2.1760 C.3   1 <1>   0.0160 
 19 C       13.4970     4.1360    -0.5270 C.3   1 <1>   0.0200 
 20 C       14.6000     4.3360     0.5200 C.3   1 <1>  -0.2400 
 21 H        2.5680     0.8470    -2.7280 H     1 <1>   0.1500 
 22 H        1.7530    -0.4900     1.2280 H     1 <1>   0.1500 
 23 H        4.8940     1.3530    -2.0820 H     1 <1>   0.1500 
 24 H        4.0640     0.0180     1.8870 H     1 <1>   0.1500 
 25 H        6.4520     1.6500    -0.3960 H     1 <1>   0.3700 
 26 H        8.9040     0.4040     1.6630 H     1 <1>   0.0800 
 27 H        8.2360     1.9690     2.0980 H     1 <1>   0.0800 
 28 H       11.0940     2.3320    -2.6710 H     1 <1>   0.0800 
 29 H       11.6590     3.9910    -2.5800 H     1 <1>   0.0800 
 30 H        9.9630     3.6310    -2.3360 H     1 <1>   0.0800 
 31 H       13.2130     5.0960    -0.9190 H     1 <1>   0.0800 
 32 H       13.8920     3.5460    -1.3350 H     1 <1>   0.0800 
 33 H       14.2370     4.9460     1.3290 H     1 <1>   0.0800 
 34 H       15.4510     4.8200     0.0770 H     1 <1>   0.0800 
 35 H       14.9090     3.3860     0.9190 H     1 <1>   0.0800 
@<TRIPOS>BOND
  1   1   2  1   
  2   2   3  ar  
  3   2   4  ar  
  4   3   5  ar  
  5   3  21  1   
  6   4   6  ar  
  7   4  22  1   
  8   5   7  ar  
  9   5  23  1   
 10   6   7  ar  
 11   6  24  1   
 12   7   8  1   
 13   8   9  am  
 14   8  25  1   
 15   9  10  2   
 16   9  11  1   
 17  11  12  1   
 18  11  26  1   
 19  11  27  1   
 20  12  13  1   
 21  13  14  2   
 22  13  15  1   
 23  14  16  1   
 24  15  17  1   
 25  15  18  1   
 26  16  17  2   
 27  17  19  1   
 28  18  28  1   
 29  18  29  1   
 30  18  30  1   
 31  19  20  1   
 32  19  31  1   
 33  19  32  1   
 34  20  33  1   
 35  20  34  1   
 36  20  35  1   
@<TRIPOS>SUBSTRUCTURE
  1 ****  12 GROUP 4 **** **** 0

# MOE 2024.06 (io_trps.svl 2023.06)
