@<TRIPOS>MOLECULE
NONAME
34 34 1 0 0 
SMALL
USER_CHARGES


@<TRIPOS>ATOM
  1 CL      -0.5730    -0.1460     0.6760 Cl    1 <1>  -0.1770 
  2 C        0.4370    -1.5630     0.4850 C.ar  1 <1>   0.1770 
  3 C       -0.1460    -2.8130     0.3020 C.ar  1 <1>   0.0830 
  4 C        1.8090    -1.4040     0.5210 C.ar  1 <1>  -0.1500 
  5 O       -1.5040    -2.8850     0.2780 O.3   1 <1>  -0.3630 
  6 C        0.6850    -3.9220     0.1530 C.ar  1 <1>  -0.1500 
  7 C        2.6250    -2.5130     0.3720 C.ar  1 <1>  -0.1500 
  8 C       -2.1880    -4.0990     0.1010 C.3   1 <1>   0.1200 
  9 C        2.0620    -3.7660     0.1890 C.ar  1 <1>  -0.1500 
 10 C       -3.6820    -3.7680     0.1340 C.3   1 <1>   0.3430 
 11 N       -4.5310    -4.9900    -0.0460 N.4   1 <1>  -0.9060 
 12 C       -5.9810    -4.7770    -0.0290 C.3   1 <1>   0.5030 
 13 C       -6.6160    -6.1490    -0.2280 C.3   1 <1>  -0.2400 
 14 C       -6.3820    -3.8490    -1.1760 C.3   1 <1>  -0.2400 
 15 C       -6.4060    -4.1990     1.3210 C.3   1 <1>  -0.2400 
 16 H        2.2310    -0.4260     0.6640 H     1 <1>   0.1500 
 17 H        0.2910    -4.9090     0.0090 H     1 <1>   0.1500 
 18 H        3.6960    -2.4010     0.3980 H     1 <1>   0.1500 
 19 H       -1.9160    -4.7560     0.9080 H     1 <1>   0.0800 
 20 H       -1.8990    -4.5080    -0.8510 H     1 <1>   0.0800 
 21 H        2.7040    -4.6240     0.0730 H     1 <1>   0.1500 
 22 H       -3.8910    -3.0600    -0.6520 H     1 <1>   0.0800 
 23 H       -3.9070    -3.3040     1.0800 H     1 <1>   0.0800 
 24 H       -4.3230    -5.6680     0.6940 H     1 <1>   0.4500 
 25 H       -4.3070    -5.4390    -0.9400 H     1 <1>   0.4500 
 26 H       -6.3300    -6.5790    -1.1710 H     1 <1>   0.0800 
 27 H       -7.6890    -6.0590    -0.2250 H     1 <1>   0.0800 
 28 H       -6.3460    -6.8230     0.5670 H     1 <1>   0.0800 
 29 H       -6.0400    -4.2280    -2.1220 H     1 <1>   0.0800 
 30 H       -6.0050    -2.8530    -1.0330 H     1 <1>   0.0800 
 31 H       -7.4550    -3.7760    -1.2220 H     1 <1>   0.0800 
 32 H       -6.0790    -4.8250     2.1320 H     1 <1>   0.0800 
 33 H       -7.4790    -4.1390     1.3660 H     1 <1>   0.0800 
 34 H       -6.0280    -3.2030     1.4640 H     1 <1>   0.0800 
@<TRIPOS>BOND
  1   1   2  1   
  2   2   3  ar  
  3   2   4  ar  
  4   3   5  1   
  5   3   6  ar  
  6   4   7  ar  
  7   4  16  1   
  8   5   8  1   
  9   6   9  ar  
 10   6  17  1   
 11   7   9  ar  
 12   7  18  1   
 13   8  10  1   
 14   8  19  1   
 15   8  20  1   
 16   9  21  1   
 17  10  11  1   
 18  10  22  1   
 19  10  23  1   
 20  11  12  1   
 21  11  24  1   
 22  11  25  1   
 23  12  13  1   
 24  12  14  1   
 25  12  15  1   
 26  13  26  1   
 27  13  27  1   
 28  13  28  1   
 29  14  29  1   
 30  14  30  1   
 31  14  31  1   
 32  15  32  1   
 33  15  33  1   
 34  15  34  1   
@<TRIPOS>SUBSTRUCTURE
  1 ****   5 GROUP 4 **** **** 0

# MOE 2024.06 (io_trps.svl 2023.06)
