@<TRIPOS>MOLECULE
NONAME
60 63 1 0 0 
SMALL
USER_CHARGES


@<TRIPOS>ATOM
  1 O       -0.2940    -0.5320    -1.4150 O.2   1 <1>  -0.5700 
  2 C        0.0360    -1.6740    -1.1980 C.2   1 <1>   0.5690 
  3 N        1.3170    -2.1090    -0.9900 N.am  1 <1>  -0.2370 
  4 C       -0.9570    -2.8500    -1.2130 C.3   1 <1>   0.2510 
  5 C        2.4540    -1.2810    -0.8280 C.ar  1 <1>   0.1170 
  6 C        1.3380    -3.4760    -0.9970 C.2   1 <1>   0.5690 
  7 N       -1.8610    -2.9710    -0.0310 N.3   1 <1>  -0.8100 
  8 C       -0.0230    -4.0660    -1.2550 C.3   1 <1>  -0.0990 
  9 C        3.3540    -1.5070     0.2100 C.ar  1 <1>  -0.1500 
 10 C        2.7070    -0.2260    -1.7000 C.ar  1 <1>  -0.1500 
 11 O        2.3040    -4.1790    -0.8410 O.2   1 <1>  -0.5700 
 12 C       -2.9270    -3.9850    -0.2760 C.3   1 <1>   0.1100 
 13 C       -2.4980    -1.6690     0.3240 C.3   1 <1>   0.1100 
 14 C        4.4720    -0.7090     0.3760 C.ar  1 <1>  -0.1500 
 15 C        3.8220     0.5750    -1.5390 C.ar  1 <1>  -0.1500 
 16 C       -3.8940    -4.1320     0.9140 C.3   1 <1>   0.2090 
 17 C       -3.4780    -1.7830     1.5070 C.3   1 <1>   0.2090 
 18 C        4.7120     0.3430    -0.5040 C.ar  1 <1>   0.0830 
 19 N       -4.5180    -2.8150     1.2210 N.pl3 1 <1>  -0.8380 
 20 O        5.7830     1.1740    -0.4190 O.3   1 <1>  -0.3630 
 21 C       -5.7680    -2.4850     0.7380 C.ar  1 <1>   0.7200 
 22 C        6.7600     1.0020     0.5820 C.3   1 <1>   0.1200 
 23 N       -6.6230    -3.4870     0.5410 N.ar  1 <1>  -0.6200 
 24 N       -6.0100    -1.1970     0.4980 N.ar  1 <1>  -0.6200 
 25 C        7.8280     2.0800     0.3960 C.3   1 <1>  -0.1600 
 26 C       -7.8060    -3.1680     0.0840 C.ar  1 <1>   0.1670 
 27 C       -7.1980    -0.8990     0.0400 C.ar  1 <1>   0.1670 
 28 C        8.9330     1.9600     1.4520 C.3   1 <1>  -0.2400 
 29 C       -8.1480    -1.8650    -0.1870 C.ar  1 <1>  -0.1500 
 30 C       -8.7870    -4.3000    -0.1320 C.3   1 <1>  -0.0970 
 31 C       -7.4810     0.5630    -0.2310 C.3   1 <1>  -0.0970 
 32 H       -1.5430    -2.7850    -2.1140 H     1 <1>   0.0800 
 33 H       -0.0290    -4.5220    -2.2270 H     1 <1>   0.0800 
 34 H       -0.2430    -4.7970    -0.5000 H     1 <1>   0.0800 
 35 H        3.1810    -2.3200     0.8930 H     1 <1>   0.1500 
 36 H        2.0270    -0.0260    -2.5090 H     1 <1>   0.1500 
 37 H       -2.4860    -4.9460    -0.4660 H     1 <1>   0.0800 
 38 H       -3.5040    -3.7060    -1.1410 H     1 <1>   0.0800 
 39 H       -3.0320    -1.2750    -0.5250 H     1 <1>   0.0800 
 40 H       -1.7420    -0.9560     0.6020 H     1 <1>   0.0800 
 41 H        5.1390    -0.9210     1.1890 H     1 <1>   0.1500 
 42 H        4.0100     1.3900    -2.2150 H     1 <1>   0.1500 
 43 H       -3.3510    -4.4780     1.7760 H     1 <1>   0.0800 
 44 H       -4.6370    -4.8740     0.6810 H     1 <1>   0.0800 
 45 H       -3.9250    -0.8250     1.7040 H     1 <1>   0.0800 
 46 H       -2.9330    -2.0690     2.3890 H     1 <1>   0.0800 
 47 H        7.1870     0.0200     0.4740 H     1 <1>   0.0800 
 48 H        6.2830     1.1010     1.5410 H     1 <1>   0.0800 
 49 H        7.3680     3.0500     0.4710 H     1 <1>   0.0800 
 50 H        8.2620     1.9800    -0.5840 H     1 <1>   0.0800 
 51 H        8.5230     2.0740     2.4410 H     1 <1>   0.0800 
 52 H        9.6710     2.7280     1.2990 H     1 <1>   0.0800 
 53 H        9.4170     1.0020     1.3840 H     1 <1>   0.0800 
 54 H       -9.1210    -1.6120    -0.5610 H     1 <1>   0.1500 
 55 H       -8.9520    -4.8120     0.7980 H     1 <1>   0.0800 
 56 H       -8.3790    -4.9970    -0.8420 H     1 <1>   0.0800 
 57 H       -9.7260    -3.9340    -0.5010 H     1 <1>   0.0800 
 58 H       -7.3690     1.1240     0.6790 H     1 <1>   0.0800 
 59 H       -8.4780     0.7020    -0.6060 H     1 <1>   0.0800 
 60 H       -6.7800     0.9360    -0.9550 H     1 <1>   0.0800 
@<TRIPOS>BOND
  1   1   2  2   
  2   2   3  am  
  3   2   4  1   
  4   3   5  1   
  5   3   6  am  
  6   4   7  1   
  7   4   8  1   
  8   4  32  1   
  9   5   9  ar  
 10   5  10  ar  
 11   6   8  1   
 12   6  11  2   
 13   7  12  1   
 14   7  13  1   
 15   8  33  1   
 16   8  34  1   
 17   9  14  ar  
 18   9  35  1   
 19  10  15  ar  
 20  10  36  1   
 21  12  16  1   
 22  12  37  1   
 23  12  38  1   
 24  13  17  1   
 25  13  39  1   
 26  13  40  1   
 27  14  18  ar  
 28  14  41  1   
 29  15  18  ar  
 30  15  42  1   
 31  16  19  1   
 32  16  43  1   
 33  16  44  1   
 34  17  19  1   
 35  17  45  1   
 36  17  46  1   
 37  18  20  1   
 38  19  21  1   
 39  20  22  1   
 40  21  23  ar  
 41  21  24  ar  
 42  22  25  1   
 43  22  47  1   
 44  22  48  1   
 45  23  26  ar  
 46  24  27  ar  
 47  25  28  1   
 48  25  49  1   
 49  25  50  1   
 50  26  29  ar  
 51  26  30  1   
 52  27  29  ar  
 53  27  31  1   
 54  28  51  1   
 55  28  52  1   
 56  28  53  1   
 57  29  54  1   
 58  30  55  1   
 59  30  56  1   
 60  30  57  1   
 61  31  58  1   
 62  31  59  1   
 63  31  60  1   
@<TRIPOS>SUBSTRUCTURE
  1 ****   2 GROUP 4 **** **** 0

# MOE 2024.06 (io_trps.svl 2023.06)
