@<TRIPOS>MOLECULE
NONAME
48 50 1 0 0 
SMALL
USER_CHARGES


@<TRIPOS>ATOM
  1 O       -1.9670     3.0520     2.0120 O.2   1 <1>  -0.5700 
  2 C       -1.3070     2.8670     1.0020 C.2   1 <1>   0.7150 
  3 N       -1.9220     2.2630    -0.0750 N.am  1 <1>  -0.6600 
  4 C        0.0790     3.2820     0.9370 C.2   1 <1>   0.0550 
  5 C       -1.6720     2.7020    -1.4780 C.3   1 <1>   0.1400 
  6 C       -3.2560     1.6150     0.0670 C.3   1 <1>   0.1400 
  7 O        0.5030     4.3700     1.5760 O.3   1 <1>  -0.2800 
  8 C        1.1420     2.7290     0.2870 C.2   1 <1>  -0.1500 
  9 C       -2.7940     3.6490    -1.9420 C.3   1 <1>   0.1100 
 10 C       -4.3580     2.5840    -0.3870 C.3   1 <1>   0.1100 
 11 C        1.7880     4.5220     1.3540 C.2   1 <1>  -0.0100 
 12 C        2.2490     3.5350     0.5560 C.2   1 <1>  -0.1500 
 13 N       -4.1410     3.0580    -1.7750 N.3   1 <1>  -0.8100 
 14 C       -5.1850     4.0110    -2.2580 C.3   1 <1>   0.1710 
 15 C       -6.6500     3.5890    -2.0770 C.2   1 <1>   0.5690 
 16 O       -7.2450     3.1170    -3.0170 O.2   1 <1>  -0.5700 
 17 N       -7.2190     3.8060    -0.8490 N.am  1 <1>  -0.5470 
 18 C       -8.5060     3.5600    -0.3430 C.ar  1 <1>   0.1170 
 19 C       -8.6900     3.4360     1.0380 C.ar  1 <1>  -0.1430 
 20 C       -9.6140     3.4610    -1.1790 C.ar  1 <1>  -0.1500 
 21 C       -9.9630     3.2240     1.5450 C.ar  1 <1>  -0.1500 
 22 C       -7.5260     3.5160     2.0240 C.3   1 <1>  -0.0170 
 23 C      -10.8790     3.2460    -0.6650 C.ar  1 <1>  -0.1500 
 24 C      -11.0550     3.1280     0.7010 C.ar  1 <1>  -0.1500 
 25 C       -7.1590     4.9710     2.3310 C.3   1 <1>  -0.2400 
 26 H       -1.6460     1.8400    -2.1220 H     1 <1>   0.0800 
 27 H       -0.7290     3.2100    -1.5600 H     1 <1>   0.0800 
 28 H       -3.4260     1.3240     1.0890 H     1 <1>   0.0800 
 29 H       -3.2900     0.7270    -0.5400 H     1 <1>   0.0800 
 30 H        1.1500     1.8390    -0.3170 H     1 <1>   0.1500 
 31 H       -2.6380     3.8840    -2.9810 H     1 <1>   0.0800 
 32 H       -2.7260     4.5640    -1.3790 H     1 <1>   0.0800 
 33 H       -4.3840     3.4200     0.2910 H     1 <1>   0.0800 
 34 H       -5.2960     2.0600    -0.3280 H     1 <1>   0.0800 
 35 H        2.3000     5.3570     1.8000 H     1 <1>   0.1500 
 36 H        3.2490     3.3770     0.1940 H     1 <1>   0.1500 
 37 H       -5.0310     4.1720    -3.3110 H     1 <1>   0.0800 
 38 H       -5.0530     4.9580    -1.7670 H     1 <1>   0.0800 
 39 H       -6.5750     4.1510    -0.1430 H     1 <1>   0.3700 
 40 H       -9.4970     3.5570    -2.2420 H     1 <1>   0.1500 
 41 H      -10.1160     3.1310     2.6060 H     1 <1>   0.1500 
 42 H       -6.6720     2.9900     1.6360 H     1 <1>   0.0800 
 43 H       -7.7970     3.0250     2.9430 H     1 <1>   0.0800 
 44 H      -11.7230     3.1710    -1.3280 H     1 <1>   0.1500 
 45 H      -12.0390     2.9620     1.1050 H     1 <1>   0.1500 
 46 H       -6.8760     5.4950     1.4360 H     1 <1>   0.0800 
 47 H       -6.3380     5.0060     3.0260 H     1 <1>   0.0800 
 48 H       -8.0020     5.4760     2.7690 H     1 <1>   0.0800 
@<TRIPOS>BOND
  1   1   2  2   
  2   2   3  am  
  3   2   4  1   
  4   3   5  1   
  5   3   6  1   
  6   4   7  1   
  7   4   8  2   
  8   5   9  1   
  9   5  26  1   
 10   5  27  1   
 11   6  10  1   
 12   6  28  1   
 13   6  29  1   
 14   7  11  1   
 15   8  12  1   
 16   8  30  1   
 17   9  13  1   
 18   9  31  1   
 19   9  32  1   
 20  10  13  1   
 21  10  33  1   
 22  10  34  1   
 23  11  12  2   
 24  11  35  1   
 25  12  36  1   
 26  13  14  1   
 27  14  15  1   
 28  14  37  1   
 29  14  38  1   
 30  15  16  2   
 31  15  17  am  
 32  17  18  1   
 33  17  39  1   
 34  18  19  ar  
 35  18  20  ar  
 36  19  21  ar  
 37  19  22  1   
 38  20  23  ar  
 39  20  40  1   
 40  21  24  ar  
 41  21  41  1   
 42  22  25  1   
 43  22  42  1   
 44  22  43  1   
 45  23  24  ar  
 46  23  44  1   
 47  24  45  1   
 48  25  46  1   
 49  25  47  1   
 50  25  48  1   
@<TRIPOS>SUBSTRUCTURE
  1 ****  10 GROUP 4 **** **** 0

# MOE 2024.06 (io_trps.svl 2023.06)
