@<TRIPOS>MOLECULE
NONAME
40 41 1 0 0 
SMALL
USER_CHARGES


@<TRIPOS>ATOM
  1 O        2.2650     4.9040     1.4490 O.2   1 <1>  -0.5700 
  2 C        1.7500     4.0460     0.7840 C.2   1 <1>   0.6590 
  3 O        2.3140     2.8530     0.6410 O.3   1 <1>  -0.4300 
  4 C        0.4380     4.2610     0.0670 C.3   1 <1>  -0.0990 
  5 C        3.4530     2.4620     1.3950 C.3   1 <1>   0.2000 
  6 C       -0.7270     3.6210     0.8290 C.3   1 <1>  -0.0170 
  7 C        4.6760     3.3370     1.0340 C.3   1 <1>   0.3430 
  8 C        3.7530     0.9920     1.0550 C.3   1 <1>  -0.1600 
  9 C       -2.0240     3.8310     0.0670 C.ar  1 <1>  -0.1440 
 10 N        4.9750     3.3200    -0.4480 N.4   1 <1>  -0.9590 
 11 C        4.6920     0.8390    -0.1640 C.3   1 <1>  -0.1600 
 12 C       -2.7380     5.0090     0.2190 C.ar  1 <1>  -0.1500 
 13 C       -2.5010     2.8520    -0.7910 C.ar  1 <1>  -0.1500 
 14 C        4.6110     2.0290    -1.1300 C.3   1 <1>   0.3430 
 15 C        6.3970     3.6990    -0.7040 C.3   1 <1>   0.2630 
 16 C       -3.9160     5.2080    -0.4800 C.ar  1 <1>  -0.1500 
 17 C       -3.6790     3.0500    -1.4910 C.ar  1 <1>  -0.1500 
 18 C       -4.3870     4.2290    -1.3360 C.ar  1 <1>  -0.1500 
 19 H        0.5010     3.8410    -0.9190 H     1 <1>   0.0800 
 20 H        0.2640     5.3170    -0.0300 H     1 <1>   0.0800 
 21 H        3.2060     2.5620     2.4390 H     1 <1>   0.0800 
 22 H       -0.8110     4.0620     1.8080 H     1 <1>   0.0800 
 23 H       -0.5500     2.5670     0.9580 H     1 <1>   0.0800 
 24 H        5.5250     2.9500     1.5730 H     1 <1>   0.0800 
 25 H        4.5130     4.3480     1.3710 H     1 <1>   0.0800 
 26 H        2.8250     0.4730     0.8820 H     1 <1>   0.0800 
 27 H        4.2220     0.5230     1.9030 H     1 <1>   0.0800 
 28 H        4.3730     4.0460    -0.8640 H     1 <1>   0.4500 
 29 H        4.4380    -0.0640    -0.6930 H     1 <1>   0.0800 
 30 H        5.7100     0.7330     0.1680 H     1 <1>   0.0800 
 31 H       -2.3820     5.7780     0.8820 H     1 <1>   0.1500 
 32 H       -1.9630     1.9300    -0.9210 H     1 <1>   0.1500 
 33 H        5.2530     1.8610    -1.9800 H     1 <1>   0.0800 
 34 H        3.5960     2.0960    -1.4910 H     1 <1>   0.0800 
 35 H        7.0620     2.9620    -0.2830 H     1 <1>   0.0800 
 36 H        6.6160     4.6560    -0.2580 H     1 <1>   0.0800 
 37 H        6.5820     3.7640    -1.7640 H     1 <1>   0.0800 
 38 H       -4.4660     6.1250    -0.3580 H     1 <1>   0.1500 
 39 H       -4.0470     2.2870    -2.1550 H     1 <1>   0.1500 
 40 H       -5.3020     4.3830    -1.8800 H     1 <1>   0.1500 
@<TRIPOS>BOND
  1   1   2  2   
  2   2   3  1   
  3   2   4  1   
  4   3   5  1   
  5   4   6  1   
  6   4  19  1   
  7   4  20  1   
  8   5   7  1   
  9   5   8  1   
 10   5  21  1   
 11   6   9  1   
 12   6  22  1   
 13   6  23  1   
 14   7  10  1   
 15   7  24  1   
 16   7  25  1   
 17   8  11  1   
 18   8  26  1   
 19   8  27  1   
 20   9  12  ar  
 21   9  13  ar  
 22  10  14  1   
 23  10  15  1   
 24  10  28  1   
 25  11  14  1   
 26  11  29  1   
 27  11  30  1   
 28  12  16  ar  
 29  12  31  1   
 30  13  17  ar  
 31  13  32  1   
 32  14  33  1   
 33  14  34  1   
 34  15  35  1   
 35  15  36  1   
 36  15  37  1   
 37  16  18  ar  
 38  16  38  1   
 39  17  18  ar  
 40  17  39  1   
 41  18  40  1   
@<TRIPOS>SUBSTRUCTURE
  1 ****   4 GROUP 4 **** **** 0

# MOE 2024.06 (io_trps.svl 2023.06)
