@<TRIPOS>MOLECULE
NONAME
30 31 1 0 0 
SMALL
USER_CHARGES


@<TRIPOS>ATOM
  1 F       -0.5550     0.0900     1.1390 F     1 <1>  -0.3400 
  2 C       -1.2790    -0.0680     0.0390 C.3   1 <1>   0.9600 
  3 F       -0.4240    -0.4540    -0.8990 F     1 <1>  -0.3400 
  4 O       -1.7260     1.2010    -0.3040 O.3   1 <1>  -0.5600 
  5 C       -2.4600    -1.0370     0.2500 C.3   1 <1>   0.6800 
  6 C       -3.1250     1.2040    -0.2120 C.3   1 <1>   0.6200 
  7 F       -2.2530    -1.9720     1.1900 F     1 <1>  -0.3400 
  8 F       -2.7590    -1.7330    -0.8580 F     1 <1>  -0.3400 
  9 C       -3.5440    -0.0380     0.6000 C.3   1 <1>   0.6800 
 10 F       -3.5050     1.0120    -1.4790 F     1 <1>  -0.3400 
 11 C       -3.7290     2.5480     0.2850 C.3   1 <1>   0.6800 
 12 F       -4.7770    -0.4740     0.3160 F     1 <1>  -0.3400 
 13 F       -3.5650     0.1940     1.9150 F     1 <1>  -0.3400 
 14 F       -5.0350     2.3910     0.5130 F     1 <1>  -0.3400 
 15 F       -3.2330     2.8530     1.4870 F     1 <1>  -0.3400 
 16 C       -3.5410     3.7510    -0.6900 C.3   1 <1>   0.3440 
 17 O       -2.2050     4.1040    -0.8640 O.3   1 <1>  -0.6800 
 18 C       -4.2780     5.0260    -0.2810 C.ar  1 <1>  -0.1440 
 19 C       -5.3980     5.4340    -0.9930 C.ar  1 <1>  -0.1500 
 20 C       -3.8450     5.7960     0.7920 C.ar  1 <1>  -0.1500 
 21 C       -6.0730     6.5890    -0.6400 C.ar  1 <1>  -0.1500 
 22 C       -4.5200     6.9510     1.1460 C.ar  1 <1>  -0.1500 
 23 C       -5.6340     7.3490     0.4290 C.ar  1 <1>  -0.1500 
 24 H       -3.8950     3.4520    -1.6610 H     1 <1>   0.0800 
 25 H       -2.1650     5.0400    -1.1470 H     1 <1>   0.4000 
 26 H       -5.7580     4.8570    -1.8280 H     1 <1>   0.1500 
 27 H       -2.9800     5.4990     1.3620 H     1 <1>   0.1500 
 28 H       -6.9410     6.8980    -1.1960 H     1 <1>   0.1500 
 29 H       -4.1780     7.5400     1.9790 H     1 <1>   0.1500 
 30 H       -6.1600     8.2460     0.7050 H     1 <1>   0.1500 
@<TRIPOS>BOND
  1   1   2  1   
  2   2   3  1   
  3   2   4  1   
  4   2   5  1   
  5   4   6  1   
  6   5   7  1   
  7   5   8  1   
  8   5   9  1   
  9   6   9  1   
 10   6  10  1   
 11   6  11  1   
 12   9  12  1   
 13   9  13  1   
 14  11  14  1   
 15  11  15  1   
 16  11  16  1   
 17  16  17  1   
 18  16  18  1   
 19  16  24  1   
 20  17  25  1   
 21  18  19  ar  
 22  18  20  ar  
 23  19  21  ar  
 24  19  26  1   
 25  20  22  ar  
 26  20  27  1   
 27  21  23  ar  
 28  21  28  1   
 29  22  23  ar  
 30  22  29  1   
 31  23  30  1   
@<TRIPOS>SUBSTRUCTURE
  1 ****  11 GROUP 4 **** **** 0

# MOE 2024.06 (io_trps.svl 2023.06)
