@<TRIPOS>MOLECULE
NONAME
39 41 1 0 0 
SMALL
USER_CHARGES


@<TRIPOS>ATOM
  1 O       -1.4770    -0.9060     0.5830 O.2   1 <1>  -0.5700 
  2 C       -1.9680     0.2230     0.4100 C.2   1 <1>   0.7060 
  3 O       -3.2480     0.3360     0.8370 O.3   1 <1>  -0.2330 
  4 C       -1.3510     1.3250    -0.2130 C.2   1 <1>   0.1230 
  5 C       -3.9740     1.4590     0.6220 C.ar  1 <1>   0.0820 
  6 N       -0.0170     1.4160    -0.6730 N.am  1 <1>  -0.5390 
  7 C       -2.0550     2.4910    -0.4860 C.2   1 <1>  -0.1780 
  8 C       -3.4200     2.5610    -0.0400 C.ar  1 <1>   0.0280 
  9 C       -5.2860     1.4910     1.0740 C.ar  1 <1>  -0.1500 
 10 C        1.1300     1.1770    -0.0040 C.2   1 <1>   0.6900 
 11 O       -1.5230     3.4430    -1.1060 O.3   1 <1>  -0.8500 
 12 C       -4.2220     3.6810    -0.2340 C.ar  1 <1>  -0.1500 
 13 C       -6.0650     2.6160     0.8710 C.ar  1 <1>  -0.1500 
 14 O        1.1680     0.5370     1.0330 O.2   1 <1>  -0.5700 
 15 N        2.2620     1.7170    -0.5190 N.am  1 <1>  -0.7300 
 16 C       -5.5300     3.7140     0.2140 C.ar  1 <1>  -0.1500 
 17 C        3.5790     1.7020     0.1290 C.3   1 <1>   0.2200 
 18 C        3.8810     3.1030     0.6700 C.3   1 <1>  -0.1600 
 19 C        4.6290     1.2620    -0.8960 C.3   1 <1>  -0.1600 
 20 C        5.2960     3.1780     1.2630 C.3   1 <1>  -0.1600 
 21 C        6.0460     1.3330    -0.3060 C.3   1 <1>  -0.1600 
 22 C        6.3510     2.7350     0.2390 C.3   1 <1>  -0.1600 
 23 H       -0.0310     2.2990    -1.2030 H     1 <1>   0.3700 
 24 H       -5.6860     0.6330     1.5800 H     1 <1>   0.1500 
 25 H       -3.7850     4.5210    -0.7460 H     1 <1>   0.1500 
 26 H       -7.0820     2.6410     1.2200 H     1 <1>   0.1500 
 27 H        2.1480     2.3590    -1.2990 H     1 <1>   0.3700 
 28 H       -6.1270     4.5920     0.0510 H     1 <1>   0.1500 
 29 H        3.5720     1.0010     0.9480 H     1 <1>   0.0800 
 30 H        3.1600     3.3470     1.4310 H     1 <1>   0.0800 
 31 H        3.7930     3.8220    -0.1250 H     1 <1>   0.0800 
 32 H        4.5770     1.9010    -1.7600 H     1 <1>   0.0800 
 33 H        4.4200     0.2530    -1.2030 H     1 <1>   0.0800 
 34 H        5.3500     2.5400     2.1290 H     1 <1>   0.0800 
 35 H        5.5000     4.1850     1.5820 H     1 <1>   0.0800 
 36 H        6.7650     1.0730    -1.0630 H     1 <1>   0.0800 
 37 H        6.1320     0.6150     0.4920 H     1 <1>   0.0800 
 38 H        7.3240     2.7400     0.6990 H     1 <1>   0.0800 
 39 H        6.3700     3.4370    -0.5770 H     1 <1>   0.0800 
@<TRIPOS>BOND
  1   1   2  2   
  2   2   3  1   
  3   2   4  1   
  4   3   5  1   
  5   4   6  1   
  6   4   7  2   
  7   5   8  ar  
  8   5   9  ar  
  9   6  10  am  
 10   6  23  1   
 11   7   8  1   
 12   7  11  1   
 13   8  12  ar  
 14   9  13  ar  
 15   9  24  1   
 16  10  14  2   
 17  10  15  am  
 18  12  16  ar  
 19  12  25  1   
 20  13  16  ar  
 21  13  26  1   
 22  15  17  1   
 23  15  27  1   
 24  16  28  1   
 25  17  18  1   
 26  17  19  1   
 27  17  29  1   
 28  18  20  1   
 29  18  30  1   
 30  18  31  1   
 31  19  21  1   
 32  19  32  1   
 33  19  33  1   
 34  20  22  1   
 35  20  34  1   
 36  20  35  1   
 37  21  22  1   
 38  21  36  1   
 39  21  37  1   
 40  22  38  1   
 41  22  39  1   
@<TRIPOS>SUBSTRUCTURE
  1 ****   6 GROUP 4 **** **** 0

# MOE 2024.06 (io_trps.svl 2023.06)
