@<TRIPOS>MOLECULE
NONAME
51 53 1 0 0 
SMALL
USER_CHARGES


@<TRIPOS>ATOM
  1 BR       4.2570     4.3240     4.9110 Br    1 <1>  -0.1110 
  2 C        3.6660     4.2830     3.0790 C.ar  1 <1>   0.1110 
  3 C        4.4250     3.5960     2.1520 C.ar  1 <1>  -0.1500 
  4 C        2.5030     4.9430     2.7380 C.ar  1 <1>  -0.1500 
  5 C        4.0090     3.5660     0.8290 C.ar  1 <1>  -0.1440 
  6 C        2.0890     4.9150     1.4180 C.ar  1 <1>  -0.1500 
  7 C        2.8380     4.2310     0.4580 C.ar  1 <1>   0.0830 
  8 C        4.8510     2.8070    -0.1880 C.3   1 <1>   0.2540 
  9 O        2.4780     4.1900    -0.8530 O.3   1 <1>  -0.3630 
 10 N        6.0790     3.5630    -0.5060 N.3   1 <1>  -0.8100 
 11 C        1.2090     4.6350    -1.2820 C.3   1 <1>   0.0400 
 12 C        6.9830     2.7870    -1.3840 C.3   1 <1>   0.1100 
 13 C        5.7550     4.8780    -1.1250 C.3   1 <1>   0.1100 
 14 C        8.3080     3.5420    -1.6590 C.3   1 <1>   0.3430 
 15 C        7.0130     5.6450    -1.5930 C.3   1 <1>   0.3430 
 16 N        8.2560     4.9440    -1.1300 N.4   1 <1>  -0.9590 
 17 C        9.5070     5.7210    -1.3160 C.3   1 <1>   0.4860 
 18 C        9.3680     7.0570    -0.6110 C.ar  1 <1>  -0.1430 
 19 C        9.2460     8.2240    -1.3540 C.ar  1 <1>  -0.1500 
 20 C        9.3510     7.1220     0.7780 C.ar  1 <1>  -0.1500 
 21 C        9.0990     9.4420    -0.7150 C.ar  1 <1>  -0.1500 
 22 C        9.2040     8.3390     1.4200 C.ar  1 <1>  -0.1500 
 23 C        9.0770     9.4940     0.6660 C.ar  1 <1>   0.1020 
 24 S        8.8770    11.1180     1.4180 S.3   1 <1>  -0.3320 
 25 C        8.9210    10.8730     3.2480 C.3   1 <1>  -0.0100 
 26 H        5.3250     3.0970     2.4610 H     1 <1>   0.1500 
 27 H        1.9380     5.4660     3.4890 H     1 <1>   0.1500 
 28 H        1.1860     5.4340     1.1580 H     1 <1>   0.1500 
 29 H        4.2890     2.6130    -1.0860 H     1 <1>   0.0800 
 30 H        5.1180     1.8550     0.2380 H     1 <1>   0.0800 
 31 H        1.1130     4.4170    -2.3310 H     1 <1>   0.0800 
 32 H        1.1360     5.6960    -1.1230 H     1 <1>   0.0800 
 33 H        0.4490     4.1090    -0.7310 H     1 <1>   0.0800 
 34 H        6.4910     2.5800    -2.3200 H     1 <1>   0.0800 
 35 H        7.2110     1.8410    -0.9230 H     1 <1>   0.0800 
 36 H        5.2380     5.4910    -0.4070 H     1 <1>   0.0800 
 37 H        5.0910     4.7410    -1.9620 H     1 <1>   0.0800 
 38 H        8.4960     3.5500    -2.7200 H     1 <1>   0.0800 
 39 H        9.1150     3.0060    -1.1860 H     1 <1>   0.0800 
 40 H        6.9750     6.6460    -1.1940 H     1 <1>   0.0800 
 41 H        7.0080     5.7190    -2.6680 H     1 <1>   0.0800 
 42 H        8.0810     4.8310    -0.1200 H     1 <1>   0.4500 
 43 H        9.6920     5.8790    -2.3660 H     1 <1>   0.0800 
 44 H       10.3420     5.1830    -0.8990 H     1 <1>   0.0800 
 45 H        9.2650     8.2030    -2.4310 H     1 <1>   0.1500 
 46 H        9.4530     6.2310     1.3750 H     1 <1>   0.1500 
 47 H        9.0040    10.3540    -1.2780 H     1 <1>   0.1500 
 48 H        9.1900     8.3740     2.4920 H     1 <1>   0.1500 
 49 H        8.8170    11.8400     3.7060 H     1 <1>   0.0800 
 50 H        9.8680    10.4320     3.5020 H     1 <1>   0.0800 
 51 H        8.1010    10.2330     3.5190 H     1 <1>   0.0800 
@<TRIPOS>BOND
  1   1   2  1   
  2   2   3  ar  
  3   2   4  ar  
  4   3   5  ar  
  5   3  26  1   
  6   4   6  ar  
  7   4  27  1   
  8   5   7  ar  
  9   5   8  1   
 10   6   7  ar  
 11   6  28  1   
 12   7   9  1   
 13   8  10  1   
 14   8  29  1   
 15   8  30  1   
 16   9  11  1   
 17  10  12  1   
 18  10  13  1   
 19  11  31  1   
 20  11  32  1   
 21  11  33  1   
 22  12  14  1   
 23  12  34  1   
 24  12  35  1   
 25  13  15  1   
 26  13  36  1   
 27  13  37  1   
 28  14  16  1   
 29  14  38  1   
 30  14  39  1   
 31  15  16  1   
 32  15  40  1   
 33  15  41  1   
 34  16  17  1   
 35  16  42  1   
 36  17  18  1   
 37  17  43  1   
 38  17  44  1   
 39  18  19  ar  
 40  18  20  ar  
 41  19  21  ar  
 42  19  45  1   
 43  20  22  ar  
 44  20  46  1   
 45  21  23  ar  
 46  21  47  1   
 47  22  23  ar  
 48  22  48  1   
 49  23  24  1   
 50  24  25  1   
 51  25  49  1   
 52  25  50  1   
 53  25  51  1   
@<TRIPOS>SUBSTRUCTURE
  1 ****  13 GROUP 4 **** **** 0

# MOE 2024.06 (io_trps.svl 2023.06)
