@<TRIPOS>MOLECULE
NONAME
52 54 1 0 0 
SMALL
USER_CHARGES


@<TRIPOS>ATOM
  1 O        0.1550     0.0500     1.1230 O.2   1 <1>  -0.5700 
  2 C        0.7530     0.8290     0.4090 C.2   1 <1>   0.6900 
  3 N        2.0630     0.6590     0.0790 N.am  1 <1>  -0.5470 
  4 N        0.1350     1.9270    -0.0860 N.am  1 <1>  -0.7300 
  5 C        3.0080    -0.3450     0.3340 C.ar  1 <1>   0.1170 
  6 C       -1.2690     2.2950     0.1470 C.3   1 <1>   0.2200 
  7 C        4.3800    -0.0570     0.1960 C.ar  1 <1>   0.0860 
  8 C        2.6150    -1.6300     0.7050 C.ar  1 <1>  -0.1500 
  9 C       -2.0060     2.3070    -1.1950 C.3   1 <1>  -0.1600 
 10 C       -1.3150     3.6710     0.8200 C.3   1 <1>  -0.1600 
 11 C        4.8590     1.2650    -0.1750 C.2   1 <1>   0.5440 
 12 C        5.2960    -1.0870     0.4330 C.ar  1 <1>  -0.1500 
 13 C        3.5410    -2.6250     0.9420 C.ar  1 <1>  -0.1500 
 14 C       -3.4550     2.7910    -1.0290 C.3   1 <1>  -0.1600 
 15 C       -2.7620     4.1580     0.9900 C.3   1 <1>  -0.1600 
 16 O        4.2260     1.9940    -0.9200 O.2   1 <1>  -0.5700 
 17 N        6.0460     1.7300     0.3120 N.am  1 <1>  -0.7300 
 18 C        4.8890    -2.3530     0.8040 C.ar  1 <1>  -0.1500 
 19 C       -3.5050     4.1680    -0.3520 C.3   1 <1>  -0.1600 
 20 C        6.7380     2.9810    -0.0750 C.3   1 <1>   0.1400 
 21 C        8.2170     2.6890    -0.3690 C.3   1 <1>   0.2000 
 22 O        8.7740     1.9190     0.6530 O.3   1 <1>  -0.5600 
 23 C        9.1000     3.9260    -0.4380 C.3   1 <1>  -0.1600 
 24 C       10.1550     2.0960     0.7050 C.3   1 <1>   0.1200 
 25 C       10.4670     3.3730    -0.0740 C.3   1 <1>  -0.1600 
 26 H        2.4710     1.4650    -0.4060 H     1 <1>   0.3700 
 27 H        0.6520     2.5500    -0.7010 H     1 <1>   0.3700 
 28 H       -1.7340     1.5710     0.7970 H     1 <1>   0.0800 
 29 H        1.5710    -1.8630     0.8070 H     1 <1>   0.1500 
 30 H       -2.0090     1.3130    -1.6060 H     1 <1>   0.0800 
 31 H       -1.4960     2.9600    -1.8820 H     1 <1>   0.0800 
 32 H       -0.7740     4.3830     0.2230 H     1 <1>   0.0800 
 33 H       -0.8450     3.6070     1.7860 H     1 <1>   0.0800 
 34 H        6.3490    -0.8980     0.3190 H     1 <1>   0.1500 
 35 H        3.2140    -3.6090     1.2310 H     1 <1>   0.1500 
 36 H       -4.0000     2.0810    -0.4310 H     1 <1>   0.0800 
 37 H       -3.9300     2.8440    -1.9930 H     1 <1>   0.0800 
 38 H       -2.7620     5.1480     1.4120 H     1 <1>   0.0800 
 39 H       -3.2770     3.5070     1.6770 H     1 <1>   0.0800 
 40 H        6.6150     1.1520     0.9390 H     1 <1>   0.3700 
 41 H        5.6150    -3.1280     0.9830 H     1 <1>   0.1500 
 42 H       -4.5310     4.4530    -0.1930 H     1 <1>   0.0800 
 43 H       -3.0580     4.9010    -1.0020 H     1 <1>   0.0800 
 44 H        6.6620     3.6850     0.7350 H     1 <1>   0.0800 
 45 H        6.2720     3.4150    -0.9430 H     1 <1>   0.0800 
 46 H        8.3030     2.1240    -1.2810 H     1 <1>   0.0800 
 47 H        8.7850     4.6440     0.2990 H     1 <1>   0.0800 
 48 H        9.0820     4.3800    -1.4130 H     1 <1>   0.0800 
 49 H       10.6260     1.2370     0.2600 H     1 <1>   0.0800 
 50 H       10.4430     2.1780     1.7400 H     1 <1>   0.0800 
 51 H       11.0400     4.0660     0.5170 H     1 <1>   0.0800 
 52 H       11.0250     3.1230    -0.9590 H     1 <1>   0.0800 
@<TRIPOS>BOND
  1   1   2  2   
  2   2   3  am  
  3   2   4  am  
  4   3   5  1   
  5   3  26  1   
  6   4   6  1   
  7   4  27  1   
  8   5   7  ar  
  9   5   8  ar  
 10   6   9  1   
 11   6  10  1   
 12   6  28  1   
 13   7  11  1   
 14   7  12  ar  
 15   8  13  ar  
 16   8  29  1   
 17   9  14  1   
 18   9  30  1   
 19   9  31  1   
 20  10  15  1   
 21  10  32  1   
 22  10  33  1   
 23  11  16  2   
 24  11  17  am  
 25  12  18  ar  
 26  12  34  1   
 27  13  18  ar  
 28  13  35  1   
 29  14  19  1   
 30  14  36  1   
 31  14  37  1   
 32  15  19  1   
 33  15  38  1   
 34  15  39  1   
 35  17  20  1   
 36  17  40  1   
 37  18  41  1   
 38  19  42  1   
 39  19  43  1   
 40  20  21  1   
 41  20  44  1   
 42  20  45  1   
 43  21  22  1   
 44  21  23  1   
 45  21  46  1   
 46  22  24  1   
 47  23  25  1   
 48  23  47  1   
 49  23  48  1   
 50  24  25  1   
 51  24  49  1   
 52  24  50  1   
 53  25  51  1   
 54  25  52  1   
@<TRIPOS>SUBSTRUCTURE
  1 ****   3 GROUP 4 **** **** 0

# MOE 2024.06 (io_trps.svl 2023.06)
