@<TRIPOS>MOLECULE
NONAME
32 34 1 0 0 
SMALL
USER_CHARGES


@<TRIPOS>ATOM
  1 S        0.0760    -0.2420     0.1080 S.3   1 <1>  -0.2430 
  2 C        1.4490     0.8180     0.4680 C.2   1 <1>   0.6970 
  3 C       -1.2960     0.8400    -0.2390 C.ar  1 <1>   0.1020 
  4 O        2.4760     0.2250     0.7290 O.2   1 <1>  -0.5700 
  5 C        1.2630     2.2120     0.4280 C.2   1 <1>   0.2190 
  6 C       -1.1560     2.2310    -0.1950 C.ar  1 <1>   0.0280 
  7 C       -2.4900     0.2140    -0.5510 C.ar  1 <1>  -0.1500 
  8 N        2.4250     2.9140     0.7320 N.pl3 1 <1>   0.8360 
  9 C        0.0970     2.8910     0.1320 C.2   1 <1>   0.0720 
 10 C       -2.3170     2.9600    -0.4900 C.ar  1 <1>  -0.1500 
 11 C       -3.6090     0.9700    -0.8350 C.ar  1 <1>  -0.1500 
 12 O        3.2070     3.2560    -0.1780 O.2   1 <1>  -0.5200 
 13 O        2.6690     3.2430     1.9100 O.2   1 <1>  -0.5200 
 14 N        0.0920     4.2690     0.1390 N.pl3 1 <1>  -0.8380 
 15 C       -3.5170     2.3490    -0.8020 C.ar  1 <1>  -0.1500 
 16 C       -0.0810     5.0730     1.3900 C.3   1 <1>   0.2090 
 17 C        0.5430     5.0870    -1.0300 C.3   1 <1>   0.2090 
 18 C       -0.9090     6.3410     1.1090 C.3   1 <1>   0.1200 
 19 C       -0.3210     6.3550    -1.1710 C.3   1 <1>   0.1200 
 20 O       -0.3750     7.0670     0.0360 O.3   1 <1>  -0.5600 
 21 H       -2.5450    -0.8610    -0.5710 H     1 <1>   0.1500 
 22 H       -2.2920     4.0330    -0.4770 H     1 <1>   0.1500 
 23 H       -4.5440     0.4930    -1.0780 H     1 <1>   0.1500 
 24 H       -4.3850     2.9470    -1.0230 H     1 <1>   0.1500 
 25 H        0.8850     5.3620     1.7670 H     1 <1>   0.0800 
 26 H       -0.5710     4.4790     2.1420 H     1 <1>   0.0800 
 27 H        0.4800     4.5040    -1.9320 H     1 <1>   0.0800 
 28 H        1.5700     5.3780    -0.8900 H     1 <1>   0.0800 
 29 H       -0.9040     6.9820     1.9730 H     1 <1>   0.0800 
 30 H       -1.9270     6.0830     0.8770 H     1 <1>   0.0800 
 31 H       -1.3230     6.0970    -1.4630 H     1 <1>   0.0800 
 32 H        0.0990     7.0060    -1.9170 H     1 <1>   0.0800 
@<TRIPOS>BOND
  1   1   2  1   
  2   1   3  1   
  3   2   4  2   
  4   2   5  1   
  5   3   6  ar  
  6   3   7  ar  
  7   5   8  1   
  8   5   9  2   
  9   6   9  1   
 10   6  10  ar  
 11   7  11  ar  
 12   7  21  1   
 13   8  12  2   
 14   8  13  2   
 15   9  14  1   
 16  10  15  ar  
 17  10  22  1   
 18  11  15  ar  
 19  11  23  1   
 20  14  16  1   
 21  14  17  1   
 22  15  24  1   
 23  16  18  1   
 24  16  25  1   
 25  16  26  1   
 26  17  19  1   
 27  17  27  1   
 28  17  28  1   
 29  18  20  1   
 30  18  29  1   
 31  18  30  1   
 32  19  20  1   
 33  19  31  1   
 34  19  32  1   
@<TRIPOS>SUBSTRUCTURE
  1 ****   9 GROUP 4 **** **** 0

# MOE 2024.06 (io_trps.svl 2023.06)
