@<TRIPOS>MOLECULE
NONAME
36 36 1 0 0 
SMALL
USER_CHARGES


@<TRIPOS>ATOM
  1 S       -0.5510     0.0420     0.0230 S.3   1 <1>  -0.4100 
  2 C       -2.0970    -0.8990     0.0080 C.3   1 <1>   0.0700 
  3 C       -3.2550     0.0990     0.0180 C.3   1 <1>  -0.1600 
  4 C       -4.6090    -0.6210     0.0060 C.3   1 <1>  -0.1600 
  5 C       -5.7690     0.3820     0.0160 C.3   1 <1>  -0.1600 
  6 C       -7.1230    -0.3380     0.0050 C.3   1 <1>  -0.1600 
  7 C       -8.2820     0.6590     0.0150 C.3   1 <1>   0.1200 
  8 O       -9.4880    -0.0690     0.0030 O.3   1 <1>  -0.3630 
  9 C      -10.6890     0.5660     0.0090 C.ar  1 <1>   0.0820 
 10 C      -10.8360     1.9510     0.0260 C.ar  1 <1>  -0.1500 
 11 C      -11.8180    -0.2380    -0.0020 C.ar  1 <1>  -0.1500 
 12 C      -12.1030     2.5090     0.0310 C.ar  1 <1>  -0.1500 
 13 C      -13.0840     0.3200     0.0030 C.ar  1 <1>  -0.1500 
 14 C      -13.2310     1.7050     0.0200 C.ar  1 <1>   0.0820 
 15 O      -14.4330     2.3390     0.0260 O.3   1 <1>  -0.3620 
 16 C      -15.6390     1.6090     0.0150 C.3   1 <1>   0.0400 
 17 H        0.3950    -0.9440     0.0130 H     1 <1>   0.1800 
 18 H       -2.1010    -1.5240     0.8840 H     1 <1>   0.0800 
 19 H       -2.0980    -1.5020    -0.8830 H     1 <1>   0.0800 
 20 H       -3.1770     0.7360    -0.8460 H     1 <1>   0.0800 
 21 H       -3.1810     0.7140     0.8990 H     1 <1>   0.0800 
 22 H       -4.6830    -1.2600     0.8700 H     1 <1>   0.0800 
 23 H       -4.6790    -1.2380    -0.8740 H     1 <1>   0.0800 
 24 H       -5.6960     1.0210    -0.8480 H     1 <1>   0.0800 
 25 H       -5.6990     1.0000     0.8960 H     1 <1>   0.0800 
 26 H       -7.2010    -0.9720     0.8710 H     1 <1>   0.0800 
 27 H       -7.1980    -0.9500    -0.8780 H     1 <1>   0.0800 
 28 H       -8.2550     1.2840    -0.8610 H     1 <1>   0.0800 
 29 H       -8.2580     1.2620     0.9060 H     1 <1>   0.0800 
 30 H       -9.9870     2.6060     0.0360 H     1 <1>   0.1500 
 31 H      -11.6940    -1.3060    -0.0160 H     1 <1>   0.1500 
 32 H      -12.2260     3.5770     0.0440 H     1 <1>   0.1500 
 33 H      -13.9340    -0.3330    -0.0070 H     1 <1>   0.1500 
 34 H      -16.4540     2.3100     0.0220 H     1 <1>   0.0800 
 35 H      -15.6810     0.9910     0.8940 H     1 <1>   0.0800 
 36 H      -15.6780     1.0130    -0.8800 H     1 <1>   0.0800 
@<TRIPOS>BOND
  1   1   2  1   
  2   1  17  1   
  3   2   3  1   
  4   2  18  1   
  5   2  19  1   
  6   3   4  1   
  7   3  20  1   
  8   3  21  1   
  9   4   5  1   
 10   4  22  1   
 11   4  23  1   
 12   5   6  1   
 13   5  24  1   
 14   5  25  1   
 15   6   7  1   
 16   6  26  1   
 17   6  27  1   
 18   7   8  1   
 19   7  28  1   
 20   7  29  1   
 21   8   9  1   
 22   9  10  ar  
 23   9  11  ar  
 24  10  12  ar  
 25  10  30  1   
 26  11  13  ar  
 27  11  31  1   
 28  12  14  ar  
 29  12  32  1   
 30  13  14  ar  
 31  13  33  1   
 32  14  15  1   
 33  15  16  1   
 34  16  34  1   
 35  16  35  1   
 36  16  36  1   
@<TRIPOS>SUBSTRUCTURE
  1 ****   7 GROUP 4 **** **** 0

# MOE 2024.06 (io_trps.svl 2023.06)
