@<TRIPOS>MOLECULE
NONAME
27 28 1 0 0 
SMALL
USER_CHARGES


@<TRIPOS>ATOM
  1 S        0.2300     0.1060    -1.0230 S.3   1 <1>  -0.2860 
  2 C       -1.4610     0.4050    -0.4920 C.2   1 <1>   0.2420 
  3 C        0.2790    -1.7140    -1.3330 C.3   1 <1>  -0.0100 
  4 N       -2.3120    -0.5400    -0.4230 N.2   1 <1>  -0.5650 
  5 N       -1.9580     1.6160    -0.1520 N.pl3 1 <1>   0.5610 
  6 C       -3.4250     0.1130    -0.0150 C.2   1 <1>   0.5150 
  7 N       -3.2600     1.3940     0.1550 N.2   1 <1>  -0.7070 
  8 C       -1.3250     2.8830    -0.1030 C.2   1 <1>   0.5180 
  9 C       -4.6830    -0.5680     0.2070 C.2   1 <1>   0.1410 
 10 O       -0.1330     3.0530    -0.1510 O.2   1 <1>  -0.5700 
 11 C       -2.2010     4.1280     0.0280 C.3   1 <1>  -0.0990 
 12 O       -4.8100    -1.8790     0.0140 O.3   1 <1>  -0.2800 
 13 C       -5.8850    -0.0750     0.6160 C.2   1 <1>  -0.1500 
 14 C       -2.8850     4.5130    -1.2930 C.3   1 <1>  -0.2400 
 15 C       -6.0510    -2.2280     0.2880 C.2   1 <1>  -0.0100 
 16 C       -6.7710    -1.1530     0.6680 C.2   1 <1>  -0.1500 
 17 H       -0.4450    -1.9370    -2.0960 H     1 <1>   0.0800 
 18 H        0.0300    -2.2110    -0.4130 H     1 <1>   0.0800 
 19 H        1.2730    -1.9670    -1.6550 H     1 <1>   0.0800 
 20 H       -1.5820     4.9470     0.3500 H     1 <1>   0.0800 
 21 H       -2.9440     3.9700     0.7900 H     1 <1>   0.0800 
 22 H       -6.1200     0.9460     0.8570 H     1 <1>   0.1500 
 23 H       -2.1470     4.6870    -2.0580 H     1 <1>   0.0800 
 24 H       -3.4590     5.4130    -1.1620 H     1 <1>   0.0800 
 25 H       -3.5480     3.7310    -1.6210 H     1 <1>   0.0800 
 26 H       -6.3340    -3.2610     0.1850 H     1 <1>   0.1500 
 27 H       -7.8070    -1.1040     0.9560 H     1 <1>   0.1500 
@<TRIPOS>BOND
  1   1   2  1   
  2   1   3  1   
  3   2   4  2   
  4   2   5  1   
  5   3  17  1   
  6   3  18  1   
  7   3  19  1   
  8   4   6  1   
  9   5   7  1   
 10   5   8  1   
 11   6   7  2   
 12   6   9  1   
 13   8  10  2   
 14   8  11  1   
 15   9  12  1   
 16   9  13  2   
 17  11  14  1   
 18  11  20  1   
 19  11  21  1   
 20  12  15  1   
 21  13  16  1   
 22  13  22  1   
 23  14  23  1   
 24  14  24  1   
 25  14  25  1   
 26  15  16  2   
 27  15  26  1   
 28  16  27  1   
@<TRIPOS>SUBSTRUCTURE
  1 ****   6 GROUP 4 **** **** 0

# MOE 2024.06 (io_trps.svl 2023.06)
