@<TRIPOS>MOLECULE
NONAME
43 43 1 0 0 
SMALL
USER_CHARGES


@<TRIPOS>ATOM
  1 CL      -0.2260     0.4160     1.3970 Cl    1 <1>  -0.1770 
  2 C       -1.5890    -0.6150     1.0420 C.ar  1 <1>   0.1770 
  3 C       -2.8380    -0.0520     0.8760 C.ar  1 <1>  -0.1500 
  4 C       -1.3940    -1.9730     0.9320 C.ar  1 <1>  -0.1500 
  5 C       -3.9550    -0.8390     0.5910 C.ar  1 <1>  -0.1440 
  6 C       -2.4790    -2.7790     0.6510 C.ar  1 <1>  -0.1500 
  7 C       -3.7510    -2.2270     0.4810 C.ar  1 <1>   0.0830 
  8 C       -5.3550    -0.1780     0.4080 C.3   1 <1>   0.1440 
  9 O       -4.8160    -3.0270     0.2060 O.3   1 <1>  -0.3630 
 10 C       -5.9000    -0.4420    -1.0070 C.3   1 <1>  -0.2400 
 11 C       -5.3280     1.3550     0.5720 C.3   1 <1>  -0.2400 
 12 C       -6.3450    -0.6990     1.4640 C.3   1 <1>  -0.2400 
 13 C       -4.7350    -4.4270     0.1340 C.3   1 <1>   0.1200 
 14 C       -6.1500    -4.9360    -0.1500 C.3   1 <1>   0.3430 
 15 N       -6.2020    -6.4280    -0.2380 N.4   1 <1>  -0.9060 
 16 C       -7.5550    -6.9490    -0.4810 C.3   1 <1>   0.4230 
 17 C       -7.5240    -8.4440    -0.1980 C.3   1 <1>  -0.2400 
 18 C       -7.9470    -6.6810    -1.9310 C.3   1 <1>  -0.2400 
 19 H       -2.8880     1.0130     0.9800 H     1 <1>   0.1500 
 20 H       -0.4090    -2.3840     1.0660 H     1 <1>   0.1500 
 21 H       -2.2990    -3.8330     0.5690 H     1 <1>   0.1500 
 22 H       -6.0950    -1.4820    -1.1750 H     1 <1>   0.0800 
 23 H       -5.1870    -0.1100    -1.7410 H     1 <1>   0.0800 
 24 H       -6.8220     0.0900    -1.1640 H     1 <1>   0.0800 
 25 H       -4.6810     1.8050    -0.1600 H     1 <1>   0.0800 
 26 H       -4.9910     1.6270     1.5570 H     1 <1>   0.0800 
 27 H       -6.3110     1.7710     0.4380 H     1 <1>   0.0800 
 28 H       -5.9420    -0.5470     2.4490 H     1 <1>   0.0800 
 29 H       -6.5480    -1.7440     1.3420 H     1 <1>   0.0800 
 30 H       -7.2820    -0.1760     1.3960 H     1 <1>   0.0800 
 31 H       -4.3750    -4.7890     1.0810 H     1 <1>   0.0800 
 32 H       -4.0620    -4.6820    -0.6650 H     1 <1>   0.0800 
 33 H       -6.4860    -4.5050    -1.0790 H     1 <1>   0.0800 
 34 H       -6.8020    -4.5970     0.6390 H     1 <1>   0.0800 
 35 H       -5.8590    -6.8410     0.6370 H     1 <1>   0.4500 
 36 H       -5.5930    -6.7670    -0.9930 H     1 <1>   0.4500 
 37 H       -8.2620    -6.4750     0.1840 H     1 <1>   0.0800 
 38 H       -6.8310    -8.9530    -0.8450 H     1 <1>   0.0800 
 39 H       -8.5010    -8.8620    -0.3670 H     1 <1>   0.0800 
 40 H       -7.2650    -8.6340     0.8290 H     1 <1>   0.0800 
 41 H       -7.2470    -7.1260    -2.6160 H     1 <1>   0.0800 
 42 H       -8.0240    -5.6270    -2.1280 H     1 <1>   0.0800 
 43 H       -8.9150    -7.1110    -2.1250 H     1 <1>   0.0800 
@<TRIPOS>BOND
  1   1   2  1   
  2   2   3  ar  
  3   2   4  ar  
  4   3   5  ar  
  5   3  19  1   
  6   4   6  ar  
  7   4  20  1   
  8   5   7  ar  
  9   5   8  1   
 10   6   7  ar  
 11   6  21  1   
 12   7   9  1   
 13   8  10  1   
 14   8  11  1   
 15   8  12  1   
 16   9  13  1   
 17  10  22  1   
 18  10  23  1   
 19  10  24  1   
 20  11  25  1   
 21  11  26  1   
 22  11  27  1   
 23  12  28  1   
 24  12  29  1   
 25  12  30  1   
 26  13  14  1   
 27  13  31  1   
 28  13  32  1   
 29  14  15  1   
 30  14  33  1   
 31  14  34  1   
 32  15  16  1   
 33  15  35  1   
 34  15  36  1   
 35  16  17  1   
 36  16  18  1   
 37  16  37  1   
 38  17  38  1   
 39  17  39  1   
 40  17  40  1   
 41  18  41  1   
 42  18  42  1   
 43  18  43  1   
@<TRIPOS>SUBSTRUCTURE
  1 ****   9 GROUP 4 **** **** 0

# MOE 2024.06 (io_trps.svl 2023.06)
