@<TRIPOS>MOLECULE
NONAME
47 49 1 0 0 
SMALL
USER_CHARGES


@<TRIPOS>ATOM
  1 BR       3.5940     3.1010     2.2000 Br    1 <1>  -0.1110 
  2 C        2.0550     3.2890     1.0490 C.ar  1 <1>   0.1110 
  3 C        2.1330     2.8760    -0.2740 C.ar  1 <1>   0.0820 
  4 C        0.9120     3.8470     1.5870 C.ar  1 <1>  -0.1500 
  5 O        3.2980     2.3420    -0.7240 O.3   1 <1>  -0.3630 
  6 C        1.0050     3.0350    -1.0740 C.ar  1 <1>  -0.1500 
  7 C       -0.2040     4.0040     0.7800 C.ar  1 <1>  -0.1430 
  8 C        3.5930     2.3120    -2.1130 C.3   1 <1>   0.1810 
  9 C       -0.1490     3.5950    -0.5460 C.ar  1 <1>  -0.1500 
 10 C       -1.4780     4.6130     1.3440 C.3   1 <1>  -0.0160 
 11 C        5.0310     1.8730    -2.3910 C.2   1 <1>   0.5690 
 12 C       -2.3820     3.5220     1.9220 C.3   1 <1>  -0.2400 
 13 O        5.1820     1.0060    -3.2220 O.2   1 <1>  -0.5700 
 14 N        6.1110     2.4530    -1.7680 N.am  1 <1>  -0.6600 
 15 C        6.0110     3.5200    -0.7170 C.3   1 <1>   0.1400 
 16 C        7.4980     1.9500    -2.0440 C.3   1 <1>   0.1400 
 17 C        7.2480     4.4370    -0.6810 C.3   1 <1>   0.2090 
 18 C        8.4700     2.2250    -0.8850 C.3   1 <1>   0.2090 
 19 N        8.5340     3.6820    -0.5410 N.pl3 1 <1>  -0.8380 
 20 C        9.4410     4.0990     0.4190 C.ar  1 <1>   0.4100 
 21 N        9.8430     3.2000     1.3110 N.ar  1 <1>  -0.6200 
 22 C        9.8880     5.4200     0.4210 C.ar  1 <1>  -0.1500 
 23 C       10.6970     3.6290     2.2250 C.ar  1 <1>   0.1600 
 24 C       10.7760     5.8530     1.3780 C.ar  1 <1>  -0.1500 
 25 C       11.1870     4.9200     2.3060 C.ar  1 <1>  -0.1500 
 26 H        0.8990     4.1500     2.6180 H     1 <1>   0.1500 
 27 H        1.0000     2.7230    -2.1020 H     1 <1>   0.1500 
 28 H        3.4390     3.2960    -2.5160 H     1 <1>   0.0800 
 29 H        2.9200     1.6180    -2.5810 H     1 <1>   0.0800 
 30 H       -1.0150     3.7090    -1.1750 H     1 <1>   0.1500 
 31 H       -2.0030     5.1440     0.5690 H     1 <1>   0.0800 
 32 H       -1.2320     5.3230     2.1150 H     1 <1>   0.0800 
 33 H       -2.6490     2.8160     1.1560 H     1 <1>   0.0800 
 34 H       -3.2810     3.9580     2.3200 H     1 <1>   0.0800 
 35 H       -1.8740     2.9980     2.7120 H     1 <1>   0.0800 
 36 H        5.9030     3.0490     0.2450 H     1 <1>   0.0800 
 37 H        5.1410     4.1280    -0.8870 H     1 <1>   0.0800 
 38 H        7.8720     2.4260    -2.9330 H     1 <1>   0.0800 
 39 H        7.4670     0.8900    -2.2250 H     1 <1>   0.0800 
 40 H        7.1420     5.1240     0.1400 H     1 <1>   0.0800 
 41 H        7.2820     5.0100    -1.5910 H     1 <1>   0.0800 
 42 H        9.4550     1.8860    -1.1550 H     1 <1>   0.0800 
 43 H        8.1540     1.6660    -0.0210 H     1 <1>   0.0800 
 44 H        9.5350     6.0880    -0.3390 H     1 <1>   0.1500 
 45 H       11.0250     2.9070     2.9520 H     1 <1>   0.1500 
 46 H       11.1360     6.8670     1.4010 H     1 <1>   0.1500 
 47 H       11.8800     5.1880     3.0830 H     1 <1>   0.1500 
@<TRIPOS>BOND
  1   1   2  1   
  2   2   3  ar  
  3   2   4  ar  
  4   3   5  1   
  5   3   6  ar  
  6   4   7  ar  
  7   4  26  1   
  8   5   8  1   
  9   6   9  ar  
 10   6  27  1   
 11   7   9  ar  
 12   7  10  1   
 13   8  11  1   
 14   8  28  1   
 15   8  29  1   
 16   9  30  1   
 17  10  12  1   
 18  10  31  1   
 19  10  32  1   
 20  11  13  2   
 21  11  14  am  
 22  12  33  1   
 23  12  34  1   
 24  12  35  1   
 25  14  15  1   
 26  14  16  1   
 27  15  17  1   
 28  15  36  1   
 29  15  37  1   
 30  16  18  1   
 31  16  38  1   
 32  16  39  1   
 33  17  19  1   
 34  17  40  1   
 35  17  41  1   
 36  18  19  1   
 37  18  42  1   
 38  18  43  1   
 39  19  20  1   
 40  20  21  ar  
 41  20  22  ar  
 42  21  23  ar  
 43  22  24  ar  
 44  22  44  1   
 45  23  25  ar  
 46  23  45  1   
 47  24  25  ar  
 48  24  46  1   
 49  25  47  1   
@<TRIPOS>SUBSTRUCTURE
  1 ****  15 GROUP 4 **** **** 0

# MOE 2024.06 (io_trps.svl 2023.06)
