@<TRIPOS>MOLECULE
NONAME
44 45 1 0 0 
SMALL
USER_CHARGES


@<TRIPOS>ATOM
  1 O        0.2520    -0.3010    -0.1970 O.3   1 <1>  -0.3630 
  2 C       -1.0040    -0.8060    -0.1090 C.ar  1 <1>   0.0830 
  3 C        1.3810    -1.1040     0.0270 C.3   1 <1>   0.1200 
  4 C       -2.0460     0.0740    -0.3480 C.ar  1 <1>  -0.1500 
  5 C       -1.2870    -2.1340     0.2010 C.ar  1 <1>  -0.1500 
  6 C        2.6090    -0.2110    -0.1500 C.3   1 <1>  -0.1600 
  7 C       -3.3610    -0.3520    -0.2820 C.ar  1 <1>  -0.1440 
  8 C       -2.6010    -2.5690     0.2720 C.ar  1 <1>  -0.1430 
  9 C        3.8940    -1.0020     0.0870 C.3   1 <1>   0.3430 
 10 C       -3.6310    -1.6750     0.0290 C.ar  1 <1>  -0.1500 
 11 C       -4.5030     0.6130    -0.5440 C.3   1 <1>  -0.0960 
 12 C       -2.9180    -4.0150     0.6090 C.3   1 <1>  -0.0970 
 13 N        5.0860    -0.1540    -0.1970 N.4   1 <1>  -0.9590 
 14 C        6.3080    -0.9990    -0.3450 C.3   1 <1>   0.3430 
 15 C        5.2850     0.9130     0.8330 C.3   1 <1>   0.3430 
 16 C        7.4860    -0.1300    -0.7880 C.3   1 <1>  -0.1600 
 17 C        6.4430     1.8220     0.4170 C.3   1 <1>  -0.1600 
 18 C        7.7350     1.0290     0.1860 C.3   1 <1>  -0.1600 
 19 H        1.3710    -1.9050    -0.6930 H     1 <1>   0.0800 
 20 H        1.3210    -1.4950     1.0290 H     1 <1>   0.0800 
 21 H       -1.8160     1.0970    -0.5850 H     1 <1>   0.1500 
 22 H       -0.5030    -2.8400     0.3890 H     1 <1>   0.1500 
 23 H        2.5330     0.5990     0.5520 H     1 <1>   0.0800 
 24 H        2.6010     0.1790    -1.1520 H     1 <1>   0.0800 
 25 H        3.8980    -1.8570    -0.5710 H     1 <1>   0.0800 
 26 H        3.9260    -1.3590     1.1040 H     1 <1>   0.0800 
 27 H       -4.6520    -2.0100     0.0810 H     1 <1>   0.1500 
 28 H       -4.1440     1.5140    -1.0070 H     1 <1>   0.0800 
 29 H       -4.9830     0.8680     0.3840 H     1 <1>   0.0800 
 30 H       -5.2270     0.1600    -1.1980 H     1 <1>   0.0800 
 31 H       -2.1200    -4.4570     1.1780 H     1 <1>   0.0800 
 32 H       -3.0530    -4.5770    -0.2970 H     1 <1>   0.0800 
 33 H       -3.8200    -4.0730     1.1910 H     1 <1>   0.0800 
 34 H        4.9350     0.3190    -1.0970 H     1 <1>   0.4500 
 35 H        6.1390    -1.7710    -1.0790 H     1 <1>   0.0800 
 36 H        6.5430    -1.4700     0.5960 H     1 <1>   0.0800 
 37 H        5.5060     0.4640     1.7870 H     1 <1>   0.0800 
 38 H        4.3910     1.5070     0.9360 H     1 <1>   0.0800 
 39 H        7.2970     0.2540    -1.7760 H     1 <1>   0.0800 
 40 H        8.3710    -0.7400    -0.8460 H     1 <1>   0.0800 
 41 H        6.6100     2.5540     1.1890 H     1 <1>   0.0800 
 42 H        6.1750     2.3570    -0.4780 H     1 <1>   0.0800 
 43 H        8.5000     1.6800    -0.2060 H     1 <1>   0.0800 
 44 H        8.0900     0.6380     1.1260 H     1 <1>   0.0800 
@<TRIPOS>BOND
  1   1   2  1   
  2   1   3  1   
  3   2   4  ar  
  4   2   5  ar  
  5   3   6  1   
  6   3  19  1   
  7   3  20  1   
  8   4   7  ar  
  9   4  21  1   
 10   5   8  ar  
 11   5  22  1   
 12   6   9  1   
 13   6  23  1   
 14   6  24  1   
 15   7  10  ar  
 16   7  11  1   
 17   8  10  ar  
 18   8  12  1   
 19   9  13  1   
 20   9  25  1   
 21   9  26  1   
 22  10  27  1   
 23  11  28  1   
 24  11  29  1   
 25  11  30  1   
 26  12  31  1   
 27  12  32  1   
 28  12  33  1   
 29  13  14  1   
 30  13  15  1   
 31  13  34  1   
 32  14  16  1   
 33  14  35  1   
 34  14  36  1   
 35  15  17  1   
 36  15  37  1   
 37  15  38  1   
 38  16  18  1   
 39  16  39  1   
 40  16  40  1   
 41  17  18  1   
 42  17  41  1   
 43  17  42  1   
 44  18  43  1   
 45  18  44  1   
@<TRIPOS>SUBSTRUCTURE
  1 ****   3 GROUP 4 **** **** 0

# MOE 2024.06 (io_trps.svl 2023.06)
