@<TRIPOS>MOLECULE
NONAME
48 51 1 0 0 
SMALL
USER_CHARGES


@<TRIPOS>ATOM
  1 S       -0.3430    -0.4280    -0.5770 S.3   1 <1>  -0.0800 
  2 C        0.7320     0.8580    -0.0060 C.2   1 <1>   0.1040 
  3 C       -1.7200     0.6360    -0.4390 C.2   1 <1>  -0.1400 
  4 N        2.0890     0.6230     0.1740 N.am  1 <1>  -0.4940 
  5 C        0.0320     2.0140     0.2370 C.2   1 <1>  -0.0860 
  6 C       -1.3720     1.8360    -0.0110 C.2   1 <1>  -0.1810 
  7 C       -3.1720     0.4080    -0.7080 C.3   1 <1>   0.0200 
  8 C        2.9450    -0.3750    -0.2390 C.2   1 <1>   0.5440 
  9 C        0.5940     3.2630     0.6780 C.2   1 <1>   0.7160 
 10 C       -2.5820     2.7250     0.1100 C.3   1 <1>   0.0210 
 11 C       -3.7480     1.8060    -0.3590 C.3   1 <1>  -0.1600 
 12 O        2.5420    -1.2850    -0.9340 O.2   1 <1>  -0.5700 
 13 C        4.3430    -0.3150     0.1530 C.ar  1 <1>   0.0860 
 14 O       -0.0040     3.9630     1.4770 O.2   1 <1>  -0.5700 
 15 N        1.8200     3.6990     0.2110 N.am  1 <1>  -0.6600 
 16 C        4.9890     0.8940     0.4330 C.ar  1 <1>  -0.1500 
 17 C        5.1010    -1.4810     0.2640 C.ar  1 <1>  -0.1500 
 18 C        2.2180     3.5110    -1.2210 C.3   1 <1>   0.1400 
 19 C        2.5640     4.8050     0.8900 C.3   1 <1>   0.1400 
 20 C        6.3190     0.9400     0.8140 C.ar  1 <1>  -0.1430 
 21 C        6.4290    -1.4480     0.6450 C.ar  1 <1>  -0.1500 
 22 C        2.2550     4.8600    -1.9600 C.3   1 <1>   0.1200 
 23 C        2.5620     6.0730     0.0220 C.3   1 <1>   0.1200 
 24 C        7.0380    -0.2380     0.9230 C.ar  1 <1>  -0.1500 
 25 C        6.9930     2.2680     1.1120 C.3   1 <1>  -0.0970 
 26 O        3.0410     5.7820    -1.2610 O.3   1 <1>  -0.5600 
 27 H        2.5550     1.3550     0.7080 H     1 <1>   0.3700 
 28 H       -3.5620    -0.3580    -0.0620 H     1 <1>   0.0800 
 29 H       -3.3340     0.1530    -1.7400 H     1 <1>   0.0800 
 30 H       -2.4830     3.5890    -0.5220 H     1 <1>   0.0800 
 31 H       -2.7150     3.0340     1.1320 H     1 <1>   0.0800 
 32 H       -4.4820     1.7170     0.4220 H     1 <1>   0.0800 
 33 H       -4.2200     2.2320    -1.2270 H     1 <1>   0.0800 
 34 H        4.4510     1.8190     0.3450 H     1 <1>   0.1500 
 35 H        4.6350    -2.4270     0.0460 H     1 <1>   0.1500 
 36 H        1.5280     2.8580    -1.7270 H     1 <1>   0.0800 
 37 H        3.1930     3.0610    -1.2680 H     1 <1>   0.0800 
 38 H        3.5810     4.4980     1.0580 H     1 <1>   0.0800 
 39 H        2.1270     5.0280     1.8480 H     1 <1>   0.0800 
 40 H        6.9900    -2.3630     0.7250 H     1 <1>   0.1500 
 41 H        1.2620     5.2620    -2.0660 H     1 <1>   0.0800 
 42 H        2.6840     4.7360    -2.9380 H     1 <1>   0.0800 
 43 H        3.2050     6.8200     0.4520 H     1 <1>   0.0800 
 44 H        1.5670     6.4760    -0.0590 H     1 <1>   0.0800 
 45 H        8.0720    -0.2190     1.2210 H     1 <1>   0.1500 
 46 H        6.4850     3.0750     0.6150 H     1 <1>   0.0800 
 47 H        8.0130     2.2520     0.7720 H     1 <1>   0.0800 
 48 H        6.9840     2.4520     2.1710 H     1 <1>   0.0800 
@<TRIPOS>BOND
  1   1   2  1   
  2   1   3  1   
  3   2   4  1   
  4   2   5  2   
  5   3   6  2   
  6   3   7  1   
  7   4   8  am  
  8   4  27  1   
  9   5   6  1   
 10   5   9  1   
 11   6  10  1   
 12   7  11  1   
 13   7  28  1   
 14   7  29  1   
 15   8  12  2   
 16   8  13  1   
 17   9  14  2   
 18   9  15  am  
 19  10  11  1   
 20  10  30  1   
 21  10  31  1   
 22  11  32  1   
 23  11  33  1   
 24  13  16  ar  
 25  13  17  ar  
 26  15  18  1   
 27  15  19  1   
 28  16  20  ar  
 29  16  34  1   
 30  17  21  ar  
 31  17  35  1   
 32  18  22  1   
 33  18  36  1   
 34  18  37  1   
 35  19  23  1   
 36  19  38  1   
 37  19  39  1   
 38  20  24  ar  
 39  20  25  1   
 40  21  24  ar  
 41  21  40  1   
 42  22  26  1   
 43  22  41  1   
 44  22  42  1   
 45  23  26  1   
 46  23  43  1   
 47  23  44  1   
 48  24  45  1   
 49  25  46  1   
 50  25  47  1   
 51  25  48  1   
@<TRIPOS>SUBSTRUCTURE
  1 ****   4 GROUP 4 **** **** 0

# MOE 2024.06 (io_trps.svl 2023.06)
