@<TRIPOS>MOLECULE
NONAME
39 40 1 0 0 
SMALL
USER_CHARGES


@<TRIPOS>ATOM
  1 O        0.6960     0.7450     1.0290 O.2   1 <1>  -0.5700 
  2 C        0.9140     1.4500     0.0750 C.2   1 <1>   0.5690 
  3 N       -0.0450     2.2050    -0.5450 N.am  1 <1>  -0.5470 
  4 C        2.3370     1.5370    -0.4800 C.3   1 <1>  -0.0190 
  5 C       -1.4220     2.3390    -0.3050 C.ar  1 <1>   0.1170 
  6 C        3.0940     0.1960    -0.3820 C.3   1 <1>  -0.1600 
  7 C        3.1380     2.6440     0.2310 C.3   1 <1>  -0.1600 
  8 C       -2.1670     1.4130     0.4180 C.ar  1 <1>  -0.1500 
  9 C       -2.0820     3.4440    -0.8300 C.ar  1 <1>  -0.1500 
 10 C        4.5240     0.3140    -0.9140 C.3   1 <1>   0.1400 
 11 C        4.5710     2.7390    -0.3020 C.3   1 <1>   0.1400 
 12 C       -3.5250     1.5900     0.6130 C.ar  1 <1>  -0.1500 
 13 C       -3.4410     3.6220    -0.6380 C.ar  1 <1>  -0.1500 
 14 N        5.2320     1.4090    -0.1950 N.am  1 <1>  -0.6600 
 15 C       -4.1720     2.6950     0.0850 C.ar  1 <1>  -0.1430 
 16 C        6.3820     1.2550     0.5390 C.2   1 <1>   0.5690 
 17 C       -5.6620     2.8870     0.3020 C.3   1 <1>  -0.0970 
 18 O        6.9330     2.1860     1.0760 O.2   1 <1>  -0.5700 
 19 C        7.0150    -0.1060     0.7070 C.3   1 <1>  -0.1790 
 20 H        0.3010     2.8080    -1.2870 H     1 <1>   0.3700 
 21 H        2.2680     1.7910    -1.5230 H     1 <1>   0.0800 
 22 H        2.5660    -0.5580    -0.9380 H     1 <1>   0.0800 
 23 H        3.1340    -0.1270     0.6450 H     1 <1>   0.0800 
 24 H        3.1750     2.4400     1.2880 H     1 <1>   0.0800 
 25 H        2.6500     3.5930     0.1010 H     1 <1>   0.0800 
 26 H       -1.6930     0.5430     0.8340 H     1 <1>   0.1500 
 27 H       -1.5350     4.1770    -1.3920 H     1 <1>   0.1500 
 28 H        4.5050     0.5440    -1.9650 H     1 <1>   0.0800 
 29 H        5.0280    -0.6270    -0.7920 H     1 <1>   0.0800 
 30 H        5.1110     3.4810     0.2610 H     1 <1>   0.0800 
 31 H        4.5650     3.0450    -1.3330 H     1 <1>   0.0800 
 32 H       -4.0770     0.8600     1.1790 H     1 <1>   0.1500 
 33 H       -3.9290     4.4880    -1.0510 H     1 <1>   0.1500 
 34 H       -6.1580     1.9360     0.3650 H     1 <1>   0.0800 
 35 H       -6.0930     3.4400    -0.5130 H     1 <1>   0.0800 
 36 H       -5.8280     3.4280     1.2160 H     1 <1>   0.0800 
 37 H        7.3170    -0.4890    -0.2490 H     1 <1>   0.0800 
 38 H        6.3180    -0.7770     1.1710 H     1 <1>   0.0800 
 39 H        7.8830    -0.0260     1.3350 H     1 <1>   0.0800 
@<TRIPOS>BOND
  1   1   2  2   
  2   2   3  am  
  3   2   4  1   
  4   3   5  1   
  5   3  20  1   
  6   4   6  1   
  7   4   7  1   
  8   4  21  1   
  9   5   8  ar  
 10   5   9  ar  
 11   6  10  1   
 12   6  22  1   
 13   6  23  1   
 14   7  11  1   
 15   7  24  1   
 16   7  25  1   
 17   8  12  ar  
 18   8  26  1   
 19   9  13  ar  
 20   9  27  1   
 21  10  14  1   
 22  10  28  1   
 23  10  29  1   
 24  11  14  1   
 25  11  30  1   
 26  11  31  1   
 27  12  15  ar  
 28  12  32  1   
 29  13  15  ar  
 30  13  33  1   
 31  14  16  am  
 32  15  17  1   
 33  16  18  2   
 34  16  19  1   
 35  17  34  1   
 36  17  35  1   
 37  17  36  1   
 38  19  37  1   
 39  19  38  1   
 40  19  39  1   
@<TRIPOS>SUBSTRUCTURE
  1 ****   2 GROUP 4 **** **** 0

# MOE 2024.06 (io_trps.svl 2023.06)
