@<TRIPOS>MOLECULE
NONAME
51 53 1 0 0 
SMALL
USER_CHARGES


@<TRIPOS>ATOM
  1 S       -0.9270     1.5190     2.4500 S.o2  1 <1>   1.4470 
  2 O       -0.2860     0.5060     3.2560 O.2   1 <1>  -0.6500 
  3 O       -1.7530     2.5060     3.1010 O.2   1 <1>  -0.6500 
  4 N        0.3370     2.4550     1.7710 N.am  1 <1>  -0.7570 
  5 C       -1.7890     0.8630     0.9830 C.ar  1 <1>  -0.0090 
  6 C        1.3940     1.8900     1.0780 C.ar  1 <1>   0.1990 
  7 C       -1.5040    -0.3670     0.3800 C.ar  1 <1>  -0.1440 
  8 C       -2.7700     1.6540     0.3970 C.ar  1 <1>  -0.1500 
  9 C        1.4460     1.9030    -0.3180 C.ar  1 <1>  -0.1440 
 10 C        2.4270     1.2890     1.7860 C.ar  1 <1>  -0.1500 
 11 C       -2.2000    -0.7650    -0.7510 C.ar  1 <1>  -0.1500 
 12 C       -0.4320    -1.3100     0.9160 C.3   1 <1>  -0.0970 
 13 C       -3.4810     1.2730    -0.7360 C.ar  1 <1>   0.0860 
 14 C        2.5130     1.3050    -0.9670 C.ar  1 <1>  -0.1500 
 15 C        0.3570     2.5560    -1.1640 C.3   1 <1>  -0.0970 
 16 C        3.4890     0.6990     1.1290 C.ar  1 <1>  -0.1500 
 17 C       -3.1740     0.0420    -1.3020 C.ar  1 <1>  -0.1500 
 18 C       -4.4970     2.1380    -1.3010 C.2   1 <1>   0.5440 
 19 C        3.5380     0.7030    -0.2540 C.ar  1 <1>  -0.1430 
 20 O       -4.1840     3.2550    -1.6650 O.2   1 <1>  -0.5700 
 21 N       -5.8080     1.7310    -1.4230 N.am  1 <1>  -0.6600 
 22 C        4.6980     0.0530    -0.9850 C.3   1 <1>  -0.0970 
 23 C       -6.3920     0.5600    -0.7020 C.3   1 <1>   0.1400 
 24 C       -6.8430     2.5710    -2.1000 C.3   1 <1>   0.1400 
 25 C       -7.5640     1.0060     0.1880 C.3   1 <1>   0.1200 
 26 C       -7.9860     2.9030    -1.1270 C.3   1 <1>   0.1200 
 27 O       -8.5010     1.7330    -0.5540 O.3   1 <1>  -0.5600 
 28 H        0.5870     3.1640     2.4510 H     1 <1>   0.4200 
 29 H       -2.9980     2.6150     0.8290 H     1 <1>   0.1500 
 30 H        2.3900     1.2730     2.8610 H     1 <1>   0.1500 
 31 H       -1.9830    -1.7120    -1.2170 H     1 <1>   0.1500 
 32 H        0.5130    -0.8030     0.9940 H     1 <1>   0.0800 
 33 H       -0.2940    -2.1550     0.2660 H     1 <1>   0.0800 
 34 H       -0.7110    -1.6790     1.8870 H     1 <1>   0.0800 
 35 H        2.5510     1.3070    -2.0420 H     1 <1>   0.1500 
 36 H       -0.1030     3.3760    -0.6430 H     1 <1>   0.0800 
 37 H       -0.3980     1.8330    -1.4100 H     1 <1>   0.0800 
 38 H        0.7720     2.9390    -2.0780 H     1 <1>   0.0800 
 39 H        4.2750     0.2340     1.6990 H     1 <1>   0.1500 
 40 H       -3.7020    -0.2750    -2.1850 H     1 <1>   0.1500 
 41 H        4.4400    -0.9550    -1.2530 H     1 <1>   0.0800 
 42 H        5.5740     0.0330    -0.3620 H     1 <1>   0.0800 
 43 H        4.9320     0.6020    -1.8790 H     1 <1>   0.0800 
 44 H       -5.6540     0.0780    -0.0870 H     1 <1>   0.0800 
 45 H       -6.7480    -0.1570    -1.4210 H     1 <1>   0.0800 
 46 H       -7.2400     2.0330    -2.9420 H     1 <1>   0.0800 
 47 H       -6.4140     3.4870    -2.4680 H     1 <1>   0.0800 
 48 H       -7.2130     1.6220     0.9970 H     1 <1>   0.0800 
 49 H       -8.0660     0.1480     0.6000 H     1 <1>   0.0800 
 50 H       -8.7870     3.3950    -1.6490 H     1 <1>   0.0800 
 51 H       -7.6350     3.5490    -0.3410 H     1 <1>   0.0800 
@<TRIPOS>BOND
  1   1   2  2   
  2   1   3  2   
  3   1   4  am  
  4   1   5  1   
  5   4   6  1   
  6   4  28  1   
  7   5   7  ar  
  8   5   8  ar  
  9   6   9  ar  
 10   6  10  ar  
 11   7  11  ar  
 12   7  12  1   
 13   8  13  ar  
 14   8  29  1   
 15   9  14  ar  
 16   9  15  1   
 17  10  16  ar  
 18  10  30  1   
 19  11  17  ar  
 20  11  31  1   
 21  12  32  1   
 22  12  33  1   
 23  12  34  1   
 24  13  17  ar  
 25  13  18  1   
 26  14  19  ar  
 27  14  35  1   
 28  15  36  1   
 29  15  37  1   
 30  15  38  1   
 31  16  19  ar  
 32  16  39  1   
 33  17  40  1   
 34  18  20  2   
 35  18  21  am  
 36  19  22  1   
 37  21  23  1   
 38  21  24  1   
 39  22  41  1   
 40  22  42  1   
 41  22  43  1   
 42  23  25  1   
 43  23  44  1   
 44  23  45  1   
 45  24  26  1   
 46  24  46  1   
 47  24  47  1   
 48  25  27  1   
 49  25  48  1   
 50  25  49  1   
 51  26  27  1   
 52  26  50  1   
 53  26  51  1   
@<TRIPOS>SUBSTRUCTURE
  1 ****   5 GROUP 4 **** **** 0

# MOE 2024.06 (io_trps.svl 2023.06)
