@<TRIPOS>MOLECULE
NONAME
39 40 1 0 0 
SMALL
USER_CHARGES


@<TRIPOS>ATOM
  1 S        0.3050    -0.3340     1.0060 S.o2  1 <1>   1.4470 
  2 O        0.9450    -1.3380     0.1860 O.2   1 <1>  -0.6500 
  3 O        0.4340    -0.3870     2.4440 O.2   1 <1>  -0.6500 
  4 N        0.9670     1.1540     0.6180 N.am  1 <1>  -0.9140 
  5 C       -1.4330    -0.1450     0.5260 C.ar  1 <1>  -0.0090 
  6 C        2.3910     1.1060     0.3610 C.3   1 <1>   0.2760 
  7 C       -2.4640    -0.4400     1.4080 C.ar  1 <1>  -0.1500 
  8 C       -1.7760     0.2970    -0.7450 C.ar  1 <1>  -0.1500 
  9 C        2.9890     2.4680     0.6960 C.3   1 <1>  -0.1600 
 10 C        2.6340     0.9930    -1.1410 C.3   1 <1>  -0.1600 
 11 C       -3.7900    -0.2960     1.0360 C.ar  1 <1>  -0.1500 
 12 C       -3.1000     0.4430    -1.1230 C.ar  1 <1>  -0.1500 
 13 C        2.7020     3.3620    -0.5160 C.3   1 <1>  -0.1600 
 14 C        2.4890     2.4130    -1.7010 C.3   1 <1>  -0.1600 
 15 C       -4.1210     0.1490    -0.2350 C.ar  1 <1>  -0.1430 
 16 C       -5.5770     0.3170    -0.6640 C.3   1 <1>   0.0630 
 17 C       -6.2850     1.3620     0.2040 C.3   1 <1>  -0.2400 
 18 C       -6.3190    -1.0230    -0.6170 C.3   1 <1>  -0.2400 
 19 H        0.8520     1.6780     1.4810 H     1 <1>   0.4200 
 20 H        2.8670     0.3170     0.9230 H     1 <1>   0.0800 
 21 H       -2.2290    -0.7880     2.4000 H     1 <1>   0.1500 
 22 H       -0.9940     0.5300    -1.4480 H     1 <1>   0.1500 
 23 H        4.0540     2.3530     0.7930 H     1 <1>   0.0800 
 24 H        2.6070     2.8780     1.6140 H     1 <1>   0.0800 
 25 H        1.9690     0.2950    -1.6180 H     1 <1>   0.0800 
 26 H        3.6440     0.6580    -1.2970 H     1 <1>   0.0800 
 27 H       -4.5630    -0.5320     1.7450 H     1 <1>   0.1500 
 28 H       -3.3270     0.7890    -2.1170 H     1 <1>   0.1500 
 29 H        3.5150     4.0450    -0.6960 H     1 <1>   0.0800 
 30 H        1.8020     3.9270    -0.3460 H     1 <1>   0.0800 
 31 H        1.4950     2.5470    -2.0920 H     1 <1>   0.0800 
 32 H        3.2010     2.5920    -2.4880 H     1 <1>   0.0800 
 33 H       -5.5990     0.6670    -1.6820 H     1 <1>   0.0800 
 34 H       -6.3390     1.0380     1.2280 H     1 <1>   0.0800 
 35 H       -7.2840     1.5300    -0.1560 H     1 <1>   0.0800 
 36 H       -5.7470     2.2920     0.1660 H     1 <1>   0.0800 
 37 H       -6.3720    -1.3970     0.3890 H     1 <1>   0.0800 
 38 H       -5.8040    -1.7460    -1.2250 H     1 <1>   0.0800 
 39 H       -7.3190    -0.9080    -0.9950 H     1 <1>   0.0800 
@<TRIPOS>BOND
  1   1   2  2   
  2   1   3  2   
  3   1   4  am  
  4   1   5  1   
  5   4   6  1   
  6   4  19  1   
  7   5   7  ar  
  8   5   8  ar  
  9   6   9  1   
 10   6  10  1   
 11   6  20  1   
 12   7  11  ar  
 13   7  21  1   
 14   8  12  ar  
 15   8  22  1   
 16   9  13  1   
 17   9  23  1   
 18   9  24  1   
 19  10  14  1   
 20  10  25  1   
 21  10  26  1   
 22  11  15  ar  
 23  11  27  1   
 24  12  15  ar  
 25  12  28  1   
 26  13  14  1   
 27  13  29  1   
 28  13  30  1   
 29  14  31  1   
 30  14  32  1   
 31  15  16  1   
 32  16  17  1   
 33  16  18  1   
 34  16  33  1   
 35  17  34  1   
 36  17  35  1   
 37  17  36  1   
 38  18  37  1   
 39  18  38  1   
 40  18  39  1   
@<TRIPOS>SUBSTRUCTURE
  1 ****   5 GROUP 4 **** **** 0

# MOE 2024.06 (io_trps.svl 2023.06)
