@<TRIPOS>MOLECULE
NONAME
39 40 1 0 0 
SMALL
USER_CHARGES


@<TRIPOS>ATOM
  1 O        0.6970    -0.5550    -1.6280 O.2   1 <1>  -0.5700 
  2 C        1.3480    -0.8650    -0.6520 C.2   1 <1>   0.5440 
  3 N        0.8390    -1.7620     0.2550 N.am  1 <1>  -0.5390 
  4 C        2.6650    -0.2970    -0.4330 C.ar  1 <1>   0.0860 
  5 C       -0.2890    -2.6140     0.1040 C.2   1 <1>   0.1230 
  6 C        2.9370     1.0250    -0.7860 C.ar  1 <1>  -0.1500 
  7 C        3.7050    -1.0370     0.1350 C.ar  1 <1>  -0.1500 
  8 C       -1.5380    -2.0770     0.0010 C.2   1 <1>  -0.2760 
  9 C        0.0450    -4.0460     0.1060 C.2   1 <1>   0.7060 
 10 C        4.1800     1.5910    -0.5690 C.ar  1 <1>  -0.1500 
 11 C        4.9510    -0.4760     0.3570 C.ar  1 <1>  -0.1500 
 12 C       -2.8010    -2.9100    -0.2660 C.3   1 <1>  -0.0220 
 13 C       -1.8340    -0.5760     0.1540 C.3   1 <1>  -0.0220 
 14 O       -0.7550    -4.9580     0.0510 O.2   1 <1>  -0.5700 
 15 O        1.3450    -4.3650     0.2150 O.3   1 <1>  -0.4300 
 16 C        5.1890     0.8410     0.0070 C.ar  1 <1>  -0.1500 
 17 C       -3.9690    -2.0700    -0.7980 C.3   1 <1>  -0.1600 
 18 C       -3.1450    -0.3500     0.9150 C.3   1 <1>  -0.1600 
 19 C        1.7900    -5.7080     0.2200 C.3   1 <1>   0.0400 
 20 C       -4.3550    -0.9410     0.1710 C.3   1 <1>  -0.1600 
 21 H        1.5150    -2.0900     0.9430 H     1 <1>   0.3700 
 22 H        2.1570     1.6120    -1.2400 H     1 <1>   0.1500 
 23 H        3.5480    -2.0680     0.3980 H     1 <1>   0.1500 
 24 H        4.3630     2.6150    -0.8490 H     1 <1>   0.1500 
 25 H        5.7390    -1.0630     0.7970 H     1 <1>   0.1500 
 26 H       -2.5900    -3.6760    -0.9910 H     1 <1>   0.0800 
 27 H       -3.1030    -3.3910     0.6480 H     1 <1>   0.0800 
 28 H       -1.0430    -0.0750     0.6810 H     1 <1>   0.0800 
 29 H       -1.9040    -0.1280    -0.8230 H     1 <1>   0.0800 
 30 H        6.1580     1.2800     0.1780 H     1 <1>   0.1500 
 31 H       -3.6750    -1.6420    -1.7420 H     1 <1>   0.0800 
 32 H       -4.8220    -2.7010    -0.9800 H     1 <1>   0.0800 
 33 H       -3.0580    -0.8210     1.8790 H     1 <1>   0.0800 
 34 H       -3.2980     0.7030     1.0770 H     1 <1>   0.0800 
 35 H        2.8620    -5.7140     0.3060 H     1 <1>   0.0800 
 36 H        1.4900    -6.1760    -0.7020 H     1 <1>   0.0800 
 37 H        1.3460    -6.2190     1.0570 H     1 <1>   0.0800 
 38 H       -5.0570    -1.3140     0.8970 H     1 <1>   0.0800 
 39 H       -4.8490    -0.1650    -0.3880 H     1 <1>   0.0800 
@<TRIPOS>BOND
  1   1   2  2   
  2   2   3  am  
  3   2   4  1   
  4   3   5  1   
  5   3  21  1   
  6   4   6  ar  
  7   4   7  ar  
  8   5   8  2   
  9   5   9  1   
 10   6  10  ar  
 11   6  22  1   
 12   7  11  ar  
 13   7  23  1   
 14   8  12  1   
 15   8  13  1   
 16   9  14  2   
 17   9  15  1   
 18  10  16  ar  
 19  10  24  1   
 20  11  16  ar  
 21  11  25  1   
 22  12  17  1   
 23  12  26  1   
 24  12  27  1   
 25  13  18  1   
 26  13  28  1   
 27  13  29  1   
 28  15  19  1   
 29  16  30  1   
 30  17  20  1   
 31  17  31  1   
 32  17  32  1   
 33  18  20  1   
 34  18  33  1   
 35  18  34  1   
 36  19  35  1   
 37  19  36  1   
 38  19  37  1   
 39  20  38  1   
 40  20  39  1   
@<TRIPOS>SUBSTRUCTURE
  1 ****   3 GROUP 4 **** **** 0

# MOE 2024.06 (io_trps.svl 2023.06)
