@<TRIPOS>MOLECULE
NONAME
44 46 1 0 0 
SMALL
USER_CHARGES


@<TRIPOS>ATOM
  1 O       -3.6470    -3.0390     0.1240 O.3   1 <1>  -0.3630 
  2 C       -2.4330    -2.4990    -0.0350 C.ar  1 <1>   0.0830 
  3 C       -4.5870    -1.9710     0.0170 C.3   1 <1>   0.4000 
  4 C       -2.5410    -1.1540    -0.2350 C.ar  1 <1>   0.0830 
  5 C       -1.2090    -3.1360    -0.0140 C.ar  1 <1>  -0.1500 
  6 O       -3.8280    -0.7850    -0.2120 O.3   1 <1>  -0.3630 
  7 C       -1.4280    -0.3610    -0.4270 C.ar  1 <1>  -0.1500 
  8 C       -0.0670    -2.3550    -0.2050 C.ar  1 <1>   0.0830 
  9 C       -0.1840    -0.9800    -0.4090 C.ar  1 <1>  -0.1500 
 10 O        1.1940    -2.8610    -0.2040 O.3   1 <1>  -0.3630 
 11 C        1.4260    -4.2360     0.0400 C.3   1 <1>   0.1200 
 12 C        2.9350    -4.5080    -0.0120 C.3   1 <1>   0.2000 
 13 O        3.4270    -4.0210    -1.2170 O.3   1 <1>  -0.6800 
 14 C        3.2550    -6.0150     0.1520 C.3   1 <1>   0.1100 
 15 N        4.6460    -6.4100    -0.1860 N.3   1 <1>  -0.8100 
 16 C        4.8420    -7.8690    -0.1480 C.3   1 <1>   0.1100 
 17 C        5.6850    -5.6860     0.5700 C.3   1 <1>   0.1100 
 18 C        6.2430    -8.2510    -0.6680 C.3   1 <1>   0.3430 
 19 C        7.0920    -6.0500     0.0540 C.3   1 <1>   0.3430 
 20 N        7.3340    -7.5360     0.0840 N.4   1 <1>  -0.9590 
 21 C        8.6790    -7.8720    -0.4680 C.3   1 <1>   0.2630 
 22 H       -5.1340    -1.8770     0.9380 H     1 <1>   0.0800 
 23 H       -5.2400    -2.1470    -0.8190 H     1 <1>   0.0800 
 24 H       -1.1800    -4.1960     0.1450 H     1 <1>   0.1500 
 25 H       -1.5330     0.6970    -0.5830 H     1 <1>   0.1500 
 26 H        0.7060    -0.3960    -0.5540 H     1 <1>   0.1500 
 27 H        0.9180    -4.8080    -0.7160 H     1 <1>   0.0800 
 28 H        1.0340    -4.4800     1.0110 H     1 <1>   0.0800 
 29 H        3.4060    -3.9540     0.7800 H     1 <1>   0.0800 
 30 H        2.9840    -3.1670    -1.4080 H     1 <1>   0.4000 
 31 H        2.5860    -6.5610    -0.4900 H     1 <1>   0.0800 
 32 H        3.0370    -6.3060     1.1650 H     1 <1>   0.0800 
 33 H        4.1040    -8.3410    -0.7760 H     1 <1>   0.0800 
 34 H        4.7090    -8.2360     0.8550 H     1 <1>   0.0800 
 35 H        5.6060    -5.9090     1.6200 H     1 <1>   0.0800 
 36 H        5.5520    -4.6260     0.4400 H     1 <1>   0.0800 
 37 H        6.2940    -7.9910    -1.7120 H     1 <1>   0.0800 
 38 H        6.3740    -9.3170    -0.5830 H     1 <1>   0.0800 
 39 H        7.8300    -5.5430     0.6520 H     1 <1>   0.0800 
 40 H        7.1780    -5.6890    -0.9580 H     1 <1>   0.0800 
 41 H        7.2800    -7.8360     1.0660 H     1 <1>   0.4500 
 42 H        8.7490    -7.5600    -1.4980 H     1 <1>   0.0800 
 43 H        8.8500    -8.9350    -0.4170 H     1 <1>   0.0800 
 44 H        9.4510    -7.3730     0.0960 H     1 <1>   0.0800 
@<TRIPOS>BOND
  1   1   2  1   
  2   1   3  1   
  3   2   4  ar  
  4   2   5  ar  
  5   3   6  1   
  6   3  22  1   
  7   3  23  1   
  8   4   6  1   
  9   4   7  ar  
 10   5   8  ar  
 11   5  24  1   
 12   7   9  ar  
 13   7  25  1   
 14   8   9  ar  
 15   8  10  1   
 16   9  26  1   
 17  10  11  1   
 18  11  12  1   
 19  11  27  1   
 20  11  28  1   
 21  12  13  1   
 22  12  14  1   
 23  12  29  1   
 24  13  30  1   
 25  14  15  1   
 26  14  31  1   
 27  14  32  1   
 28  15  16  1   
 29  15  17  1   
 30  16  18  1   
 31  16  33  1   
 32  16  34  1   
 33  17  19  1   
 34  17  35  1   
 35  17  36  1   
 36  18  20  1   
 37  18  37  1   
 38  18  38  1   
 39  19  20  1   
 40  19  39  1   
 41  19  40  1   
 42  20  21  1   
 43  20  41  1   
 44  21  42  1   
 45  21  43  1   
 46  21  44  1   
@<TRIPOS>SUBSTRUCTURE
  1 ****  11 GROUP 4 **** **** 0

# MOE 2024.06 (io_trps.svl 2023.06)
