@<TRIPOS>MOLECULE
NONAME
54 55 1 0 0 
SMALL
USER_CHARGES


@<TRIPOS>ATOM
  1 O       -0.9860     1.5060    -1.5310 O.2   1 <1>  -0.5700 
  2 C       -1.0060     1.7590    -0.3510 C.2   1 <1>   0.5690 
  3 N        0.1040     2.1260     0.3510 N.am  1 <1>  -0.5470 
  4 C       -2.3290     1.6780     0.4090 C.3   1 <1>  -0.0190 
  5 C        1.4220     2.2450    -0.1040 C.ar  1 <1>   0.1170 
  6 C       -3.0900     0.3730     0.1030 C.3   1 <1>  -0.1600 
  7 C       -3.2210     2.8930     0.0980 C.3   1 <1>  -0.1600 
  8 C        1.8940     3.4840    -0.5720 C.ar  1 <1>  -0.1430 
  9 C        2.2840     1.1350    -0.0610 C.ar  1 <1>  -0.1430 
 10 C       -4.4300     0.3150     0.8390 C.3   1 <1>   0.1400 
 11 C       -4.5620     2.8140     0.8330 C.3   1 <1>   0.1400 
 12 C        3.1970     3.5730    -1.0370 C.ar  1 <1>  -0.1500 
 13 C        1.0820     4.7940    -0.6110 C.3   1 <1>   0.0640 
 14 C        3.5790     1.2740    -0.5380 C.ar  1 <1>  -0.1500 
 15 C        1.9270    -0.2610     0.4860 C.3   1 <1>   0.0630 
 16 N       -5.2340     1.5250     0.5100 N.am  1 <1>  -0.6600 
 17 C        4.0350     2.4790    -1.0280 C.ar  1 <1>  -0.1500 
 18 C        0.4920     5.2000     0.7460 C.3   1 <1>  -0.2400 
 19 C        0.0180     4.7960    -1.7130 C.3   1 <1>  -0.2400 
 20 C        1.0670    -1.0670    -0.4910 C.3   1 <1>  -0.2400 
 21 C        1.3220    -0.2540     1.8970 C.3   1 <1>  -0.2400 
 22 C       -6.4830     1.5100    -0.0600 C.2   1 <1>   0.5690 
 23 O       -7.1090     2.5210    -0.2670 O.2   1 <1>  -0.5700 
 24 C       -7.1360     0.2060    -0.4560 C.3   1 <1>  -0.1790 
 25 H       -0.0190     2.3470     1.3340 H     1 <1>   0.3700 
 26 H       -2.1110     1.6870     1.4620 H     1 <1>   0.0800 
 27 H       -2.4880    -0.4720     0.3880 H     1 <1>   0.0800 
 28 H       -3.2730     0.2980    -0.9560 H     1 <1>   0.0800 
 29 H       -3.4110     2.9420    -0.9620 H     1 <1>   0.0800 
 30 H       -2.7180     3.8000     0.3790 H     1 <1>   0.0800 
 31 H       -4.2620     0.2890     1.9030 H     1 <1>   0.0800 
 32 H       -4.9470    -0.5870     0.5670 H     1 <1>   0.0800 
 33 H       -5.1770     3.6490     0.5440 H     1 <1>   0.0800 
 34 H       -4.4070     2.8710     1.8970 H     1 <1>   0.0800 
 35 H        3.5830     4.5030    -1.4180 H     1 <1>   0.1500 
 36 H        1.7650     5.5850    -0.8680 H     1 <1>   0.0800 
 37 H        4.2580     0.4400    -0.5370 H     1 <1>   0.1500 
 38 H        2.8490    -0.8080     0.5820 H     1 <1>   0.0800 
 39 H        5.0410     2.5660    -1.3980 H     1 <1>   0.1500 
 40 H       -0.3430     4.5840     1.0150 H     1 <1>   0.0800 
 41 H        0.1530     6.2190     0.7050 H     1 <1>   0.0800 
 42 H        1.2460     5.1220     1.5090 H     1 <1>   0.0800 
 43 H       -0.7990     4.1470    -1.4710 H     1 <1>   0.0800 
 44 H        0.4510     4.4610    -2.6390 H     1 <1>   0.0800 
 45 H       -0.3700     5.7880    -1.8540 H     1 <1>   0.0800 
 46 H        0.0730    -0.6710    -0.5540 H     1 <1>   0.0800 
 47 H        1.0050    -2.0920    -0.1760 H     1 <1>   0.0800 
 48 H        1.5050    -1.0350    -1.4730 H     1 <1>   0.0800 
 49 H        0.2970     0.0630     1.8860 H     1 <1>   0.0800 
 50 H        1.8890     0.4010     2.5340 H     1 <1>   0.0800 
 51 H        1.3570    -1.2450     2.3110 H     1 <1>   0.0800 
 52 H       -6.5170    -0.3110    -1.1650 H     1 <1>   0.0800 
 53 H       -8.0880     0.4030    -0.9130 H     1 <1>   0.0800 
 54 H       -7.2910    -0.4040     0.4130 H     1 <1>   0.0800 
@<TRIPOS>BOND
  1   1   2  2   
  2   2   3  am  
  3   2   4  1   
  4   3   5  1   
  5   3  25  1   
  6   4   6  1   
  7   4   7  1   
  8   4  26  1   
  9   5   8  ar  
 10   5   9  ar  
 11   6  10  1   
 12   6  27  1   
 13   6  28  1   
 14   7  11  1   
 15   7  29  1   
 16   7  30  1   
 17   8  12  ar  
 18   8  13  1   
 19   9  14  ar  
 20   9  15  1   
 21  10  16  1   
 22  10  31  1   
 23  10  32  1   
 24  11  16  1   
 25  11  33  1   
 26  11  34  1   
 27  12  17  ar  
 28  12  35  1   
 29  13  18  1   
 30  13  19  1   
 31  13  36  1   
 32  14  17  ar  
 33  14  37  1   
 34  15  20  1   
 35  15  21  1   
 36  15  38  1   
 37  16  22  am  
 38  17  39  1   
 39  18  40  1   
 40  18  41  1   
 41  18  42  1   
 42  19  43  1   
 43  19  44  1   
 44  19  45  1   
 45  20  46  1   
 46  20  47  1   
 47  20  48  1   
 48  21  49  1   
 49  21  50  1   
 50  21  51  1   
 51  22  23  2   
 52  22  24  1   
 53  24  52  1   
 54  24  53  1   
 55  24  54  1   
@<TRIPOS>SUBSTRUCTURE
  1 ****   2 GROUP 4 **** **** 0

# MOE 2024.06 (io_trps.svl 2023.06)
