@<TRIPOS>MOLECULE
NONAME
33 34 1 0 0 
SMALL
USER_CHARGES


@<TRIPOS>ATOM
  1 F        0.2480    -0.7430     0.1200 F     1 <1>  -0.3400 
  2 C        0.9610    -1.4200    -0.7700 C.3   1 <1>   1.1580 
  3 F        2.0720    -0.7220    -0.9790 F     1 <1>  -0.3400 
  4 F        0.2740    -1.3890    -1.9050 F     1 <1>  -0.3400 
  5 C        1.2470    -2.8900    -0.2960 C.2   1 <1>  -0.0380 
  6 N        2.5330    -3.3240    -0.1770 N.pl3 1 <1>  -0.8690 
  7 C        0.1360    -3.6750    -0.0480 C.2   1 <1>  -0.1360 
  8 C        3.0850    -4.6630     0.1420 C.3   1 <1>   0.2090 
  9 C       -0.0060    -4.9730     0.4450 C.2   1 <1>   0.2990 
 10 C        2.3620    -5.3180     1.3200 C.3   1 <1>   0.1860 
 11 N        0.9710    -5.7100     0.9890 N.2   1 <1>  -0.1460 
 12 C       -1.3050    -5.5830     0.3920 C.ar  1 <1>   0.0860 
 13 C       -2.0160    -5.8770     1.5580 C.ar  1 <1>  -0.1500 
 14 C       -1.8960    -5.9110    -0.8310 C.ar  1 <1>  -0.1500 
 15 C       -3.2530    -6.4870     1.5010 C.ar  1 <1>  -0.1500 
 16 C       -3.1350    -6.5190    -0.8900 C.ar  1 <1>  -0.1500 
 17 C       -3.8240    -6.8170     0.2820 C.ar  1 <1>   0.0830 
 18 O       -5.0300    -7.4120     0.3140 O.3   1 <1>  -0.3630 
 19 C       -5.7300    -7.7760    -0.8560 C.3   1 <1>   0.0400 
 20 H        3.2900    -2.6520    -0.4100 H     1 <1>   0.4000 
 21 H       -0.8090    -3.2070    -0.2780 H     1 <1>   0.1500 
 22 H        4.1230    -4.5440     0.4040 H     1 <1>   0.0800 
 23 H        3.0400    -5.2940    -0.7310 H     1 <1>   0.0800 
 24 H        2.3570    -4.6410     2.1570 H     1 <1>   0.0800 
 25 H        2.9070    -6.1990     1.6070 H     1 <1>   0.0800 
 26 H        0.7390    -6.6610     1.2980 H     1 <1>   0.4000 
 27 H       -1.6110    -5.6230     2.5220 H     1 <1>   0.1500 
 28 H       -1.3820    -5.6890    -1.7510 H     1 <1>   0.1500 
 29 H       -3.7990    -6.7130     2.4010 H     1 <1>   0.1500 
 30 H       -3.5560    -6.7580    -1.8500 H     1 <1>   0.1500 
 31 H       -6.6620    -8.2240    -0.5620 H     1 <1>   0.0800 
 32 H       -5.1420    -8.4870    -1.4090 H     1 <1>   0.0800 
 33 H       -5.9180    -6.8930    -1.4400 H     1 <1>   0.0800 
@<TRIPOS>BOND
  1   1   2  1   
  2   2   3  1   
  3   2   4  1   
  4   2   5  1   
  5   5   6  1   
  6   5   7  2   
  7   6   8  1   
  8   6  20  1   
  9   7   9  1   
 10   7  21  1   
 11   8  10  1   
 12   8  22  1   
 13   8  23  1   
 14   9  11  2   
 15   9  12  1   
 16  10  11  1   
 17  10  24  1   
 18  10  25  1   
 19  11  26  1   
 20  12  13  ar  
 21  12  14  ar  
 22  13  15  ar  
 23  13  27  1   
 24  14  16  ar  
 25  14  28  1   
 26  15  17  ar  
 27  15  29  1   
 28  16  17  ar  
 29  16  30  1   
 30  17  18  1   
 31  18  19  1   
 32  19  31  1   
 33  19  32  1   
 34  19  33  1   
@<TRIPOS>SUBSTRUCTURE
  1 ****   9 GROUP 4 **** **** 0

# MOE 2024.06 (io_trps.svl 2023.06)
