@<TRIPOS>MOLECULE
NONAME
37 37 1 0 0 
SMALL
USER_CHARGES


@<TRIPOS>ATOM
  1 I       -0.6640     0.5230    -0.0070 I     1 <1>  -0.0810 
  2 C        1.3480     1.2200    -0.0110 C.ar  1 <1>   0.0810 
  3 C        1.5780     2.5830    -0.0300 C.ar  1 <1>  -0.1500 
  4 C        2.3730     0.2910     0.0060 C.ar  1 <1>  -0.1500 
  5 C        2.8900     3.0260    -0.0330 C.ar  1 <1>  -0.1500 
  6 C        3.6800     0.7470     0.0040 C.ar  1 <1>  -0.1500 
  7 C        3.9420     2.1190    -0.0160 C.ar  1 <1>   0.0830 
  8 O        5.1920     2.6460    -0.0200 O.3   1 <1>  -0.3630 
  9 C        6.3340     1.8290    -0.0040 C.3   1 <1>   0.1200 
 10 C        7.5490     2.7570    -0.0140 C.3   1 <1>  -0.1600 
 11 C        8.8470     1.9600     0.0030 C.3   1 <1>   0.3430 
 12 N        9.9880     2.9060    -0.0080 N.4   1 <1>  -0.9060 
 13 C       11.3020     2.2210     0.0070 C.3   1 <1>   0.3430 
 14 C       12.4080     3.2730    -0.0060 C.3   1 <1>  -0.1600 
 15 C       13.7910     2.6110     0.0090 C.3   1 <1>  -0.1600 
 16 C       14.9020     3.6640    -0.0030 C.3   1 <1>  -0.2400 
 17 H        0.7590     3.2800    -0.0430 H     1 <1>   0.1500 
 18 H        2.1540    -0.7620     0.0210 H     1 <1>   0.1500 
 19 H        3.1040     4.0800    -0.0480 H     1 <1>   0.1500 
 20 H        4.4710     0.0220     0.0170 H     1 <1>   0.1500 
 21 H        6.3110     1.2020    -0.8800 H     1 <1>   0.0800 
 22 H        6.3050     1.2290     0.8900 H     1 <1>   0.0800 
 23 H        7.4980     3.3890     0.8560 H     1 <1>   0.0800 
 24 H        7.5040     3.3630    -0.9020 H     1 <1>   0.0800 
 25 H        8.8910     1.3180    -0.8640 H     1 <1>   0.0800 
 26 H        8.8860     1.3440     0.8880 H     1 <1>   0.0800 
 27 H        9.9240     3.5310     0.8060 H     1 <1>   0.4500 
 28 H        9.9290     3.5060    -0.8410 H     1 <1>   0.4500 
 29 H       11.4000     1.5850    -0.8590 H     1 <1>   0.0800 
 30 H       11.3940     1.6120     0.8920 H     1 <1>   0.0800 
 31 H       12.3190     3.9070     0.8610 H     1 <1>   0.0800 
 32 H       12.3240     3.8800    -0.8910 H     1 <1>   0.0800 
 33 H       13.9060     1.9740    -0.8530 H     1 <1>   0.0800 
 34 H       13.9010     2.0010     0.8910 H     1 <1>   0.0800 
 35 H       14.8410     4.2740    -0.8880 H     1 <1>   0.0800 
 36 H       15.8650     3.1820     0.0070 H     1 <1>   0.0800 
 37 H       14.8350     4.3000     0.8620 H     1 <1>   0.0800 
@<TRIPOS>BOND
  1   1   2  1   
  2   2   3  ar  
  3   2   4  ar  
  4   3   5  ar  
  5   3  17  1   
  6   4   6  ar  
  7   4  18  1   
  8   5   7  ar  
  9   5  19  1   
 10   6   7  ar  
 11   6  20  1   
 12   7   8  1   
 13   8   9  1   
 14   9  10  1   
 15   9  21  1   
 16   9  22  1   
 17  10  11  1   
 18  10  23  1   
 19  10  24  1   
 20  11  12  1   
 21  11  25  1   
 22  11  26  1   
 23  12  13  1   
 24  12  27  1   
 25  12  28  1   
 26  13  14  1   
 27  13  29  1   
 28  13  30  1   
 29  14  15  1   
 30  14  31  1   
 31  14  32  1   
 32  15  16  1   
 33  15  33  1   
 34  15  34  1   
 35  16  35  1   
 36  16  36  1   
 37  16  37  1   
@<TRIPOS>SUBSTRUCTURE
  1 ****   9 GROUP 4 **** **** 0

# MOE 2024.06 (io_trps.svl 2023.06)
