@<TRIPOS>MOLECULE
NONAME
37 38 1 0 0 
SMALL
USER_CHARGES


@<TRIPOS>ATOM
  1 O       -6.3870     5.9210     0.2750 O.2   1 <1>  -0.5700 
  2 C       -5.2780     5.5490     0.5900 C.2   1 <1>   0.5690 
  3 N       -4.2940     6.4530     0.7600 N.am  1 <1>  -0.8000 
  4 C       -5.0060     4.0590     0.7900 C.3   1 <1>   0.1810 
  5 O       -6.2370     3.3620     0.9320 O.3   1 <1>  -0.3630 
  6 C       -6.4800     2.3360     0.0810 C.ar  1 <1>   0.0830 
  7 C       -5.7440     1.1530     0.1940 C.ar  1 <1>   0.0830 
  8 C       -7.4870     2.4670    -0.8740 C.ar  1 <1>  -0.1430 
  9 O       -4.7690     1.0900     1.1450 O.3   1 <1>  -0.3630 
 10 C       -6.0330     0.0930    -0.6580 C.ar  1 <1>  -0.1500 
 11 C       -7.7560     1.3920    -1.7100 C.ar  1 <1>  -0.1500 
 12 C       -8.2960     3.7430    -1.0750 C.3   1 <1>   0.4860 
 13 C       -4.0930    -0.1170     1.4280 C.3   1 <1>   0.0400 
 14 C       -7.0370     0.2150    -1.6020 C.ar  1 <1>  -0.1500 
 15 N       -8.6930     4.3300     0.2150 N.4   1 <1>  -0.7990 
 16 C       -9.8910     5.1640     0.1640 C.3   1 <1>   0.2960 
 17 C       -9.7510     6.5730    -0.3000 C.3   1 <1>  -0.2000 
 18 C       -9.9940     6.2730     1.1510 C.3   1 <1>  -0.2000 
 19 H       -4.4880     7.4480     0.6260 H     1 <1>   0.3700 
 20 H       -3.3350     6.2280     1.0310 H     1 <1>   0.3700 
 21 H       -4.4340     3.8970     1.6850 H     1 <1>   0.0800 
 22 H       -4.4680     3.6680    -0.0550 H     1 <1>   0.0800 
 23 H       -5.4920    -0.8340    -0.6060 H     1 <1>   0.1500 
 24 H       -8.5250     1.4530    -2.4620 H     1 <1>   0.1500 
 25 H       -9.1780     3.5080    -1.6480 H     1 <1>   0.0800 
 26 H       -7.7130     4.4600    -1.6310 H     1 <1>   0.0800 
 27 H       -3.4230     0.0590     2.2510 H     1 <1>   0.0800 
 28 H       -3.5320    -0.4180     0.5610 H     1 <1>   0.0800 
 29 H       -4.8140    -0.8670     1.7020 H     1 <1>   0.0800 
 30 H       -7.2550    -0.6110    -2.2580 H     1 <1>   0.1500 
 31 H       -7.8840     4.9100     0.5100 H     1 <1>   0.4500 
 32 H       -8.7560     3.5820     0.9120 H     1 <1>   0.4500 
 33 H      -10.7910     4.6230    -0.0910 H     1 <1>   0.1000 
 34 H      -10.5540     7.0270    -0.8560 H     1 <1>   0.1000 
 35 H       -8.7860     6.9570    -0.5830 H     1 <1>   0.1000 
 36 H       -9.1920     6.4540     1.8460 H     1 <1>   0.1000 
 37 H      -10.9580     6.5250     1.5600 H     1 <1>   0.1000 
@<TRIPOS>BOND
  1   1   2  2   
  2   2   3  am  
  3   2   4  1   
  4   3  19  1   
  5   3  20  1   
  6   4   5  1   
  7   4  21  1   
  8   4  22  1   
  9   5   6  1   
 10   6   7  ar  
 11   6   8  ar  
 12   7   9  1   
 13   7  10  ar  
 14   8  11  ar  
 15   8  12  1   
 16   9  13  1   
 17  10  14  ar  
 18  10  23  1   
 19  11  14  ar  
 20  11  24  1   
 21  12  15  1   
 22  12  25  1   
 23  12  26  1   
 24  13  27  1   
 25  13  28  1   
 26  13  29  1   
 27  14  30  1   
 28  15  16  1   
 29  15  31  1   
 30  15  32  1   
 31  16  17  1   
 32  16  18  1   
 33  16  33  1   
 34  17  18  1   
 35  17  34  1   
 36  17  35  1   
 37  18  36  1   
 38  18  37  1   
@<TRIPOS>SUBSTRUCTURE
  1 ****   5 GROUP 4 **** **** 0

# MOE 2024.06 (io_trps.svl 2023.06)
