@<TRIPOS>MOLECULE
NONAME
46 47 1 0 0 
SMALL
USER_CHARGES


@<TRIPOS>ATOM
  1 N        0.0600    -0.0720     0.7520 N.4   1 <1>  -0.9590 
  2 C        1.2330     0.8630     0.7200 C.3   1 <1>   0.4230 
  3 C       -0.0400    -0.9740    -0.4640 C.3   1 <1>   0.3430 
  4 C       -1.2260     0.6800     1.0130 C.3   1 <1>   0.3430 
  5 C        1.2620     1.7510    -0.5350 C.3   1 <1>  -0.1600 
  6 C        2.5380     0.0700     0.8510 C.3   1 <1>  -0.1600 
  7 C       -1.3020    -1.8850    -0.4560 C.3   1 <1>   0.3430 
  8 C       -2.4890    -0.2300     1.0160 C.3   1 <1>   0.3430 
  9 C        2.4610     2.7080    -0.4820 C.3   1 <1>  -0.1600 
 10 C        3.7470     1.0170     0.8990 C.3   1 <1>  -0.1600 
 11 N       -2.5880    -1.1310    -0.1990 N.4   1 <1>  -0.9590 
 12 C        3.7930     1.9520    -0.3260 C.3   1 <1>  -0.0800 
 13 C       -3.7340    -2.0860    -0.0900 C.3   1 <1>   0.3430 
 14 C        4.9500     2.9640    -0.2360 C.3   1 <1>  -0.1600 
 15 C       -5.0490    -1.3280    -0.2210 C.3   1 <1>  -0.2400 
 16 C        6.3370     2.3090    -0.2530 C.3   1 <1>  -0.2400 
 17 H        0.2450    -0.6720     1.5710 H     1 <1>   0.4500 
 18 H        1.1750     1.5170     1.5770 H     1 <1>   0.0800 
 19 H        0.8370    -1.5970    -0.5290 H     1 <1>   0.0800 
 20 H       -0.0700    -0.3710    -1.3570 H     1 <1>   0.0800 
 21 H       -1.3600     1.4360     0.2560 H     1 <1>   0.0800 
 22 H       -1.1620     1.1900     1.9620 H     1 <1>   0.0800 
 23 H        0.3670     2.3420    -0.6070 H     1 <1>   0.0800 
 24 H        1.3600     1.1560    -1.4260 H     1 <1>   0.0800 
 25 H        2.6700    -0.5900     0.0130 H     1 <1>   0.0800 
 26 H        2.5300    -0.5130     1.7550 H     1 <1>   0.0800 
 27 H       -1.1710    -2.6380     0.3040 H     1 <1>   0.0800 
 28 H       -1.3670    -2.3970    -1.4030 H     1 <1>   0.0800 
 29 H       -3.3650     0.3960     1.0750 H     1 <1>   0.0800 
 30 H       -2.4710    -0.8350     1.9080 H     1 <1>   0.0800 
 31 H        2.3400     3.3940     0.3410 H     1 <1>   0.0800 
 32 H        2.4880     3.2940    -1.3860 H     1 <1>   0.0800 
 33 H        4.6450     0.4250     0.9390 H     1 <1>   0.0800 
 34 H        3.7100     1.6090     1.7990 H     1 <1>   0.0800 
 35 H       -2.7960    -0.5470    -1.0250 H     1 <1>   0.4500 
 36 H        3.9450     1.3530    -1.2090 H     1 <1>   0.0800 
 37 H       -3.7020    -2.6130     0.8510 H     1 <1>   0.0800 
 38 H       -3.6780    -2.8160    -0.8840 H     1 <1>   0.0800 
 39 H        4.8520     3.5590     0.6560 H     1 <1>   0.0800 
 40 H        4.8930     3.6350    -1.0770 H     1 <1>   0.0800 
 41 H       -5.2110    -0.6590     0.6040 H     1 <1>   0.0800 
 42 H       -5.8600    -2.0370    -0.2210 H     1 <1>   0.0800 
 43 H       -5.0950    -0.7850    -1.1480 H     1 <1>   0.0800 
 44 H        6.5060     1.7300     0.6380 H     1 <1>   0.0800 
 45 H        7.0960     3.0700    -0.3000 H     1 <1>   0.0800 
 46 H        6.4460     1.6710    -1.1120 H     1 <1>   0.0800 
@<TRIPOS>BOND
  1   1   2  1   
  2   1   3  1   
  3   1   4  1   
  4   1  17  1   
  5   2   5  1   
  6   2   6  1   
  7   2  18  1   
  8   3   7  1   
  9   3  19  1   
 10   3  20  1   
 11   4   8  1   
 12   4  21  1   
 13   4  22  1   
 14   5   9  1   
 15   5  23  1   
 16   5  24  1   
 17   6  10  1   
 18   6  25  1   
 19   6  26  1   
 20   7  11  1   
 21   7  27  1   
 22   7  28  1   
 23   8  11  1   
 24   8  29  1   
 25   8  30  1   
 26   9  12  1   
 27   9  31  1   
 28   9  32  1   
 29  10  12  1   
 30  10  33  1   
 31  10  34  1   
 32  11  13  1   
 33  11  35  1   
 34  12  14  1   
 35  12  36  1   
 36  13  15  1   
 37  13  37  1   
 38  13  38  1   
 39  14  16  1   
 40  14  39  1   
 41  14  40  1   
 42  15  41  1   
 43  15  42  1   
 44  15  43  1   
 45  16  44  1   
 46  16  45  1   
 47  16  46  1   
@<TRIPOS>SUBSTRUCTURE
  1 ****   2 GROUP 4 **** **** 0

# MOE 2024.06 (io_trps.svl 2023.06)
