@<TRIPOS>MOLECULE
NONAME
37 40 1 0 0 
SMALL
USER_CHARGES


@<TRIPOS>ATOM
  1 CL      -0.5120    -0.0040    -0.2330 Cl    1 <1>  -0.1770 
  2 C        0.5530    -1.3850    -0.4100 C.ar  1 <1>   0.1770 
  3 C        0.0020    -2.6480    -0.6080 C.ar  1 <1>   0.1170 
  4 C        1.9170    -1.1820    -0.3460 C.ar  1 <1>  -0.1500 
  5 N       -1.3990    -2.7790    -0.6570 N.am  1 <1>  -0.5470 
  6 C        0.8820    -3.7160    -0.7560 C.ar  1 <1>  -0.1500 
  7 C        2.7710    -2.2620    -0.4880 C.ar  1 <1>  -0.1500 
  8 C       -2.2270    -3.8620    -0.5240 C.2   1 <1>   0.5690 
  9 C        2.2630    -3.5430    -0.6990 C.ar  1 <1>  -0.1440 
 10 O       -1.8140    -4.9800    -0.3460 O.2   1 <1>  -0.5700 
 11 C       -3.7430    -3.6690    -0.5670 C.3   1 <1>  -0.0190 
 12 C        3.2040    -4.7510    -0.8570 C.3   1 <1>   1.1640 
 13 C       -4.2400    -2.4500    -1.3930 C.3   1 <1>  -0.0190 
 14 C       -4.3420    -3.3850     0.8320 C.3   1 <1>  -0.0800 
 15 F        4.4190    -4.4060    -1.2670 F     1 <1>  -0.3400 
 16 F        3.3690    -5.4040     0.2850 F     1 <1>  -0.3400 
 17 F        2.7580    -5.6380    -1.7380 F     1 <1>  -0.3400 
 18 C       -5.4550    -2.8420    -2.1950 C.2   1 <1>   0.6590 
 19 C       -4.8810    -1.5510    -0.3240 C.3   1 <1>  -0.0800 
 20 C       -5.8830    -3.4570     0.7420 C.3   1 <1>  -0.1600 
 21 C       -4.1470    -1.8840     0.9640 C.3   1 <1>  -0.1600 
 22 O       -5.4480    -3.1940    -3.3420 O.2   1 <1>  -0.5700 
 23 O       -6.5390    -2.7340    -1.4560 O.3   1 <1>  -0.4300 
 24 C       -6.2370    -2.2600    -0.1660 C.3   1 <1>   0.2000 
 25 H        2.3050    -0.1920    -0.1870 H     1 <1>   0.1500 
 26 H       -1.8810    -1.8810    -0.7070 H     1 <1>   0.3700 
 27 H        0.4860    -4.7040    -0.9210 H     1 <1>   0.1500 
 28 H        3.8350    -2.0950    -0.4330 H     1 <1>   0.1500 
 29 H       -4.1570    -4.5830    -0.9590 H     1 <1>   0.0800 
 30 H       -3.5010    -1.9670    -2.0050 H     1 <1>   0.0800 
 31 H       -3.9190    -3.9790     1.6250 H     1 <1>   0.0800 
 32 H       -4.9590    -0.5070    -0.5770 H     1 <1>   0.0800 
 33 H       -6.3080    -3.3080     1.7190 H     1 <1>   0.0800 
 34 H       -6.2350    -4.3950     0.3470 H     1 <1>   0.0800 
 35 H       -3.1170    -1.5760     0.9620 H     1 <1>   0.0800 
 36 H       -4.6380    -1.4780     1.8340 H     1 <1>   0.0800 
 37 H       -7.0370    -1.6450     0.2090 H     1 <1>   0.0800 
@<TRIPOS>BOND
  1   1   2  1   
  2   2   3  ar  
  3   2   4  ar  
  4   3   5  1   
  5   3   6  ar  
  6   4   7  ar  
  7   4  25  1   
  8   5   8  am  
  9   5  26  1   
 10   6   9  ar  
 11   6  27  1   
 12   7   9  ar  
 13   7  28  1   
 14   8  10  2   
 15   8  11  1   
 16   9  12  1   
 17  11  13  1   
 18  11  14  1   
 19  11  29  1   
 20  12  15  1   
 21  12  16  1   
 22  12  17  1   
 23  13  18  1   
 24  13  19  1   
 25  13  30  1   
 26  14  20  1   
 27  14  21  1   
 28  14  31  1   
 29  18  22  2   
 30  18  23  1   
 31  19  21  1   
 32  19  24  1   
 33  19  32  1   
 34  20  24  1   
 35  20  33  1   
 36  20  34  1   
 37  21  35  1   
 38  21  36  1   
 39  23  24  1   
 40  24  37  1   
@<TRIPOS>SUBSTRUCTURE
  1 ****   5 GROUP 4 **** **** 0

# MOE 2024.06 (io_trps.svl 2023.06)
