@<TRIPOS>MOLECULE
NONAME
46 48 1 0 0 
SMALL
USER_CHARGES


@<TRIPOS>ATOM
  1 CL      -2.6650    -2.4140     1.9140 Cl    1 <1>  -0.1770 
  2 C       -2.6470    -0.7230     1.4720 C.ar  1 <1>   0.1770 
  3 C       -2.6490    -0.3610     0.1330 C.ar  1 <1>  -0.1440 
  4 C       -2.6440     0.2250     2.4780 C.ar  1 <1>  -0.1500 
  5 C       -2.6420     0.9890    -0.1930 C.ar  1 <1>  -0.1500 
  6 C       -2.6600    -1.4230    -0.9480 C.3   1 <1>   0.4870 
  7 C       -2.6420     1.5670     2.1410 C.ar  1 <1>  -0.1500 
  8 C       -2.6400     1.9460     0.8090 C.ar  1 <1>  -0.1500 
  9 N       -3.9740    -2.1190    -0.9300 N.4   1 <1>  -0.9590 
 10 C       -4.0340    -3.3340    -1.8130 C.3   1 <1>   0.3430 
 11 C       -5.1600    -1.2190    -1.1470 C.3   1 <1>   0.3430 
 12 C       -5.4290    -4.0100    -1.7760 C.3   1 <1>   0.1960 
 13 C       -6.4950    -1.9830    -0.9650 C.3   1 <1>   0.1960 
 14 N       -6.3040    -3.4320    -0.7340 N.am  1 <1>  -0.8490 
 15 S       -7.8020    -4.2260    -0.6250 S.o2  1 <1>   1.4470 
 16 O       -8.2430    -4.3600    -1.9960 O.2   1 <1>  -0.6500 
 17 O       -8.5810    -3.4500     0.3120 O.2   1 <1>  -0.6500 
 18 C       -7.3530    -5.8320     0.0860 C.ar  1 <1>  -0.0090 
 19 C       -7.4520    -7.0040    -0.6560 C.ar  1 <1>  -0.1500 
 20 C       -6.8680    -5.9240     1.3850 C.ar  1 <1>  -0.1500 
 21 C       -7.0690    -8.2230    -0.1230 C.ar  1 <1>  -0.1500 
 22 C       -6.4840    -7.1400     1.9230 C.ar  1 <1>  -0.1500 
 23 C       -6.5790    -8.2960     1.1690 C.ar  1 <1>  -0.1430 
 24 C       -6.1620    -9.6340     1.7530 C.3   1 <1>  -0.0970 
 25 H       -2.6420    -0.0810     3.5100 H     1 <1>   0.1500 
 26 H       -2.6330     1.3140    -1.2210 H     1 <1>   0.1500 
 27 H       -1.8670    -2.1270    -0.7570 H     1 <1>   0.0800 
 28 H       -2.4920    -0.9690    -1.9110 H     1 <1>   0.0800 
 29 H       -2.6380     2.3180     2.9150 H     1 <1>   0.1500 
 30 H       -2.6320     2.9930     0.5550 H     1 <1>   0.1500 
 31 H       -4.1060    -2.4830     0.0290 H     1 <1>   0.4500 
 32 H       -3.2960    -4.0500    -1.4900 H     1 <1>   0.0800 
 33 H       -3.8040    -3.0660    -2.8310 H     1 <1>   0.0800 
 34 H       -5.1270    -0.8010    -2.1390 H     1 <1>   0.0800 
 35 H       -5.1350    -0.3980    -0.4480 H     1 <1>   0.0800 
 36 H       -5.2950    -5.0650    -1.5990 H     1 <1>   0.0800 
 37 H       -5.8910    -3.9060    -2.7450 H     1 <1>   0.0800 
 38 H       -7.1130    -1.8270    -1.8350 H     1 <1>   0.0800 
 39 H       -7.0190    -1.5540    -0.1260 H     1 <1>   0.0800 
 40 H       -7.8360    -6.9680    -1.6620 H     1 <1>   0.1500 
 41 H       -6.7920    -5.0330     1.9850 H     1 <1>   0.1500 
 42 H       -7.1580    -9.1160    -0.7180 H     1 <1>   0.1500 
 43 H       -6.1150    -7.1830     2.9330 H     1 <1>   0.1500 
 44 H       -5.4500    -9.4960     2.5470 H     1 <1>   0.0800 
 45 H       -5.7080   -10.2480     0.9950 H     1 <1>   0.0800 
 46 H       -7.0230   -10.1450     2.1440 H     1 <1>   0.0800 
@<TRIPOS>BOND
  1   1   2  1   
  2   2   3  ar  
  3   2   4  ar  
  4   3   5  ar  
  5   3   6  1   
  6   4   7  ar  
  7   4  25  1   
  8   5   8  ar  
  9   5  26  1   
 10   6   9  1   
 11   6  27  1   
 12   6  28  1   
 13   7   8  ar  
 14   7  29  1   
 15   8  30  1   
 16   9  10  1   
 17   9  11  1   
 18   9  31  1   
 19  10  12  1   
 20  10  32  1   
 21  10  33  1   
 22  11  13  1   
 23  11  34  1   
 24  11  35  1   
 25  12  14  1   
 26  12  36  1   
 27  12  37  1   
 28  13  14  1   
 29  13  38  1   
 30  13  39  1   
 31  14  15  am  
 32  15  16  2   
 33  15  17  2   
 34  15  18  1   
 35  18  19  ar  
 36  18  20  ar  
 37  19  21  ar  
 38  19  40  1   
 39  20  22  ar  
 40  20  41  1   
 41  21  23  ar  
 42  21  42  1   
 43  22  23  ar  
 44  22  43  1   
 45  23  24  1   
 46  24  44  1   
 47  24  45  1   
 48  24  46  1   
@<TRIPOS>SUBSTRUCTURE
  1 ****  14 GROUP 4 **** **** 0

# MOE 2024.06 (io_trps.svl 2023.06)
