@<TRIPOS>MOLECULE
NONAME
43 44 1 0 0 
SMALL
USER_CHARGES


@<TRIPOS>ATOM
  1 O       -0.3580    -0.4750    -0.7810 O.2   1 <1>  -0.5700 
  2 C       -0.3670    -1.5560    -0.2230 C.2   1 <1>   0.7800 
  3 O        0.7750    -2.2240    -0.0580 O.3   1 <1>  -0.4300 
  4 N       -1.5170    -2.1310     0.2470 N.am  1 <1>  -0.6600 
  5 C        1.9960    -1.6910    -0.5150 C.3   1 <1>   0.1200 
  6 C       -1.5700    -3.4900     0.8670 C.3   1 <1>   0.1400 
  7 C       -2.8490    -1.4810     0.0820 C.3   1 <1>   0.1400 
  8 C        3.1020    -2.6870    -0.1820 C.3   1 <1>  -0.2400 
  9 C       -2.5380    -4.4010     0.0970 C.3   1 <1>   0.1400 
 10 C       -3.8120    -2.3980    -0.6880 C.3   1 <1>   0.1400 
 11 N       -3.8810    -3.7540    -0.0530 N.am  1 <1>  -0.6600 
 12 C       -5.0190    -4.3660     0.4080 C.2   1 <1>   0.5690 
 13 O       -4.9760    -5.4370     0.9670 O.2   1 <1>  -0.5700 
 14 C       -6.3730    -3.6940     0.2260 C.3   1 <1>  -0.0990 
 15 C       -7.5630    -4.5410     0.7010 C.3   1 <1>  -0.0170 
 16 C       -8.8630    -3.7880     0.4690 C.ar  1 <1>  -0.1440 
 17 C       -9.3900    -2.9780     1.4630 C.ar  1 <1>  -0.1500 
 18 C       -9.5280    -3.8990    -0.7420 C.ar  1 <1>  -0.1500 
 19 C      -10.5690    -2.2850     1.2480 C.ar  1 <1>  -0.1500 
 20 C      -10.7070    -3.2070    -0.9580 C.ar  1 <1>  -0.1500 
 21 C      -11.2280    -2.3980     0.0370 C.ar  1 <1>  -0.1500 
 22 H        2.1630    -0.7480    -0.0210 H     1 <1>   0.0800 
 23 H        1.9230    -1.5340    -1.5790 H     1 <1>   0.0800 
 24 H       -1.9050    -3.4000     1.8850 H     1 <1>   0.0800 
 25 H       -0.5950    -3.9450     0.8820 H     1 <1>   0.0800 
 26 H       -2.7510    -0.5470    -0.4460 H     1 <1>   0.0800 
 27 H       -3.2580    -1.2670     1.0530 H     1 <1>   0.0800 
 28 H        3.1550    -2.8400     0.8810 H     1 <1>   0.0800 
 29 H        4.0480    -2.3050    -0.5210 H     1 <1>   0.0800 
 30 H        2.9160    -3.6250    -0.6730 H     1 <1>   0.0800 
 31 H       -2.6220    -5.3400     0.6160 H     1 <1>   0.0800 
 32 H       -2.1340    -4.6030    -0.8790 H     1 <1>   0.0800 
 33 H       -3.4610    -2.5030    -1.7000 H     1 <1>   0.0800 
 34 H       -4.7790    -1.9320    -0.7250 H     1 <1>   0.0800 
 35 H       -6.5070    -3.4750    -0.8160 H     1 <1>   0.0800 
 36 H       -6.3710    -2.7700     0.7730 H     1 <1>   0.0800 
 37 H       -7.4540    -4.7690     1.7470 H     1 <1>   0.0800 
 38 H       -7.5820    -5.4750     0.1660 H     1 <1>   0.0800 
 39 H       -8.8860    -2.8850     2.4090 H     1 <1>   0.1500 
 40 H       -9.1320    -4.5260    -1.5210 H     1 <1>   0.1500 
 41 H      -10.9740    -1.6590     2.0240 H     1 <1>   0.1500 
 42 H      -11.2190    -3.2970    -1.9000 H     1 <1>   0.1500 
 43 H      -12.1440    -1.8600    -0.1300 H     1 <1>   0.1500 
@<TRIPOS>BOND
  1   1   2  2   
  2   2   3  1   
  3   2   4  am  
  4   3   5  1   
  5   4   6  1   
  6   4   7  1   
  7   5   8  1   
  8   5  22  1   
  9   5  23  1   
 10   6   9  1   
 11   6  24  1   
 12   6  25  1   
 13   7  10  1   
 14   7  26  1   
 15   7  27  1   
 16   8  28  1   
 17   8  29  1   
 18   8  30  1   
 19   9  11  1   
 20   9  31  1   
 21   9  32  1   
 22  10  11  1   
 23  10  33  1   
 24  10  34  1   
 25  11  12  am  
 26  12  13  2   
 27  12  14  1   
 28  14  15  1   
 29  14  35  1   
 30  14  36  1   
 31  15  16  1   
 32  15  37  1   
 33  15  38  1   
 34  16  17  ar  
 35  16  18  ar  
 36  17  19  ar  
 37  17  39  1   
 38  18  20  ar  
 39  18  40  1   
 40  19  21  ar  
 41  19  41  1   
 42  20  21  ar  
 43  20  42  1   
 44  21  43  1   
@<TRIPOS>SUBSTRUCTURE
  1 ****  11 GROUP 4 **** **** 0

# MOE 2024.06 (io_trps.svl 2023.06)
