@<TRIPOS>MOLECULE
NONAME
64 67 1 0 0 
SMALL
USER_CHARGES


@<TRIPOS>ATOM
  1 O       -0.1510    -0.1120     1.8760 O.2   1 <1>  -0.5700 
  2 C        0.0570    -0.8430     0.9290 C.2   1 <1>   0.4950 
  3 C       -0.8080    -1.2170    -0.1350 C.2   1 <1>  -0.1240 
  4 C        1.3860    -1.5680     0.6890 C.3   1 <1>   0.0610 
  5 C       -2.0800    -0.8480    -0.4240 C.2   1 <1>  -0.0500 
  6 C        0.0230    -2.1770    -0.9800 C.3   1 <1>   0.0580 
  7 C        1.4290    -1.5600    -0.8560 C.3   1 <1>   0.0000 
  8 C        1.0800    -3.0480     1.0160 C.3   1 <1>  -0.1600 
  9 C        2.6140    -1.0030     1.4230 C.3   1 <1>  -0.2400 
 10 N       -2.7900     0.0340     0.3380 N.pl3 1 <1>  -0.8690 
 11 C        0.1290    -3.4630    -0.1320 C.3   1 <1>  -0.1600 
 12 C        1.5360    -0.1480    -1.4870 C.3   1 <1>  -0.2400 
 13 C        2.5590    -2.4030    -1.5030 C.3   1 <1>  -0.2400 
 14 C       -4.0610     0.6990    -0.0460 C.3   1 <1>   0.2090 
 15 C       -4.0320     2.2000     0.2970 C.3   1 <1>   0.2090 
 16 N       -2.7790     2.8380    -0.1810 N.pl3 1 <1>  -0.8690 
 17 C       -1.9950     3.7040     0.5260 C.2   1 <1>  -0.0500 
 18 C       -0.7400     4.0450     0.1430 C.2   1 <1>  -0.1240 
 19 C        0.0350     3.6540    -0.9820 C.2   1 <1>   0.4950 
 20 C        0.1710     4.9860     0.9240 C.3   1 <1>   0.0580 
 21 O       -0.2580     2.9280    -1.9100 O.2   1 <1>  -0.5700 
 22 C        1.3930     4.3490    -0.8420 C.3   1 <1>   0.0610 
 23 C        1.5510     4.3400     0.6970 C.3   1 <1>   0.0000 
 24 C        0.2420     6.2710     0.0690 C.3   1 <1>  -0.1600 
 25 C        1.0960     5.8360    -1.1460 C.3   1 <1>  -0.1600 
 26 C        2.5510     3.7590    -1.6640 C.3   1 <1>  -0.2400 
 27 C        1.6740     2.9240     1.3190 C.3   1 <1>  -0.2400 
 28 C        2.7430     5.1570     1.2570 C.3   1 <1>  -0.2400 
 29 H       -2.5770    -1.2440    -1.2950 H     1 <1>   0.1500 
 30 H       -0.3380    -2.3180    -1.9840 H     1 <1>   0.0800 
 31 H        1.9740    -3.6450     1.0160 H     1 <1>   0.0800 
 32 H        0.6030    -3.1390     1.9780 H     1 <1>   0.0800 
 33 H        3.4960    -1.5640     1.1770 H     1 <1>   0.0800 
 34 H        2.4560    -1.0510     2.4860 H     1 <1>   0.0800 
 35 H        2.7670     0.0250     1.1520 H     1 <1>   0.0800 
 36 H       -2.2760     0.5220     1.0940 H     1 <1>   0.4000 
 37 H       -0.8370    -3.7620     0.2420 H     1 <1>   0.0800 
 38 H        0.5430    -4.2730    -0.7060 H     1 <1>   0.0800 
 39 H        2.5140     0.2630    -1.3150 H     1 <1>   0.0800 
 40 H        0.8200     0.5550    -1.1010 H     1 <1>   0.0800 
 41 H        1.3810    -0.2050    -2.5500 H     1 <1>   0.0800 
 42 H        2.4170    -2.4450    -2.5680 H     1 <1>   0.0800 
 43 H        2.6100    -3.4120    -1.1440 H     1 <1>   0.0800 
 44 H        3.5130    -1.9450    -1.3140 H     1 <1>   0.0800 
 45 H       -4.2200     0.5810    -1.1040 H     1 <1>   0.0800 
 46 H       -4.8780     0.2290     0.4720 H     1 <1>   0.0800 
 47 H       -4.1100     2.3210     1.3630 H     1 <1>   0.0800 
 48 H       -4.8740     2.6880    -0.1600 H     1 <1>   0.0800 
 49 H       -2.3320     2.3400    -0.9720 H     1 <1>   0.4000 
 50 H       -2.4180     4.1100     1.4310 H     1 <1>   0.1500 
 51 H       -0.1110     5.1340     1.9520 H     1 <1>   0.0800 
 52 H       -0.7420     6.5910    -0.2320 H     1 <1>   0.0800 
 53 H        0.7150     7.0710     0.6100 H     1 <1>   0.0800 
 54 H        2.0010     6.4140    -1.2120 H     1 <1>   0.0800 
 55 H        0.5510     5.9390    -2.0690 H     1 <1>   0.0800 
 56 H        3.4610     4.3000    -1.4840 H     1 <1>   0.0800 
 57 H        2.3160     3.8120    -2.7120 H     1 <1>   0.0800 
 58 H        2.7010     2.7270    -1.4050 H     1 <1>   0.0800 
 59 H        1.5990     2.9840     2.3900 H     1 <1>   0.0800 
 60 H        2.6270     2.4930     1.0750 H     1 <1>   0.0800 
 61 H        0.9160     2.2380     0.9870 H     1 <1>   0.0800 
 62 H        2.6810     5.2010     2.3300 H     1 <1>   0.0800 
 63 H        2.7900     6.1650     0.8950 H     1 <1>   0.0800 
 64 H        3.6710     4.6790     0.9990 H     1 <1>   0.0800 
@<TRIPOS>BOND
  1   1   2  2   
  2   2   3  1   
  3   2   4  1   
  4   3   5  2   
  5   3   6  1   
  6   4   7  1   
  7   4   8  1   
  8   4   9  1   
  9   5  10  1   
 10   5  29  1   
 11   6   7  1   
 12   6  11  1   
 13   6  30  1   
 14   7  12  1   
 15   7  13  1   
 16   8  11  1   
 17   8  31  1   
 18   8  32  1   
 19   9  33  1   
 20   9  34  1   
 21   9  35  1   
 22  10  14  1   
 23  10  36  1   
 24  11  37  1   
 25  11  38  1   
 26  12  39  1   
 27  12  40  1   
 28  12  41  1   
 29  13  42  1   
 30  13  43  1   
 31  13  44  1   
 32  14  15  1   
 33  14  45  1   
 34  14  46  1   
 35  15  16  1   
 36  15  47  1   
 37  15  48  1   
 38  16  17  1   
 39  16  49  1   
 40  17  18  2   
 41  17  50  1   
 42  18  19  1   
 43  18  20  1   
 44  19  21  2   
 45  19  22  1   
 46  20  23  1   
 47  20  24  1   
 48  20  51  1   
 49  22  23  1   
 50  22  25  1   
 51  22  26  1   
 52  23  27  1   
 53  23  28  1   
 54  24  25  1   
 55  24  52  1   
 56  24  53  1   
 57  25  54  1   
 58  25  55  1   
 59  26  56  1   
 60  26  57  1   
 61  26  58  1   
 62  27  59  1   
 63  27  60  1   
 64  27  61  1   
 65  28  62  1   
 66  28  63  1   
 67  28  64  1   
@<TRIPOS>SUBSTRUCTURE
  1 ****   2 GROUP 4 **** **** 0

# MOE 2024.06 (io_trps.svl 2023.06)
