@<TRIPOS>MOLECULE
NONAME
43 44 1 0 0 
SMALL
USER_CHARGES


@<TRIPOS>ATOM
  1 S        0.2540     0.0890    -0.8940 S.o2  1 <1>   1.5760 
  2 O       -0.3700    -0.8770    -1.7720 O.2   1 <1>  -0.6500 
  3 O        0.7690     1.3340    -1.4190 O.2   1 <1>  -0.6500 
  4 N        1.4920    -0.6730    -0.0440 N.am  1 <1>  -0.8490 
  5 N       -0.8190     0.4240     0.3710 N.am  1 <1>  -0.8490 
  6 C        2.4470    -1.3000    -0.9730 C.3   1 <1>   0.1960 
  7 C        2.2070     0.2720     0.8340 C.3   1 <1>   0.1960 
  8 C       -1.4290    -0.7900     0.9190 C.3   1 <1>   0.1160 
  9 C       -1.8580     1.3660    -0.0440 C.3   1 <1>   0.1160 
 10 C        3.5870    -2.0390    -0.2450 C.3   1 <1>   0.2090 
 11 C        3.3370    -0.4020     1.6360 C.3   1 <1>   0.2090 
 12 N        4.2710    -1.1820     0.7690 N.pl3 1 <1>  -0.8380 
 13 C        5.4890    -0.5980     0.4200 C.ar  1 <1>   0.1000 
 14 C        6.6880    -1.0690     0.9570 C.ar  1 <1>  -0.1430 
 15 C        5.5310     0.4660    -0.4750 C.ar  1 <1>  -0.1500 
 16 C        7.8880    -0.4780     0.5970 C.ar  1 <1>  -0.1500 
 17 C        6.6850    -2.2320     1.9390 C.3   1 <1>  -0.0970 
 18 C        6.7320     1.0510    -0.8290 C.ar  1 <1>  -0.1500 
 19 C        7.9190     0.5830    -0.2940 C.ar  1 <1>  -0.1430 
 20 C        9.2400     1.2210    -0.6820 C.3   1 <1>  -0.0970 
 21 H        2.8720    -0.5520    -1.6210 H     1 <1>   0.0800 
 22 H        1.9270    -2.0110    -1.5940 H     1 <1>   0.0800 
 23 H        1.5130     0.7110     1.5290 H     1 <1>   0.0800 
 24 H        2.6310     1.0720     0.2510 H     1 <1>   0.0800 
 25 H       -0.6630    -1.4680     1.2560 H     1 <1>   0.0800 
 26 H       -2.0240    -1.2880     0.1710 H     1 <1>   0.0800 
 27 H       -2.0550    -0.5430     1.7590 H     1 <1>   0.0800 
 28 H       -1.4070     2.2860    -0.3780 H     1 <1>   0.0800 
 29 H       -2.5090     1.5900     0.7840 H     1 <1>   0.0800 
 30 H       -2.4410     0.9520    -0.8520 H     1 <1>   0.0800 
 31 H        4.3090    -2.3800    -0.9670 H     1 <1>   0.0800 
 32 H        3.1830    -2.9040     0.2500 H     1 <1>   0.0800 
 33 H        2.9030    -1.0670     2.3610 H     1 <1>   0.0800 
 34 H        3.8920     0.3490     2.1710 H     1 <1>   0.0800 
 35 H        4.6190     0.8370    -0.8960 H     1 <1>   0.1500 
 36 H        8.8090    -0.8450     1.0120 H     1 <1>   0.1500 
 37 H        6.0930    -1.9760     2.7980 H     1 <1>   0.0800 
 38 H        7.6810    -2.4720     2.2640 H     1 <1>   0.0800 
 39 H        6.2550    -3.0980     1.4710 H     1 <1>   0.0800 
 40 H        6.7370     1.8720    -1.5240 H     1 <1>   0.1500 
 41 H        9.6480     0.7180    -1.5390 H     1 <1>   0.0800 
 42 H        9.9420     1.1520     0.1300 H     1 <1>   0.0800 
 43 H        9.1000     2.2600    -0.9210 H     1 <1>   0.0800 
@<TRIPOS>BOND
  1   1   2  2   
  2   1   3  2   
  3   1   4  am  
  4   1   5  am  
  5   4   6  1   
  6   4   7  1   
  7   5   8  1   
  8   5   9  1   
  9   6  10  1   
 10   6  21  1   
 11   6  22  1   
 12   7  11  1   
 13   7  23  1   
 14   7  24  1   
 15   8  25  1   
 16   8  26  1   
 17   8  27  1   
 18   9  28  1   
 19   9  29  1   
 20   9  30  1   
 21  10  12  1   
 22  10  31  1   
 23  10  32  1   
 24  11  12  1   
 25  11  33  1   
 26  11  34  1   
 27  12  13  1   
 28  13  14  ar  
 29  13  15  ar  
 30  14  16  ar  
 31  14  17  1   
 32  15  18  ar  
 33  15  35  1   
 34  16  19  ar  
 35  16  36  1   
 36  17  37  1   
 37  17  38  1   
 38  17  39  1   
 39  18  19  ar  
 40  18  40  1   
 41  19  20  1   
 42  20  41  1   
 43  20  42  1   
 44  20  43  1   
@<TRIPOS>SUBSTRUCTURE
  1 ****  12 GROUP 4 **** **** 0

# MOE 2024.06 (io_trps.svl 2023.06)
