@<TRIPOS>MOLECULE
NONAME
33 34 1 0 0 
SMALL
USER_CHARGES


@<TRIPOS>ATOM
  1 BR       2.5520    -2.2710    -2.9390 Br    1 <1>  -0.1110 
  2 C        1.5070    -2.8650    -1.4290 C.ar  1 <1>   0.1110 
  3 C        1.9720    -2.6380    -0.1400 C.ar  1 <1>   0.0830 
  4 C        0.3150    -3.5150    -1.6850 C.ar  1 <1>  -0.1500 
  5 O        3.1580    -1.9940     0.0200 O.3   1 <1>  -0.3630 
  6 C        1.1920    -3.0880     0.9220 C.ar  1 <1>  -0.1500 
  7 C       -0.4520    -3.9590    -0.6200 C.ar  1 <1>  -0.1430 
  8 C        3.8330    -2.0010     1.2700 C.3   1 <1>   0.1810 
  9 C       -0.0060    -3.7420     0.6770 C.ar  1 <1>  -0.1500 
 10 C       -1.7660    -4.6780    -0.8650 C.3   1 <1>  -0.0960 
 11 C        5.2220    -1.3700     1.1800 C.2   1 <1>   0.5690 
 12 O        5.4970    -0.5120     1.9890 O.2   1 <1>  -0.5700 
 13 N        6.1410    -1.7880     0.2520 N.am  1 <1>  -0.6600 
 14 C        7.4910    -1.1970     0.1480 C.3   1 <1>   0.1400 
 15 C        5.9100    -2.7810    -0.8200 C.3   1 <1>   0.1400 
 16 C        8.0420    -1.7110    -1.1780 C.3   1 <1>  -0.1600 
 17 C        7.2860    -3.0130    -1.4320 C.3   1 <1>  -0.1600 
 18 H       -0.0010    -3.6680    -2.7010 H     1 <1>   0.1500 
 19 H        1.4930    -2.9350     1.9410 H     1 <1>   0.1500 
 20 H        3.9300    -3.0190     1.5980 H     1 <1>   0.0800 
 21 H        3.2400    -1.4450     1.9720 H     1 <1>   0.0800 
 22 H       -0.5980    -4.0850     1.5080 H     1 <1>   0.1500 
 23 H       -2.1610    -4.4280    -1.8340 H     1 <1>   0.0800 
 24 H       -2.4910    -4.3980    -0.1220 H     1 <1>   0.0800 
 25 H       -1.6140    -5.7420    -0.8180 H     1 <1>   0.0800 
 26 H        8.0900    -1.5460     0.9710 H     1 <1>   0.0800 
 27 H        7.4400    -0.1210     0.1700 H     1 <1>   0.0800 
 28 H        5.2450    -2.3570    -1.5540 H     1 <1>   0.0800 
 29 H        5.4890    -3.6910    -0.4290 H     1 <1>   0.0800 
 30 H        9.1070    -1.8530    -1.1400 H     1 <1>   0.0800 
 31 H        7.8100    -0.9980    -1.9500 H     1 <1>   0.0800 
 32 H        7.2220    -3.2530    -2.4790 H     1 <1>   0.0800 
 33 H        7.7680    -3.8230    -0.9140 H     1 <1>   0.0800 
@<TRIPOS>BOND
  1   1   2  1   
  2   2   3  ar  
  3   2   4  ar  
  4   3   5  1   
  5   3   6  ar  
  6   4   7  ar  
  7   4  18  1   
  8   5   8  1   
  9   6   9  ar  
 10   6  19  1   
 11   7   9  ar  
 12   7  10  1   
 13   8  11  1   
 14   8  20  1   
 15   8  21  1   
 16   9  22  1   
 17  10  23  1   
 18  10  24  1   
 19  10  25  1   
 20  11  12  2   
 21  11  13  am  
 22  13  14  1   
 23  13  15  1   
 24  14  16  1   
 25  14  26  1   
 26  14  27  1   
 27  15  17  1   
 28  15  28  1   
 29  15  29  1   
 30  16  17  1   
 31  16  30  1   
 32  16  31  1   
 33  17  32  1   
 34  17  33  1   
@<TRIPOS>SUBSTRUCTURE
  1 ****   5 GROUP 4 **** **** 0

# MOE 2024.06 (io_trps.svl 2023.06)
