@<TRIPOS>MOLECULE
NONAME
41 43 1 0 0 
SMALL
USER_CHARGES


@<TRIPOS>ATOM
  1 N        0.9700    -0.1010    -0.5350 N.ar  1 <1>  -0.6200 
  2 C        1.5300     0.7450     0.3280 C.ar  1 <1>   0.7200 
  3 C        0.0190     0.3990    -1.2900 C.ar  1 <1>   0.1600 
  4 N        1.2600     2.0380     0.4590 N.ar  1 <1>  -0.6200 
  5 N        2.5190     0.2380     1.1400 N.pl3 1 <1>  -0.8380 
  6 C       -0.3580     1.7170    -1.2130 C.ar  1 <1>  -0.1500 
  7 C        0.3070     2.5090    -0.3090 C.ar  1 <1>   0.1600 
  8 C        2.6540    -1.2330     1.3380 C.3   1 <1>   0.2090 
  9 C        3.8110     0.9750     1.2420 C.3   1 <1>   0.2090 
 10 C        3.6370    -1.8060     0.2960 C.3   1 <1>   0.3430 
 11 C        4.8180     0.4050     0.2200 C.3   1 <1>   0.3430 
 12 N        4.9730    -1.1000     0.3160 N.4   1 <1>  -0.9590 
 13 C        5.8770    -1.6170    -0.7450 C.3   1 <1>   0.4860 
 14 C        7.2560    -1.0280    -0.5270 C.ar  1 <1>  -0.1430 
 15 C        8.0740    -1.5120     0.4840 C.ar  1 <1>  -0.1500 
 16 C        7.7100     0.0050    -1.3340 C.ar  1 <1>  -0.1500 
 17 C        9.3250    -0.9580     0.6920 C.ar  1 <1>  -0.1500 
 18 C        8.9600     0.5560    -1.1210 C.ar  1 <1>  -0.1500 
 19 C        9.7730     0.0790    -0.1080 C.ar  1 <1>  -0.1430 
 20 C       11.1470     0.6840     0.1230 C.3   1 <1>  -0.0970 
 21 H       -0.4740    -0.2570    -1.9890 H     1 <1>   0.1500 
 22 H       -1.1390     2.1140    -1.8340 H     1 <1>   0.1500 
 23 H        0.0500     3.5510    -0.2140 H     1 <1>   0.1500 
 24 H        1.6950    -1.7150     1.2420 H     1 <1>   0.0800 
 25 H        3.0120    -1.4290     2.3340 H     1 <1>   0.0800 
 26 H        4.2010     0.8790     2.2400 H     1 <1>   0.0800 
 27 H        3.6700     2.0260     1.0530 H     1 <1>   0.0800 
 28 H        3.1820    -1.6940    -0.6750 H     1 <1>   0.0800 
 29 H        3.7710    -2.8590     0.4810 H     1 <1>   0.0800 
 30 H        5.7730     0.8820     0.3660 H     1 <1>   0.0800 
 31 H        4.4680     0.6660    -0.7650 H     1 <1>   0.0800 
 32 H        5.4330    -1.2890     1.2140 H     1 <1>   0.4500 
 33 H        5.5060    -1.3420    -1.7190 H     1 <1>   0.0800 
 34 H        5.9380    -2.6920    -0.6930 H     1 <1>   0.0800 
 35 H        7.7580    -2.3220     1.1180 H     1 <1>   0.1500 
 36 H        7.1040     0.3920    -2.1360 H     1 <1>   0.1500 
 37 H        9.9550    -1.3380     1.4790 H     1 <1>   0.1500 
 38 H        9.3040     1.3600    -1.7520 H     1 <1>   0.1500 
 39 H       11.8260    -0.0560     0.5060 H     1 <1>   0.0800 
 40 H       11.0770     1.4910     0.8310 H     1 <1>   0.0800 
 41 H       11.5510     1.0660    -0.7980 H     1 <1>   0.0800 
@<TRIPOS>BOND
  1   1   2  ar  
  2   1   3  ar  
  3   2   4  ar  
  4   2   5  1   
  5   3   6  ar  
  6   3  21  1   
  7   4   7  ar  
  8   5   8  1   
  9   5   9  1   
 10   6   7  ar  
 11   6  22  1   
 12   7  23  1   
 13   8  10  1   
 14   8  24  1   
 15   8  25  1   
 16   9  11  1   
 17   9  26  1   
 18   9  27  1   
 19  10  12  1   
 20  10  28  1   
 21  10  29  1   
 22  11  12  1   
 23  11  30  1   
 24  11  31  1   
 25  12  13  1   
 26  12  32  1   
 27  13  14  1   
 28  13  33  1   
 29  13  34  1   
 30  14  15  ar  
 31  14  16  ar  
 32  15  17  ar  
 33  15  35  1   
 34  16  18  ar  
 35  16  36  1   
 36  17  19  ar  
 37  17  37  1   
 38  18  19  ar  
 39  18  38  1   
 40  19  20  1   
 41  20  39  1   
 42  20  40  1   
 43  20  41  1   
@<TRIPOS>SUBSTRUCTURE
  1 ****  11 GROUP 4 **** **** 0

# MOE 2024.06 (io_trps.svl 2023.06)
