@<TRIPOS>MOLECULE
NONAME
45 46 1 0 0 
SMALL
USER_CHARGES


@<TRIPOS>ATOM
  1 S        0.2670     0.3930    -0.5980 S.3   1 <1>  -0.2860 
  2 C       -1.4580    -0.0810    -0.7500 C.2   1 <1>   0.2420 
  3 C        0.8330     0.4210    -2.3720 C.3   1 <1>   0.1310 
  4 N       -2.0210    -0.3540    -1.8710 N.2   1 <1>  -0.3380 
  5 N       -2.2740    -0.1820     0.2990 N.pl3 1 <1>   0.0480 
  6 C        2.3250     0.6930    -2.4790 C.2   1 <1>   0.5690 
  7 N       -3.2880    -0.6570    -1.5740 N.2   1 <1>  -0.3380 
  8 C       -3.4220    -0.5520    -0.2920 C.2   1 <1>   0.0060 
  9 C       -1.9520     0.0740     1.7180 C.3   1 <1>   0.0160 
 10 O        2.7410     1.1500    -3.5150 O.2   1 <1>  -0.5700 
 11 N        3.1210     0.4040    -1.4020 N.am  1 <1>  -0.5470 
 12 C       -4.7370    -0.8170     0.4290 C.3   1 <1>   0.0200 
 13 C        4.5050     0.5120    -1.1950 C.ar  1 <1>   0.1170 
 14 C       -4.9760    -2.3170     0.6920 C.3   1 <1>  -0.0800 
 15 C        4.9810     0.4450     0.1080 C.ar  1 <1>  -0.1500 
 16 C        5.4270     0.6700    -2.2270 C.ar  1 <1>  -0.1500 
 17 C       -6.3670    -2.5350     1.2990 C.3   1 <1>  -0.2400 
 18 C       -3.9110    -2.9330     1.6120 C.3   1 <1>  -0.2400 
 19 C        6.3350     0.5370     0.3660 C.ar  1 <1>   0.1010 
 20 C        6.7830     0.7640    -1.9660 C.ar  1 <1>  -0.1500 
 21 S        6.8430     0.4380     2.0920 S.3   1 <1>  -0.3320 
 22 C        7.2470     0.6980    -0.6640 C.ar  1 <1>  -0.1500 
 23 C        8.6820     0.6030     2.1150 C.3   1 <1>  -0.0100 
 24 H        0.2730     1.1890    -2.8720 H     1 <1>   0.0800 
 25 H        0.5970    -0.5360    -2.8000 H     1 <1>   0.0800 
 26 H       -1.0300    -0.4190     1.9680 H     1 <1>   0.0800 
 27 H       -2.7330    -0.3020     2.3510 H     1 <1>   0.0800 
 28 H       -1.8440     1.1320     1.8710 H     1 <1>   0.0800 
 29 H        2.5950     0.1080    -0.5790 H     1 <1>   0.3700 
 30 H       -5.5300    -0.4480    -0.1980 H     1 <1>   0.0800 
 31 H       -4.7800    -0.2650     1.3500 H     1 <1>   0.0800 
 32 H       -4.9390    -2.8290    -0.2570 H     1 <1>   0.0800 
 33 H        4.3020     0.3230     0.9310 H     1 <1>   0.1500 
 34 H        5.0910     0.7190    -3.2470 H     1 <1>   0.1500 
 35 H       -6.4510    -2.0420     2.2520 H     1 <1>   0.0800 
 36 H       -6.5510    -3.5860     1.4400 H     1 <1>   0.0800 
 37 H       -7.1270    -2.1490     0.6430 H     1 <1>   0.0800 
 38 H       -3.8990    -2.4400     2.5670 H     1 <1>   0.0800 
 39 H       -2.9370    -2.8610     1.1630 H     1 <1>   0.0800 
 40 H       -4.1220    -3.9760     1.7700 H     1 <1>   0.0800 
 41 H        7.4770     0.8880    -2.7800 H     1 <1>   0.1500 
 42 H        8.3000     0.7710    -0.4750 H     1 <1>   0.1500 
 43 H        9.0000     0.5490     3.1410 H     1 <1>   0.0800 
 44 H        8.9350     1.5560     1.6870 H     1 <1>   0.0800 
 45 H        9.0960    -0.2090     1.5440 H     1 <1>   0.0800 
@<TRIPOS>BOND
  1   1   2  1   
  2   1   3  1   
  3   2   4  2   
  4   2   5  1   
  5   3   6  1   
  6   3  24  1   
  7   3  25  1   
  8   4   7  1   
  9   5   8  1   
 10   5   9  1   
 11   6  10  2   
 12   6  11  am  
 13   7   8  2   
 14   8  12  1   
 15   9  26  1   
 16   9  27  1   
 17   9  28  1   
 18  11  13  1   
 19  11  29  1   
 20  12  14  1   
 21  12  30  1   
 22  12  31  1   
 23  13  15  ar  
 24  13  16  ar  
 25  14  17  1   
 26  14  18  1   
 27  14  32  1   
 28  15  19  ar  
 29  15  33  1   
 30  16  20  ar  
 31  16  34  1   
 32  17  35  1   
 33  17  36  1   
 34  17  37  1   
 35  18  38  1   
 36  18  39  1   
 37  18  40  1   
 38  19  21  1   
 39  19  22  ar  
 40  20  22  ar  
 41  20  41  1   
 42  21  23  1   
 43  22  42  1   
 44  23  43  1   
 45  23  44  1   
 46  23  45  1   
@<TRIPOS>SUBSTRUCTURE
  1 ****   1 GROUP 4 **** **** 0

# MOE 2024.06 (io_trps.svl 2023.06)
