@<TRIPOS>MOLECULE
NONAME
43 44 1 0 0 
SMALL
USER_CHARGES


@<TRIPOS>ATOM
  1 O       -0.8760     1.5170    -1.7350 O.3   1 <1>  -0.3630 
  2 C       -0.0210     2.1970    -0.9390 C.ar  1 <1>   0.0820 
  3 C       -2.0870     1.0900    -1.1510 C.3   1 <1>   0.1200 
  4 C        0.8430     1.5290    -0.0750 C.ar  1 <1>  -0.1440 
  5 C       -0.0100     3.5800    -1.0100 C.ar  1 <1>  -0.1500 
  6 C       -3.1460     2.1820    -1.3160 C.3   1 <1>  -0.1600 
  7 C        1.6880     2.2740     0.7340 C.ar  1 <1>  -0.1500 
  8 C        0.8890     0.0100    -0.0080 C.3   1 <1>  -0.0970 
  9 C        0.8400     4.3100    -0.2000 C.ar  1 <1>  -0.1500 
 10 C       -4.4900     1.7180    -0.7590 C.3   1 <1>   0.1200 
 11 C        1.6890     3.6590     0.6800 C.ar  1 <1>  -0.1430 
 12 O       -5.4250     2.7550    -0.9450 O.3   1 <1>  -0.3630 
 13 C        2.6220     4.4570     1.5730 C.3   1 <1>  -0.0970 
 14 C       -6.7100     2.6210    -0.5310 C.ar  1 <1>   0.0820 
 15 C       -7.2090     1.4830     0.0950 C.ar  1 <1>  -0.1500 
 16 C       -7.5530     3.6980    -0.7580 C.ar  1 <1>  -0.1500 
 17 C       -8.5360     1.4240     0.4880 C.ar  1 <1>   0.0820 
 18 C       -8.8800     3.6450    -0.3670 C.ar  1 <1>  -0.1500 
 19 O       -8.9400     0.2770     1.0910 O.3   1 <1>  -0.3620 
 20 C       -9.3740     2.5110     0.2550 C.ar  1 <1>  -0.1500 
 21 C      -10.2690     0.1100     1.5310 C.3   1 <1>   0.0400 
 22 H       -1.9170     0.8660    -0.1120 H     1 <1>   0.0800 
 23 H       -2.3880     0.1930    -1.6630 H     1 <1>   0.0800 
 24 H       -0.6670     4.0780    -1.6990 H     1 <1>   0.1500 
 25 H       -3.2570     2.4110    -2.3610 H     1 <1>   0.0800 
 26 H       -2.8360     3.0630    -0.7840 H     1 <1>   0.0800 
 27 H        2.3560     1.7720     1.4100 H     1 <1>   0.1500 
 28 H        0.1020    -0.3540     0.6260 H     1 <1>   0.0800 
 29 H        1.8320    -0.3240     0.3840 H     1 <1>   0.0800 
 30 H        0.7680    -0.4090    -0.9920 H     1 <1>   0.0800 
 31 H        0.8390     5.3840    -0.2600 H     1 <1>   0.1500 
 32 H       -4.4150     1.5160     0.2960 H     1 <1>   0.0800 
 33 H       -4.8430     0.8480    -1.2840 H     1 <1>   0.0800 
 34 H        2.7690     3.9500     2.5100 H     1 <1>   0.0800 
 35 H        2.2120     5.4290     1.7750 H     1 <1>   0.0800 
 36 H        3.5750     4.5750     1.0880 H     1 <1>   0.0800 
 37 H       -6.5930     0.6280     0.2890 H     1 <1>   0.1500 
 38 H       -7.1620     4.5740    -1.2410 H     1 <1>   0.1500 
 39 H       -9.5260     4.4860    -0.5480 H     1 <1>   0.1500 
 40 H      -10.4060     2.4950     0.5480 H     1 <1>   0.1500 
 41 H      -10.3540    -0.8670     1.9730 H     1 <1>   0.0800 
 42 H      -10.9290     0.1870     0.6860 H     1 <1>   0.0800 
 43 H      -10.4910     0.8640     2.2660 H     1 <1>   0.0800 
@<TRIPOS>BOND
  1   1   2  1   
  2   1   3  1   
  3   2   4  ar  
  4   2   5  ar  
  5   3   6  1   
  6   3  22  1   
  7   3  23  1   
  8   4   7  ar  
  9   4   8  1   
 10   5   9  ar  
 11   5  24  1   
 12   6  10  1   
 13   6  25  1   
 14   6  26  1   
 15   7  11  ar  
 16   7  27  1   
 17   8  28  1   
 18   8  29  1   
 19   8  30  1   
 20   9  11  ar  
 21   9  31  1   
 22  10  12  1   
 23  10  32  1   
 24  10  33  1   
 25  11  13  1   
 26  12  14  1   
 27  13  34  1   
 28  13  35  1   
 29  13  36  1   
 30  14  15  ar  
 31  14  16  ar  
 32  15  17  ar  
 33  15  37  1   
 34  16  18  ar  
 35  16  38  1   
 36  17  19  1   
 37  17  20  ar  
 38  18  20  ar  
 39  18  39  1   
 40  19  21  1   
 41  20  40  1   
 42  21  41  1   
 43  21  42  1   
 44  21  43  1   
@<TRIPOS>SUBSTRUCTURE
  1 ****  10 GROUP 4 **** **** 0

# MOE 2024.06 (io_trps.svl 2023.06)
