@<TRIPOS>MOLECULE
NONAME
49 51 1 0 0 
SMALL
USER_CHARGES


@<TRIPOS>ATOM
  1 O        1.1030     1.0400     3.2250 O.2   1 <1>  -0.5700 
  2 C        0.6860     0.1790     2.4860 C.2   1 <1>   0.5690 
  3 N        1.2520    -0.1520     1.2910 N.am  1 <1>  -0.5470 
  4 C       -0.5640    -0.6100     2.8890 C.3   1 <1>   0.1710 
  5 C        2.3300     0.3420     0.5390 C.ar  1 <1>   0.1170 
  6 N       -1.2100    -1.3350     1.7540 N.3   1 <1>  -0.8100 
  7 C        2.4390    -0.0440    -0.8020 C.ar  1 <1>   0.0830 
  8 C        3.2950     1.1840     1.0780 C.ar  1 <1>  -0.1500 
  9 C       -2.1320    -2.3880     2.2320 C.3   1 <1>   0.1100 
 10 C       -1.9460    -0.4050     0.8590 C.3   1 <1>   0.1100 
 11 O        1.4670    -0.8690    -1.2960 O.3   1 <1>  -0.3630 
 12 C        3.5040     0.4140    -1.5730 C.ar  1 <1>  -0.1500 
 13 C        4.3510     1.6370     0.3070 C.ar  1 <1>  -0.1500 
 14 C       -2.7750    -3.1630     1.0640 C.3   1 <1>   0.2090 
 15 C       -2.5830    -1.1410    -0.3340 C.3   1 <1>   0.2090 
 16 C        1.6150    -1.5080    -2.5430 C.3   1 <1>   0.1200 
 17 C        4.4560     1.2520    -1.0180 C.ar  1 <1>  -0.1500 
 18 N       -3.4800    -2.2430     0.1270 N.pl3 1 <1>  -0.8380 
 19 C        0.4140    -2.4260    -2.7520 C.3   1 <1>  -0.2400 
 20 C       -4.2870    -2.8470    -0.8160 C.ar  1 <1>   0.4100 
 21 N       -3.8010    -2.9840    -2.0450 N.ar  1 <1>  -0.6200 
 22 C       -5.5520    -3.2910    -0.4420 C.ar  1 <1>  -0.1500 
 23 C       -4.5980    -3.5800    -2.9170 C.ar  1 <1>   0.1600 
 24 C       -6.3700    -3.9100    -1.3580 C.ar  1 <1>  -0.1500 
 25 C       -5.8660    -4.0550    -2.6340 C.ar  1 <1>  -0.1500 
 26 H        0.6980    -0.8600     0.7920 H     1 <1>   0.3700 
 27 H       -1.2680     0.0630     3.3460 H     1 <1>   0.0800 
 28 H       -0.2550    -1.3210     3.6330 H     1 <1>   0.0800 
 29 H        3.2280     1.4880     2.1060 H     1 <1>   0.1500 
 30 H       -2.9130    -1.9490     2.8280 H     1 <1>   0.0800 
 31 H       -1.5890    -3.0850     2.8470 H     1 <1>   0.0800 
 32 H       -1.2760     0.3450     0.4760 H     1 <1>   0.0800 
 33 H       -2.7250     0.0950     1.4090 H     1 <1>   0.0800 
 34 H        3.6090     0.1370    -2.6040 H     1 <1>   0.1500 
 35 H        5.0890     2.2890     0.7400 H     1 <1>   0.1500 
 36 H       -3.4720    -3.8840     1.4530 H     1 <1>   0.0800 
 37 H       -2.0090    -3.6950     0.5260 H     1 <1>   0.0800 
 38 H       -1.8020    -1.5490    -0.9500 H     1 <1>   0.0800 
 39 H       -3.1500    -0.4460    -0.9280 H     1 <1>   0.0800 
 40 H        2.5300    -2.0750    -2.5270 H     1 <1>   0.0800 
 41 H        1.6530    -0.7570    -3.3120 H     1 <1>   0.0800 
 42 H        5.2780     1.6060    -1.6150 H     1 <1>   0.1500 
 43 H        0.3330    -3.1260    -1.9390 H     1 <1>   0.0800 
 44 H        0.5310    -2.9770    -3.6670 H     1 <1>   0.0800 
 45 H       -0.4890    -1.8480    -2.8190 H     1 <1>   0.0800 
 46 H       -5.8720    -3.1350     0.5700 H     1 <1>   0.1500 
 47 H       -4.2160    -3.6980    -3.9160 H     1 <1>   0.1500 
 48 H       -7.3520    -4.2620    -1.0950 H     1 <1>   0.1500 
 49 H       -6.4510    -4.5290    -3.4010 H     1 <1>   0.1500 
@<TRIPOS>BOND
  1   1   2  2   
  2   2   3  am  
  3   2   4  1   
  4   3   5  1   
  5   3  26  1   
  6   4   6  1   
  7   4  27  1   
  8   4  28  1   
  9   5   7  ar  
 10   5   8  ar  
 11   6   9  1   
 12   6  10  1   
 13   7  11  1   
 14   7  12  ar  
 15   8  13  ar  
 16   8  29  1   
 17   9  14  1   
 18   9  30  1   
 19   9  31  1   
 20  10  15  1   
 21  10  32  1   
 22  10  33  1   
 23  11  16  1   
 24  12  17  ar  
 25  12  34  1   
 26  13  17  ar  
 27  13  35  1   
 28  14  18  1   
 29  14  36  1   
 30  14  37  1   
 31  15  18  1   
 32  15  38  1   
 33  15  39  1   
 34  16  19  1   
 35  16  40  1   
 36  16  41  1   
 37  17  42  1   
 38  18  20  1   
 39  19  43  1   
 40  19  44  1   
 41  19  45  1   
 42  20  21  ar  
 43  20  22  ar  
 44  21  23  ar  
 45  22  24  ar  
 46  22  46  1   
 47  23  25  ar  
 48  23  47  1   
 49  24  25  ar  
 50  24  48  1   
 51  25  49  1   
@<TRIPOS>SUBSTRUCTURE
  1 ****  10 GROUP 4 **** **** 0

# MOE 2024.06 (io_trps.svl 2023.06)
