@<TRIPOS>MOLECULE
NONAME
46 47 1 0 0 
SMALL
USER_CHARGES


@<TRIPOS>ATOM
  1 S        1.1860     1.6720     0.8570 S.o2  1 <1>   1.3330 
  2 O        1.9680     2.5030     1.7380 O.2   1 <1>  -0.6500 
  3 O        1.7590     1.1220    -0.3450 O.2   1 <1>  -0.6500 
  4 N       -0.2010     2.6030     0.4130 N.am  1 <1>  -0.6930 
  5 C        0.4710     0.3640     1.8310 C.3   1 <1>  -0.1350 
  6 C       -1.3000     2.0040    -0.1920 C.ar  1 <1>   0.1990 
  7 C        0.0680     4.0330     0.0640 C.3   1 <1>   0.2570 
  8 C       -2.5280     2.0130     0.4650 C.ar  1 <1>  -0.1500 
  9 C       -1.2000     1.3900    -1.4390 C.ar  1 <1>  -0.1500 
 10 C        0.7500     4.2460    -1.2980 C.2   1 <1>   0.5690 
 11 C       -3.6380     1.4110    -0.1020 C.ar  1 <1>  -0.1500 
 12 C       -2.3000     0.7850    -2.0200 C.ar  1 <1>  -0.1500 
 13 O        0.0700     4.1980    -2.2940 O.2   1 <1>  -0.5700 
 14 N        2.0710     4.5260    -1.4360 N.am  1 <1>  -0.7300 
 15 C       -3.5020     0.8050    -1.3370 C.ar  1 <1>   0.1900 
 16 C        3.1340     4.6820    -0.4290 C.3   1 <1>   0.2200 
 17 F       -4.5460     0.2320    -1.8770 F     1 <1>  -0.1900 
 18 C        3.5790     6.1480    -0.4470 C.3   1 <1>  -0.1600 
 19 C        4.2460     3.6760    -0.7530 C.3   1 <1>  -0.1600 
 20 C        4.7280     6.4820     0.5190 C.3   1 <1>  -0.1600 
 21 C        5.2190     3.4890     0.4210 C.3   1 <1>  -0.1600 
 22 C        6.0790     5.9340     0.0370 C.3   1 <1>  -0.1600 
 23 C        6.3840     4.4900     0.4670 C.3   1 <1>  -0.1600 
 24 H        1.2440    -0.2760     2.2070 H     1 <1>   0.0800 
 25 H       -0.1990    -0.2220     1.2320 H     1 <1>   0.0800 
 26 H       -0.0710     0.7750     2.6590 H     1 <1>   0.0800 
 27 H        0.6500     4.4890     0.8410 H     1 <1>   0.0800 
 28 H       -0.8720     4.5550     0.0310 H     1 <1>   0.0800 
 29 H       -2.6060     2.4930     1.4230 H     1 <1>   0.1500 
 30 H       -0.2570     1.3980    -1.9590 H     1 <1>   0.1500 
 31 H       -4.5920     1.4100     0.3950 H     1 <1>   0.1500 
 32 H       -2.2310     0.3110    -2.9820 H     1 <1>   0.1500 
 33 H        2.3920     4.6030    -2.4020 H     1 <1>   0.3700 
 34 H        2.7440     4.4620     0.5470 H     1 <1>   0.0800 
 35 H        2.7320     6.7520    -0.1730 H     1 <1>   0.0800 
 36 H        3.8660     6.4250    -1.4460 H     1 <1>   0.0800 
 37 H        4.7770     3.9590    -1.6440 H     1 <1>   0.0800 
 38 H        3.7840     2.7210    -0.9360 H     1 <1>   0.0800 
 39 H        4.5080     6.1310     1.5130 H     1 <1>   0.0800 
 40 H        4.8080     7.5540     0.5700 H     1 <1>   0.0800 
 41 H        5.6370     2.4990     0.3650 H     1 <1>   0.0800 
 42 H        4.6700     3.5340     1.3470 H     1 <1>   0.0800 
 43 H        6.8620     6.5610     0.4280 H     1 <1>   0.0800 
 44 H        6.1350     6.0070    -1.0350 H     1 <1>   0.0800 
 45 H        7.1770     4.1220    -0.1620 H     1 <1>   0.0800 
 46 H        6.7680     4.5020     1.4730 H     1 <1>   0.0800 
@<TRIPOS>BOND
  1   1   2  2   
  2   1   3  2   
  3   1   4  am  
  4   1   5  1   
  5   4   6  1   
  6   4   7  1   
  7   5  24  1   
  8   5  25  1   
  9   5  26  1   
 10   6   8  ar  
 11   6   9  ar  
 12   7  10  1   
 13   7  27  1   
 14   7  28  1   
 15   8  11  ar  
 16   8  29  1   
 17   9  12  ar  
 18   9  30  1   
 19  10  13  2   
 20  10  14  am  
 21  11  15  ar  
 22  11  31  1   
 23  12  15  ar  
 24  12  32  1   
 25  14  16  1   
 26  14  33  1   
 27  15  17  1   
 28  16  18  1   
 29  16  19  1   
 30  16  34  1   
 31  18  20  1   
 32  18  35  1   
 33  18  36  1   
 34  19  21  1   
 35  19  37  1   
 36  19  38  1   
 37  20  22  1   
 38  20  39  1   
 39  20  40  1   
 40  21  23  1   
 41  21  41  1   
 42  21  42  1   
 43  22  23  1   
 44  22  43  1   
 45  22  44  1   
 46  23  45  1   
 47  23  46  1   
@<TRIPOS>SUBSTRUCTURE
  1 ****   7 GROUP 4 **** **** 0

# MOE 2024.06 (io_trps.svl 2023.06)
