@<TRIPOS>MOLECULE
NONAME
42 43 1 0 0 
SMALL
USER_CHARGES


@<TRIPOS>ATOM
  1 O       -0.6300    -4.2180    -1.0440 O.2   1 <1>  -0.5700 
  2 C       -0.7490    -5.1380    -0.2710 C.2   1 <1>   0.5690 
  3 N       -1.9400    -5.4980     0.3080 N.am  1 <1>  -0.5470 
  4 C        0.5330    -5.9200     0.0630 C.3   1 <1>   0.4040 
  5 C       -3.1970    -4.8780     0.2170 C.ar  1 <1>   0.1170 
  6 N        1.7920    -5.1160    -0.1780 N.4   1 <1>  -0.9590 
  7 C       -3.3550    -3.5170    -0.0180 C.ar  1 <1>  -0.1500 
  8 C       -4.3370    -5.6550     0.3940 C.ar  1 <1>  -0.1500 
  9 C        2.9870    -5.9900    -0.3260 C.3   1 <1>   0.3430 
 10 C        1.9270    -4.0140     0.8200 C.3   1 <1>   0.3430 
 11 C       -4.6110    -2.9400    -0.0770 C.ar  1 <1>   0.0830 
 12 C       -5.5980    -5.0890     0.3350 C.ar  1 <1>  -0.1500 
 13 C        4.2050    -5.2250    -0.8480 C.3   1 <1>  -0.1600 
 14 C        2.6470    -2.8270     0.1830 C.3   1 <1>  -0.1600 
 15 O       -4.6580    -1.6040    -0.3080 O.3   1 <1>  -0.3630 
 16 C       -5.7410    -3.7330     0.1000 C.ar  1 <1>  -0.1500 
 17 C        4.8190    -4.2800     0.1950 C.3   1 <1>  -0.1600 
 18 C        4.1830    -2.8840     0.2360 C.3   1 <1>  -0.1600 
 19 C       -5.8870    -0.9240    -0.4390 C.3   1 <1>   0.0400 
 20 H       -1.9650    -6.3610     0.8510 H     1 <1>   0.3700 
 21 H        0.5470    -6.7960    -0.5620 H     1 <1>   0.0800 
 22 H        0.4970    -6.2380     1.0900 H     1 <1>   0.0800 
 23 H        1.6220    -4.6360    -1.0790 H     1 <1>   0.4500 
 24 H       -2.5030    -2.8800    -0.1560 H     1 <1>   0.1500 
 25 H       -4.2490    -6.7100     0.5760 H     1 <1>   0.1500 
 26 H        2.7620    -6.7790    -1.0250 H     1 <1>   0.0800 
 27 H        3.2300    -6.4450     0.6210 H     1 <1>   0.0800 
 28 H        2.4500    -4.3490     1.7020 H     1 <1>   0.0800 
 29 H        0.9450    -3.6800     1.1150 H     1 <1>   0.0800 
 30 H       -6.4720    -5.7030     0.4720 H     1 <1>   0.1500 
 31 H        3.9730    -4.7020    -1.7590 H     1 <1>   0.0800 
 32 H        4.9520    -5.9610    -1.0940 H     1 <1>   0.0800 
 33 H        2.3390    -1.9360     0.7040 H     1 <1>   0.0800 
 34 H        2.3160    -2.7090    -0.8340 H     1 <1>   0.0800 
 35 H       -6.7290    -3.3160     0.0590 H     1 <1>   0.1500 
 36 H        5.8650    -4.1510    -0.0340 H     1 <1>   0.0800 
 37 H        4.7740    -4.7330     1.1710 H     1 <1>   0.0800 
 38 H        4.5180    -2.3990     1.1380 H     1 <1>   0.0800 
 39 H        4.5680    -2.3000    -0.5840 H     1 <1>   0.0800 
 40 H       -5.6760     0.1110    -0.6370 H     1 <1>   0.0800 
 41 H       -6.4360    -1.0150     0.4810 H     1 <1>   0.0800 
 42 H       -6.4350    -1.3490    -1.2610 H     1 <1>   0.0800 
@<TRIPOS>BOND
  1   1   2  2   
  2   2   3  am  
  3   2   4  1   
  4   3   5  1   
  5   3  20  1   
  6   4   6  1   
  7   4  21  1   
  8   4  22  1   
  9   5   7  ar  
 10   5   8  ar  
 11   6   9  1   
 12   6  10  1   
 13   6  23  1   
 14   7  11  ar  
 15   7  24  1   
 16   8  12  ar  
 17   8  25  1   
 18   9  13  1   
 19   9  26  1   
 20   9  27  1   
 21  10  14  1   
 22  10  28  1   
 23  10  29  1   
 24  11  15  1   
 25  11  16  ar  
 26  12  16  ar  
 27  12  30  1   
 28  13  17  1   
 29  13  31  1   
 30  13  32  1   
 31  14  18  1   
 32  14  33  1   
 33  14  34  1   
 34  15  19  1   
 35  16  35  1   
 36  17  18  1   
 37  17  36  1   
 38  17  37  1   
 39  18  38  1   
 40  18  39  1   
 41  19  40  1   
 42  19  41  1   
 43  19  42  1   
@<TRIPOS>SUBSTRUCTURE
  1 ****   2 GROUP 4 **** **** 0

# MOE 2024.06 (io_trps.svl 2023.06)
