@<TRIPOS>MOLECULE
NONAME
32 32 1 0 0 
SMALL
USER_CHARGES


@<TRIPOS>ATOM
  1 O        0.4490     2.1350    -2.3560 O.2   1 <1>  -0.5700 
  2 C        0.0280     2.3100    -1.2340 C.2   1 <1>   0.5690 
  3 N        0.7390     1.8980    -0.1250 N.am  1 <1>  -0.6600 
  4 C       -1.3060     3.0430    -1.1050 C.3   1 <1>   0.1810 
  5 C        2.0100     1.1320    -0.2560 C.3   1 <1>   0.0600 
  6 C        0.2850     2.0890     1.2810 C.3   1 <1>   0.0600 
  7 O       -2.2570     2.2790    -0.3780 O.3   1 <1>  -0.3630 
  8 C       -3.4540     2.8030    -0.0050 C.ar  1 <1>   0.0820 
  9 C       -4.2420     2.0500     0.8610 C.ar  1 <1>  -0.1430 
 10 C       -3.9070     4.0430    -0.4490 C.ar  1 <1>  -0.1500 
 11 C       -5.4650     2.5500     1.2780 C.ar  1 <1>  -0.1500 
 12 C       -3.7740     0.6870     1.3500 C.3   1 <1>  -0.0970 
 13 C       -5.1290     4.5380    -0.0270 C.ar  1 <1>  -0.1430 
 14 C       -5.9050     3.7860     0.8380 C.ar  1 <1>  -0.1500 
 15 C       -5.6240     5.8900    -0.5100 C.3   1 <1>  -0.0970 
 16 H       -1.7080     3.2270    -2.0840 H     1 <1>   0.0800 
 17 H       -1.1490     3.9730    -0.5930 H     1 <1>   0.0800 
 18 H        2.2590     0.9700    -1.2910 H     1 <1>   0.0800 
 19 H        1.9080     0.1750     0.2230 H     1 <1>   0.0800 
 20 H        2.8130     1.6780     0.2070 H     1 <1>   0.0800 
 21 H       -0.4180     2.8980     1.3580 H     1 <1>   0.0800 
 22 H        1.1280     2.3130     1.9110 H     1 <1>   0.0800 
 23 H       -0.1860     1.1860     1.6300 H     1 <1>   0.0800 
 24 H       -3.3240     4.6350    -1.1270 H     1 <1>   0.1500 
 25 H       -6.0840     1.9800     1.9470 H     1 <1>   0.1500 
 26 H       -3.5740     0.0490     0.5090 H     1 <1>   0.0800 
 27 H       -4.5200     0.2180     1.9660 H     1 <1>   0.0800 
 28 H       -2.8720     0.7970     1.9230 H     1 <1>   0.0800 
 29 H       -6.8580     4.1570     1.1710 H     1 <1>   0.1500 
 30 H       -4.7990     6.5150    -0.8000 H     1 <1>   0.0800 
 31 H       -6.1680     6.3890     0.2720 H     1 <1>   0.0800 
 32 H       -6.2740     5.7570    -1.3560 H     1 <1>   0.0800 
@<TRIPOS>BOND
  1   1   2  2   
  2   2   3  am  
  3   2   4  1   
  4   3   5  1   
  5   3   6  1   
  6   4   7  1   
  7   4  16  1   
  8   4  17  1   
  9   5  18  1   
 10   5  19  1   
 11   5  20  1   
 12   6  21  1   
 13   6  22  1   
 14   6  23  1   
 15   7   8  1   
 16   8   9  ar  
 17   8  10  ar  
 18   9  11  ar  
 19   9  12  1   
 20  10  13  ar  
 21  10  24  1   
 22  11  14  ar  
 23  11  25  1   
 24  12  26  1   
 25  12  27  1   
 26  12  28  1   
 27  13  14  ar  
 28  13  15  1   
 29  14  29  1   
 30  15  30  1   
 31  15  31  1   
 32  15  32  1   
@<TRIPOS>SUBSTRUCTURE
  1 ****   7 GROUP 4 **** **** 0

# MOE 2024.06 (io_trps.svl 2023.06)
