@<TRIPOS>MOLECULE
NONAME
41 42 1 0 0 
SMALL
USER_CHARGES


@<TRIPOS>ATOM
  1 O        0.0380     1.7240    -2.4510 O.co2 1 <1>  -0.9000 
  2 C        1.1970     2.1330    -2.3180 C.2   1 <1>   0.9060 
  3 O        2.1320     1.6520    -2.9700 O.co2 1 <1>  -0.9000 
  4 C        1.5180     3.2620    -1.3540 C.3   1 <1>  -0.1860 
  5 C        2.4880     2.7390    -0.2810 C.3   1 <1>   0.2000 
  6 C        0.2720     3.9730    -0.7600 C.3   1 <1>  -0.0990 
  7 O        1.8180     2.2860     0.8520 O.3   1 <1>  -0.5600 
  8 C        3.4390     3.8000     0.2650 C.3   1 <1>  -0.1600 
  9 C       -0.5250     4.7770    -1.7800 C.2   1 <1>   0.5690 
 10 C        2.7070     2.2110     1.9120 C.3   1 <1>   0.1200 
 11 C        3.7000     3.3490     1.6950 C.3   1 <1>  -0.1600 
 12 O        0.0570     5.5460    -2.5080 O.2   1 <1>  -0.5700 
 13 N       -1.8850     4.7510    -1.8260 N.am  1 <1>  -0.5470 
 14 C       -2.8280     4.0850    -1.0370 C.ar  1 <1>   0.1170 
 15 C       -3.7630     4.8160    -0.3150 C.ar  1 <1>  -0.1500 
 16 C       -2.8690     2.7000    -0.9730 C.ar  1 <1>  -0.1500 
 17 C       -4.7150     4.1800     0.4640 C.ar  1 <1>  -0.1440 
 18 C       -3.8100     2.0510    -0.1950 C.ar  1 <1>  -0.1440 
 19 C       -4.7330     2.7950     0.5210 C.ar  1 <1>  -0.1500 
 20 C       -5.7350     4.9800     1.2550 C.3   1 <1>  -0.0970 
 21 C       -3.8220     0.5350    -0.1320 C.3   1 <1>  -0.0970 
 22 H        2.0600     3.9720    -1.9500 H     1 <1>   0.0800 
 23 H        3.0640     1.9130    -0.6680 H     1 <1>   0.0800 
 24 H        0.5840     4.6560     0.0060 H     1 <1>   0.0800 
 25 H       -0.3520     3.2360    -0.2940 H     1 <1>   0.0800 
 26 H        2.9640     4.7650     0.2580 H     1 <1>   0.0800 
 27 H        4.3360     3.8460    -0.3260 H     1 <1>   0.0800 
 28 H        3.1940     1.2520     1.8650 H     1 <1>   0.0800 
 29 H        2.1590     2.3070     2.8320 H     1 <1>   0.0800 
 30 H        3.5140     4.1480     2.3900 H     1 <1>   0.0800 
 31 H        4.7070     2.9920     1.8230 H     1 <1>   0.0800 
 32 H       -2.2520     5.3370    -2.5710 H     1 <1>   0.3700 
 33 H       -3.7320     5.8880    -0.3680 H     1 <1>   0.1500 
 34 H       -2.1530     2.1330    -1.5440 H     1 <1>   0.1500 
 35 H       -5.4670     2.2930     1.1250 H     1 <1>   0.1500 
 36 H       -5.5030     6.0300     1.2290 H     1 <1>   0.0800 
 37 H       -5.7400     4.6560     2.2800 H     1 <1>   0.0800 
 38 H       -6.7150     4.8320     0.8380 H     1 <1>   0.0800 
 39 H       -2.8850     0.1380    -0.4850 H     1 <1>   0.0800 
 40 H       -4.6130     0.1500    -0.7490 H     1 <1>   0.0800 
 41 H       -3.9690     0.2060     0.8800 H     1 <1>   0.0800 
@<TRIPOS>BOND
  1   1   2  ar  
  2   2   3  ar  
  3   2   4  1   
  4   4   5  1   
  5   4   6  1   
  6   4  22  1   
  7   5   7  1   
  8   5   8  1   
  9   5  23  1   
 10   6   9  1   
 11   6  24  1   
 12   6  25  1   
 13   7  10  1   
 14   8  11  1   
 15   8  26  1   
 16   8  27  1   
 17   9  12  2   
 18   9  13  am  
 19  10  11  1   
 20  10  28  1   
 21  10  29  1   
 22  11  30  1   
 23  11  31  1   
 24  13  14  1   
 25  13  32  1   
 26  14  15  ar  
 27  14  16  ar  
 28  15  17  ar  
 29  15  33  1   
 30  16  18  ar  
 31  16  34  1   
 32  17  19  ar  
 33  17  20  1   
 34  18  19  ar  
 35  18  21  1   
 36  19  35  1   
 37  20  36  1   
 38  20  37  1   
 39  20  38  1   
 40  21  39  1   
 41  21  40  1   
 42  21  41  1   
@<TRIPOS>SUBSTRUCTURE
  1 ****   6 GROUP 4 **** **** 0

# MOE 2024.06 (io_trps.svl 2023.06)
