@<TRIPOS>MOLECULE
NONAME
51 52 1 0 0 
SMALL
USER_CHARGES


@<TRIPOS>ATOM
  1 O       -1.0570    -0.5900     0.4470 O.2   1 <1>  -0.5700 
  2 C       -0.8500    -1.7100     0.0530 C.2   1 <1>   0.6590 
  3 O        0.3770    -2.1510    -0.1940 O.3   1 <1>  -0.4300 
  4 C       -1.9710    -2.7170    -0.1980 C.3   1 <1>  -0.0190 
  5 C        1.5050    -1.3320     0.0030 C.3   1 <1>   0.1200 
  6 C       -3.3670    -2.0610    -0.2380 C.3   1 <1>  -0.1600 
  7 C       -1.9490    -3.8440     0.8530 C.3   1 <1>  -0.1600 
  8 C        2.7460    -2.1420    -0.3570 C.3   1 <1>  -0.2400 
  9 C       -4.4760    -3.0930    -0.4560 C.3   1 <1>   0.1400 
 10 C       -3.0730    -4.8570     0.6230 C.3   1 <1>   0.1400 
 11 N       -4.3820    -4.1490     0.5900 N.am  1 <1>  -0.6600 
 12 C       -5.4070    -4.5070     1.4400 C.2   1 <1>   0.5690 
 13 O       -5.2750    -5.3990     2.2470 O.2   1 <1>  -0.5700 
 14 C       -6.7470    -3.7740     1.4360 C.3   1 <1>   0.1810 
 15 O       -7.4150    -3.9200     0.1920 O.3   1 <1>  -0.3630 
 16 C       -8.6490    -3.3780     0.0980 C.ar  1 <1>   0.0820 
 17 C       -9.7550    -4.1980    -0.1210 C.ar  1 <1>  -0.1430 
 18 C       -8.7970    -2.0030     0.2120 C.ar  1 <1>  -0.1500 
 19 C      -11.0180    -3.6170    -0.1940 C.ar  1 <1>  -0.1430 
 20 C       -9.5810    -5.7090    -0.2650 C.3   1 <1>  -0.0970 
 21 C      -10.0510    -1.4290     0.1340 C.ar  1 <1>  -0.1430 
 22 C      -11.1530    -2.2420    -0.0680 C.ar  1 <1>  -0.1500 
 23 C      -12.2720    -4.4530    -0.4120 C.3   1 <1>  -0.0970 
 24 C      -10.2300     0.0730     0.2590 C.3   1 <1>  -0.0970 
 25 H       -1.7840    -3.1550    -1.1630 H     1 <1>   0.0800 
 26 H        1.5290    -1.0250     1.0350 H     1 <1>   0.0800 
 27 H        1.4120    -0.4640    -0.6290 H     1 <1>   0.0800 
 28 H       -3.4010    -1.3320    -1.0290 H     1 <1>   0.0800 
 29 H       -3.5530    -1.5430     0.6880 H     1 <1>   0.0800 
 30 H       -2.0570    -3.4250     1.8390 H     1 <1>   0.0800 
 31 H       -1.0040    -4.3560     0.8170 H     1 <1>   0.0800 
 32 H        2.8190    -3.0090     0.2740 H     1 <1>   0.0800 
 33 H        3.6250    -1.5400    -0.2140 H     1 <1>   0.0800 
 34 H        2.7040    -2.4480    -1.3870 H     1 <1>   0.0800 
 35 H       -4.3670    -3.5510    -1.4240 H     1 <1>   0.0800 
 36 H       -5.4280    -2.5960    -0.4330 H     1 <1>   0.0800 
 37 H       -3.0560    -5.5960     1.4060 H     1 <1>   0.0800 
 38 H       -2.9270    -5.3660    -0.3150 H     1 <1>   0.0800 
 39 H       -6.5850    -2.7310     1.6280 H     1 <1>   0.0800 
 40 H       -7.3810    -4.1830     2.2010 H     1 <1>   0.0800 
 41 H       -7.9310    -1.3850     0.3550 H     1 <1>   0.1500 
 42 H       -8.5590    -5.9780    -0.4570 H     1 <1>   0.0800 
 43 H      -10.1670    -6.0780    -1.0860 H     1 <1>   0.0800 
 44 H       -9.8960    -6.1980     0.6390 H     1 <1>   0.0800 
 45 H      -12.1290    -1.7940    -0.1290 H     1 <1>   0.1500 
 46 H      -12.3120    -5.2560     0.3020 H     1 <1>   0.0800 
 47 H      -12.2700    -4.8640    -1.4050 H     1 <1>   0.0800 
 48 H      -13.1590    -3.8570    -0.2930 H     1 <1>   0.0800 
 49 H       -9.3440     0.5320     0.6600 H     1 <1>   0.0800 
 50 H      -11.0530     0.2940     0.9140 H     1 <1>   0.0800 
 51 H      -10.4310     0.4960    -0.7090 H     1 <1>   0.0800 
@<TRIPOS>BOND
  1   1   2  2   
  2   2   3  1   
  3   2   4  1   
  4   3   5  1   
  5   4   6  1   
  6   4   7  1   
  7   4  25  1   
  8   5   8  1   
  9   5  26  1   
 10   5  27  1   
 11   6   9  1   
 12   6  28  1   
 13   6  29  1   
 14   7  10  1   
 15   7  30  1   
 16   7  31  1   
 17   8  32  1   
 18   8  33  1   
 19   8  34  1   
 20   9  11  1   
 21   9  35  1   
 22   9  36  1   
 23  10  11  1   
 24  10  37  1   
 25  10  38  1   
 26  11  12  am  
 27  12  13  2   
 28  12  14  1   
 29  14  15  1   
 30  14  39  1   
 31  14  40  1   
 32  15  16  1   
 33  16  17  ar  
 34  16  18  ar  
 35  17  19  ar  
 36  17  20  1   
 37  18  21  ar  
 38  18  41  1   
 39  19  22  ar  
 40  19  23  1   
 41  20  42  1   
 42  20  43  1   
 43  20  44  1   
 44  21  22  ar  
 45  21  24  1   
 46  22  45  1   
 47  23  46  1   
 48  23  47  1   
 49  23  48  1   
 50  24  49  1   
 51  24  50  1   
 52  24  51  1   
@<TRIPOS>SUBSTRUCTURE
  1 ****   9 GROUP 4 **** **** 0

# MOE 2024.06 (io_trps.svl 2023.06)
