@<TRIPOS>MOLECULE
NONAME
37 40 1 0 0 
SMALL
USER_CHARGES


@<TRIPOS>ATOM
  1 O       -0.8850     0.1300     0.4040 O.2   1 <1>  -0.5700 
  2 C       -1.7990    -0.6550     0.2430 C.2   1 <1>   0.7060 
  3 O       -3.0310    -0.1530     0.1450 O.3   1 <1>  -0.2330 
  4 C       -1.6300    -2.0800     0.1570 C.2   1 <1>  -0.1240 
  5 C       -4.1240    -0.9210    -0.0460 C.ar  1 <1>   0.0820 
  6 C       -2.7000    -2.8990    -0.0070 C.2   1 <1>  -0.1670 
  7 C       -0.1980    -2.6050     0.2690 C.3   1 <1>  -0.0220 
  8 C       -4.0100    -2.3160    -0.1400 C.ar  1 <1>   0.0280 
  9 C       -5.3510    -0.2880    -0.1520 C.ar  1 <1>  -0.1500 
 10 C       -2.5580    -4.4220    -0.0590 C.3   1 <1>  -0.0220 
 11 C       -0.0670    -4.0600    -0.1950 C.3   1 <1>  -0.1600 
 12 C       -5.1870    -3.0380    -0.3670 C.ar  1 <1>  -0.1500 
 13 C       -6.5020    -1.0230    -0.3580 C.ar  1 <1>   0.0830 
 14 C       -1.1830    -4.9130     0.4100 C.3   1 <1>  -0.1600 
 15 C       -6.4110    -2.4070    -0.4750 C.ar  1 <1>  -0.1500 
 16 O       -7.6700    -0.3390    -0.4560 O.3   1 <1>  -0.2320 
 17 C       -8.9000    -0.7450    -0.1430 C.2   1 <1>   0.7200 
 18 O       -9.1510    -1.8160     0.3470 O.2   1 <1>  -0.5700 
 19 C      -10.0000     0.2630    -0.4480 C.3   1 <1>  -0.1000 
 20 C      -10.1580     1.5070     0.3800 C.3   1 <1>  -0.2000 
 21 C      -11.1930     0.4260     0.4510 C.3   1 <1>  -0.2000 
 22 H        0.1150    -2.5240     1.2950 H     1 <1>   0.0800 
 23 H        0.4630    -1.9960    -0.3230 H     1 <1>   0.0800 
 24 H       -5.4030     0.7830    -0.0720 H     1 <1>   0.1500 
 25 H       -2.7250    -4.7460    -1.0720 H     1 <1>   0.0800 
 26 H       -3.3020    -4.8820     0.5670 H     1 <1>   0.0800 
 27 H        0.8940    -4.4470     0.0980 H     1 <1>   0.0800 
 28 H       -0.1290    -4.1000    -1.2690 H     1 <1>   0.0800 
 29 H       -5.1570    -4.1060    -0.4650 H     1 <1>   0.1500 
 30 H       -1.0540    -5.9430     0.1290 H     1 <1>   0.0800 
 31 H       -1.1320    -4.8520     1.4840 H     1 <1>   0.0800 
 32 H       -7.2900    -3.0000    -0.6560 H     1 <1>   0.1500 
 33 H      -10.1710     0.3460    -1.5050 H     1 <1>   0.1000 
 34 H      -10.4070     2.4300    -0.1150 H     1 <1>   0.1000 
 35 H       -9.5160     1.6560     1.2310 H     1 <1>   0.1000 
 36 H      -11.2530    -0.1810     1.3390 H     1 <1>   0.1000 
 37 H      -12.1570     0.5950     0.0030 H     1 <1>   0.1000 
@<TRIPOS>BOND
  1   1   2  2   
  2   2   3  1   
  3   2   4  1   
  4   3   5  1   
  5   4   6  2   
  6   4   7  1   
  7   5   8  ar  
  8   5   9  ar  
  9   6   8  1   
 10   6  10  1   
 11   7  11  1   
 12   7  22  1   
 13   7  23  1   
 14   8  12  ar  
 15   9  13  ar  
 16   9  24  1   
 17  10  14  1   
 18  10  25  1   
 19  10  26  1   
 20  11  14  1   
 21  11  27  1   
 22  11  28  1   
 23  12  15  ar  
 24  12  29  1   
 25  13  15  ar  
 26  13  16  1   
 27  14  30  1   
 28  14  31  1   
 29  15  32  1   
 30  16  17  1   
 31  17  18  2   
 32  17  19  1   
 33  19  20  1   
 34  19  21  1   
 35  19  33  1   
 36  20  21  1   
 37  20  34  1   
 38  20  35  1   
 39  21  36  1   
 40  21  37  1   
@<TRIPOS>SUBSTRUCTURE
  1 ****   5 GROUP 4 **** **** 0

# MOE 2024.06 (io_trps.svl 2023.06)
