@<TRIPOS>MOLECULE
NONAME
34 36 1 0 0 
SMALL
USER_CHARGES


@<TRIPOS>ATOM
  1 S        2.9730    -5.7270     0.3780 S.3   1 <1>  -0.0800 
  2 C        4.5200    -4.8880     0.2670 C.ar  1 <1>   0.2970 
  3 C        2.0790    -4.2490     0.0110 C.2   1 <1>  -0.1400 
  4 N        5.6770    -5.4910     0.4280 N.ar  1 <1>  -0.5670 
  5 C        4.3250    -3.5590    -0.0110 C.ar  1 <1>   0.0000 
  6 C        2.9320    -3.2230    -0.1670 C.2   1 <1>  -0.1500 
  7 C        0.5670    -4.3800    -0.0480 C.3   1 <1>   0.0200 
  8 C        6.6970    -4.6680     0.2870 C.ar  1 <1>   0.4770 
  9 C        5.4920    -2.7960    -0.1030 C.ar  1 <1>   0.4100 
 10 C       -0.1150    -3.0480    -0.3730 C.3   1 <1>  -0.2400 
 11 N        6.6780    -3.3690     0.0300 N.ar  1 <1>  -0.6200 
 12 C        8.0710    -5.2750     0.4390 C.3   1 <1>  -0.0960 
 13 N        5.4610    -1.4320    -0.3220 N.pl3 1 <1>  -0.8380 
 14 C        4.6700    -0.5460     0.5640 C.3   1 <1>   0.2090 
 15 C        6.6390    -0.7000    -0.8550 C.3   1 <1>   0.2090 
 16 C        5.5340     0.6910     0.7650 C.3   1 <1>  -0.1600 
 17 C        6.3930     0.7580    -0.4930 C.3   1 <1>  -0.1600 
 18 H        2.6520    -2.2180    -0.4180 H     1 <1>   0.1500 
 19 H        0.2100    -4.7420     0.9000 H     1 <1>   0.0800 
 20 H        0.3090    -5.1050    -0.8000 H     1 <1>   0.0800 
 21 H        0.1180    -2.3170     0.3820 H     1 <1>   0.0800 
 22 H       -1.1820    -3.1800    -0.4070 H     1 <1>   0.0800 
 23 H        0.2170    -2.6830    -1.3290 H     1 <1>   0.0800 
 24 H        8.0010    -6.3230     0.6650 H     1 <1>   0.0800 
 25 H        8.5940    -4.7790     1.2350 H     1 <1>   0.0800 
 26 H        8.6190    -5.1490    -0.4760 H     1 <1>   0.0800 
 27 H        4.4460    -1.0280     1.5010 H     1 <1>   0.0800 
 28 H        3.7550    -0.2760     0.0640 H     1 <1>   0.0800 
 29 H        6.7230    -0.8400    -1.9180 H     1 <1>   0.0800 
 30 H        7.5380    -1.0470    -0.3730 H     1 <1>   0.0800 
 31 H        6.1600     0.5410     1.6270 H     1 <1>   0.0800 
 32 H        4.9410     1.5760     0.9080 H     1 <1>   0.0800 
 33 H        5.8430     1.2270    -1.2900 H     1 <1>   0.0800 
 34 H        7.3140     1.2900    -0.3360 H     1 <1>   0.0800 
@<TRIPOS>BOND
  1   1   2  1   
  2   1   3  1   
  3   2   4  ar  
  4   2   5  ar  
  5   3   6  2   
  6   3   7  1   
  7   4   8  ar  
  8   5   6  1   
  9   5   9  ar  
 10   6  18  1   
 11   7  10  1   
 12   7  19  1   
 13   7  20  1   
 14   8  11  ar  
 15   8  12  1   
 16   9  11  ar  
 17   9  13  1   
 18  10  21  1   
 19  10  22  1   
 20  10  23  1   
 21  12  24  1   
 22  12  25  1   
 23  12  26  1   
 24  13  14  1   
 25  13  15  1   
 26  14  16  1   
 27  14  27  1   
 28  14  28  1   
 29  15  17  1   
 30  15  29  1   
 31  15  30  1   
 32  16  17  1   
 33  16  31  1   
 34  16  32  1   
 35  17  33  1   
 36  17  34  1   
@<TRIPOS>SUBSTRUCTURE
  1 ****   5 GROUP 4 **** **** 0

# MOE 2024.06 (io_trps.svl 2023.06)
