@<TRIPOS>MOLECULE
NONAME
51 53 1 0 0 
SMALL
USER_CHARGES


@<TRIPOS>ATOM
  1 BR       0.6980     0.5700    -2.4370 Br    1 <1>  -0.1110 
  2 C        1.4820    -0.7660    -1.2940 C.ar  1 <1>   0.1110 
  3 C        1.4670    -2.0830    -1.7060 C.ar  1 <1>  -0.1500 
  4 C        2.0360    -0.3730    -0.0930 C.ar  1 <1>  -0.1500 
  5 C        2.0220    -3.0540    -0.8840 C.ar  1 <1>  -0.1440 
  6 C        2.5990    -1.3390     0.7230 C.ar  1 <1>  -0.1500 
  7 C        2.5980    -2.6800     0.3320 C.ar  1 <1>   0.0830 
  8 C        2.0020    -4.5120    -1.3250 C.3   1 <1>   0.2540 
  9 O        3.1510    -3.6620     1.0950 O.3   1 <1>  -0.3630 
 10 N        0.9090    -5.2560    -0.6640 N.3   1 <1>  -0.8100 
 11 C        3.8390    -3.3730     2.2930 C.3   1 <1>   0.0400 
 12 C        1.0260    -6.7070    -0.8790 C.3   1 <1>   0.1100 
 13 C       -0.4350    -4.7500    -1.0020 C.3   1 <1>   0.1100 
 14 C       -0.0370    -7.4700    -0.0630 C.3   1 <1>   0.3430 
 15 C       -1.5190    -5.4880    -0.1950 C.3   1 <1>   0.3430 
 16 N       -1.4270    -6.9830    -0.3630 N.4   1 <1>  -0.9590 
 17 C       -2.4490    -7.6880     0.4540 C.3   1 <1>   0.4860 
 18 C       -3.8220    -7.2760    -0.0390 C.ar  1 <1>  -0.1430 
 19 C       -4.5820    -6.3700     0.6880 C.ar  1 <1>  -0.1500 
 20 C       -4.3200    -7.7940    -1.2270 C.ar  1 <1>  -0.1500 
 21 C       -5.8290    -5.9670     0.2180 C.ar  1 <1>   0.0830 
 22 C       -5.5600    -7.3950    -1.6940 C.ar  1 <1>  -0.1500 
 23 O       -6.6270    -5.0820     0.8620 O.3   1 <1>  -0.3620 
 24 C       -6.3070    -6.4820    -0.9740 C.ar  1 <1>  -0.1500 
 25 C       -6.3430    -4.6300     2.1680 C.3   1 <1>   0.0400 
 26 H        1.0270    -2.3350    -2.6540 H     1 <1>   0.1500 
 27 H        2.0280     0.6630     0.1940 H     1 <1>   0.1500 
 28 H        3.0310    -1.0280     1.6550 H     1 <1>   0.1500 
 29 H        2.9480    -4.9590    -1.0670 H     1 <1>   0.0800 
 30 H        1.8940    -4.5720    -2.3940 H     1 <1>   0.0800 
 31 H        4.2160    -4.2970     2.6930 H     1 <1>   0.0800 
 32 H        3.1530    -2.9270     2.9910 H     1 <1>   0.0800 
 33 H        4.6560    -2.7080     2.0760 H     1 <1>   0.0800 
 34 H        2.0020    -7.0330    -0.5610 H     1 <1>   0.0800 
 35 H        0.9220    -6.9370    -1.9260 H     1 <1>   0.0800 
 36 H       -0.6210    -4.8590    -2.0570 H     1 <1>   0.0800 
 37 H       -0.5000    -3.7030    -0.7590 H     1 <1>   0.0800 
 38 H        0.1800    -7.3250     0.9830 H     1 <1>   0.0800 
 39 H        0.0410    -8.5230    -0.2780 H     1 <1>   0.0800 
 40 H       -2.4890    -5.1390    -0.5100 H     1 <1>   0.0800 
 41 H       -1.3940    -5.2300     0.8440 H     1 <1>   0.0800 
 42 H       -1.6380    -7.1780    -1.3470 H     1 <1>   0.4500 
 43 H       -2.3370    -7.4310     1.4950 H     1 <1>   0.0800 
 44 H       -2.3380    -8.7550     0.3500 H     1 <1>   0.0800 
 45 H       -4.2060    -5.9760     1.6130 H     1 <1>   0.1500 
 46 H       -3.7580    -8.5110    -1.8020 H     1 <1>   0.1500 
 47 H       -5.9490    -7.7950    -2.6160 H     1 <1>   0.1500 
 48 H       -7.2720    -6.1660    -1.3310 H     1 <1>   0.1500 
 49 H       -7.1550    -4.0010     2.4860 H     1 <1>   0.0800 
 50 H       -5.4300    -4.0630     2.1530 H     1 <1>   0.0800 
 51 H       -6.2640    -5.4800     2.8230 H     1 <1>   0.0800 
@<TRIPOS>BOND
  1   1   2  1   
  2   2   3  ar  
  3   2   4  ar  
  4   3   5  ar  
  5   3  26  1   
  6   4   6  ar  
  7   4  27  1   
  8   5   7  ar  
  9   5   8  1   
 10   6   7  ar  
 11   6  28  1   
 12   7   9  1   
 13   8  10  1   
 14   8  29  1   
 15   8  30  1   
 16   9  11  1   
 17  10  12  1   
 18  10  13  1   
 19  11  31  1   
 20  11  32  1   
 21  11  33  1   
 22  12  14  1   
 23  12  34  1   
 24  12  35  1   
 25  13  15  1   
 26  13  36  1   
 27  13  37  1   
 28  14  16  1   
 29  14  38  1   
 30  14  39  1   
 31  15  16  1   
 32  15  40  1   
 33  15  41  1   
 34  16  17  1   
 35  16  42  1   
 36  17  18  1   
 37  17  43  1   
 38  17  44  1   
 39  18  19  ar  
 40  18  20  ar  
 41  19  21  ar  
 42  19  45  1   
 43  20  22  ar  
 44  20  46  1   
 45  21  23  1   
 46  21  24  ar  
 47  22  24  ar  
 48  22  47  1   
 49  23  25  1   
 50  24  48  1   
 51  25  49  1   
 52  25  50  1   
 53  25  51  1   
@<TRIPOS>SUBSTRUCTURE
  1 ****  13 GROUP 4 **** **** 0

# MOE 2024.06 (io_trps.svl 2023.06)
