@<TRIPOS>MOLECULE
NONAME
41 41 1 0 0 
SMALL
USER_CHARGES


@<TRIPOS>ATOM
  1 O        1.0440    -3.4760     1.2310 O.2   1 <1>  -0.5700 
  2 C        1.3880    -2.4190     0.7690 C.2   1 <1>   0.5690 
  3 N        0.4600    -1.5610     0.3050 N.am  1 <1>  -0.8000 
  4 C        2.8660    -2.0840     0.7040 C.3   1 <1>   0.0420 
  5 C        3.1130    -0.6700     1.1960 C.2   1 <1>   0.5690 
  6 C        3.4150    -2.2930    -0.7170 C.3   1 <1>  -0.0170 
  7 O        2.5980     0.2700     0.6410 O.2   1 <1>  -0.5700 
  8 N        3.9270    -0.4550     2.2470 N.am  1 <1>  -0.8000 
  9 C        4.9270    -2.0840    -0.7610 C.ar  1 <1>  -0.1430 
 10 C        5.7950    -3.0660    -0.2930 C.ar  1 <1>   0.0820 
 11 C        5.4410    -0.9030    -1.2670 C.ar  1 <1>  -0.1500 
 12 O        5.2550    -4.2020     0.2020 O.3   1 <1>  -0.3630 
 13 C        7.1670    -2.8410    -0.3480 C.ar  1 <1>  -0.1500 
 14 C        6.8140    -0.6500    -1.3370 C.ar  1 <1>   0.0860 
 15 C        6.0320    -5.2660     0.7060 C.3   1 <1>   0.1200 
 16 C        7.6600    -1.6570    -0.8610 C.ar  1 <1>  -0.1500 
 17 C        7.3000     0.6020    -1.8830 C.2   1 <1>   0.4230 
 18 C        5.1010    -6.3970     1.1550 C.3   1 <1>  -0.1600 
 19 O        6.5770     1.4530    -2.3310 O.2   1 <1>  -0.5700 
 20 C        8.7870     0.9000    -1.9160 C.3   1 <1>  -0.1790 
 21 C        4.1080    -5.9600     2.2410 C.3   1 <1>  -0.2400 
 22 H       -0.5330    -1.7800     0.3850 H     1 <1>   0.3700 
 23 H        0.7090    -0.5970     0.0500 H     1 <1>   0.3700 
 24 H        3.3720    -2.7620     1.3640 H     1 <1>   0.0800 
 25 H        2.9290    -1.6130    -1.3950 H     1 <1>   0.0800 
 26 H        3.1830    -3.2910    -1.0460 H     1 <1>   0.0800 
 27 H        4.4470    -1.1910     2.7250 H     1 <1>   0.3700 
 28 H        4.1160     0.5040     2.5440 H     1 <1>   0.3700 
 29 H        4.7650    -0.1410    -1.6200 H     1 <1>   0.1500 
 30 H        7.8620    -3.5790     0.0030 H     1 <1>   0.1500 
 31 H        6.6100    -4.8990     1.5360 H     1 <1>   0.0800 
 32 H        6.6850    -5.6090    -0.0780 H     1 <1>   0.0800 
 33 H        8.7260    -1.5230    -0.8890 H     1 <1>   0.1500 
 34 H        5.7010    -7.2050     1.5340 H     1 <1>   0.0800 
 35 H        4.5610    -6.7670     0.3000 H     1 <1>   0.0800 
 36 H        9.2930     0.1860    -2.5390 H     1 <1>   0.0800 
 37 H        9.1920     0.8710    -0.9220 H     1 <1>   0.0800 
 38 H        8.9520     1.8830    -2.3210 H     1 <1>   0.0800 
 39 H        4.6280    -5.5610     3.0930 H     1 <1>   0.0800 
 40 H        3.5190    -6.8020     2.5610 H     1 <1>   0.0800 
 41 H        3.4370    -5.2100     1.8600 H     1 <1>   0.0800 
@<TRIPOS>BOND
  1   1   2  2   
  2   2   3  am  
  3   2   4  1   
  4   3  22  1   
  5   3  23  1   
  6   4   5  1   
  7   4   6  1   
  8   4  24  1   
  9   5   7  2   
 10   5   8  am  
 11   6   9  1   
 12   6  25  1   
 13   6  26  1   
 14   8  27  1   
 15   8  28  1   
 16   9  10  ar  
 17   9  11  ar  
 18  10  12  1   
 19  10  13  ar  
 20  11  14  ar  
 21  11  29  1   
 22  12  15  1   
 23  13  16  ar  
 24  13  30  1   
 25  14  16  ar  
 26  14  17  1   
 27  15  18  1   
 28  15  31  1   
 29  15  32  1   
 30  16  33  1   
 31  17  19  2   
 32  17  20  1   
 33  18  21  1   
 34  18  34  1   
 35  18  35  1   
 36  20  36  1   
 37  20  37  1   
 38  20  38  1   
 39  21  39  1   
 40  21  40  1   
 41  21  41  1   
@<TRIPOS>SUBSTRUCTURE
  1 ****   9 GROUP 4 **** **** 0

# MOE 2024.06 (io_trps.svl 2023.06)
