@<TRIPOS>MOLECULE
NONAME
40 41 1 0 0 
SMALL
USER_CHARGES


@<TRIPOS>ATOM
  1 S       -0.2950    -0.1660    -0.5050 S.o2  1 <1>   1.3330 
  2 O       -0.5610     1.2330    -0.2550 O.2   1 <1>  -0.6500 
  3 O       -0.0380    -0.6160    -1.8560 O.2   1 <1>  -0.6500 
  4 N       -1.6090    -1.0600     0.0790 N.am  1 <1>  -0.8490 
  5 C        1.0450    -0.6900     0.5740 C.3   1 <1>  -0.0550 
  6 C       -2.8750    -0.2970     0.0140 C.3   1 <1>   0.1960 
  7 C       -1.7160    -2.3950    -0.5100 C.3   1 <1>   0.1960 
  8 C        2.4020    -0.0300     0.2710 C.3   1 <1>  -0.2400 
  9 C       -4.1360    -1.1840     0.0870 C.3   1 <1>  -0.0190 
 10 C       -2.6950    -3.2550     0.3080 C.3   1 <1>  -0.1600 
 11 C       -5.3170    -0.3890     0.6290 C.2   1 <1>   0.5690 
 12 C       -3.8670    -2.4560     0.9100 C.3   1 <1>  -0.1600 
 13 O       -5.2180     0.1330     1.7120 O.2   1 <1>  -0.5700 
 14 N       -6.4460    -0.3210    -0.1430 N.am  1 <1>  -0.5470 
 15 C       -7.6640     0.3490     0.0610 C.ar  1 <1>   0.1170 
 16 C       -7.7990     1.4400     0.9150 C.ar  1 <1>  -0.1500 
 17 C       -8.7870    -0.0840    -0.6360 C.ar  1 <1>  -0.1500 
 18 C       -9.0190     2.0730     1.0720 C.ar  1 <1>  -0.1500 
 19 C      -10.0080     0.5470    -0.4840 C.ar  1 <1>  -0.1500 
 20 C      -10.1270     1.6280     0.3720 C.ar  1 <1>  -0.1500 
 21 H        1.1580    -1.7530     0.4980 H     1 <1>   0.0800 
 22 H        0.7740    -0.4650     1.5880 H     1 <1>   0.0800 
 23 H       -2.9120     0.2750    -0.8990 H     1 <1>   0.0800 
 24 H       -2.8730     0.4040     0.8330 H     1 <1>   0.0800 
 25 H       -0.7520    -2.8760    -0.5270 H     1 <1>   0.0800 
 26 H       -2.0580    -2.3070    -1.5290 H     1 <1>   0.0800 
 27 H        2.7090    -0.2600    -0.7340 H     1 <1>   0.0800 
 28 H        3.1520    -0.3880     0.9550 H     1 <1>   0.0800 
 29 H        2.3230     1.0390     0.3700 H     1 <1>   0.0800 
 30 H       -4.3730    -1.4850    -0.9170 H     1 <1>   0.0800 
 31 H       -2.1560    -3.7370     1.1050 H     1 <1>   0.0800 
 32 H       -3.0750    -4.0310    -0.3330 H     1 <1>   0.0800 
 33 H       -4.7490    -3.0710     0.9650 H     1 <1>   0.0800 
 34 H       -3.6100    -2.1600     1.9140 H     1 <1>   0.0800 
 35 H       -6.4230    -0.8790    -0.9930 H     1 <1>   0.3700 
 36 H       -6.9500     1.8040     1.4640 H     1 <1>   0.1500 
 37 H       -8.7110    -0.9230    -1.3020 H     1 <1>   0.1500 
 38 H       -9.1030     2.9130     1.7390 H     1 <1>   0.1500 
 39 H      -10.8690     0.1990    -1.0280 H     1 <1>   0.1500 
 40 H      -11.0760     2.1210     0.4950 H     1 <1>   0.1500 
@<TRIPOS>BOND
  1   1   2  2   
  2   1   3  2   
  3   1   4  am  
  4   1   5  1   
  5   4   6  1   
  6   4   7  1   
  7   5   8  1   
  8   5  21  1   
  9   5  22  1   
 10   6   9  1   
 11   6  23  1   
 12   6  24  1   
 13   7  10  1   
 14   7  25  1   
 15   7  26  1   
 16   8  27  1   
 17   8  28  1   
 18   8  29  1   
 19   9  11  1   
 20   9  12  1   
 21   9  30  1   
 22  10  12  1   
 23  10  31  1   
 24  10  32  1   
 25  11  13  2   
 26  11  14  am  
 27  12  33  1   
 28  12  34  1   
 29  14  15  1   
 30  14  35  1   
 31  15  16  ar  
 32  15  17  ar  
 33  16  18  ar  
 34  16  36  1   
 35  17  19  ar  
 36  17  37  1   
 37  18  20  ar  
 38  18  38  1   
 39  19  20  ar  
 40  19  39  1   
 41  20  40  1   
@<TRIPOS>SUBSTRUCTURE
  1 ****   9 GROUP 4 **** **** 0

# MOE 2024.06 (io_trps.svl 2023.06)
