@<TRIPOS>MOLECULE
NONAME
39 40 1 0 0 
SMALL
USER_CHARGES


@<TRIPOS>ATOM
  1 O        2.1940    -2.3640     0.1440 O.2   1 <1>  -0.5700 
  2 C        1.8250    -1.2200     0.1090 C.2   1 <1>   0.5690 
  3 N        0.5250    -0.9260     0.2790 N.am  1 <1>  -0.8000 
  4 C        2.8350    -0.1090    -0.1310 C.3   1 <1>  -0.0190 
  5 C        4.0850    -0.6940    -0.8210 C.3   1 <1>   0.3430 
  6 C        3.2010     0.6270     1.1730 C.3   1 <1>  -0.1600 
  7 N        5.3390     0.0460    -0.4700 N.4   1 <1>  -0.9590 
  8 C        4.2230     1.7530     0.9120 C.3   1 <1>  -0.1600 
  9 C        5.1450     1.5080    -0.2910 C.3   1 <1>   0.3430 
 10 C        6.4700    -0.2950    -1.3680 C.3   1 <1>   0.4860 
 11 C        7.7520     0.2260    -0.7480 C.ar  1 <1>  -0.1430 
 12 C        8.1530    -0.2180     0.5100 C.ar  1 <1>   0.0820 
 13 C        8.5290     1.1470    -1.4360 C.ar  1 <1>  -0.1500 
 14 O        7.3510    -1.1150     1.1460 O.3   1 <1>  -0.3630 
 15 C        9.3320     0.2700     1.0670 C.ar  1 <1>  -0.1500 
 16 C        9.6980     1.6280    -0.8750 C.ar  1 <1>  -0.1500 
 17 C        7.7840    -1.7820     2.3160 C.3   1 <1>   0.0400 
 18 C       10.0990     1.1890     0.3740 C.ar  1 <1>  -0.1500 
 19 H       -0.1370    -1.6880     0.4500 H     1 <1>   0.3700 
 20 H        0.1260     0.0140     0.2920 H     1 <1>   0.3700 
 21 H        2.3830     0.5920    -0.8080 H     1 <1>   0.0800 
 22 H        3.9280    -0.6780    -1.8870 H     1 <1>   0.0800 
 23 H        4.2080    -1.7240    -0.5270 H     1 <1>   0.0800 
 24 H        3.6230    -0.0850     1.8640 H     1 <1>   0.0800 
 25 H        2.3180     1.0370     1.6370 H     1 <1>   0.0800 
 26 H        5.6640    -0.3100     0.4470 H     1 <1>   0.4500 
 27 H        4.8250     1.8930     1.7940 H     1 <1>   0.0800 
 28 H        3.7020     2.6800     0.7440 H     1 <1>   0.0800 
 29 H        4.7000     1.9220    -1.1810 H     1 <1>   0.0800 
 30 H        6.0910     2.0010    -0.1240 H     1 <1>   0.0800 
 31 H        6.3210     0.1390    -2.3420 H     1 <1>   0.0800 
 32 H        6.5460    -1.3650    -1.4720 H     1 <1>   0.0800 
 33 H        8.2400     1.4980    -2.4120 H     1 <1>   0.1500 
 34 H        9.6720    -0.0480     2.0350 H     1 <1>   0.1500 
 35 H       10.3030     2.3420    -1.4100 H     1 <1>   0.1500 
 36 H        7.9040    -1.0640     3.1080 H     1 <1>   0.0800 
 37 H        8.7140    -2.2840     2.1100 H     1 <1>   0.0800 
 38 H        7.0360    -2.5050     2.5900 H     1 <1>   0.0800 
 39 H       11.0110     1.5650     0.8070 H     1 <1>   0.1500 
@<TRIPOS>BOND
  1   1   2  2   
  2   2   3  am  
  3   2   4  1   
  4   3  19  1   
  5   3  20  1   
  6   4   5  1   
  7   4   6  1   
  8   4  21  1   
  9   5   7  1   
 10   5  22  1   
 11   5  23  1   
 12   6   8  1   
 13   6  24  1   
 14   6  25  1   
 15   7   9  1   
 16   7  10  1   
 17   7  26  1   
 18   8   9  1   
 19   8  27  1   
 20   8  28  1   
 21   9  29  1   
 22   9  30  1   
 23  10  11  1   
 24  10  31  1   
 25  10  32  1   
 26  11  12  ar  
 27  11  13  ar  
 28  12  14  1   
 29  12  15  ar  
 30  13  16  ar  
 31  13  33  1   
 32  14  17  1   
 33  15  18  ar  
 34  15  34  1   
 35  16  18  ar  
 36  16  35  1   
 37  17  36  1   
 38  17  37  1   
 39  17  38  1   
 40  18  39  1   
@<TRIPOS>SUBSTRUCTURE
  1 ****   7 GROUP 4 **** **** 0

# MOE 2024.06 (io_trps.svl 2023.06)
