@<TRIPOS>MOLECULE
NONAME
53 55 1 0 0 
SMALL
USER_CHARGES


@<TRIPOS>ATOM
  1 O        0.1520    -0.7300    -1.4230 O.2   1 <1>  -0.5700 
  2 C        0.2250    -1.6790    -0.6770 C.2   1 <1>   0.5690 
  3 N        1.0510    -1.7520     0.3990 N.am  1 <1>  -0.4200 
  4 C       -0.5460    -3.0000    -0.8620 C.3   1 <1>   0.2510 
  5 C        1.0150    -2.9870     0.9600 C.2   1 <1>   0.5690 
  6 C        1.9010    -0.6430     0.8790 C.3   1 <1>   0.1400 
  7 N       -2.0240    -2.9470    -0.6580 N.3   1 <1>  -0.8100 
  8 C        0.0780    -3.9040     0.2180 C.3   1 <1>  -0.0990 
  9 O        1.6550    -3.3440     1.9150 O.2   1 <1>  -0.5700 
 10 C        3.2650    -0.7010     0.1930 C.3   1 <1>  -0.2400 
 11 C       -2.6470    -1.7740    -1.3160 C.3   1 <1>   0.1100 
 12 C       -2.6940    -4.1900    -1.0720 C.3   1 <1>   0.1100 
 13 C       -4.1790    -1.8860    -1.4190 C.3   1 <1>  -0.1600 
 14 C       -4.1230    -4.2250    -0.5080 C.3   1 <1>  -0.1600 
 15 C       -4.7590    -2.8270    -0.3540 C.3   1 <1>  -0.0800 
 16 C       -6.2960    -2.8630    -0.4260 C.3   1 <1>  -0.1600 
 17 C       -6.9300    -3.6870     0.7040 C.3   1 <1>  -0.0170 
 18 C       -8.4470    -3.6220     0.6210 C.ar  1 <1>  -0.1430 
 19 C       -9.1480    -4.5440    -0.1400 C.ar  1 <1>  -0.1500 
 20 C       -9.1430    -2.6370     1.3050 C.ar  1 <1>  -0.1500 
 21 C      -10.5290    -4.4880    -0.2190 C.ar  1 <1>  -0.1500 
 22 C      -10.5230    -2.5780     1.2290 C.ar  1 <1>  -0.1500 
 23 C      -11.2260    -3.4990     0.4700 C.ar  1 <1>   0.0830 
 24 O      -12.5770    -3.3710     0.4480 O.3   1 <1>  -0.3630 
 25 C      -13.3840    -4.2570    -0.2940 C.3   1 <1>   0.0400 
 26 H       -0.3300    -3.3780    -1.8460 H     1 <1>   0.0800 
 27 H        2.0220    -0.7240     1.9460 H     1 <1>   0.0800 
 28 H        1.4180     0.2950     0.6610 H     1 <1>   0.0800 
 29 H        0.6410    -4.7040    -0.2250 H     1 <1>   0.0800 
 30 H       -0.6500    -4.2940     0.9050 H     1 <1>   0.0800 
 31 H        3.7580    -1.6290     0.4210 H     1 <1>   0.0800 
 32 H        3.8800     0.1070     0.5440 H     1 <1>   0.0800 
 33 H        3.1510    -0.6040    -0.8730 H     1 <1>   0.0800 
 34 H       -2.2390    -1.6400    -2.3050 H     1 <1>   0.0800 
 35 H       -2.4060    -0.8970    -0.7390 H     1 <1>   0.0800 
 36 H       -2.1590    -5.0540    -0.7180 H     1 <1>   0.0800 
 37 H       -2.7250    -4.2340    -2.1480 H     1 <1>   0.0800 
 38 H       -4.4360    -2.2520    -2.3970 H     1 <1>   0.0800 
 39 H       -4.6050    -0.9030    -1.3240 H     1 <1>   0.0800 
 40 H       -4.1030    -4.7060     0.4540 H     1 <1>   0.0800 
 41 H       -4.7190    -4.8370    -1.1610 H     1 <1>   0.0800 
 42 H       -4.4710    -2.4330     0.6070 H     1 <1>   0.0800 
 43 H       -6.6080    -3.2630    -1.3750 H     1 <1>   0.0800 
 44 H       -6.6720    -1.8570    -0.3610 H     1 <1>   0.0800 
 45 H       -6.6060    -3.3070     1.6560 H     1 <1>   0.0800 
 46 H       -6.6160    -4.7140     0.6390 H     1 <1>   0.0800 
 47 H       -8.6180    -5.3110    -0.6770 H     1 <1>   0.1500 
 48 H       -8.6140    -1.9120     1.8980 H     1 <1>   0.1500 
 49 H      -11.0410    -5.2170    -0.8160 H     1 <1>   0.1500 
 50 H      -11.0650    -1.8150     1.7580 H     1 <1>   0.1500 
 51 H      -14.4100    -3.9650    -0.1620 H     1 <1>   0.0800 
 52 H      -13.2370    -5.2560     0.0780 H     1 <1>   0.0800 
 53 H      -13.1140    -4.1880    -1.3320 H     1 <1>   0.0800 
@<TRIPOS>BOND
  1   1   2  2   
  2   2   3  am  
  3   2   4  1   
  4   3   5  am  
  5   3   6  1   
  6   4   7  1   
  7   4   8  1   
  8   4  26  1   
  9   5   8  1   
 10   5   9  2   
 11   6  10  1   
 12   6  27  1   
 13   6  28  1   
 14   7  11  1   
 15   7  12  1   
 16   8  29  1   
 17   8  30  1   
 18  10  31  1   
 19  10  32  1   
 20  10  33  1   
 21  11  13  1   
 22  11  34  1   
 23  11  35  1   
 24  12  14  1   
 25  12  36  1   
 26  12  37  1   
 27  13  15  1   
 28  13  38  1   
 29  13  39  1   
 30  14  15  1   
 31  14  40  1   
 32  14  41  1   
 33  15  16  1   
 34  15  42  1   
 35  16  17  1   
 36  16  43  1   
 37  16  44  1   
 38  17  18  1   
 39  17  45  1   
 40  17  46  1   
 41  18  19  ar  
 42  18  20  ar  
 43  19  21  ar  
 44  19  47  1   
 45  20  22  ar  
 46  20  48  1   
 47  21  23  ar  
 48  21  49  1   
 49  22  23  ar  
 50  22  50  1   
 51  23  24  1   
 52  24  25  1   
 53  25  51  1   
 54  25  52  1   
 55  25  53  1   
@<TRIPOS>SUBSTRUCTURE
  1 ****  15 GROUP 4 **** **** 0

# MOE 2024.06 (io_trps.svl 2023.06)
