@<TRIPOS>MOLECULE
NONAME
47 49 1 0 0 
SMALL
USER_CHARGES


@<TRIPOS>ATOM
  1 CL       1.1930    -1.3880     0.5340 Cl    1 <1>  -0.1770 
  2 C        0.0640    -2.6870     0.8270 C.ar  1 <1>   0.1770 
  3 C       -1.1340    -2.7110     0.1410 C.ar  1 <1>  -0.1500 
  4 C        0.3930    -3.6680     1.7420 C.ar  1 <1>  -0.1500 
  5 C       -2.0390    -3.7420     0.3680 C.ar  1 <1>   0.1170 
  6 C       -0.5000    -4.7000     1.9780 C.ar  1 <1>  -0.1500 
  7 N       -3.2790    -3.8390    -0.2900 N.am  1 <1>  -0.5470 
  8 C       -1.7130    -4.7410     1.2950 C.ar  1 <1>   0.0830 
  9 C       -3.8970    -3.0980    -1.2570 C.2   1 <1>   0.5690 
 10 O       -2.6350    -5.7340     1.4850 O.3   1 <1>  -0.3630 
 11 O       -3.4130    -2.1160    -1.7630 O.2   1 <1>  -0.5700 
 12 C       -5.2840    -3.5410    -1.7120 C.3   1 <1>  -0.0190 
 13 C       -2.3630    -6.8400     2.3190 C.3   1 <1>   0.0400 
 14 C       -6.3240    -3.3850    -0.5830 C.3   1 <1>  -0.1600 
 15 C       -5.2770    -4.9850    -2.2570 C.3   1 <1>  -0.1600 
 16 C       -7.7100    -3.8740    -1.0120 C.3   1 <1>   0.1400 
 17 C       -6.6800    -5.4380    -2.6620 C.3   1 <1>   0.1400 
 18 N       -7.5970    -5.2740    -1.5020 N.am  1 <1>  -0.6600 
 19 C       -8.0750    -6.3650    -0.8030 C.2   1 <1>   0.5440 
 20 O       -7.5530    -7.4500    -0.9790 O.2   1 <1>  -0.5700 
 21 C       -9.1670    -6.2550     0.1470 C.ar  1 <1>   0.0860 
 22 C       -9.0530    -6.8010     1.4290 C.ar  1 <1>  -0.1500 
 23 C      -10.3650    -5.6130    -0.1890 C.ar  1 <1>  -0.1500 
 24 C      -10.0810    -6.7010     2.3500 C.ar  1 <1>  -0.1500 
 25 C      -11.4030    -5.5040     0.7190 C.ar  1 <1>  -0.1500 
 26 C      -11.2410    -6.0490     1.9780 C.ar  1 <1>   0.1900 
 27 F      -12.2130    -5.9470     2.8400 F     1 <1>  -0.1900 
 28 H       -1.3460    -1.9270    -0.5590 H     1 <1>   0.1500 
 29 H        1.3340    -3.6200     2.2590 H     1 <1>   0.1500 
 30 H       -0.2300    -5.4540     2.6930 H     1 <1>   0.1500 
 31 H       -3.8030    -4.6570     0.0260 H     1 <1>   0.3700 
 32 H       -5.5760    -2.8900    -2.5190 H     1 <1>   0.0800 
 33 H       -3.2080    -7.5040     2.2790 H     1 <1>   0.0800 
 34 H       -2.2210    -6.4920     3.3270 H     1 <1>   0.0800 
 35 H       -1.4860    -7.3460     1.9560 H     1 <1>   0.0800 
 36 H       -6.3870    -2.3500    -0.2960 H     1 <1>   0.0800 
 37 H       -6.0190    -3.9450     0.2830 H     1 <1>   0.0800 
 38 H       -4.9070    -5.6710    -1.5150 H     1 <1>   0.0800 
 39 H       -4.6260    -5.0450    -3.1110 H     1 <1>   0.0800 
 40 H       -8.0940    -3.2530    -1.8030 H     1 <1>   0.0800 
 41 H       -8.3830    -3.8090    -0.1750 H     1 <1>   0.0800 
 42 H       -6.6550    -6.4660    -2.9850 H     1 <1>   0.0800 
 43 H       -7.0400    -4.8430    -3.4830 H     1 <1>   0.0800 
 44 H       -8.1430    -7.3120     1.6930 H     1 <1>   0.1500 
 45 H      -10.4750    -5.2030    -1.1780 H     1 <1>   0.1500 
 46 H       -9.9920    -7.1200     3.3360 H     1 <1>   0.1500 
 47 H      -12.3240    -5.0100     0.4620 H     1 <1>   0.1500 
@<TRIPOS>BOND
  1   1   2  1   
  2   2   3  ar  
  3   2   4  ar  
  4   3   5  ar  
  5   3  28  1   
  6   4   6  ar  
  7   4  29  1   
  8   5   7  1   
  9   5   8  ar  
 10   6   8  ar  
 11   6  30  1   
 12   7   9  am  
 13   7  31  1   
 14   8  10  1   
 15   9  11  2   
 16   9  12  1   
 17  10  13  1   
 18  12  14  1   
 19  12  15  1   
 20  12  32  1   
 21  13  33  1   
 22  13  34  1   
 23  13  35  1   
 24  14  16  1   
 25  14  36  1   
 26  14  37  1   
 27  15  17  1   
 28  15  38  1   
 29  15  39  1   
 30  16  18  1   
 31  16  40  1   
 32  16  41  1   
 33  17  18  1   
 34  17  42  1   
 35  17  43  1   
 36  18  19  am  
 37  19  20  2   
 38  19  21  1   
 39  21  22  ar  
 40  21  23  ar  
 41  22  24  ar  
 42  22  44  1   
 43  23  25  ar  
 44  23  45  1   
 45  24  26  ar  
 46  24  46  1   
 47  25  26  ar  
 48  25  47  1   
 49  26  27  1   
@<TRIPOS>SUBSTRUCTURE
  1 ****  14 GROUP 4 **** **** 0

# MOE 2024.06 (io_trps.svl 2023.06)
