@<TRIPOS>MOLECULE
NONAME
33 35 1 0 0 
SMALL
USER_CHARGES


@<TRIPOS>ATOM
  1 O        0.6760    -0.7200    -0.4380 O.2   1 <1>  -0.5700 
  2 C        0.0250    -1.6590    -0.0270 C.2   1 <1>   0.7200 
  3 N       -1.3120    -1.6550     0.0900 N.2   1 <1>  -0.6610 
  4 C        0.6160    -2.9940     0.4230 C.3   1 <1>   0.4300 
  5 C       -1.6360    -2.8090     0.5530 C.2   1 <1>   0.5500 
  6 N       -0.6440    -3.6860     0.7950 N.pl3 1 <1>  -0.7880 
  7 C        1.3440    -3.7250    -0.7180 C.3   1 <1>   0.1200 
  8 C        1.5530    -2.8400     1.6340 C.3   1 <1>   0.1200 
  9 N       -2.9010    -3.1150     0.7800 N.pl3 1 <1>  -0.8500 
 10 C       -0.7210    -5.0770     1.3250 C.3   1 <1>   0.1290 
 11 O        2.6520    -3.2510    -0.8670 O.3   1 <1>  -0.5600 
 12 O        2.8380    -2.4610     1.2320 O.3   1 <1>  -0.5600 
 13 C        3.4360    -3.2970     0.2870 C.3   1 <1>   0.6240 
 14 C        4.8260    -2.7800    -0.0300 C.ar  1 <1>  -0.1430 
 15 C        4.9820    -1.4950    -0.5280 C.ar  1 <1>   0.1600 
 16 C        5.9500    -3.5620     0.1640 C.ar  1 <1>  -0.1500 
 17 N        6.1460    -0.9390    -0.8400 N.ar  1 <1>  -0.6200 
 18 C        7.1660    -2.9980    -0.1560 C.ar  1 <1>  -0.1500 
 19 C        7.2070    -1.7040    -0.6460 C.ar  1 <1>   0.1600 
 20 H        0.8300    -3.5660    -1.6500 H     1 <1>   0.0800 
 21 H        1.4030    -4.7790    -0.5210 H     1 <1>   0.0800 
 22 H        1.6410    -3.7670     2.1690 H     1 <1>   0.0800 
 23 H        1.1800    -2.0800     2.2990 H     1 <1>   0.0800 
 24 H       -3.6190    -2.4190     0.5820 H     1 <1>   0.4000 
 25 H       -3.2120    -4.0090     1.1440 H     1 <1>   0.4000 
 26 H       -0.1710    -5.1540     2.2470 H     1 <1>   0.0800 
 27 H       -0.3160    -5.7700     0.6090 H     1 <1>   0.0800 
 28 H       -1.7440    -5.3490     1.5180 H     1 <1>   0.0800 
 29 H        3.4710    -4.3050     0.6630 H     1 <1>   0.0800 
 30 H        4.0980    -0.8950    -0.6750 H     1 <1>   0.1500 
 31 H        5.8880    -4.5650     0.5470 H     1 <1>   0.1500 
 32 H        8.0780    -3.5520    -0.0280 H     1 <1>   0.1500 
 33 H        8.1630    -1.2740    -0.8930 H     1 <1>   0.1500 
@<TRIPOS>BOND
  1   1   2  2   
  2   2   3  1   
  3   2   4  1   
  4   3   5  2   
  5   4   6  1   
  6   4   7  1   
  7   4   8  1   
  8   5   6  1   
  9   5   9  1   
 10   6  10  1   
 11   7  11  1   
 12   7  20  1   
 13   7  21  1   
 14   8  12  1   
 15   8  22  1   
 16   8  23  1   
 17   9  24  1   
 18   9  25  1   
 19  10  26  1   
 20  10  27  1   
 21  10  28  1   
 22  11  13  1   
 23  12  13  1   
 24  13  14  1   
 25  13  29  1   
 26  14  15  ar  
 27  14  16  ar  
 28  15  17  ar  
 29  15  30  1   
 30  16  18  ar  
 31  16  31  1   
 32  17  19  ar  
 33  18  19  ar  
 34  18  32  1   
 35  19  33  1   
@<TRIPOS>SUBSTRUCTURE
  1 ****  11 GROUP 4 **** **** 0

# MOE 2024.06 (io_trps.svl 2023.06)
