@<TRIPOS>MOLECULE
NONAME
32 33 1 0 0 
SMALL
USER_CHARGES


@<TRIPOS>ATOM
  1 O       -4.1590     1.8180     0.9180 O.3   1 <1>  -0.5320 
  2 C       -4.1010     0.5340     0.5370 C.ar  1 <1>   0.0830 
  3 C       -3.5000     0.2130    -0.6670 C.ar  1 <1>  -0.1500 
  4 C       -4.6380    -0.4590     1.3400 C.ar  1 <1>  -0.1500 
  5 C       -3.4330    -1.1080    -1.0710 C.ar  1 <1>  -0.1500 
  6 C       -4.5680    -1.7800     0.9320 C.ar  1 <1>  -0.1500 
  7 C       -3.9610    -2.1130    -0.2720 C.ar  1 <1>  -0.1430 
  8 C       -3.8770    -3.5680    -0.7070 C.3   1 <1>  -0.0170 
  9 C       -2.7880    -4.3330     0.0690 C.3   1 <1>  -0.0800 
 10 C       -1.3940    -3.7030    -0.1210 C.3   1 <1>  -0.1600 
 11 C       -2.7550    -5.8130    -0.3520 C.3   1 <1>  -0.1600 
 12 C       -0.3020    -4.5080     0.5820 C.3   1 <1>   0.3430 
 13 C       -1.6390    -6.5820     0.3580 C.3   1 <1>   0.3430 
 14 N       -0.3330    -5.9160     0.1010 N.4   1 <1>  -0.9060 
 15 H       -4.6170     1.9450     1.7670 H     1 <1>   0.4500 
 16 H       -3.0940     0.9990    -1.2790 H     1 <1>   0.1500 
 17 H       -5.1100    -0.2100     2.2720 H     1 <1>   0.1500 
 18 H       -2.9680    -1.3440    -2.0120 H     1 <1>   0.1500 
 19 H       -4.9910    -2.5460     1.5570 H     1 <1>   0.1500 
 20 H       -3.6820    -3.6170    -1.7650 H     1 <1>   0.0800 
 21 H       -4.8350    -4.0310    -0.5400 H     1 <1>   0.0800 
 22 H       -3.0380    -4.2860     1.1160 H     1 <1>   0.0800 
 23 H       -1.3900    -2.7070     0.2880 H     1 <1>   0.0800 
 24 H       -1.1620    -3.6180    -1.1680 H     1 <1>   0.0800 
 25 H       -2.6220    -5.8950    -1.4180 H     1 <1>   0.0800 
 26 H       -3.6980    -6.2740    -0.1110 H     1 <1>   0.0800 
 27 H       -0.4690    -4.4820     1.6480 H     1 <1>   0.0800 
 28 H        0.6610    -4.0660     0.3800 H     1 <1>   0.0800 
 29 H       -1.6140    -7.5990    -0.0010 H     1 <1>   0.0800 
 30 H       -1.8360    -6.6020     1.4180 H     1 <1>   0.0800 
 31 H        0.4250    -6.4510     0.5440 H     1 <1>   0.4500 
 32 H       -0.1540    -5.9190    -0.9100 H     1 <1>   0.4500 
@<TRIPOS>BOND
  1   1   2  1   
  2   1  15  1   
  3   2   3  ar  
  4   2   4  ar  
  5   3   5  ar  
  6   3  16  1   
  7   4   6  ar  
  8   4  17  1   
  9   5   7  ar  
 10   5  18  1   
 11   6   7  ar  
 12   6  19  1   
 13   7   8  1   
 14   8   9  1   
 15   8  20  1   
 16   8  21  1   
 17   9  10  1   
 18   9  11  1   
 19   9  22  1   
 20  10  12  1   
 21  10  23  1   
 22  10  24  1   
 23  11  13  1   
 24  11  25  1   
 25  11  26  1   
 26  12  14  1   
 27  12  27  1   
 28  12  28  1   
 29  13  14  1   
 30  13  29  1   
 31  13  30  1   
 32  14  31  1   
 33  14  32  1   
@<TRIPOS>SUBSTRUCTURE
  1 ****   7 GROUP 4 **** **** 0

# MOE 2024.06 (io_trps.svl 2023.06)
