@<TRIPOS>MOLECULE
NONAME
47 49 1 0 0 
SMALL
USER_CHARGES


@<TRIPOS>ATOM
  1 CL       0.0500    -1.3070    -1.7260 Cl    1 <1>  -0.1770 
  2 C        1.5800    -1.6560    -0.9510 C.ar  1 <1>   0.1770 
  3 C        1.6720    -2.5580     0.1010 C.ar  1 <1>  -0.1440 
  4 C        2.6950    -0.9940    -1.4320 C.ar  1 <1>  -0.1500 
  5 C        2.9280    -2.7790     0.6600 C.ar  1 <1>  -0.1500 
  6 C        0.4210    -3.2730     0.6170 C.3   1 <1>   1.1640 
  7 C        3.9320    -1.2300    -0.8630 C.ar  1 <1>  -0.1500 
  8 C        4.0650    -2.1290     0.1890 C.ar  1 <1>   0.1990 
  9 F       -0.5020    -2.4280     1.0560 F     1 <1>  -0.3400 
 10 F        0.6740    -4.0880     1.6340 F     1 <1>  -0.3400 
 11 F       -0.1560    -4.0230    -0.3130 F     1 <1>  -0.3400 
 12 N        5.3080    -2.3710     0.7640 N.am  1 <1>  -0.6930 
 13 S        6.0730    -3.9230     0.7080 S.o2  1 <1>   1.3330 
 14 C        6.1220    -1.2250     1.2790 C.3   1 <1>   0.2570 
 15 O        5.0700    -4.9230     0.9710 O.2   1 <1>  -0.6500 
 16 O        7.2550    -3.8300     1.5340 O.2   1 <1>  -0.6500 
 17 C        6.5640    -4.0350    -1.0000 C.3   1 <1>  -0.1350 
 18 C        7.2880    -0.8260     0.3690 C.2   1 <1>   0.5690 
 19 O        7.1240     0.0730    -0.4220 O.2   1 <1>  -0.5700 
 20 N        8.4700    -1.4890     0.4600 N.am  1 <1>  -0.7300 
 21 C        9.6960    -1.1600    -0.2940 C.3   1 <1>   0.2200 
 22 C       10.1860    -2.3120    -1.1960 C.3   1 <1>  -0.0800 
 23 C       10.8850    -0.9330     0.6520 C.3   1 <1>  -0.1600 
 24 C       11.6520    -1.9370    -1.3540 C.3   1 <1>  -0.1600 
 25 C       10.3210    -3.6290    -0.4050 C.3   1 <1>  -0.1600 
 26 C       11.9390    -1.9300     0.1390 C.3   1 <1>  -0.0800 
 27 C       11.5010    -3.3480     0.5410 C.3   1 <1>  -0.1600 
 28 H        2.5910    -0.2990    -2.2480 H     1 <1>   0.1500 
 29 H        3.0480    -3.4680     1.4800 H     1 <1>   0.1500 
 30 H        4.7970    -0.7150    -1.2420 H     1 <1>   0.1500 
 31 H        6.5110    -1.4780     2.2500 H     1 <1>   0.0800 
 32 H        5.4860    -0.3670     1.4030 H     1 <1>   0.0800 
 33 H        7.2090    -3.2200    -1.2630 H     1 <1>   0.0800 
 34 H        5.7000    -4.0060    -1.6340 H     1 <1>   0.0800 
 35 H        7.0850    -4.9550    -1.1730 H     1 <1>   0.0800 
 36 H        8.5460    -2.3090     1.0800 H     1 <1>   0.3700 
 37 H        9.5370    -0.2770    -0.8920 H     1 <1>   0.0800 
 38 H        9.6450    -2.3950    -2.1220 H     1 <1>   0.0800 
 39 H       10.6380    -1.1030     1.6850 H     1 <1>   0.0800 
 40 H       11.2470     0.0730     0.5350 H     1 <1>   0.0800 
 41 H       11.7920    -0.9710    -1.8100 H     1 <1>   0.0800 
 42 H       12.2220    -2.6810    -1.8850 H     1 <1>   0.0800 
 43 H       10.5740    -4.4340    -1.0740 H     1 <1>   0.0800 
 44 H        9.4330    -3.9000     0.1320 H     1 <1>   0.0800 
 45 H       12.9510    -1.6860     0.4170 H     1 <1>   0.0800 
 46 H       12.2960    -4.0510     0.3630 H     1 <1>   0.0800 
 47 H       11.2100    -3.4010     1.5760 H     1 <1>   0.0800 
@<TRIPOS>BOND
  1   1   2  1   
  2   2   3  ar  
  3   2   4  ar  
  4   3   5  ar  
  5   3   6  1   
  6   4   7  ar  
  7   4  28  1   
  8   5   8  ar  
  9   5  29  1   
 10   6   9  1   
 11   6  10  1   
 12   6  11  1   
 13   7   8  ar  
 14   7  30  1   
 15   8  12  1   
 16  12  13  am  
 17  12  14  1   
 18  13  15  2   
 19  13  16  2   
 20  13  17  1   
 21  14  18  1   
 22  14  31  1   
 23  14  32  1   
 24  17  33  1   
 25  17  34  1   
 26  17  35  1   
 27  18  19  2   
 28  18  20  am  
 29  20  21  1   
 30  20  36  1   
 31  21  22  1   
 32  21  23  1   
 33  21  37  1   
 34  22  24  1   
 35  22  25  1   
 36  22  38  1   
 37  23  26  1   
 38  23  39  1   
 39  23  40  1   
 40  24  26  1   
 41  24  41  1   
 42  24  42  1   
 43  25  27  1   
 44  25  43  1   
 45  25  44  1   
 46  26  27  1   
 47  26  45  1   
 48  27  46  1   
 49  27  47  1   
@<TRIPOS>SUBSTRUCTURE
  1 ****  12 GROUP 4 **** **** 0

# MOE 2024.06 (io_trps.svl 2023.06)
