@<TRIPOS>MOLECULE
NONAME
43 46 1 0 0 
SMALL
USER_CHARGES


@<TRIPOS>ATOM
  1 O        0.6090    -2.2910    -2.8610 O.co2 1 <1>  -0.9000 
  2 C        1.1920    -1.4630    -2.1510 C.2   1 <1>   0.9060 
  3 O        0.6590    -0.4000    -1.8320 O.co2 1 <1>  -0.9000 
  4 C        2.6120    -1.7970    -1.7500 C.3   1 <1>  -0.1860 
  5 C        2.8650    -2.9950    -0.7900 C.3   1 <1>  -0.0190 
  6 C        3.3250    -0.6560    -1.0120 C.3   1 <1>   0.2000 
  7 C        1.6920    -3.6980    -0.0870 C.2   1 <1>   0.5690 
  8 C        3.7990    -2.3180     0.2290 C.3   1 <1>   0.2000 
  9 O        3.2510    -1.0580     0.3050 O.3   1 <1>  -0.5600 
 10 C        4.8360    -0.7620    -1.2340 C.3   1 <1>  -0.1600 
 11 O        1.8090    -4.0220     1.0740 O.2   1 <1>  -0.5700 
 12 N        0.5820    -4.0390    -0.8030 N.am  1 <1>  -0.5470 
 13 C        5.1690    -1.9930    -0.3830 C.3   1 <1>  -0.1600 
 14 C       -0.5590    -4.7070    -0.3560 C.ar  1 <1>   0.1170 
 15 C       -0.5340    -6.0470     0.0590 C.ar  1 <1>   0.0000 
 16 C       -1.7560    -4.0040    -0.3420 C.ar  1 <1>  -0.1500 
 17 C        0.6640    -6.8550     0.0020 C.ar  1 <1>   0.0000 
 18 C       -1.7180    -6.6200     0.5150 C.ar  1 <1>  -0.1500 
 19 C       -2.9220    -4.5930     0.1040 C.ar  1 <1>  -0.1500 
 20 C        1.3400    -7.2250     1.1600 C.ar  1 <1>  -0.1500 
 21 C        1.1700    -7.2940    -1.2180 C.ar  1 <1>  -0.1500 
 22 C       -2.9020    -5.9070     0.5400 C.ar  1 <1>  -0.1500 
 23 C        2.4710    -8.0200     1.1060 C.ar  1 <1>  -0.1500 
 24 C        2.3010    -8.0880    -1.2810 C.ar  1 <1>  -0.1500 
 25 C        2.9520    -8.4560    -0.1160 C.ar  1 <1>  -0.1500 
 26 H        3.1150    -1.9780    -2.6800 H     1 <1>   0.0800 
 27 H        3.4020    -3.7670    -1.3070 H     1 <1>   0.0800 
 28 H        2.9080     0.3280    -1.1500 H     1 <1>   0.0800 
 29 H        3.8510    -2.7780     1.2010 H     1 <1>   0.0800 
 30 H        5.3180     0.1170    -0.8460 H     1 <1>   0.0800 
 31 H        5.0890    -0.8830    -2.2720 H     1 <1>   0.0800 
 32 H        0.4670    -3.5190    -1.6940 H     1 <1>   0.3700 
 33 H        5.5510    -2.8130    -0.9640 H     1 <1>   0.0800 
 34 H        5.8680    -1.7450     0.3950 H     1 <1>   0.0800 
 35 H       -1.7550    -2.9810    -0.6830 H     1 <1>   0.1500 
 36 H       -1.7040    -7.6430     0.8450 H     1 <1>   0.1500 
 37 H       -3.8380    -4.0290     0.1130 H     1 <1>   0.1500 
 38 H        0.9740    -6.8700     2.1070 H     1 <1>   0.1500 
 39 H        0.6650    -7.0000    -2.1220 H     1 <1>   0.1500 
 40 H       -3.8060    -6.3700     0.8940 H     1 <1>   0.1500 
 41 H        2.9780    -8.2930     2.0140 H     1 <1>   0.1500 
 42 H        2.6730    -8.4160    -2.2350 H     1 <1>   0.1500 
 43 H        3.8310    -9.0750    -0.1610 H     1 <1>   0.1500 
@<TRIPOS>BOND
  1   1   2  ar  
  2   2   3  ar  
  3   2   4  1   
  4   4   5  1   
  5   4   6  1   
  6   4  26  1   
  7   5   7  1   
  8   5   8  1   
  9   5  27  1   
 10   6   9  1   
 11   6  10  1   
 12   6  28  1   
 13   7  11  2   
 14   7  12  am  
 15   8   9  1   
 16   8  13  1   
 17   8  29  1   
 18  10  13  1   
 19  10  30  1   
 20  10  31  1   
 21  12  14  1   
 22  12  32  1   
 23  13  33  1   
 24  13  34  1   
 25  14  15  ar  
 26  14  16  ar  
 27  15  17  1   
 28  15  18  ar  
 29  16  19  ar  
 30  16  35  1   
 31  17  20  ar  
 32  17  21  ar  
 33  18  22  ar  
 34  18  36  1   
 35  19  22  ar  
 36  19  37  1   
 37  20  23  ar  
 38  20  38  1   
 39  21  24  ar  
 40  21  39  1   
 41  22  40  1   
 42  23  25  ar  
 43  23  41  1   
 44  24  25  ar  
 45  24  42  1   
 46  25  43  1   
@<TRIPOS>SUBSTRUCTURE
  1 ****   7 GROUP 4 **** **** 0

# MOE 2024.06 (io_trps.svl 2023.06)
