@<TRIPOS>MOLECULE
NONAME
66 69 1 0 0 
SMALL
USER_CHARGES


@<TRIPOS>ATOM
  1 O       -1.6510     1.8030     2.2000 O.2   1 <1>  -0.5700 
  2 C       -2.1600     1.7730     1.0980 C.2   1 <1>   0.6900 
  3 N       -1.8010     2.5950     0.0690 N.am  1 <1>  -0.4200 
  4 N       -3.1510     0.9120     0.7290 N.am  1 <1>  -0.6600 
  5 C       -2.5320     2.2910    -1.0370 C.2   1 <1>   0.5690 
  6 C       -0.7480     3.6270     0.1430 C.3   1 <1>   0.1400 
  7 C       -3.4810     1.1400    -0.7100 C.3   1 <1>   0.2810 
  8 C       -3.4890    -0.3310     1.4610 C.3   1 <1>   0.1400 
  9 O       -2.4730     2.8470    -2.1070 O.2   1 <1>  -0.5700 
 10 C        0.6020     3.0130    -0.2260 C.3   1 <1>  -0.2400 
 11 C       -4.9500     1.5530    -0.9020 C.3   1 <1>  -0.0990 
 12 C       -2.7010    -1.5070     0.8890 C.3   1 <1>  -0.2400 
 13 C       -5.9210     0.3870    -0.9580 C.2   1 <1>   0.5690 
 14 O       -5.4760    -0.7330    -0.9930 O.2   1 <1>  -0.5700 
 15 N       -7.2800     0.5990    -1.0050 N.am  1 <1>  -0.6600 
 16 C       -8.2150    -0.5590    -1.2050 C.3   1 <1>   0.1400 
 17 C       -7.9540     1.9380    -0.9920 C.3   1 <1>   0.1400 
 18 C       -9.3900    -0.5140    -0.2130 C.3   1 <1>   0.3430 
 19 C       -9.1460     1.9570    -0.0110 C.3   1 <1>   0.3430 
 20 N      -10.1000     0.8140    -0.2460 N.4   1 <1>  -0.9590 
 21 C      -11.2530     0.8390     0.6950 C.3   1 <1>   0.7100 
 22 C      -12.2290    -0.2920     0.3740 C.ar  1 <1>  -0.1440 
 23 C      -11.9030     2.2190     0.6730 C.ar  1 <1>  -0.1440 
 24 C      -12.6120    -0.6210    -0.9240 C.ar  1 <1>  -0.1500 
 25 C      -12.7440    -1.0340     1.4300 C.ar  1 <1>  -0.1500 
 26 C      -11.8080     3.0190     1.8060 C.ar  1 <1>  -0.1500 
 27 C      -12.5660     2.7140    -0.4450 C.ar  1 <1>  -0.1500 
 28 C      -13.4820    -1.6720    -1.1560 C.ar  1 <1>  -0.1500 
 29 C      -13.6140    -2.0840     1.1970 C.ar  1 <1>  -0.1500 
 30 C      -12.3530     4.2900     1.8180 C.ar  1 <1>  -0.1500 
 31 C      -13.1110     3.9860    -0.4320 C.ar  1 <1>  -0.1500 
 32 C      -13.9810    -2.4050    -0.0960 C.ar  1 <1>  -0.1500 
 33 C      -13.0020     4.7750     0.6980 C.ar  1 <1>  -0.1500 
 34 H       -0.7110     4.0260     1.1430 H     1 <1>   0.0800 
 35 H       -0.9860     4.4270    -0.5370 H     1 <1>   0.0800 
 36 H       -3.2150     0.2880    -1.3110 H     1 <1>   0.0800 
 37 H       -4.5450    -0.5210     1.3950 H     1 <1>   0.0800 
 38 H       -3.2350    -0.2070     2.5010 H     1 <1>   0.0800 
 39 H        0.8500     2.2210     0.4590 H     1 <1>   0.0800 
 40 H        1.3690     3.7650    -0.1680 H     1 <1>   0.0800 
 41 H        0.5760     2.6280    -1.2300 H     1 <1>   0.0800 
 42 H       -5.0330     2.0730    -1.8380 H     1 <1>   0.0800 
 43 H       -5.2180     2.2290    -0.1130 H     1 <1>   0.0800 
 44 H       -2.9950    -1.7070    -0.1260 H     1 <1>   0.0800 
 45 H       -2.9000    -2.3880     1.4730 H     1 <1>   0.0800 
 46 H       -1.6460    -1.3040     0.9300 H     1 <1>   0.0800 
 47 H       -7.6980    -1.4950    -1.0750 H     1 <1>   0.0800 
 48 H       -8.5890    -0.5410    -2.2140 H     1 <1>   0.0800 
 49 H       -8.3050     2.1640    -1.9840 H     1 <1>   0.0800 
 50 H       -7.2680     2.7150    -0.7090 H     1 <1>   0.0800 
 51 H       -9.0060    -0.6990     0.7760 H     1 <1>   0.0800 
 52 H      -10.0770    -1.3100    -0.4520 H     1 <1>   0.0800 
 53 H       -9.6640     2.8980    -0.1130 H     1 <1>   0.0800 
 54 H       -8.7600     1.9050     0.9940 H     1 <1>   0.0800 
 55 H      -10.5160     0.9360    -1.1720 H     1 <1>   0.4500 
 56 H      -10.8800     0.6710     1.6920 H     1 <1>   0.0800 
 57 H      -12.2530    -0.0760    -1.7780 H     1 <1>   0.1500 
 58 H      -12.4830    -0.8050     2.4500 H     1 <1>   0.1500 
 59 H      -11.3150     2.6670     2.6970 H     1 <1>   0.1500 
 60 H      -12.6820     2.1280    -1.3380 H     1 <1>   0.1500 
 61 H      -13.7780    -1.9230    -2.1610 H     1 <1>   0.1500 
 62 H      -14.0100    -2.6530     2.0210 H     1 <1>   0.1500 
 63 H      -12.2800     4.9060     2.6990 H     1 <1>   0.1500 
 64 H      -13.6280     4.3650    -1.2980 H     1 <1>   0.1500 
 65 H      -14.6600    -3.2220    -0.2760 H     1 <1>   0.1500 
 66 H      -13.4280     5.7650     0.7080 H     1 <1>   0.1500 
@<TRIPOS>BOND
  1   1   2  2   
  2   2   3  am  
  3   2   4  am  
  4   3   5  am  
  5   3   6  1   
  6   4   7  1   
  7   4   8  1   
  8   5   7  1   
  9   5   9  2   
 10   6  10  1   
 11   6  34  1   
 12   6  35  1   
 13   7  11  1   
 14   7  36  1   
 15   8  12  1   
 16   8  37  1   
 17   8  38  1   
 18  10  39  1   
 19  10  40  1   
 20  10  41  1   
 21  11  13  1   
 22  11  42  1   
 23  11  43  1   
 24  12  44  1   
 25  12  45  1   
 26  12  46  1   
 27  13  14  2   
 28  13  15  am  
 29  15  16  1   
 30  15  17  1   
 31  16  18  1   
 32  16  47  1   
 33  16  48  1   
 34  17  19  1   
 35  17  49  1   
 36  17  50  1   
 37  18  20  1   
 38  18  51  1   
 39  18  52  1   
 40  19  20  1   
 41  19  53  1   
 42  19  54  1   
 43  20  21  1   
 44  20  55  1   
 45  21  22  1   
 46  21  23  1   
 47  21  56  1   
 48  22  24  ar  
 49  22  25  ar  
 50  23  26  ar  
 51  23  27  ar  
 52  24  28  ar  
 53  24  57  1   
 54  25  29  ar  
 55  25  58  1   
 56  26  30  ar  
 57  26  59  1   
 58  27  31  ar  
 59  27  60  1   
 60  28  32  ar  
 61  28  61  1   
 62  29  32  ar  
 63  29  62  1   
 64  30  33  ar  
 65  30  63  1   
 66  31  33  ar  
 67  31  64  1   
 68  32  65  1   
 69  33  66  1   
@<TRIPOS>SUBSTRUCTURE
  1 ****  15 GROUP 4 **** **** 0

# MOE 2024.06 (io_trps.svl 2023.06)
