@<TRIPOS>MOLECULE
NONAME
43 45 1 0 0 
SMALL
USER_CHARGES


@<TRIPOS>ATOM
  1 CL      -0.7420    -1.2410     0.5350 Cl    1 <1>  -0.1770 
  2 C       -2.2680    -0.5620     0.0310 C.ar  1 <1>   0.1770 
  3 C       -2.3390     0.4170    -0.9520 C.ar  1 <1>  -0.0090 
  4 C       -3.4010    -1.0440     0.6600 C.ar  1 <1>  -0.1500 
  5 S       -0.8550     1.0450    -1.7720 S.o2  1 <1>   1.4470 
  6 C       -3.6000     0.9040    -1.2820 C.ar  1 <1>  -0.1500 
  7 C       -4.6330    -0.5350     0.3070 C.ar  1 <1>   0.1770 
  8 O       -0.0950    -0.0640    -2.3050 O.2   1 <1>  -0.6500 
  9 O       -1.2390     2.1200    -2.6610 O.2   1 <1>  -0.6500 
 10 N        0.0190     1.7400    -0.4930 N.am  1 <1>  -0.8490 
 11 C       -4.7650     0.4520    -0.6650 C.ar  1 <1>   0.0860 
 12 CL      -6.0420    -1.1630     1.1220 Cl    1 <1>  -0.1770 
 13 C       -0.1380     3.2010    -0.3960 C.3   1 <1>   0.1960 
 14 C        1.4510     1.3970    -0.5290 C.3   1 <1>   0.1960 
 15 C       -6.0510     0.9900    -1.0390 C.2   1 <1>   0.5440 
 16 C        0.6480     3.7640     0.8020 C.3   1 <1>   0.1200 
 17 C        2.2040     2.0180     0.6630 C.3   1 <1>   0.1200 
 18 O       -6.5670     0.5850    -2.0610 O.2   1 <1>  -0.5700 
 19 N       -6.6830     1.9670    -0.2970 N.am  1 <1>  -0.6600 
 20 O        1.9960     3.4010     0.7150 O.3   1 <1>  -0.5600 
 21 C       -8.0060     2.5310    -0.7180 C.3   1 <1>   0.1400 
 22 C       -6.1430     2.5470     0.9720 C.3   1 <1>   0.1400 
 23 C       -9.1080     2.1480     0.2740 C.3   1 <1>   0.0700 
 24 C       -7.0260     2.1830     2.1730 C.3   1 <1>   0.0700 
 25 S       -8.6970     2.8340     1.9060 S.3   1 <1>  -0.4600 
 26 H       -3.3210    -1.8070     1.4130 H     1 <1>   0.1500 
 27 H       -3.6930     1.6580    -2.0490 H     1 <1>   0.1500 
 28 H       -1.1790     3.4470    -0.2840 H     1 <1>   0.0800 
 29 H        0.2210     3.6730    -1.2960 H     1 <1>   0.0800 
 30 H        1.8920     1.7460    -1.4480 H     1 <1>   0.0800 
 31 H        1.5700     0.3270    -0.4880 H     1 <1>   0.0800 
 32 H        0.2490     3.3880     1.7280 H     1 <1>   0.0800 
 33 H        0.5970     4.8380     0.8100 H     1 <1>   0.0800 
 34 H        3.2610     1.8470     0.5650 H     1 <1>   0.0800 
 35 H        1.8670     1.5830     1.5880 H     1 <1>   0.0800 
 36 H       -8.2780     2.1700    -1.6950 H     1 <1>   0.0800 
 37 H       -7.9330     3.6020    -0.7780 H     1 <1>   0.0800 
 38 H       -6.1030     3.6190     0.8780 H     1 <1>   0.0800 
 39 H       -5.1440     2.1990     1.1550 H     1 <1>   0.0800 
 40 H       -9.1890     1.0810     0.3730 H     1 <1>   0.0800 
 41 H      -10.0560     2.5630    -0.0160 H     1 <1>   0.0800 
 42 H       -6.6560     2.6270     3.0800 H     1 <1>   0.0800 
 43 H       -7.1080     1.1180     2.2960 H     1 <1>   0.0800 
@<TRIPOS>BOND
  1   1   2  1   
  2   2   3  ar  
  3   2   4  ar  
  4   3   5  1   
  5   3   6  ar  
  6   4   7  ar  
  7   4  26  1   
  8   5   8  2   
  9   5   9  2   
 10   5  10  am  
 11   6  11  ar  
 12   6  27  1   
 13   7  11  ar  
 14   7  12  1   
 15  10  13  1   
 16  10  14  1   
 17  11  15  1   
 18  13  16  1   
 19  13  28  1   
 20  13  29  1   
 21  14  17  1   
 22  14  30  1   
 23  14  31  1   
 24  15  18  2   
 25  15  19  am  
 26  16  20  1   
 27  16  32  1   
 28  16  33  1   
 29  17  20  1   
 30  17  34  1   
 31  17  35  1   
 32  19  21  1   
 33  19  22  1   
 34  21  23  1   
 35  21  36  1   
 36  21  37  1   
 37  22  24  1   
 38  22  38  1   
 39  22  39  1   
 40  23  25  1   
 41  23  40  1   
 42  23  41  1   
 43  24  25  1   
 44  24  42  1   
 45  24  43  1   
@<TRIPOS>SUBSTRUCTURE
  1 ****   6 GROUP 4 **** **** 0

# MOE 2024.06 (io_trps.svl 2023.06)
