@<TRIPOS>MOLECULE
NONAME
42 44 1 0 0 
SMALL
USER_CHARGES


@<TRIPOS>ATOM
  1 O       -3.9610     1.3160    -1.9910 O.3   1 <1>  -0.6800 
  2 C       -3.0540     0.9880    -1.0020 C.3   1 <1>   0.2000 
  3 C       -2.4490     2.2130    -0.3720 C.3   1 <1>  -0.0800 
  4 C       -3.6430     0.2700     0.2400 C.3   1 <1>  -0.0800 
  5 C       -1.3010     1.6340     0.5580 C.3   1 <1>   0.4230 
  6 C       -3.6060     3.0020     0.3700 C.3   1 <1>  -0.1600 
  7 C       -2.5840    -0.7570     0.6150 C.3   1 <1>  -0.1600 
  8 C       -5.0820     0.7300     0.4450 C.3   1 <1>  -0.1600 
  9 N        0.0450     2.1590     0.1810 N.4   1 <1>  -0.9590 
 10 C       -1.2210     0.0460     0.7080 C.3   1 <1>  -0.1600 
 11 C       -5.0330     2.3070     0.4740 C.3   1 <1>  -0.1600 
 12 C        0.1750     3.6160     0.5120 C.3   1 <1>   0.3430 
 13 C        0.4520     1.8770    -1.2290 C.3   1 <1>   0.3430 
 14 C        1.4200     4.2440    -0.1350 C.3   1 <1>  -0.1600 
 15 C        1.9630     2.1060    -1.3710 C.3   1 <1>  -0.1600 
 16 C        2.5130     3.2140    -0.4530 C.3   1 <1>  -0.1600 
 17 H       -4.7670     1.6780    -1.5750 H     1 <1>   0.4000 
 18 H       -2.3050     0.4000    -1.5070 H     1 <1>   0.0800 
 19 H       -2.0430     2.8330    -1.1500 H     1 <1>   0.0800 
 20 H       -3.4170     0.7560     1.1730 H     1 <1>   0.0800 
 21 H       -1.5210     2.0000     1.5480 H     1 <1>   0.0800 
 22 H       -3.2790     3.2350     1.3680 H     1 <1>   0.0800 
 23 H       -3.7440     3.9490    -0.1250 H     1 <1>   0.0800 
 24 H       -2.8210    -1.2200     1.5600 H     1 <1>   0.0800 
 25 H       -2.5310    -1.5330    -0.1310 H     1 <1>   0.0800 
 26 H       -5.4690     0.3530     1.3780 H     1 <1>   0.0800 
 27 H       -5.7230     0.3650    -0.3410 H     1 <1>   0.0800 
 28 H        0.7340     1.6710     0.7670 H     1 <1>   0.4500 
 29 H       -0.7630    -0.1810     1.6540 H     1 <1>   0.0800 
 30 H       -0.5770    -0.3580    -0.0520 H     1 <1>   0.0800 
 31 H       -5.6420     2.6700    -0.3370 H     1 <1>   0.0800 
 32 H       -5.5170     2.6500     1.3730 H     1 <1>   0.0800 
 33 H        0.2400     3.7290     1.5820 H     1 <1>   0.0800 
 34 H       -0.6970     4.1540     0.1770 H     1 <1>   0.0800 
 35 H       -0.0730     2.5440    -1.8940 H     1 <1>   0.0800 
 36 H        0.2120     0.8650    -1.5110 H     1 <1>   0.0800 
 37 H        1.8110     5.0060     0.5180 H     1 <1>   0.0800 
 38 H        1.1250     4.7370    -1.0460 H     1 <1>   0.0800 
 39 H        2.1600     2.3630    -2.3980 H     1 <1>   0.0800 
 40 H        2.4870     1.1860    -1.1760 H     1 <1>   0.0800 
 41 H        2.8660     2.7790     0.4670 H     1 <1>   0.0800 
 42 H        3.3550     3.6960    -0.9240 H     1 <1>   0.0800 
@<TRIPOS>BOND
  1   1   2  1   
  2   1  17  1   
  3   2   3  1   
  4   2   4  1   
  5   2  18  1   
  6   3   5  1   
  7   3   6  1   
  8   3  19  1   
  9   4   7  1   
 10   4   8  1   
 11   4  20  1   
 12   5   9  1   
 13   5  10  1   
 14   5  21  1   
 15   6  11  1   
 16   6  22  1   
 17   6  23  1   
 18   7  10  1   
 19   7  24  1   
 20   7  25  1   
 21   8  11  1   
 22   8  26  1   
 23   8  27  1   
 24   9  12  1   
 25   9  13  1   
 26   9  28  1   
 27  10  29  1   
 28  10  30  1   
 29  11  31  1   
 30  11  32  1   
 31  12  14  1   
 32  12  33  1   
 33  12  34  1   
 34  13  15  1   
 35  13  35  1   
 36  13  36  1   
 37  14  16  1   
 38  14  37  1   
 39  14  38  1   
 40  15  16  1   
 41  15  39  1   
 42  15  40  1   
 43  16  41  1   
 44  16  42  1   
@<TRIPOS>SUBSTRUCTURE
  1 ****   5 GROUP 4 **** **** 0

# MOE 2024.06 (io_trps.svl 2023.06)
