@<TRIPOS>MOLECULE
NONAME
34 37 1 0 0 
SMALL
USER_CHARGES


@<TRIPOS>ATOM
  1 BR      -2.4940     0.2480    -1.9460 Br    1 <1>  -0.1110 
  2 C       -1.8870    -1.5700    -1.7050 C.ar  1 <1>   0.1110 
  3 C       -2.4700    -2.3490    -0.7070 C.ar  1 <1>   0.1170 
  4 C       -0.8910    -2.0330    -2.5420 C.ar  1 <1>  -0.1500 
  5 N       -3.4770    -1.8020     0.1080 N.am  1 <1>  -0.5470 
  6 C       -1.9990    -3.6510    -0.5730 C.ar  1 <1>  -0.1500 
  7 C       -0.4440    -3.3340    -2.3860 C.ar  1 <1>  -0.1500 
  8 C       -4.4510    -2.3820     0.8650 C.2   1 <1>   0.6300 
  9 C       -1.0000    -4.1380    -1.4020 C.ar  1 <1>  -0.1500 
 10 O       -4.5670    -3.5730     1.0230 O.2   1 <1>  -0.5700 
 11 C       -5.3970    -1.4340     1.5850 C.3   1 <1>  -0.1000 
 12 C       -6.8960    -1.4400     1.5170 C.3   1 <1>  -0.1950 
 13 C       -6.1120    -0.2810     0.9340 C.3   1 <1>  -0.1950 
 14 C       -7.9150    -1.7820     0.4120 C.3   1 <1>   0.0150 
 15 C       -6.7720    -0.0670    -0.4480 C.3   1 <1>   0.0150 
 16 C       -8.2190    -0.3880    -0.1110 C.3   1 <1>  -0.1600 
 17 C       -7.2220    -2.4070    -0.8090 C.3   1 <1>  -0.1600 
 18 C       -6.4560    -1.2170    -1.4180 C.3   1 <1>  -0.1600 
 19 H       -0.4740    -1.3920    -3.2980 H     1 <1>   0.1500 
 20 H       -3.5800    -0.7910     0.0300 H     1 <1>   0.3700 
 21 H       -2.4080    -4.2960     0.1840 H     1 <1>   0.1500 
 22 H        0.3310    -3.7210    -3.0250 H     1 <1>   0.1500 
 23 H       -0.6540    -5.1500    -1.2790 H     1 <1>   0.1500 
 24 H       -4.9950    -1.2490     2.5640 H     1 <1>   0.1000 
 25 H       -7.3970    -1.2730     2.4560 H     1 <1>   0.1000 
 26 H       -6.1130     0.6370     1.4980 H     1 <1>   0.1000 
 27 H       -8.7720    -2.3310     0.7640 H     1 <1>   0.0800 
 28 H       -6.6170     0.9150    -0.8610 H     1 <1>   0.0800 
 29 H       -8.6260     0.2620     0.6460 H     1 <1>   0.0800 
 30 H       -8.8620    -0.3960    -0.9760 H     1 <1>   0.0800 
 31 H       -7.9580    -2.7660    -1.5060 H     1 <1>   0.0800 
 32 H       -6.5840    -3.2260    -0.5350 H     1 <1>   0.0800 
 33 H       -5.4060    -1.4030    -1.5260 H     1 <1>   0.0800 
 34 H       -6.8550    -0.9900    -2.3910 H     1 <1>   0.0800 
@<TRIPOS>BOND
  1   1   2  1   
  2   2   3  ar  
  3   2   4  ar  
  4   3   5  1   
  5   3   6  ar  
  6   4   7  ar  
  7   4  19  1   
  8   5   8  am  
  9   5  20  1   
 10   6   9  ar  
 11   6  21  1   
 12   7   9  ar  
 13   7  22  1   
 14   8  10  2   
 15   8  11  1   
 16   9  23  1   
 17  11  12  1   
 18  11  13  1   
 19  11  24  1   
 20  12  13  1   
 21  12  14  1   
 22  12  25  1   
 23  13  15  1   
 24  13  26  1   
 25  14  16  1   
 26  14  17  1   
 27  14  27  1   
 28  15  16  1   
 29  15  18  1   
 30  15  28  1   
 31  16  29  1   
 32  16  30  1   
 33  17  18  1   
 34  17  31  1   
 35  17  32  1   
 36  18  33  1   
 37  18  34  1   
@<TRIPOS>SUBSTRUCTURE
  1 ****   5 GROUP 4 **** **** 0

# MOE 2024.06 (io_trps.svl 2023.06)
