@<TRIPOS>MOLECULE
NONAME
41 43 1 0 0 
SMALL
USER_CHARGES


@<TRIPOS>ATOM
  1 S       -1.2750     0.6430    -1.2510 S.o2  1 <1>   1.3330 
  2 O       -2.3390     1.1170    -0.4020 O.2   1 <1>  -0.6500 
  3 O       -1.0830     1.1520    -2.5840 O.2   1 <1>  -0.6500 
  4 N       -1.4480    -1.0550    -1.4190 N.am  1 <1>  -0.7570 
  5 C        0.2680     0.7550    -0.3720 C.3   1 <1>  -0.1350 
  6 C       -1.6620    -1.9380    -0.3740 C.ar  1 <1>   0.1990 
  7 C       -0.6950    -2.8930    -0.0050 C.ar  1 <1>   0.0860 
  8 C       -2.8690    -1.8790     0.3150 C.ar  1 <1>  -0.1500 
  9 C        0.6040    -2.9450    -0.6460 C.2   1 <1>   0.5440 
 10 C       -1.0130    -3.7800     1.0280 C.ar  1 <1>  -0.1500 
 11 C       -3.1500    -2.7530     1.3440 C.ar  1 <1>  -0.1500 
 12 O        0.7550    -2.6210    -1.8110 O.2   1 <1>  -0.5700 
 13 N        1.7090    -3.3230     0.0630 N.am  1 <1>  -0.7300 
 14 C       -2.2190    -3.7140     1.6980 C.ar  1 <1>  -0.1500 
 15 C        3.0830    -3.4250    -0.4690 C.3   1 <1>   0.2200 
 16 C        3.7050    -4.7720    -0.0590 C.3   1 <1>  -0.0800 
 17 C        3.9960    -2.4020     0.2310 C.3   1 <1>  -0.1600 
 18 C        4.2110    -4.4840     1.3490 C.3   1 <1>  -0.1600 
 19 C        5.0300    -4.9310    -0.8240 C.3   1 <1>  -0.1600 
 20 C        5.0440    -3.2830     0.9350 C.3   1 <1>  -0.0800 
 21 C        5.9500    -3.9030    -0.1420 C.3   1 <1>  -0.1600 
 22 H       -0.7790    -1.3870    -2.1230 H     1 <1>   0.4200 
 23 H        0.5310     1.7840    -0.2250 H     1 <1>   0.0800 
 24 H        1.0480     0.2760    -0.9300 H     1 <1>   0.0800 
 25 H        0.1840     0.2820     0.5860 H     1 <1>   0.0800 
 26 H       -3.5960    -1.1370     0.0300 H     1 <1>   0.1500 
 27 H       -0.3080    -4.5410     1.3120 H     1 <1>   0.1500 
 28 H       -4.0910    -2.6920     1.8650 H     1 <1>   0.1500 
 29 H        1.6290    -3.5360     1.0560 H     1 <1>   0.3700 
 30 H       -2.4410    -4.4050     2.4940 H     1 <1>   0.1500 
 31 H        3.0900    -3.3000    -1.5400 H     1 <1>   0.0800 
 32 H        3.0430    -5.6130    -0.1650 H     1 <1>   0.0800 
 33 H        3.4510    -1.8180     0.9510 H     1 <1>   0.0800 
 34 H        4.4550    -1.7420    -0.4830 H     1 <1>   0.0800 
 35 H        4.8080    -5.2870     1.7490 H     1 <1>   0.0800 
 36 H        3.4280    -4.2280     2.0410 H     1 <1>   0.0800 
 37 H        4.9150    -4.7360    -1.8760 H     1 <1>   0.0800 
 38 H        5.4210    -5.9260    -0.6910 H     1 <1>   0.0800 
 39 H        5.5770    -2.7900     1.7300 H     1 <1>   0.0800 
 40 H        6.3180    -3.1660    -0.8350 H     1 <1>   0.0800 
 41 H        6.7880    -4.4010     0.3170 H     1 <1>   0.0800 
@<TRIPOS>BOND
  1   1   2  2   
  2   1   3  2   
  3   1   4  am  
  4   1   5  1   
  5   4   6  1   
  6   4  22  1   
  7   5  23  1   
  8   5  24  1   
  9   5  25  1   
 10   6   7  ar  
 11   6   8  ar  
 12   7   9  1   
 13   7  10  ar  
 14   8  11  ar  
 15   8  26  1   
 16   9  12  2   
 17   9  13  am  
 18  10  14  ar  
 19  10  27  1   
 20  11  14  ar  
 21  11  28  1   
 22  13  15  1   
 23  13  29  1   
 24  14  30  1   
 25  15  16  1   
 26  15  17  1   
 27  15  31  1   
 28  16  18  1   
 29  16  19  1   
 30  16  32  1   
 31  17  20  1   
 32  17  33  1   
 33  17  34  1   
 34  18  20  1   
 35  18  35  1   
 36  18  36  1   
 37  19  21  1   
 38  19  37  1   
 39  19  38  1   
 40  20  21  1   
 41  20  39  1   
 42  21  40  1   
 43  21  41  1   
@<TRIPOS>SUBSTRUCTURE
  1 ****   9 GROUP 4 **** **** 0

# MOE 2024.06 (io_trps.svl 2023.06)
