@<TRIPOS>MOLECULE
NONAME
55 58 1 0 0 
SMALL
USER_CHARGES


@<TRIPOS>ATOM
  1 O       -0.4770     0.7240    -1.1200 O.2   1 <1>  -0.5700 
  2 C       -0.2420    -0.0330    -0.2080 C.2   1 <1>   0.4950 
  3 C        0.9950    -0.7090    -0.0020 C.2   1 <1>  -0.1240 
  4 C       -1.3710    -0.3220     0.7660 C.3   1 <1>  -0.0990 
  5 C        1.1330    -1.7500     0.8610 C.2   1 <1>  -0.0380 
  6 C        2.1990    -0.2260    -0.8220 C.3   1 <1>   0.3400 
  7 C       -1.3830    -1.8030     1.1770 C.3   1 <1>  -0.1600 
  8 N        2.3190    -2.4290     1.0020 N.pl3 1 <1>  -0.6000 
  9 C       -0.0180    -2.2450     1.7260 C.3   1 <1>  -0.0220 
 10 C        3.4510    -1.0790    -0.6070 C.2   1 <1>  -0.1240 
 11 C        2.5080     1.2600    -0.5510 C.ar  1 <1>  -0.1440 
 12 C        3.4430    -2.1150     0.2720 C.2   1 <1>  -0.0380 
 13 C        4.5730    -0.6210    -1.3530 C.2   1 <1>   0.6160 
 14 C        3.1370     1.7110     0.6140 C.ar  1 <1>   0.0820 
 15 C        2.1610     2.1890    -1.5230 C.ar  1 <1>  -0.1500 
 16 C        4.6360    -3.0120     0.5550 C.3   1 <1>  -0.1020 
 17 O        4.6040    -0.7010    -2.5670 O.2   1 <1>  -0.5700 
 18 N        5.5990    -0.0610    -0.6470 N.am  1 <1>  -0.5470 
 19 O        3.4970     0.8000     1.5550 O.3   1 <1>  -0.3620 
 20 C        3.3960     3.0710     0.7790 C.ar  1 <1>  -0.1500 
 21 C        2.4230     3.5360    -1.3540 C.ar  1 <1>  -0.1500 
 22 C        6.8120     0.4910    -0.9750 C.ar  1 <1>   0.4270 
 23 C        4.3760     1.1250     2.6100 C.3   1 <1>   0.0400 
 24 C        3.0410     3.9780    -0.2010 C.ar  1 <1>  -0.1500 
 25 N        7.4040     1.0740     0.0590 N.ar  1 <1>  -0.6200 
 26 C        7.3740     0.4400    -2.2490 C.ar  1 <1>  -0.1500 
 27 C        8.5800     1.6300    -0.1750 C.ar  1 <1>   0.1670 
 28 C        8.5990     1.0190    -2.4830 C.ar  1 <1>  -0.1500 
 29 C        9.2110     1.6300    -1.4080 C.ar  1 <1>  -0.1500 
 30 C        9.2400     2.2960     1.0130 C.3   1 <1>  -0.0970 
 31 H       -2.3090    -0.0670     0.3060 H     1 <1>   0.0800 
 32 H       -1.2400     0.3020     1.6300 H     1 <1>   0.0800 
 33 H        1.9310    -0.3370    -1.8590 H     1 <1>   0.0800 
 34 H       -1.6160    -2.3980     0.3100 H     1 <1>   0.0800 
 35 H       -2.1490    -1.9760     1.9140 H     1 <1>   0.0800 
 36 H        2.3740    -3.2030     1.6730 H     1 <1>   0.4000 
 37 H        0.1150    -1.8580     2.7210 H     1 <1>   0.0800 
 38 H        0.0000    -3.3190     1.7800 H     1 <1>   0.0800 
 39 H        1.6710     1.8690    -2.4270 H     1 <1>   0.1500 
 40 H        4.3630    -4.0400     0.4000 H     1 <1>   0.0800 
 41 H        4.9550    -2.8840     1.5730 H     1 <1>   0.0800 
 42 H        5.4650    -2.7900    -0.0920 H     1 <1>   0.0800 
 43 H        5.3500     0.1350     0.3200 H     1 <1>   0.3700 
 44 H        3.8730     3.4450     1.6640 H     1 <1>   0.1500 
 45 H        2.1420     4.2370    -2.1200 H     1 <1>   0.1500 
 46 H        3.8890     1.8230     3.2670 H     1 <1>   0.0800 
 47 H        5.2780     1.5440     2.2000 H     1 <1>   0.0800 
 48 H        4.6020     0.2200     3.1450 H     1 <1>   0.0800 
 49 H        3.2450     5.0260    -0.0680 H     1 <1>   0.1500 
 50 H        6.8550    -0.0490    -3.0500 H     1 <1>   0.1500 
 51 H        9.0560     0.9970    -3.4570 H     1 <1>   0.1500 
 52 H       10.1700     2.0990    -1.5350 H     1 <1>   0.1500 
 53 H        8.6000     3.0730     1.3880 H     1 <1>   0.0800 
 54 H       10.1870     2.7250     0.7430 H     1 <1>   0.0800 
 55 H        9.3960     1.5700     1.7900 H     1 <1>   0.0800 
@<TRIPOS>BOND
  1   1   2  2   
  2   2   3  1   
  3   2   4  1   
  4   3   5  2   
  5   3   6  1   
  6   4   7  1   
  7   4  31  1   
  8   4  32  1   
  9   5   8  1   
 10   5   9  1   
 11   6  10  1   
 12   6  11  1   
 13   6  33  1   
 14   7   9  1   
 15   7  34  1   
 16   7  35  1   
 17   8  12  1   
 18   8  36  1   
 19   9  37  1   
 20   9  38  1   
 21  10  12  2   
 22  10  13  1   
 23  11  14  ar  
 24  11  15  ar  
 25  12  16  1   
 26  13  17  2   
 27  13  18  am  
 28  14  19  1   
 29  14  20  ar  
 30  15  21  ar  
 31  15  39  1   
 32  16  40  1   
 33  16  41  1   
 34  16  42  1   
 35  18  22  1   
 36  18  43  1   
 37  19  23  1   
 38  20  24  ar  
 39  20  44  1   
 40  21  24  ar  
 41  21  45  1   
 42  22  25  ar  
 43  22  26  ar  
 44  23  46  1   
 45  23  47  1   
 46  23  48  1   
 47  24  49  1   
 48  25  27  ar  
 49  26  28  ar  
 50  26  50  1   
 51  27  29  ar  
 52  27  30  1   
 53  28  29  ar  
 54  28  51  1   
 55  29  52  1   
 56  30  53  1   
 57  30  54  1   
 58  30  55  1   
@<TRIPOS>SUBSTRUCTURE
  1 ****  10 GROUP 4 **** **** 0

# MOE 2024.06 (io_trps.svl 2023.06)
