@<TRIPOS>MOLECULE
NONAME
50 51 1 0 0 
SMALL
USER_CHARGES


@<TRIPOS>ATOM
  1 O       -2.0240     0.1960    -1.3570 O.2   1 <1>  -0.5700 
  2 C       -2.8030     0.2580    -0.4250 C.2   1 <1>   0.7800 
  3 O       -3.3110    -0.8440     0.1280 O.3   1 <1>  -0.4300 
  4 N       -3.1980     1.4520     0.1040 N.am  1 <1>  -0.6600 
  5 C       -3.0400    -2.1830    -0.2240 C.3   1 <1>   0.2800 
  6 C       -2.7970     2.7800    -0.4710 C.3   1 <1>   0.2810 
  7 C       -4.4040     1.5870     0.9540 C.3   1 <1>   0.1400 
  8 C       -3.8780    -3.0260     0.7390 C.3   1 <1>  -0.2400 
  9 C       -3.4950    -2.4570    -1.6620 C.3   1 <1>  -0.2400 
 10 C       -1.5550    -2.4970    -0.0080 C.3   1 <1>  -0.2400 
 11 C       -1.3130     3.1750    -0.2450 C.2   1 <1>   0.5690 
 12 C       -3.8100     3.7780     0.1210 C.3   1 <1>  -0.1600 
 13 C       -4.9960     2.9370     0.5660 C.3   1 <1>   0.2000 
 14 O       -1.0460     4.2600     0.2210 O.2   1 <1>  -0.5700 
 15 N       -0.3400     2.2930    -0.6070 N.am  1 <1>  -0.7300 
 16 O       -5.6190     3.5370     1.6450 O.3   1 <1>  -0.6800 
 17 C        1.1260     2.4060    -0.4780 C.3   1 <1>   0.2200 
 18 C        1.5370     2.5260     0.9940 C.3   1 <1>  -0.1600 
 19 C        1.6630     3.5730    -1.3160 C.3   1 <1>  -0.1600 
 20 C        3.0630     2.6430     1.1300 C.3   1 <1>  -0.1600 
 21 C        3.1890     3.6890    -1.1800 C.3   1 <1>  -0.1600 
 22 C        3.6050     3.8100     0.2930 C.3   1 <1>  -0.1600 
 23 H       -2.9530     2.7330    -1.5350 H     1 <1>   0.0800 
 24 H       -4.1040     1.5790     1.9880 H     1 <1>   0.0800 
 25 H       -5.1080     0.7940     0.7650 H     1 <1>   0.0800 
 26 H       -4.9230    -2.8010     0.6200 H     1 <1>   0.0800 
 27 H       -3.5900    -2.8270     1.7560 H     1 <1>   0.0800 
 28 H       -3.7330    -4.0730     0.5440 H     1 <1>   0.0800 
 29 H       -2.8800    -1.9340    -2.3710 H     1 <1>   0.0800 
 30 H       -4.5190    -2.1600    -1.7940 H     1 <1>   0.0800 
 31 H       -3.4150    -3.5060    -1.8780 H     1 <1>   0.0800 
 32 H       -0.9400    -1.9780    -0.7200 H     1 <1>   0.0800 
 33 H       -1.3810    -3.5500    -0.1380 H     1 <1>   0.0800 
 34 H       -1.2550    -2.2230     0.9870 H     1 <1>   0.0800 
 35 H       -4.0910     4.5170    -0.6070 H     1 <1>   0.0800 
 36 H       -3.3780     4.2720     0.9730 H     1 <1>   0.0800 
 37 H       -5.7160     2.8160    -0.2260 H     1 <1>   0.0800 
 38 H       -0.6610     1.3930    -0.9930 H     1 <1>   0.3700 
 39 H       -4.9590     3.7970     2.3170 H     1 <1>   0.4000 
 40 H        1.5550     1.4970    -0.8670 H     1 <1>   0.0800 
 41 H        1.1920     1.6640     1.5360 H     1 <1>   0.0800 
 42 H        1.0840     3.4020     1.4240 H     1 <1>   0.0800 
 43 H        1.2170     4.4930    -0.9830 H     1 <1>   0.0800 
 44 H        1.4040     3.4230    -2.3490 H     1 <1>   0.0800 
 45 H        3.5220     1.7260     0.8040 H     1 <1>   0.0800 
 46 H        3.3210     2.7910     2.1650 H     1 <1>   0.0800 
 47 H        3.5330     4.5520    -1.7230 H     1 <1>   0.0800 
 48 H        3.6540     2.8190    -1.6120 H     1 <1>   0.0800 
 49 H        4.6780     3.8380     0.3640 H     1 <1>   0.0800 
 50 H        3.2250     4.7360     0.6920 H     1 <1>   0.0800 
@<TRIPOS>BOND
  1   1   2  2   
  2   2   3  1   
  3   2   4  am  
  4   3   5  1   
  5   4   6  1   
  6   4   7  1   
  7   5   8  1   
  8   5   9  1   
  9   5  10  1   
 10   6  11  1   
 11   6  12  1   
 12   6  23  1   
 13   7  13  1   
 14   7  24  1   
 15   7  25  1   
 16   8  26  1   
 17   8  27  1   
 18   8  28  1   
 19   9  29  1   
 20   9  30  1   
 21   9  31  1   
 22  10  32  1   
 23  10  33  1   
 24  10  34  1   
 25  11  14  2   
 26  11  15  am  
 27  12  13  1   
 28  12  35  1   
 29  12  36  1   
 30  13  16  1   
 31  13  37  1   
 32  15  17  1   
 33  15  38  1   
 34  16  39  1   
 35  17  18  1   
 36  17  19  1   
 37  17  40  1   
 38  18  20  1   
 39  18  41  1   
 40  18  42  1   
 41  19  21  1   
 42  19  43  1   
 43  19  44  1   
 44  20  22  1   
 45  20  45  1   
 46  20  46  1   
 47  21  22  1   
 48  21  47  1   
 49  21  48  1   
 50  22  49  1   
 51  22  50  1   
@<TRIPOS>SUBSTRUCTURE
  1 ****  15 GROUP 4 **** **** 0

# MOE 2024.06 (io_trps.svl 2023.06)
