@<TRIPOS>MOLECULE
NONAME
38 40 1 0 0 
SMALL
USER_CHARGES


@<TRIPOS>ATOM
  1 BR       2.0690    -1.9720     1.2580 Br    1 <1>  -0.1110 
  2 C        0.4530    -2.6370     0.4380 C.ar  1 <1>   0.1110 
  3 C        0.0860    -2.2030    -0.8300 C.ar  1 <1>   0.0820 
  4 C       -0.3070    -3.5460     1.1480 C.ar  1 <1>  -0.1500 
  5 O        0.8340    -1.3190    -1.5260 O.3   1 <1>  -0.3630 
  6 C       -1.0720    -2.7100    -1.3970 C.ar  1 <1>  -0.1500 
  7 C       -1.4690    -4.0460     0.5760 C.ar  1 <1>  -0.1430 
  8 C        0.5670     0.0430    -1.2810 C.3   1 <1>   0.0400 
  9 C       -1.8440    -3.6220    -0.6940 C.ar  1 <1>  -0.1500 
 10 C       -2.3330    -5.0470     1.3240 C.3   1 <1>   0.3530 
 11 N       -3.5090    -4.3270     1.8470 N.pl3 1 <1>  -0.8690 
 12 C       -4.7390    -4.6240     1.2770 C.ar  1 <1>   0.1000 
 13 C       -5.4330    -3.6450     0.5750 C.ar  1 <1>  -0.1500 
 14 C       -5.2930    -5.8970     1.3930 C.ar  1 <1>  -0.1500 
 15 C       -6.6480    -3.9530    -0.0060 C.ar  1 <1>  -0.1430 
 16 C       -6.5110    -6.2000     0.8090 C.ar  1 <1>  -0.1500 
 17 C       -7.1800    -5.2140     0.1070 C.ar  1 <1>  -0.1430 
 18 C       -7.5500    -3.0480    -0.8060 C.3   1 <1>  -0.0170 
 19 C       -8.5060    -5.3150    -0.6030 C.3   1 <1>  -0.0170 
 20 C       -8.8600    -3.8490    -0.9090 C.3   1 <1>  -0.1600 
 21 H        0.0080    -3.8520     2.1300 H     1 <1>   0.1500 
 22 H       -1.3620    -2.3910    -2.3810 H     1 <1>   0.1500 
 23 H        1.2260     0.6300    -1.8950 H     1 <1>   0.0800 
 24 H        0.7480     0.2540    -0.2410 H     1 <1>   0.0800 
 25 H       -0.4580     0.2480    -1.5340 H     1 <1>   0.0800 
 26 H       -2.7480    -4.0060    -1.1390 H     1 <1>   0.1500 
 27 H       -1.7890    -5.4810     2.1450 H     1 <1>   0.0800 
 28 H       -2.6380    -5.8380     0.6600 H     1 <1>   0.0800 
 29 H       -3.3020    -3.3240     1.8390 H     1 <1>   0.4000 
 30 H       -5.0230    -2.6570     0.4850 H     1 <1>   0.1500 
 31 H       -4.7640    -6.6460     1.9520 H     1 <1>   0.1500 
 32 H       -6.9330    -7.1850     0.9010 H     1 <1>   0.1500 
 33 H       -7.1240    -2.8880    -1.7800 H     1 <1>   0.0800 
 34 H       -7.7020    -2.1040    -0.3120 H     1 <1>   0.0800 
 35 H       -9.2510    -5.7810     0.0170 H     1 <1>   0.0800 
 36 H       -8.3820    -5.8750    -1.5130 H     1 <1>   0.0800 
 37 H       -9.3200    -3.7420    -1.8750 H     1 <1>   0.0800 
 38 H       -9.5410    -3.4950    -0.1550 H     1 <1>   0.0800 
@<TRIPOS>BOND
  1   1   2  1   
  2   2   3  ar  
  3   2   4  ar  
  4   3   5  1   
  5   3   6  ar  
  6   4   7  ar  
  7   4  21  1   
  8   5   8  1   
  9   6   9  ar  
 10   6  22  1   
 11   7   9  ar  
 12   7  10  1   
 13   8  23  1   
 14   8  24  1   
 15   8  25  1   
 16   9  26  1   
 17  10  11  1   
 18  10  27  1   
 19  10  28  1   
 20  11  12  1   
 21  11  29  1   
 22  12  13  ar  
 23  12  14  ar  
 24  13  15  ar  
 25  13  30  1   
 26  14  16  ar  
 27  14  31  1   
 28  15  17  ar  
 29  15  18  1   
 30  16  17  ar  
 31  16  32  1   
 32  17  19  1   
 33  18  20  1   
 34  18  33  1   
 35  18  34  1   
 36  19  20  1   
 37  19  35  1   
 38  19  36  1   
 39  20  37  1   
 40  20  38  1   
@<TRIPOS>SUBSTRUCTURE
  1 ****   9 GROUP 4 **** **** 0

# MOE 2024.06 (io_trps.svl 2023.06)
