@<TRIPOS>MOLECULE
NONAME
57 58 1 0 0 
SMALL
USER_CHARGES


@<TRIPOS>ATOM
  1 O       -5.2400    -8.4360     0.5870 O.3   1 <1>  -0.3630 
  2 C       -6.5780    -8.6600     0.5730 C.ar  1 <1>   0.0830 
  3 C       -4.5560    -7.8900    -0.5280 C.3   1 <1>   0.1200 
  4 C       -7.2030    -8.8000     1.7980 C.ar  1 <1>  -0.1500 
  5 C       -7.3400    -8.7500    -0.5860 C.ar  1 <1>  -0.1500 
  6 C       -4.9870    -6.4330    -0.7490 C.3   1 <1>   0.2000 
  7 C       -8.5680    -9.0090     1.8710 C.ar  1 <1>  -0.1500 
  8 C       -8.7060    -8.9590    -0.5060 C.ar  1 <1>  -0.1500 
  9 O       -4.1630    -5.8520    -1.6920 O.3   1 <1>  -0.6800 
 10 C       -4.8870    -5.5720     0.5250 C.3   1 <1>   0.1100 
 11 C       -9.3500    -9.0910     0.7220 C.ar  1 <1>  -0.1430 
 12 N       -4.8590    -4.1110     0.2260 N.3   1 <1>  -0.8100 
 13 C      -10.8710    -9.3280     0.8560 C.3   1 <1>   0.1430 
 14 C       -6.1880    -3.6250    -0.2320 C.3   1 <1>   0.1100 
 15 C       -4.4280    -3.3500     1.4240 C.3   1 <1>   0.1100 
 16 C      -11.5960    -9.4040    -0.4980 C.3   1 <1>  -0.2400 
 17 C      -11.5010    -8.1780     1.6560 C.3   1 <1>  -0.2400 
 18 C      -11.1220   -10.6560     1.5880 C.3   1 <1>  -0.2400 
 19 C       -6.2020    -2.1000    -0.5070 C.3   1 <1>   0.3430 
 20 C       -4.4580    -1.8160     1.2070 C.3   1 <1>   0.3430 
 21 N       -4.8740    -1.4690    -0.1920 N.4   1 <1>  -0.9590 
 22 C       -4.8120     0.0040    -0.4510 C.3   1 <1>   0.3430 
 23 C       -4.9280     0.3520    -1.9420 C.3   1 <1>   0.1200 
 24 O       -4.8570     1.7280    -2.0590 O.3   1 <1>  -0.6800 
 25 H       -4.7460    -8.4990    -1.3930 H     1 <1>   0.0800 
 26 H       -3.5060    -7.9290    -0.3000 H     1 <1>   0.0800 
 27 H       -6.6150    -8.7450     2.6960 H     1 <1>   0.1500 
 28 H       -6.8910    -8.6680    -1.5570 H     1 <1>   0.1500 
 29 H       -5.9890    -6.4050    -1.1360 H     1 <1>   0.0800 
 30 H       -9.0160    -9.1120     2.8420 H     1 <1>   0.1500 
 31 H       -9.2510    -9.0200    -1.4300 H     1 <1>   0.1500 
 32 H       -4.0390    -4.9250    -1.3870 H     1 <1>   0.4000 
 33 H       -3.9780    -5.8470     1.0340 H     1 <1>   0.0800 
 34 H       -5.7050    -5.8110     1.1850 H     1 <1>   0.0800 
 35 H       -6.9360    -3.8530     0.5090 H     1 <1>   0.0800 
 36 H       -6.4700    -4.1360    -1.1370 H     1 <1>   0.0800 
 37 H       -3.4250    -3.6410     1.6870 H     1 <1>   0.0800 
 38 H       -5.0610    -3.5950     2.2620 H     1 <1>   0.0800 
 39 H      -11.4770    -8.4840    -1.0430 H     1 <1>   0.0800 
 40 H      -12.6490    -9.5710    -0.3550 H     1 <1>   0.0800 
 41 H      -11.2080   -10.2140    -1.0890 H     1 <1>   0.0800 
 42 H      -12.5660    -8.3070     1.7310 H     1 <1>   0.0800 
 43 H      -11.3030    -7.2400     1.1690 H     1 <1>   0.0800 
 44 H      -11.1010    -8.1330     2.6510 H     1 <1>   0.0800 
 45 H      -12.1760   -10.8580     1.6590 H     1 <1>   0.0800 
 46 H      -10.7210   -10.6330     2.5840 H     1 <1>   0.0800 
 47 H      -10.6530   -11.4630     1.0550 H     1 <1>   0.0800 
 48 H       -6.9770    -1.6430     0.0870 H     1 <1>   0.0800 
 49 H       -6.4500    -1.9390    -1.5430 H     1 <1>   0.0800 
 50 H       -3.4780    -1.4170     1.4090 H     1 <1>   0.0800 
 51 H       -5.1420    -1.3740     1.9130 H     1 <1>   0.0800 
 52 H       -4.1950    -1.9710    -0.7840 H     1 <1>   0.4500 
 53 H       -3.8710     0.3890    -0.0940 H     1 <1>   0.0800 
 54 H       -5.6040     0.5000     0.0840 H     1 <1>   0.0800 
 55 H       -5.8730     0.0350    -2.3490 H     1 <1>   0.0800 
 56 H       -4.1130    -0.0730    -2.5030 H     1 <1>   0.0800 
 57 H       -4.8960     2.0180    -2.9950 H     1 <1>   0.4000 
@<TRIPOS>BOND
  1   1   2  1   
  2   1   3  1   
  3   2   4  ar  
  4   2   5  ar  
  5   3   6  1   
  6   3  25  1   
  7   3  26  1   
  8   4   7  ar  
  9   4  27  1   
 10   5   8  ar  
 11   5  28  1   
 12   6   9  1   
 13   6  10  1   
 14   6  29  1   
 15   7  11  ar  
 16   7  30  1   
 17   8  11  ar  
 18   8  31  1   
 19   9  32  1   
 20  10  12  1   
 21  10  33  1   
 22  10  34  1   
 23  11  13  1   
 24  12  14  1   
 25  12  15  1   
 26  13  16  1   
 27  13  17  1   
 28  13  18  1   
 29  14  19  1   
 30  14  35  1   
 31  14  36  1   
 32  15  20  1   
 33  15  37  1   
 34  15  38  1   
 35  16  39  1   
 36  16  40  1   
 37  16  41  1   
 38  17  42  1   
 39  17  43  1   
 40  17  44  1   
 41  18  45  1   
 42  18  46  1   
 43  18  47  1   
 44  19  21  1   
 45  19  48  1   
 46  19  49  1   
 47  20  21  1   
 48  20  50  1   
 49  20  51  1   
 50  21  22  1   
 51  21  52  1   
 52  22  23  1   
 53  22  53  1   
 54  22  54  1   
 55  23  24  1   
 56  23  55  1   
 57  23  56  1   
 58  24  57  1   
@<TRIPOS>SUBSTRUCTURE
  1 ****  10 GROUP 4 **** **** 0

# MOE 2024.06 (io_trps.svl 2023.06)
