@<TRIPOS>MOLECULE
NONAME
32 32 1 0 0 
SMALL
USER_CHARGES


@<TRIPOS>ATOM
  1 CL      -0.2790    -0.8400    -1.2490 Cl    1 <1>  -0.1770 
  2 C        1.4140    -1.2450    -1.1400 C.ar  1 <1>   0.1770 
  3 C        2.1190    -0.9020     0.0010 C.ar  1 <1>  -0.1500 
  4 C        2.0230    -1.9020    -2.1950 C.ar  1 <1>  -0.1500 
  5 C        3.4640    -1.2220     0.0920 C.ar  1 <1>  -0.1500 
  6 C        3.3670    -2.2220    -2.1050 C.ar  1 <1>  -0.1500 
  7 C        4.0770    -1.8810    -0.9660 C.ar  1 <1>   0.1020 
  8 S        5.8200    -2.3350    -0.9310 S.3   1 <1>  -0.3320 
  9 C        6.4920    -1.7490     0.7070 C.3   1 <1>   0.1310 
 10 C        7.9700    -2.0700     0.8740 C.2   1 <1>   0.5690 
 11 O        8.4980    -1.7280     1.9040 O.2   1 <1>  -0.5700 
 12 N        8.6330    -2.7170    -0.1240 N.am  1 <1>  -0.7300 
 13 C       10.0350    -3.1290    -0.1980 C.3   1 <1>   0.3000 
 14 C       10.2160    -3.8140    -1.5520 C.3   1 <1>  -0.2400 
 15 C       10.3410    -4.1200     0.9250 C.3   1 <1>  -0.2400 
 16 C       10.9390    -1.8990    -0.1190 C.3   1 <1>  -0.2400 
 17 H        1.6160    -0.3920     0.8030 H     1 <1>   0.1500 
 18 H        1.4500    -2.1560    -3.0690 H     1 <1>   0.1500 
 19 H        4.0040    -0.9530     0.9790 H     1 <1>   0.1500 
 20 H        3.8630    -2.7330    -2.9120 H     1 <1>   0.1500 
 21 H        5.9270    -2.2380     1.4780 H     1 <1>   0.0800 
 22 H        6.3440    -0.6870     0.7530 H     1 <1>   0.0800 
 23 H        8.0900    -2.9600    -0.9550 H     1 <1>   0.3700 
 24 H        9.5770    -4.6750    -1.6280 H     1 <1>   0.0800 
 25 H       11.2340    -4.1420    -1.6660 H     1 <1>   0.0800 
 26 H        9.9920    -3.1330    -2.3530 H     1 <1>   0.0800 
 27 H       11.3470    -4.4850     0.8340 H     1 <1>   0.0800 
 28 H        9.6680    -4.9570     0.8810 H     1 <1>   0.0800 
 29 H       10.2460    -3.6460     1.8840 H     1 <1>   0.0800 
 30 H       11.9670    -2.1850    -0.2460 H     1 <1>   0.0800 
 31 H       10.8450    -1.4220     0.8400 H     1 <1>   0.0800 
 32 H       10.6820    -1.1930    -0.8870 H     1 <1>   0.0800 
@<TRIPOS>BOND
  1   1   2  1   
  2   2   3  ar  
  3   2   4  ar  
  4   3   5  ar  
  5   3  17  1   
  6   4   6  ar  
  7   4  18  1   
  8   5   7  ar  
  9   5  19  1   
 10   6   7  ar  
 11   6  20  1   
 12   7   8  1   
 13   8   9  1   
 14   9  10  1   
 15   9  21  1   
 16   9  22  1   
 17  10  11  2   
 18  10  12  am  
 19  12  13  1   
 20  12  23  1   
 21  13  14  1   
 22  13  15  1   
 23  13  16  1   
 24  14  24  1   
 25  14  25  1   
 26  14  26  1   
 27  15  27  1   
 28  15  28  1   
 29  15  29  1   
 30  16  30  1   
 31  16  31  1   
 32  16  32  1   
@<TRIPOS>SUBSTRUCTURE
  1 ****   8 GROUP 4 **** **** 0

# MOE 2024.06 (io_trps.svl 2023.06)
