@<TRIPOS>MOLECULE
NONAME
44 45 1 0 0 
SMALL
USER_CHARGES


@<TRIPOS>ATOM
  1 O       -0.5040    -0.1510    -0.9810 O.3   1 <1>  -0.3630 
  2 C       -1.8290    -0.3800    -0.8020 C.ar  1 <1>   0.0830 
  3 C        0.4650    -0.8120    -0.2010 C.3   1 <1>   0.1200 
  4 C       -2.3440    -1.2640     0.1440 C.ar  1 <1>  -0.1500 
  5 C       -2.6980     0.3210    -1.6220 C.ar  1 <1>  -0.1500 
  6 C        1.8460    -0.3350    -0.6510 C.3   1 <1>  -0.1600 
  7 C       -3.7140    -1.4400     0.2650 C.ar  1 <1>  -0.1440 
  8 C       -4.0650     0.1460    -1.5050 C.ar  1 <1>  -0.1500 
  9 C        2.9600    -1.0070     0.1620 C.3   1 <1>  -0.1600 
 10 C       -4.5710    -0.7330    -0.5640 C.ar  1 <1>  -0.1500 
 11 C       -4.2780    -2.4040     1.2940 C.3   1 <1>  -0.0970 
 12 C        4.3420    -0.5200    -0.2940 C.3   1 <1>  -0.1600 
 13 C        5.4680    -1.1740     0.5120 C.3   1 <1>   0.0210 
 14 C        6.8190    -0.6620     0.0430 C.2   1 <1>  -0.1810 
 15 C        7.4930     0.4620     0.5190 C.2   1 <1>   0.1080 
 16 C        7.6310    -1.1710    -0.9100 C.2   1 <1>  -0.3320 
 17 N        8.6280     0.6440    -0.0760 N.2   1 <1>  -0.7070 
 18 C        7.0040     1.3930     1.6050 C.3   1 <1>  -0.0590 
 19 N        8.7130    -0.3650    -0.9590 N.pl3 1 <1>   0.3000 
 20 C        7.4610    -2.3860    -1.8060 C.3   1 <1>  -0.0600 
 21 H        0.3590    -1.8710    -0.3550 H     1 <1>   0.0800 
 22 H        0.2940    -0.5630     0.8320 H     1 <1>   0.0800 
 23 H       -1.6940    -1.8200     0.7900 H     1 <1>   0.1500 
 24 H       -2.2950     1.0020    -2.3500 H     1 <1>   0.1500 
 25 H        1.9030     0.7330    -0.5260 H     1 <1>   0.0800 
 26 H        1.9720    -0.5660    -1.6950 H     1 <1>   0.0800 
 27 H       -4.7330     0.6930    -2.1460 H     1 <1>   0.1500 
 28 H        2.8990    -2.0750     0.0390 H     1 <1>   0.0800 
 29 H        2.8280    -0.7790     1.2060 H     1 <1>   0.0800 
 30 H       -5.6350    -0.8650    -0.4800 H     1 <1>   0.1500 
 31 H       -3.5960    -2.5200     2.1170 H     1 <1>   0.0800 
 32 H       -4.4420    -3.3640     0.8400 H     1 <1>   0.0800 
 33 H       -5.2120    -2.0360     1.6780 H     1 <1>   0.0800 
 34 H        4.4040     0.5490    -0.1830 H     1 <1>   0.0800 
 35 H        4.4820    -0.7490    -1.3370 H     1 <1>   0.0800 
 36 H        5.4310    -2.2420     0.3910 H     1 <1>   0.0800 
 37 H        5.3480    -0.9600     1.5590 H     1 <1>   0.0800 
 38 H        6.0010     1.7100     1.3940 H     1 <1>   0.0800 
 39 H        7.6390     2.2590     1.6550 H     1 <1>   0.0800 
 40 H        7.0300     0.8880     2.5520 H     1 <1>   0.0800 
 41 H        9.5210    -0.4760    -1.5820 H     1 <1>   0.2700 
 42 H        6.5110    -2.8570    -1.6300 H     1 <1>   0.0800 
 43 H        8.2390    -3.1010    -1.6100 H     1 <1>   0.0800 
 44 H        7.5060    -2.0920    -2.8390 H     1 <1>   0.0800 
@<TRIPOS>BOND
  1   1   2  1   
  2   1   3  1   
  3   2   4  ar  
  4   2   5  ar  
  5   3   6  1   
  6   3  21  1   
  7   3  22  1   
  8   4   7  ar  
  9   4  23  1   
 10   5   8  ar  
 11   5  24  1   
 12   6   9  1   
 13   6  25  1   
 14   6  26  1   
 15   7  10  ar  
 16   7  11  1   
 17   8  10  ar  
 18   8  27  1   
 19   9  12  1   
 20   9  28  1   
 21   9  29  1   
 22  10  30  1   
 23  11  31  1   
 24  11  32  1   
 25  11  33  1   
 26  12  13  1   
 27  12  34  1   
 28  12  35  1   
 29  13  14  1   
 30  13  36  1   
 31  13  37  1   
 32  14  15  1   
 33  14  16  2   
 34  15  17  2   
 35  15  18  1   
 36  16  19  1   
 37  16  20  1   
 38  17  19  1   
 39  18  38  1   
 40  18  39  1   
 41  18  40  1   
 42  19  41  1   
 43  20  42  1   
 44  20  43  1   
 45  20  44  1   
@<TRIPOS>SUBSTRUCTURE
  1 ****   6 GROUP 4 **** **** 0

# MOE 2024.06 (io_trps.svl 2023.06)
