@<TRIPOS>MOLECULE
NONAME
50 52 1 0 0 
SMALL
USER_CHARGES


@<TRIPOS>ATOM
  1 S       -0.1740     0.2930    -0.1940 S.o2  1 <1>   1.4470 
  2 O       -0.5960     0.7710     1.1070 O.2   1 <1>  -0.6500 
  3 O       -0.1760     1.2150    -1.3090 O.2   1 <1>  -0.6500 
  4 N        1.4000    -0.3140    -0.0150 N.am  1 <1>  -0.8490 
  5 C       -1.1150    -1.1910    -0.6480 C.ar  1 <1>  -0.0090 
  6 C        2.4670     0.5960    -0.4260 C.3   1 <1>   0.1960 
  7 C        1.6370    -0.9920     1.2620 C.3   1 <1>   0.1960 
  8 C       -2.3080    -1.5150    -0.0110 C.ar  1 <1>  -0.1500 
  9 C       -0.6640    -2.0400    -1.6530 C.ar  1 <1>  -0.1500 
 10 C        3.8010    -0.1580    -0.5820 C.3   1 <1>  -0.1600 
 11 C        3.1160    -1.3550     1.4490 C.3   1 <1>  -0.1600 
 12 C       -3.0250    -2.6460    -0.3610 C.ar  1 <1>  -0.1500 
 13 C       -1.3760    -3.1710    -2.0120 C.ar  1 <1>  -0.1500 
 14 C        3.8480    -1.5560     0.0980 C.3   1 <1>   0.2040 
 15 C       -2.5590    -3.4760    -1.3640 C.ar  1 <1>  -0.1500 
 16 C        5.3440    -1.9140     0.2580 C.ar  1 <1>  -0.1430 
 17 C        3.1290    -2.6570    -0.7540 C.2   1 <1>   0.5690 
 18 C        6.0280    -1.8320     1.4690 C.ar  1 <1>  -0.1500 
 19 C        6.0510    -2.3330    -0.8640 C.ar  1 <1>  -0.1500 
 20 O        2.8370    -2.3990    -1.9040 O.2   1 <1>  -0.5700 
 21 N        2.8280    -3.9120    -0.2500 N.am  1 <1>  -0.6600 
 22 C        7.3690    -2.1680     1.5530 C.ar  1 <1>  -0.1500 
 23 C        7.3900    -2.6700    -0.7820 C.ar  1 <1>  -0.1500 
 24 C        3.5060    -4.5810     0.8950 C.3   1 <1>   0.0600 
 25 C        1.8910    -4.8140    -0.9780 C.3   1 <1>   0.0600 
 26 C        8.0510    -2.5890     0.4280 C.ar  1 <1>  -0.1500 
 27 H        2.5620     1.3800     0.3060 H     1 <1>   0.0800 
 28 H        2.2260     1.0510    -1.3730 H     1 <1>   0.0800 
 29 H        1.0430    -1.8910     1.2820 H     1 <1>   0.0800 
 30 H        1.3270    -0.3670     2.0840 H     1 <1>   0.0800 
 31 H       -2.6810    -0.8720     0.7690 H     1 <1>   0.1500 
 32 H        0.2600    -1.8090    -2.1600 H     1 <1>   0.1500 
 33 H        4.5710     0.4660    -0.1640 H     1 <1>   0.0800 
 34 H        4.0320    -0.2500    -1.6280 H     1 <1>   0.0800 
 35 H        3.1850    -2.2240     2.0740 H     1 <1>   0.0800 
 36 H        3.5770    -0.5460     1.9860 H     1 <1>   0.0800 
 37 H       -3.9470    -2.8780     0.1450 H     1 <1>   0.1500 
 38 H       -1.0080    -3.8090    -2.7970 H     1 <1>   0.1500 
 39 H       -3.1160    -4.3550    -1.6410 H     1 <1>   0.1500 
 40 H        5.5440    -1.5070     2.3700 H     1 <1>   0.1500 
 41 H        5.5620    -2.4020    -1.8210 H     1 <1>   0.1500 
 42 H        7.8830    -2.1010     2.4960 H     1 <1>   0.1500 
 43 H        7.9170    -2.9950    -1.6630 H     1 <1>   0.1500 
 44 H        4.3800    -4.0430     1.2070 H     1 <1>   0.0800 
 45 H        3.8170    -5.5690     0.6040 H     1 <1>   0.0800 
 46 H        2.8240    -4.6610     1.7240 H     1 <1>   0.0800 
 47 H        1.3310    -4.2670    -1.7170 H     1 <1>   0.0800 
 48 H        1.1960    -5.2550    -0.2850 H     1 <1>   0.0800 
 49 H        2.4460    -5.5910    -1.4730 H     1 <1>   0.0800 
 50 H        9.0930    -2.8500     0.4930 H     1 <1>   0.1500 
@<TRIPOS>BOND
  1   1   2  2   
  2   1   3  2   
  3   1   4  am  
  4   1   5  1   
  5   4   6  1   
  6   4   7  1   
  7   5   8  ar  
  8   5   9  ar  
  9   6  10  1   
 10   6  27  1   
 11   6  28  1   
 12   7  11  1   
 13   7  29  1   
 14   7  30  1   
 15   8  12  ar  
 16   8  31  1   
 17   9  13  ar  
 18   9  32  1   
 19  10  14  1   
 20  10  33  1   
 21  10  34  1   
 22  11  14  1   
 23  11  35  1   
 24  11  36  1   
 25  12  15  ar  
 26  12  37  1   
 27  13  15  ar  
 28  13  38  1   
 29  14  16  1   
 30  14  17  1   
 31  15  39  1   
 32  16  18  ar  
 33  16  19  ar  
 34  17  20  2   
 35  17  21  am  
 36  18  22  ar  
 37  18  40  1   
 38  19  23  ar  
 39  19  41  1   
 40  21  24  1   
 41  21  25  1   
 42  22  26  ar  
 43  22  42  1   
 44  23  26  ar  
 45  23  43  1   
 46  24  44  1   
 47  24  45  1   
 48  24  46  1   
 49  25  47  1   
 50  25  48  1   
 51  25  49  1   
 52  26  50  1   
@<TRIPOS>SUBSTRUCTURE
  1 ****  17 GROUP 4 **** **** 0

# MOE 2024.06 (io_trps.svl 2023.06)
