@<TRIPOS>MOLECULE
NONAME
43 45 1 0 0 
SMALL
USER_CHARGES


@<TRIPOS>ATOM
  1 O        0.5380     0.3510     0.3310 O.2   1 <1>  -0.5700 
  2 C        0.2560     1.4890     0.0610 C.2   1 <1>   0.6590 
  3 O       -0.9890     1.9370     0.0590 O.3   1 <1>  -0.4300 
  4 C        1.3260     2.5020    -0.3070 C.3   1 <1>  -0.0190 
  5 C       -2.0760     1.1020     0.3880 C.3   1 <1>   0.1200 
  6 C        2.6300     1.7620    -0.6630 C.3   1 <1>   0.3430 
  7 C        1.5460     3.5430     0.8090 C.3   1 <1>  -0.1600 
  8 C       -3.3530     1.9310     0.2950 C.3   1 <1>  -0.2400 
  9 N        3.8650     2.5480    -0.3240 N.4   1 <1>  -0.9590 
 10 C        2.6360     4.5590     0.4150 C.3   1 <1>  -0.1600 
 11 C        3.6960     4.0110    -0.5510 C.3   1 <1>   0.3430 
 12 C        5.0680     1.9940    -1.0030 C.3   1 <1>   0.4860 
 13 C        6.3000     2.6370    -0.3990 C.ar  1 <1>  -0.1440 
 14 C        6.9680     3.6410    -1.0960 C.ar  1 <1>  -0.1500 
 15 C        6.7620     2.2300     0.8550 C.ar  1 <1>  -0.1500 
 16 C        8.0730     4.2190    -0.5040 C.ar  1 <1>   0.0820 
 17 C        7.8790     2.8250     1.4300 C.ar  1 <1>  -0.1500 
 18 O        8.8490     5.1940    -0.9840 O.3   1 <1>  -0.3620 
 19 C        8.5160     3.8240     0.7230 C.ar  1 <1>   0.0820 
 20 C        9.8640     5.4270    -0.0060 C.3   1 <1>   0.4000 
 21 O        9.5930     4.5330     1.0720 O.3   1 <1>  -0.3620 
 22 H        0.9810     3.0120    -1.1880 H     1 <1>   0.0800 
 23 H       -1.9310     0.7280     1.3870 H     1 <1>   0.0800 
 24 H       -2.0990     0.2790    -0.3060 H     1 <1>   0.0800 
 25 H        2.6130     1.5320    -1.7160 H     1 <1>   0.0800 
 26 H        2.6680     0.8250    -0.1300 H     1 <1>   0.0800 
 27 H        1.8410     3.0310     1.7110 H     1 <1>   0.0800 
 28 H        0.6250     4.0620     1.0230 H     1 <1>   0.0800 
 29 H       -3.3140     2.7540     0.9860 H     1 <1>   0.0800 
 30 H       -4.2000     1.3180     0.5420 H     1 <1>   0.0800 
 31 H       -3.4830     2.3060    -0.7050 H     1 <1>   0.0800 
 32 H        4.0360     2.4450     0.6850 H     1 <1>   0.4500 
 33 H        3.1210     4.9220     1.3050 H     1 <1>   0.0800 
 34 H        2.1760     5.4130    -0.0530 H     1 <1>   0.0800 
 35 H        3.3830     4.1830    -1.5680 H     1 <1>   0.0800 
 36 H        4.6270     4.5340    -0.3910 H     1 <1>   0.0800 
 37 H        5.0270     2.1940    -2.0610 H     1 <1>   0.0800 
 38 H        5.1190     0.9270    -0.8580 H     1 <1>   0.0800 
 39 H        6.6610     3.9800    -2.0690 H     1 <1>   0.1500 
 40 H        6.2660     1.4450     1.4000 H     1 <1>   0.1500 
 41 H        8.2530     2.5260     2.3940 H     1 <1>   0.1500 
 42 H        9.8050     6.4430     0.3430 H     1 <1>   0.0800 
 43 H       10.8280     5.2040    -0.4270 H     1 <1>   0.0800 
@<TRIPOS>BOND
  1   1   2  2   
  2   2   3  1   
  3   2   4  1   
  4   3   5  1   
  5   4   6  1   
  6   4   7  1   
  7   4  22  1   
  8   5   8  1   
  9   5  23  1   
 10   5  24  1   
 11   6   9  1   
 12   6  25  1   
 13   6  26  1   
 14   7  10  1   
 15   7  27  1   
 16   7  28  1   
 17   8  29  1   
 18   8  30  1   
 19   8  31  1   
 20   9  11  1   
 21   9  12  1   
 22   9  32  1   
 23  10  11  1   
 24  10  33  1   
 25  10  34  1   
 26  11  35  1   
 27  11  36  1   
 28  12  13  1   
 29  12  37  1   
 30  12  38  1   
 31  13  14  ar  
 32  13  15  ar  
 33  14  16  ar  
 34  14  39  1   
 35  15  17  ar  
 36  15  40  1   
 37  16  18  1   
 38  16  19  ar  
 39  17  19  ar  
 40  17  41  1   
 41  18  20  1   
 42  19  21  1   
 43  20  21  1   
 44  20  42  1   
 45  20  43  1   
@<TRIPOS>SUBSTRUCTURE
  1 ****   9 GROUP 4 **** **** 0

# MOE 2024.06 (io_trps.svl 2023.06)
