@<TRIPOS>MOLECULE
NONAME
33 35 1 0 0 
SMALL
USER_CHARGES


@<TRIPOS>ATOM
  1 CL      -0.0500     0.6560    -0.2150 Cl    1 <1>  -0.1770 
  2 C       -1.7870     0.6090    -0.0780 C.ar  1 <1>   0.1770 
  3 C       -2.4390     1.5850     0.6500 C.ar  1 <1>  -0.1500 
  4 C       -2.4920    -0.4030    -0.7000 C.ar  1 <1>  -0.1500 
  5 C       -3.8190     1.5430     0.7560 C.ar  1 <1>  -0.1500 
  6 C       -3.8710    -0.4340    -0.5870 C.ar  1 <1>  -0.1500 
  7 C       -4.5680     0.5340     0.1410 C.ar  1 <1>   0.0530 
  8 C       -6.0110     0.4850     0.2480 C.2   1 <1>   0.4250 
  9 O       -6.6720     1.3840     0.9240 O.3   1 <1>  -0.0190 
 10 N       -6.8210    -0.3780    -0.2600 N.2   1 <1>  -0.5650 
 11 N       -7.9280     1.1400     0.8810 N.2   1 <1>  -0.4100 
 12 C       -8.0040     0.0810     0.1670 C.2   1 <1>   0.3350 
 13 C       -9.2950    -0.6540    -0.1980 C.3   1 <1>   0.1010 
 14 C      -10.5180     0.2840    -0.2450 C.3   1 <1>  -0.1600 
 15 C       -9.5460    -1.8190     0.7770 C.3   1 <1>  -0.1600 
 16 C      -11.8030    -0.4790    -0.5970 C.3   1 <1>  -0.1600 
 17 C      -10.8340    -2.5820     0.4320 C.3   1 <1>  -0.1600 
 18 C      -12.0420    -1.6380     0.3790 C.3   1 <1>  -0.1600 
 19 H       -1.8700     2.3630     1.1260 H     1 <1>   0.1500 
 20 H       -1.9650    -1.1530    -1.2630 H     1 <1>   0.1500 
 21 H       -4.3190     2.3080     1.3260 H     1 <1>   0.1500 
 22 H       -4.4220    -1.2230    -1.0720 H     1 <1>   0.1500 
 23 H       -9.1580    -1.0640    -1.1830 H     1 <1>   0.0800 
 24 H      -10.3470     1.0590    -0.9720 H     1 <1>   0.0800 
 25 H      -10.6430     0.7560     0.7150 H     1 <1>   0.0800 
 26 H       -9.6190    -1.4310     1.7780 H     1 <1>   0.0800 
 27 H       -8.7100    -2.4960     0.7470 H     1 <1>   0.0800 
 28 H      -11.7270    -0.8660    -1.5990 H     1 <1>   0.0800 
 29 H      -12.6420     0.1950    -0.5680 H     1 <1>   0.0800 
 30 H      -11.0070    -3.3470     1.1690 H     1 <1>   0.0800 
 31 H      -10.7180    -3.0650    -0.5230 H     1 <1>   0.0800 
 32 H      -12.9170    -2.1880     0.0790 H     1 <1>   0.0800 
 33 H      -12.2260    -1.2410     1.3630 H     1 <1>   0.0800 
@<TRIPOS>BOND
  1   1   2  1   
  2   2   3  ar  
  3   2   4  ar  
  4   3   5  ar  
  5   3  19  1   
  6   4   6  ar  
  7   4  20  1   
  8   5   7  ar  
  9   5  21  1   
 10   6   7  ar  
 11   6  22  1   
 12   7   8  1   
 13   8   9  1   
 14   8  10  2   
 15   9  11  1   
 16  10  12  1   
 17  11  12  2   
 18  12  13  1   
 19  13  14  1   
 20  13  15  1   
 21  13  23  1   
 22  14  16  1   
 23  14  24  1   
 24  14  25  1   
 25  15  17  1   
 26  15  26  1   
 27  15  27  1   
 28  16  18  1   
 29  16  28  1   
 30  16  29  1   
 31  17  18  1   
 32  17  30  1   
 33  17  31  1   
 34  18  32  1   
 35  18  33  1   
@<TRIPOS>SUBSTRUCTURE
  1 ****  10 GROUP 4 **** **** 0

# MOE 2024.06 (io_trps.svl 2023.06)
