@<TRIPOS>MOLECULE
NONAME
43 44 1 0 0 
SMALL
USER_CHARGES


@<TRIPOS>ATOM
  1 BR       1.7340    -0.5390    -1.3660 Br    1 <1>  -0.1110 
  2 C        0.6540    -1.9830    -0.6920 C.ar  1 <1>   0.1110 
  3 C       -0.5860    -2.2030    -1.2580 C.ar  1 <1>  -0.1500 
  4 C        1.1460    -2.7580     0.3390 C.ar  1 <1>  -0.1500 
  5 C       -1.3680    -3.2400    -0.7720 C.ar  1 <1>  -0.1440 
  6 C        0.3650    -3.7930     0.8220 C.ar  1 <1>  -0.1500 
  7 C       -0.8940    -4.0380     0.2710 C.ar  1 <1>   0.0830 
  8 C       -2.7340    -3.5040    -1.3770 C.3   1 <1>   0.4870 
  9 O       -1.7080    -5.0350     0.7150 O.3   1 <1>  -0.3620 
 10 N       -3.7560    -3.3600    -0.3110 N.4   1 <1>  -0.9590 
 11 C       -1.2220    -6.0380     1.5880 C.3   1 <1>   0.0400 
 12 C       -5.0990    -3.8900    -0.7320 C.3   1 <1>   0.3430 
 13 C       -3.8250    -1.9520     0.2230 C.3   1 <1>   0.3430 
 14 C       -6.1510    -3.7530     0.3850 C.3   1 <1>   0.1400 
 15 C       -4.8690    -1.8140     1.3450 C.3   1 <1>   0.1400 
 16 N       -6.1870    -2.3510     0.8950 N.am  1 <1>  -0.6600 
 17 C       -7.2960    -1.5490     0.8180 C.2   1 <1>   0.7800 
 18 O       -7.2610    -0.3700     1.1060 O.2   1 <1>  -0.5700 
 19 O       -8.4270    -2.0990     0.3820 O.3   1 <1>  -0.4300 
 20 C       -9.6110    -1.3390     0.2890 C.3   1 <1>   0.1200 
 21 C      -10.7170    -2.2470    -0.2390 C.3   1 <1>  -0.2400 
 22 H       -0.9110    -1.5680    -2.0650 H     1 <1>   0.1500 
 23 H        2.1190    -2.5540     0.7520 H     1 <1>   0.1500 
 24 H        0.7560    -4.3900     1.6260 H     1 <1>   0.1500 
 25 H       -2.7500    -4.5080    -1.7700 H     1 <1>   0.0800 
 26 H       -2.9290    -2.8130    -2.1810 H     1 <1>   0.0800 
 27 H       -3.3910    -3.9580     0.4510 H     1 <1>   0.4500 
 28 H       -1.9930    -6.7750     1.7230 H     1 <1>   0.0800 
 29 H       -0.9770    -5.5930     2.5360 H     1 <1>   0.0800 
 30 H       -0.3550    -6.4990     1.1470 H     1 <1>   0.0800 
 31 H       -5.0140    -4.9280    -1.0100 H     1 <1>   0.0800 
 32 H       -5.4490    -3.3440    -1.5930 H     1 <1>   0.0800 
 33 H       -4.0900    -1.2740    -0.5720 H     1 <1>   0.0800 
 34 H       -2.8600    -1.6550     0.6020 H     1 <1>   0.0800 
 35 H       -5.9110    -4.4180     1.1960 H     1 <1>   0.0800 
 36 H       -7.1130    -4.0470     0.0000 H     1 <1>   0.0800 
 37 H       -4.9540    -0.7770     1.6220 H     1 <1>   0.0800 
 38 H       -4.5420    -2.3550     2.2160 H     1 <1>   0.0800 
 39 H       -9.4370    -0.5120    -0.3800 H     1 <1>   0.0800 
 40 H       -9.8540    -0.9630     1.2690 H     1 <1>   0.0800 
 41 H      -10.4600    -2.6200    -1.2130 H     1 <1>   0.0800 
 42 H      -11.6340    -1.6900    -0.3180 H     1 <1>   0.0800 
 43 H      -10.8760    -3.0690     0.4350 H     1 <1>   0.0800 
@<TRIPOS>BOND
  1   1   2  1   
  2   2   3  ar  
  3   2   4  ar  
  4   3   5  ar  
  5   3  22  1   
  6   4   6  ar  
  7   4  23  1   
  8   5   7  ar  
  9   5   8  1   
 10   6   7  ar  
 11   6  24  1   
 12   7   9  1   
 13   8  10  1   
 14   8  25  1   
 15   8  26  1   
 16   9  11  1   
 17  10  12  1   
 18  10  13  1   
 19  10  27  1   
 20  11  28  1   
 21  11  29  1   
 22  11  30  1   
 23  12  14  1   
 24  12  31  1   
 25  12  32  1   
 26  13  15  1   
 27  13  33  1   
 28  13  34  1   
 29  14  16  1   
 30  14  35  1   
 31  14  36  1   
 32  15  16  1   
 33  15  37  1   
 34  15  38  1   
 35  16  17  am  
 36  17  18  2   
 37  17  19  1   
 38  19  20  1   
 39  20  21  1   
 40  20  39  1   
 41  20  40  1   
 42  21  41  1   
 43  21  42  1   
 44  21  43  1   
@<TRIPOS>SUBSTRUCTURE
  1 ****  10 GROUP 4 **** **** 0

# MOE 2024.06 (io_trps.svl 2023.06)
