@<TRIPOS>MOLECULE
NONAME
33 33 1 0 0 
SMALL
USER_CHARGES


@<TRIPOS>ATOM
  1 S        0.6530    -0.4320     0.4610 S.3   1 <1>  -0.0800 
  2 C       -0.6160    -0.8280    -0.6820 C.2   1 <1>  -0.1100 
  3 C        0.0350    -1.5950     1.6160 C.2   1 <1>  -0.1100 
  4 C       -1.4380    -1.7700    -0.1790 C.2   1 <1>  -0.1810 
  5 C       -1.0570    -2.2140     1.1330 C.2   1 <1>  -0.1500 
  6 C       -2.6520    -2.3330    -0.8830 C.3   1 <1>   0.5240 
  7 N       -3.8650    -1.8400    -0.1580 N.4   1 <1>  -0.9590 
  8 C       -5.0910    -2.6320    -0.5430 C.3   1 <1>   0.3430 
  9 C       -4.0030    -0.3560    -0.3690 C.3   1 <1>   0.2630 
 10 C       -6.3550    -2.3230     0.3150 C.3   1 <1>   0.3430 
 11 N       -7.5900    -3.1040    -0.0710 N.4   1 <1>  -0.9590 
 12 C       -8.7830    -2.5940     0.6880 C.3   1 <1>   0.2630 
 13 C       -7.4710    -4.5840     0.1650 C.3   1 <1>   0.2630 
 14 H       -0.5950    -0.2940    -1.6180 H     1 <1>   0.1500 
 15 H        0.5720    -1.6960     2.5450 H     1 <1>   0.1500 
 16 H       -1.5930    -2.9810     1.6660 H     1 <1>   0.1500 
 17 H       -2.6020    -3.4100    -0.8610 H     1 <1>   0.0800 
 18 H       -2.6670    -2.0080    -1.9110 H     1 <1>   0.0800 
 19 H       -3.6240    -1.9840     0.8360 H     1 <1>   0.4500 
 20 H       -4.8680    -3.6820    -0.4470 H     1 <1>   0.0800 
 21 H       -5.3210    -2.4340    -1.5780 H     1 <1>   0.0800 
 22 H       -4.1780    -0.1340    -1.4100 H     1 <1>   0.0800 
 23 H       -3.1000     0.1510    -0.0620 H     1 <1>   0.0800 
 24 H       -4.8190     0.0420     0.2130 H     1 <1>   0.0800 
 25 H       -6.5750    -1.2720     0.2250 H     1 <1>   0.0800 
 26 H       -6.1290    -2.5250     1.3500 H     1 <1>   0.0800 
 27 H       -7.8080    -2.9580    -1.0730 H     1 <1>   0.4500 
 28 H       -8.6460    -2.7320     1.7490 H     1 <1>   0.0800 
 29 H       -9.6740    -3.1250     0.3890 H     1 <1>   0.0800 
 30 H       -8.9370    -1.5440     0.4940 H     1 <1>   0.0800 
 31 H       -7.2780    -4.7870     1.2070 H     1 <1>   0.0800 
 32 H       -6.6730    -5.0060    -0.4250 H     1 <1>   0.0800 
 33 H       -8.3890    -5.0810    -0.1100 H     1 <1>   0.0800 
@<TRIPOS>BOND
  1   1   2  1   
  2   1   3  1   
  3   2   4  2   
  4   2  14  1   
  5   3   5  2   
  6   3  15  1   
  7   4   5  1   
  8   4   6  1   
  9   5  16  1   
 10   6   7  1   
 11   6  17  1   
 12   6  18  1   
 13   7   8  1   
 14   7   9  1   
 15   7  19  1   
 16   8  10  1   
 17   8  20  1   
 18   8  21  1   
 19   9  22  1   
 20   9  23  1   
 21   9  24  1   
 22  10  11  1   
 23  10  25  1   
 24  10  26  1   
 25  11  12  1   
 26  11  13  1   
 27  11  27  1   
 28  12  28  1   
 29  12  29  1   
 30  12  30  1   
 31  13  31  1   
 32  13  32  1   
 33  13  33  1   
@<TRIPOS>SUBSTRUCTURE
  1 ****   7 GROUP 4 **** **** 0

# MOE 2024.06 (io_trps.svl 2023.06)
