@<TRIPOS>MOLECULE
NONAME
30 31 1 0 0 
SMALL
USER_CHARGES


@<TRIPOS>ATOM
  1 O       -0.1530     0.4970     0.4900 O.3   1 <1>  -0.0190 
  2 N        0.9430     1.1900     0.5740 N.2   1 <1>  -0.4100 
  3 C       -1.1640     1.2140     0.0780 C.2   1 <1>  -0.0400 
  4 C        0.6500     2.3980     0.2030 C.2   1 <1>   0.2350 
  5 C       -0.7110     2.4590    -0.1250 C.2   1 <1>  -0.1500 
  6 C       -2.5410     0.5690    -0.0800 C.3   1 <1>   0.1800 
  7 C        1.5860     3.5050     0.1470 C.ar  1 <1>   0.0540 
  8 C       -2.4560    -0.5740    -1.1000 C.3   1 <1>  -0.2400 
  9 C       -3.5640     1.6020    -0.5720 C.3   1 <1>  -0.2400 
 10 C       -3.0040     0.0160     1.2740 C.3   1 <1>  -0.2400 
 11 C        1.3630     4.6190    -0.6630 C.ar  1 <1>  -0.1500 
 12 C        2.7550     3.4930     0.9090 C.ar  1 <1>  -0.1500 
 13 C        2.2580     5.6730    -0.7040 C.ar  1 <1>  -0.1500 
 14 C        3.6540     4.5420     0.8730 C.ar  1 <1>  -0.1500 
 15 C        3.4070     5.6370     0.0660 C.ar  1 <1>  -0.1500 
 16 H       -1.2420     3.3300    -0.4570 H     1 <1>   0.1500 
 17 H       -2.1140    -0.2000    -2.0490 H     1 <1>   0.0800 
 18 H       -3.4180    -1.0350    -1.2360 H     1 <1>   0.0800 
 19 H       -1.7630    -1.3240    -0.7650 H     1 <1>   0.0800 
 20 H       -3.6470     2.4120     0.1300 H     1 <1>   0.0800 
 21 H       -4.5330     1.1490    -0.6830 H     1 <1>   0.0800 
 22 H       -3.2650     2.0010    -1.5250 H     1 <1>   0.0800 
 23 H       -2.3150    -0.7300     1.6290 H     1 <1>   0.0800 
 24 H       -3.9770    -0.4330     1.1890 H     1 <1>   0.0800 
 25 H       -3.0490     0.8060     2.0020 H     1 <1>   0.0800 
 26 H        0.4830     4.6640    -1.2770 H     1 <1>   0.1500 
 27 H        2.9570     2.6440     1.5400 H     1 <1>   0.1500 
 28 H        2.0640     6.5220    -1.3370 H     1 <1>   0.1500 
 29 H        4.5470     4.5060     1.4730 H     1 <1>   0.1500 
 30 H        4.1050     6.4560     0.0360 H     1 <1>   0.1500 
@<TRIPOS>BOND
  1   1   2  1   
  2   1   3  1   
  3   2   4  2   
  4   3   5  2   
  5   3   6  1   
  6   4   5  1   
  7   4   7  1   
  8   5  16  1   
  9   6   8  1   
 10   6   9  1   
 11   6  10  1   
 12   7  11  ar  
 13   7  12  ar  
 14   8  17  1   
 15   8  18  1   
 16   8  19  1   
 17   9  20  1   
 18   9  21  1   
 19   9  22  1   
 20  10  23  1   
 21  10  24  1   
 22  10  25  1   
 23  11  13  ar  
 24  11  26  1   
 25  12  14  ar  
 26  12  27  1   
 27  13  15  ar  
 28  13  28  1   
 29  14  15  ar  
 30  14  29  1   
 31  15  30  1   
@<TRIPOS>SUBSTRUCTURE
  1 ****   4 GROUP 4 **** **** 0

# MOE 2024.06 (io_trps.svl 2023.06)
