@<TRIPOS>MOLECULE
NONAME
35 36 1 0 0 
SMALL
USER_CHARGES


@<TRIPOS>ATOM
  1 F        2.1990    -3.2290    -2.3770 F     1 <1>  -0.1900 
  2 C        1.4190    -3.3280    -1.3270 C.ar  1 <1>   0.1900 
  3 C        1.8210    -2.7280    -0.1330 C.ar  1 <1>   0.1170 
  4 C        0.2360    -4.0270    -1.4660 C.ar  1 <1>  -0.1500 
  5 N        3.0480    -2.0330    -0.0840 N.am  1 <1>  -0.5470 
  6 C        0.9570    -2.8610     0.9510 C.ar  1 <1>  -0.1500 
  7 C       -0.6010    -4.1410    -0.3690 C.ar  1 <1>  -0.1500 
  8 C        3.7050    -1.3870     0.9260 C.2   1 <1>   0.5690 
  9 C       -0.2370    -3.5570     0.8340 C.ar  1 <1>  -0.1500 
 10 O        3.2970    -1.3050     2.0570 O.2   1 <1>  -0.5700 
 11 C        5.0320    -0.7330     0.5920 C.3   1 <1>  -0.0990 
 12 C        6.1520    -1.7660     0.3890 C.3   1 <1>  -0.1600 
 13 C        7.4860    -1.0830     0.0700 C.3   1 <1>   0.1400 
 14 N        8.5170    -2.1030    -0.2130 N.am  1 <1>  -0.4200 
 15 C        8.6690    -2.7160    -1.4150 C.2   1 <1>   0.5690 
 16 C        9.4360    -2.5370     0.6890 C.2   1 <1>   0.5690 
 17 O        7.9940    -2.5260    -2.3930 O.2   1 <1>  -0.5700 
 18 C        9.8190    -3.6970    -1.3740 C.3   1 <1>  -0.0990 
 19 O        9.5400    -2.1630     1.8270 O.2   1 <1>  -0.5700 
 20 C       10.3420    -3.5770     0.0700 C.3   1 <1>  -0.0990 
 21 H       -0.0230    -4.4700    -2.4100 H     1 <1>   0.1500 
 22 H        3.5380    -2.0340    -0.9800 H     1 <1>   0.3700 
 23 H        1.2040    -2.4220     1.9000 H     1 <1>   0.1500 
 24 H       -1.5300    -4.6800    -0.4490 H     1 <1>   0.1500 
 25 H       -0.8860    -3.6450     1.6890 H     1 <1>   0.1500 
 26 H        5.2950    -0.0720     1.4000 H     1 <1>   0.0800 
 27 H        4.9100    -0.1370    -0.2940 H     1 <1>   0.0800 
 28 H        5.8870    -2.4240    -0.4200 H     1 <1>   0.0800 
 29 H        6.2600    -2.3500     1.2880 H     1 <1>   0.0800 
 30 H        7.8000    -0.4750     0.9020 H     1 <1>   0.0800 
 31 H        7.3790    -0.4480    -0.7940 H     1 <1>   0.0800 
 32 H       10.5670    -3.4130    -2.0920 H     1 <1>   0.0800 
 33 H        9.4610    -4.6890    -1.5860 H     1 <1>   0.0800 
 34 H       10.2490    -4.5050     0.6040 H     1 <1>   0.0800 
 35 H       11.3610    -3.2360     0.0960 H     1 <1>   0.0800 
@<TRIPOS>BOND
  1   1   2  1   
  2   2   3  ar  
  3   2   4  ar  
  4   3   5  1   
  5   3   6  ar  
  6   4   7  ar  
  7   4  21  1   
  8   5   8  am  
  9   5  22  1   
 10   6   9  ar  
 11   6  23  1   
 12   7   9  ar  
 13   7  24  1   
 14   8  10  2   
 15   8  11  1   
 16   9  25  1   
 17  11  12  1   
 18  11  26  1   
 19  11  27  1   
 20  12  13  1   
 21  12  28  1   
 22  12  29  1   
 23  13  14  1   
 24  13  30  1   
 25  13  31  1   
 26  14  15  am  
 27  14  16  am  
 28  15  17  2   
 29  15  18  1   
 30  16  19  2   
 31  16  20  1   
 32  18  20  1   
 33  18  32  1   
 34  18  33  1   
 35  20  34  1   
 36  20  35  1   
@<TRIPOS>SUBSTRUCTURE
  1 ****  12 GROUP 4 **** **** 0

# MOE 2024.06 (io_trps.svl 2023.06)
