@<TRIPOS>MOLECULE
NONAME
44 44 1 0 0 
SMALL
USER_CHARGES


@<TRIPOS>ATOM
  1 BR      -0.1250     0.7670     1.1000 Br    1 <1>  -0.1110 
  2 C        0.8700     2.2310     0.3310 C.ar  1 <1>   0.1110 
  3 C        0.2440     3.4490     0.1040 C.ar  1 <1>   0.0830 
  4 C        2.1990     2.0060     0.0250 C.ar  1 <1>  -0.1500 
  5 O       -1.0690     3.5850     0.4070 O.3   1 <1>  -0.3630 
  6 C        1.0070     4.4910    -0.4370 C.ar  1 <1>   0.0830 
  7 C        2.9440     3.0370    -0.5300 C.ar  1 <1>  -0.1440 
  8 C       -1.9670     3.3120    -0.6480 C.3   1 <1>   0.1200 
  9 O        0.5530     5.7480    -0.6840 O.3   1 <1>  -0.3630 
 10 C        2.3380     4.2660    -0.7610 C.ar  1 <1>  -0.1500 
 11 C        4.4040     2.8360    -0.8690 C.3   1 <1>   0.4860 
 12 C       -3.4100     3.4370    -0.1350 C.3   1 <1>  -0.0800 
 13 C       -0.3770     6.3580     0.1880 C.3   1 <1>   0.0400 
 14 N        5.1760     3.3090     0.2980 N.4   1 <1>  -0.9060 
 15 C       -3.7000     2.4330     0.9900 C.3   1 <1>  -0.2400 
 16 C       -4.4000     3.2230    -1.2870 C.3   1 <1>  -0.2400 
 17 C        6.6330     3.2510     0.1430 C.3   1 <1>   0.4230 
 18 C        7.0900     1.7950     0.1830 C.3   1 <1>  -0.2400 
 19 C        7.2440     4.0410     1.2920 C.3   1 <1>  -0.2400 
 20 H        2.6190     1.0350     0.2210 H     1 <1>   0.1500 
 21 H       -1.7790     2.3140    -1.0060 H     1 <1>   0.0800 
 22 H       -1.7810     4.0180    -1.4380 H     1 <1>   0.0800 
 23 H        2.8860     5.0830    -1.1980 H     1 <1>   0.1500 
 24 H        4.6590     3.4050    -1.7490 H     1 <1>   0.0800 
 25 H        4.5990     1.7930    -1.0590 H     1 <1>   0.0800 
 26 H       -3.5470     4.4360     0.2440 H     1 <1>   0.0800 
 27 H       -0.3030     7.4230     0.0670 H     1 <1>   0.0800 
 28 H       -0.1450     6.0850     1.2030 H     1 <1>   0.0800 
 29 H       -1.3680     6.0340    -0.0720 H     1 <1>   0.0800 
 30 H        4.8950     2.7650     1.1200 H     1 <1>   0.4500 
 31 H        4.8890     4.2750     0.4920 H     1 <1>   0.4500 
 32 H       -3.5560     1.4240     0.6460 H     1 <1>   0.0800 
 33 H       -4.7130     2.5380     1.3350 H     1 <1>   0.0800 
 34 H       -3.0430     2.6040     1.8250 H     1 <1>   0.0800 
 35 H       -4.2970     2.2340    -1.6970 H     1 <1>   0.0800 
 36 H       -4.2250     3.9410    -2.0690 H     1 <1>   0.0800 
 37 H       -5.4100     3.3460    -0.9370 H     1 <1>   0.0800 
 38 H        6.9260     3.7020    -0.7940 H     1 <1>   0.0800 
 39 H        6.7890     1.3160     1.0990 H     1 <1>   0.0800 
 40 H        8.1640     1.7570     0.1300 H     1 <1>   0.0800 
 41 H        6.7100     1.2410    -0.6550 H     1 <1>   0.0800 
 42 H        6.9760     3.6190     2.2450 H     1 <1>   0.0800 
 43 H        6.9340     5.0700     1.2550 H     1 <1>   0.0800 
 44 H        8.3170     4.0230     1.2110 H     1 <1>   0.0800 
@<TRIPOS>BOND
  1   1   2  1   
  2   2   3  ar  
  3   2   4  ar  
  4   3   5  1   
  5   3   6  ar  
  6   4   7  ar  
  7   4  20  1   
  8   5   8  1   
  9   6   9  1   
 10   6  10  ar  
 11   7  10  ar  
 12   7  11  1   
 13   8  12  1   
 14   8  21  1   
 15   8  22  1   
 16   9  13  1   
 17  10  23  1   
 18  11  14  1   
 19  11  24  1   
 20  11  25  1   
 21  12  15  1   
 22  12  16  1   
 23  12  26  1   
 24  13  27  1   
 25  13  28  1   
 26  13  29  1   
 27  14  17  1   
 28  14  30  1   
 29  14  31  1   
 30  15  32  1   
 31  15  33  1   
 32  15  34  1   
 33  16  35  1   
 34  16  36  1   
 35  16  37  1   
 36  17  18  1   
 37  17  19  1   
 38  17  38  1   
 39  18  39  1   
 40  18  40  1   
 41  18  41  1   
 42  19  42  1   
 43  19  43  1   
 44  19  44  1   
@<TRIPOS>SUBSTRUCTURE
  1 ****   3 GROUP 4 **** **** 0

# MOE 2024.06 (io_trps.svl 2023.06)
