@<TRIPOS>MOLECULE
NONAME
53 55 1 0 0 
SMALL
USER_CHARGES


@<TRIPOS>ATOM
  1 O        1.9150    -1.6460     2.0190 O.2   1 <1>  -0.5700 
  2 C        2.5280    -1.7270     0.9870 C.2   1 <1>   0.5690 
  3 N        3.3660    -0.7280     0.6330 N.am  1 <1>  -0.7300 
  4 C        2.3220    -2.9730     0.1220 C.3   1 <1>  -0.0190 
  5 C        4.2980    -0.6140    -0.5010 C.3   1 <1>   0.2840 
  6 C        0.8340    -3.1320    -0.2520 C.3   1 <1>  -0.1600 
  7 C        2.8250    -4.2280     0.8620 C.3   1 <1>  -0.1600 
  8 C        5.2750     0.5040    -0.2040 C.ar  1 <1>  -0.1440 
  9 C        0.5540    -4.4480    -0.9720 C.3   1 <1>   0.3430 
 10 C        2.4890    -5.5190     0.1180 C.3   1 <1>   0.3430 
 11 C        5.2060     1.7040    -0.8970 C.ar  1 <1>   0.1600 
 12 C        6.2510     0.3500     0.7610 C.ar  1 <1>  -0.1500 
 13 N        1.0220    -5.5800    -0.1250 N.4   1 <1>  -0.9590 
 14 N        6.0150     2.7340    -0.7120 N.ar  1 <1>  -0.6200 
 15 C        7.1020     1.4150     0.9680 C.ar  1 <1>  -0.1500 
 16 C        0.6170    -6.8960    -0.6980 C.3   1 <1>   0.3430 
 17 C        6.9430     2.5660     0.2150 C.ar  1 <1>   0.1600 
 18 C       -0.5720    -7.4890     0.0740 C.3   1 <1>  -0.0800 
 19 C       -0.9000    -8.8810    -0.4980 C.3   1 <1>  -0.1600 
 20 C       -1.8280    -6.5900     0.0410 C.3   1 <1>  -0.1600 
 21 C       -2.0770    -9.5320     0.2380 C.3   1 <1>  -0.1600 
 22 C       -3.0070    -7.2440     0.7720 C.3   1 <1>  -0.1600 
 23 C       -3.3170    -8.6320     0.2020 C.3   1 <1>  -0.1600 
 24 H        3.4140     0.0590     1.2880 H     1 <1>   0.3700 
 25 H        2.8820    -2.8710    -0.7890 H     1 <1>   0.0800 
 26 H        3.7460    -0.4010    -1.4010 H     1 <1>   0.0800 
 27 H        4.8370    -1.5370    -0.6310 H     1 <1>   0.0800 
 28 H        0.5360    -2.3130    -0.8840 H     1 <1>   0.0800 
 29 H        0.2230    -3.0850     0.6340 H     1 <1>   0.0800 
 30 H        2.3890    -4.2710     1.8470 H     1 <1>   0.0800 
 31 H        3.8910    -4.1630     0.9920 H     1 <1>   0.0800 
 32 H        1.0670    -4.4620    -1.9200 H     1 <1>   0.0800 
 33 H       -0.5050    -4.5360    -1.1580 H     1 <1>   0.0800 
 34 H        2.8010    -6.3650     0.7110 H     1 <1>   0.0800 
 35 H        3.0180    -5.5480    -0.8210 H     1 <1>   0.0800 
 36 H        4.4430     1.8310    -1.6470 H     1 <1>   0.1500 
 37 H        6.3480    -0.5570     1.3340 H     1 <1>   0.1500 
 38 H        0.5560    -5.4920     0.7900 H     1 <1>   0.4500 
 39 H        7.8820     1.3580     1.7050 H     1 <1>   0.1500 
 40 H        1.4400    -7.5890    -0.6360 H     1 <1>   0.0800 
 41 H        0.3550    -6.7860    -1.7380 H     1 <1>   0.0800 
 42 H        7.6140     3.3910     0.3850 H     1 <1>   0.1500 
 43 H       -0.2740    -7.6260     1.1000 H     1 <1>   0.0800 
 44 H       -0.0420    -9.5260    -0.4150 H     1 <1>   0.0800 
 45 H       -1.1510    -8.7980    -1.5430 H     1 <1>   0.0800 
 46 H       -2.1160    -6.4050    -0.9800 H     1 <1>   0.0800 
 47 H       -1.6320    -5.6420     0.5110 H     1 <1>   0.0800 
 48 H       -1.8040    -9.7210     1.2630 H     1 <1>   0.0800 
 49 H       -2.3100   -10.4800    -0.2180 H     1 <1>   0.0800 
 50 H       -3.8810    -6.6200     0.6830 H     1 <1>   0.0800 
 51 H       -2.7770    -7.3350     1.8210 H     1 <1>   0.0800 
 52 H       -4.1090    -9.0880     0.7730 H     1 <1>   0.0800 
 53 H       -3.6610    -8.5360    -0.8130 H     1 <1>   0.0800 
@<TRIPOS>BOND
  1   1   2  2   
  2   2   3  am  
  3   2   4  1   
  4   3   5  1   
  5   3  24  1   
  6   4   6  1   
  7   4   7  1   
  8   4  25  1   
  9   5   8  1   
 10   5  26  1   
 11   5  27  1   
 12   6   9  1   
 13   6  28  1   
 14   6  29  1   
 15   7  10  1   
 16   7  30  1   
 17   7  31  1   
 18   8  11  ar  
 19   8  12  ar  
 20   9  13  1   
 21   9  32  1   
 22   9  33  1   
 23  10  13  1   
 24  10  34  1   
 25  10  35  1   
 26  11  14  ar  
 27  11  36  1   
 28  12  15  ar  
 29  12  37  1   
 30  13  16  1   
 31  13  38  1   
 32  14  17  ar  
 33  15  17  ar  
 34  15  39  1   
 35  16  18  1   
 36  16  40  1   
 37  16  41  1   
 38  17  42  1   
 39  18  19  1   
 40  18  20  1   
 41  18  43  1   
 42  19  21  1   
 43  19  44  1   
 44  19  45  1   
 45  20  22  1   
 46  20  46  1   
 47  20  47  1   
 48  21  23  1   
 49  21  48  1   
 50  21  49  1   
 51  22  23  1   
 52  22  50  1   
 53  22  51  1   
 54  23  52  1   
 55  23  53  1   
@<TRIPOS>SUBSTRUCTURE
  1 ****   4 GROUP 4 **** **** 0

# MOE 2024.06 (io_trps.svl 2023.06)
