@<TRIPOS>MOLECULE
NONAME
42 43 1 0 0 
SMALL
USER_CHARGES


@<TRIPOS>ATOM
  1 O        0.5110    -0.5510    -0.6000 O.2   1 <1>  -0.5700 
  2 C        0.5210    -1.7520    -0.7220 C.2   1 <1>   0.5690 
  3 N        1.5720    -2.3970    -1.2850 N.am  1 <1>  -0.7300 
  4 C       -0.6620    -2.5800    -0.2200 C.3   1 <1>  -0.0190 
  5 C        2.8290    -1.7450    -1.7650 C.3   1 <1>   0.2010 
  6 C       -1.9900    -2.1130    -0.8470 C.3   1 <1>  -0.1600 
  7 C       -0.7470    -2.5470     1.3180 C.3   1 <1>  -0.1600 
  8 C        4.0750    -2.3430    -1.1060 C.2   1 <1>   0.5690 
  9 C       -3.1780    -2.9360    -0.3300 C.3   1 <1>  -0.1600 
 10 C       -1.9370    -3.3690     1.8360 C.3   1 <1>  -0.1600 
 11 O        4.3670    -3.4870    -1.3600 O.2   1 <1>  -0.5700 
 12 N        4.8690    -1.6300    -0.2610 N.am  1 <1>  -0.5470 
 13 C       -3.2520    -2.8990     1.2020 C.3   1 <1>  -0.1600 
 14 C        4.7690    -0.3150     0.2090 C.ar  1 <1>   0.1170 
 15 C        5.8660     0.5460     0.1420 C.ar  1 <1>  -0.1440 
 16 C        3.5810     0.1470     0.7660 C.ar  1 <1>  -0.1500 
 17 C        5.7510     1.8430     0.6160 C.ar  1 <1>  -0.1500 
 18 C        7.1920     0.0870    -0.4510 C.3   1 <1>  -0.0970 
 19 C        3.4720     1.4430     1.2310 C.ar  1 <1>  -0.1500 
 20 C        4.5590     2.2940     1.1560 C.ar  1 <1>  -0.1500 
 21 H        1.5900    -3.4190    -1.3210 H     1 <1>   0.3700 
 22 H       -0.5020    -3.6010    -0.5190 H     1 <1>   0.0800 
 23 H        2.7870    -0.6850    -1.5960 H     1 <1>   0.0800 
 24 H        2.9090    -1.8980    -2.8260 H     1 <1>   0.0800 
 25 H       -1.9320    -2.1960    -1.9180 H     1 <1>   0.0800 
 26 H       -2.1490    -1.0740    -0.6080 H     1 <1>   0.0800 
 27 H       -0.8540    -1.5260     1.6430 H     1 <1>   0.0800 
 28 H        0.1660    -2.9310     1.7390 H     1 <1>   0.0800 
 29 H       -3.0770    -3.9570    -0.6580 H     1 <1>   0.0800 
 30 H       -4.0920    -2.5460    -0.7440 H     1 <1>   0.0800 
 31 H       -2.0000    -3.2750     2.9060 H     1 <1>   0.0800 
 32 H       -1.7810    -4.4090     1.6050 H     1 <1>   0.0800 
 33 H        5.7030    -2.1410     0.0260 H     1 <1>   0.3700 
 34 H       -4.0600    -3.5250     1.5390 H     1 <1>   0.0800 
 35 H       -3.4600    -1.8920     1.5220 H     1 <1>   0.0800 
 36 H        2.7320    -0.5080     0.8420 H     1 <1>   0.1500 
 37 H        6.5880     2.5170     0.5670 H     1 <1>   0.1500 
 38 H        7.0400    -0.2980    -1.4430 H     1 <1>   0.0800 
 39 H        7.6230    -0.6830     0.1630 H     1 <1>   0.0800 
 40 H        7.8900     0.9020    -0.5110 H     1 <1>   0.0800 
 41 H        2.5410     1.7860     1.6500 H     1 <1>   0.1500 
 42 H        4.4770     3.3040     1.5180 H     1 <1>   0.1500 
@<TRIPOS>BOND
  1   1   2  2   
  2   2   3  am  
  3   2   4  1   
  4   3   5  1   
  5   3  21  1   
  6   4   6  1   
  7   4   7  1   
  8   4  22  1   
  9   5   8  1   
 10   5  23  1   
 11   5  24  1   
 12   6   9  1   
 13   6  25  1   
 14   6  26  1   
 15   7  10  1   
 16   7  27  1   
 17   7  28  1   
 18   8  11  2   
 19   8  12  am  
 20   9  13  1   
 21   9  29  1   
 22   9  30  1   
 23  10  13  1   
 24  10  31  1   
 25  10  32  1   
 26  12  14  1   
 27  12  33  1   
 28  13  34  1   
 29  13  35  1   
 30  14  15  ar  
 31  14  16  ar  
 32  15  17  ar  
 33  15  18  1   
 34  16  19  ar  
 35  16  36  1   
 36  17  20  ar  
 37  17  37  1   
 38  18  38  1   
 39  18  39  1   
 40  18  40  1   
 41  19  20  ar  
 42  19  41  1   
 43  20  42  1   
@<TRIPOS>SUBSTRUCTURE
  1 ****   3 GROUP 4 **** **** 0

# MOE 2024.06 (io_trps.svl 2023.06)
