@<TRIPOS>MOLECULE
NONAME
53 55 1 0 0 
SMALL
USER_CHARGES


@<TRIPOS>ATOM
  1 O        0.4770     0.5460     1.5240 O.2   1 <1>  -0.5700 
  2 C        0.0020    -0.4380     1.0090 C.2   1 <1>   0.5690 
  3 N        0.7160    -1.2830     0.2030 N.am  1 <1>  -0.5470 
  4 C       -1.4610    -0.7630     1.2820 C.3   1 <1>   0.1810 
  5 C        2.0500    -1.2330    -0.2190 C.ar  1 <1>   0.1170 
  6 O       -1.8270    -2.0050     0.6940 O.3   1 <1>  -0.3630 
  7 C        2.7140    -2.4170    -0.5140 C.ar  1 <1>  -0.1500 
  8 C        2.7400    -0.0360    -0.3670 C.ar  1 <1>  -0.1500 
  9 C       -3.0910    -2.4850     0.8070 C.ar  1 <1>   0.0830 
 10 C        4.0350    -2.4090    -0.9240 C.ar  1 <1>  -0.1500 
 11 C        4.0590    -0.0190    -0.7780 C.ar  1 <1>  -0.1500 
 12 C       -3.3600    -3.6920     0.1820 C.ar  1 <1>  -0.1500 
 13 C       -4.1070    -1.8390     1.5030 C.ar  1 <1>  -0.1500 
 14 C        4.7210    -1.2080    -1.0490 C.ar  1 <1>  -0.1430 
 15 C       -4.6220    -4.2630     0.2400 C.ar  1 <1>  -0.1430 
 16 C       -5.3670    -2.4050     1.5640 C.ar  1 <1>  -0.1500 
 17 C        6.1780    -1.1930    -1.4650 C.3   1 <1>   0.4860 
 18 C       -5.6350    -3.6130     0.9370 C.ar  1 <1>  -0.1430 
 19 C       -4.8660    -5.5900    -0.4640 C.3   1 <1>  -0.0970 
 20 N        6.9980    -0.8380    -0.2760 N.4   1 <1>  -0.9590 
 21 C       -7.0380    -4.1980     1.0310 C.3   1 <1>  -0.0970 
 22 C        8.4380    -0.6000    -0.6320 C.3   1 <1>   0.3430 
 23 C        6.8750    -1.8690     0.8160 C.3   1 <1>   0.3430 
 24 C        9.2940    -0.3420     0.6240 C.3   1 <1>   0.1200 
 25 C        7.8110    -1.5540     1.9980 C.3   1 <1>   0.1200 
 26 O        9.1230    -1.3800     1.5450 O.3   1 <1>  -0.5600 
 27 H        0.1760    -2.1020    -0.0910 H     1 <1>   0.3700 
 28 H       -2.0800     0.0090     0.8640 H     1 <1>   0.0800 
 29 H       -1.6180    -0.8280     2.3430 H     1 <1>   0.0800 
 30 H        2.1910    -3.3520    -0.4170 H     1 <1>   0.1500 
 31 H        2.2370     0.8940    -0.1610 H     1 <1>   0.1500 
 32 H        4.5160    -3.3470    -1.1440 H     1 <1>   0.1500 
 33 H        4.5510     0.9330    -0.8840 H     1 <1>   0.1500 
 34 H       -2.5680    -4.1810    -0.3520 H     1 <1>   0.1500 
 35 H       -3.9430    -0.9040     2.0030 H     1 <1>   0.1500 
 36 H       -6.1440    -1.8950     2.1060 H     1 <1>   0.1500 
 37 H        6.3170    -0.4630    -2.2460 H     1 <1>   0.0800 
 38 H        6.4660    -2.1600    -1.8440 H     1 <1>   0.0800 
 39 H       -3.9730    -5.9400    -0.9500 H     1 <1>   0.0800 
 40 H       -5.6330    -5.4760    -1.2090 H     1 <1>   0.0800 
 41 H       -5.1750    -6.3330     0.2480 H     1 <1>   0.0800 
 42 H        6.6050     0.0330     0.1020 H     1 <1>   0.4500 
 43 H       -7.4580    -4.3040     0.0470 H     1 <1>   0.0800 
 44 H       -7.6850    -3.5630     1.6070 H     1 <1>   0.0800 
 45 H       -7.0030    -5.1630     1.5040 H     1 <1>   0.0800 
 46 H        8.5220     0.2430    -1.2980 H     1 <1>   0.0800 
 47 H        8.8370    -1.4640    -1.1380 H     1 <1>   0.0800 
 48 H        7.1330    -2.8410     0.4300 H     1 <1>   0.0800 
 49 H        5.8580    -1.9120     1.1700 H     1 <1>   0.0800 
 50 H        9.0280     0.5880     1.0940 H     1 <1>   0.0800 
 51 H       10.3380    -0.3070     0.3620 H     1 <1>   0.0800 
 52 H        7.8130    -2.3720     2.6980 H     1 <1>   0.0800 
 53 H        7.5000    -0.6630     2.5160 H     1 <1>   0.0800 
@<TRIPOS>BOND
  1   1   2  2   
  2   2   3  am  
  3   2   4  1   
  4   3   5  1   
  5   3  27  1   
  6   4   6  1   
  7   4  28  1   
  8   4  29  1   
  9   5   7  ar  
 10   5   8  ar  
 11   6   9  1   
 12   7  10  ar  
 13   7  30  1   
 14   8  11  ar  
 15   8  31  1   
 16   9  12  ar  
 17   9  13  ar  
 18  10  14  ar  
 19  10  32  1   
 20  11  14  ar  
 21  11  33  1   
 22  12  15  ar  
 23  12  34  1   
 24  13  16  ar  
 25  13  35  1   
 26  14  17  1   
 27  15  18  ar  
 28  15  19  1   
 29  16  18  ar  
 30  16  36  1   
 31  17  20  1   
 32  17  37  1   
 33  17  38  1   
 34  18  21  1   
 35  19  39  1   
 36  19  40  1   
 37  19  41  1   
 38  20  22  1   
 39  20  23  1   
 40  20  42  1   
 41  21  43  1   
 42  21  44  1   
 43  21  45  1   
 44  22  24  1   
 45  22  46  1   
 46  22  47  1   
 47  23  25  1   
 48  23  48  1   
 49  23  49  1   
 50  24  26  1   
 51  24  50  1   
 52  24  51  1   
 53  25  26  1   
 54  25  52  1   
 55  25  53  1   
@<TRIPOS>SUBSTRUCTURE
  1 ****   3 GROUP 4 **** **** 0

# MOE 2024.06 (io_trps.svl 2023.06)
