@<TRIPOS>MOLECULE
NONAME
43 45 1 0 0 
SMALL
USER_CHARGES


@<TRIPOS>ATOM
  1 O        1.5060    -0.7240     1.7430 O.3   1 <1>  -0.3630 
  2 C        2.3590    -0.8800     0.7280 C.ar  1 <1>   0.0830 
  3 C        0.6220    -1.8450     1.7110 C.3   1 <1>   0.4000 
  4 C        2.0860    -2.0350     0.0570 C.ar  1 <1>   0.0830 
  5 C        3.3900    -0.0470     0.3460 C.ar  1 <1>  -0.1500 
  6 O        1.0480    -2.6590     0.6190 O.3   1 <1>  -0.3630 
  7 C        2.8310    -2.4230    -1.0380 C.ar  1 <1>  -0.1500 
  8 C        4.1610    -0.4190    -0.7520 C.ar  1 <1>  -0.1440 
  9 C        3.8770    -1.6010    -1.4400 C.ar  1 <1>  -0.1500 
 10 C        5.3140     0.4550    -1.1870 C.3   1 <1>   0.4870 
 11 N        6.4800     0.0350    -0.3830 N.4   1 <1>  -0.9060 
 12 C        7.7310     0.7530    -0.6690 C.3   1 <1>   0.4230 
 13 C        8.8740    -0.0540    -0.0470 C.3   1 <1>  -0.1600 
 14 C        7.6280     2.1640    -0.0870 C.3   1 <1>  -0.2400 
 15 C       10.2690     0.4850    -0.3970 C.3   1 <1>  -0.0170 
 16 C       11.3220    -0.4670     0.1390 C.ar  1 <1>  -0.1430 
 17 C       11.8380    -1.4700    -0.6680 C.ar  1 <1>  -0.1500 
 18 C       11.7720    -0.3460     1.4450 C.ar  1 <1>  -0.1500 
 19 C       12.7890    -2.3450    -0.1730 C.ar  1 <1>  -0.1500 
 20 C       12.7230    -1.2220     1.9400 C.ar  1 <1>  -0.1500 
 21 C       13.2310    -2.2220     1.1320 C.ar  1 <1>  -0.1500 
 22 H       -0.3850    -1.5070     1.5380 H     1 <1>   0.0800 
 23 H        0.7040    -2.3990     2.6290 H     1 <1>   0.0800 
 24 H        3.5600     0.8580     0.9030 H     1 <1>   0.1500 
 25 H        2.5930    -3.3370    -1.5540 H     1 <1>   0.1500 
 26 H        4.4580    -1.8980    -2.2970 H     1 <1>   0.1500 
 27 H        5.0760     1.4910    -1.0060 H     1 <1>   0.0800 
 28 H        5.5070     0.3180    -2.2390 H     1 <1>   0.0800 
 29 H        6.6120    -0.9710    -0.5340 H     1 <1>   0.4500 
 30 H        6.2390     0.1340     0.6090 H     1 <1>   0.4500 
 31 H        7.8830     0.8090    -1.7360 H     1 <1>   0.0800 
 32 H        8.8240    -1.0680    -0.4050 H     1 <1>   0.0800 
 33 H        8.7740    -0.0750     1.0250 H     1 <1>   0.0800 
 34 H        7.5120     2.1350     0.9830 H     1 <1>   0.0800 
 35 H        6.8100     2.7090    -0.5200 H     1 <1>   0.0800 
 36 H        8.5220     2.7190    -0.3070 H     1 <1>   0.0800 
 37 H       10.4280     1.4570     0.0360 H     1 <1>   0.0800 
 38 H       10.3820     0.5760    -1.4640 H     1 <1>   0.0800 
 39 H       11.5080    -1.5790    -1.6860 H     1 <1>   0.1500 
 40 H       11.3900     0.4280     2.0860 H     1 <1>   0.1500 
 41 H       13.1880    -3.1220    -0.8030 H     1 <1>   0.1500 
 42 H       13.0700    -1.1240     2.9540 H     1 <1>   0.1500 
 43 H       13.9710    -2.9020     1.5160 H     1 <1>   0.1500 
@<TRIPOS>BOND
  1   1   2  1   
  2   1   3  1   
  3   2   4  ar  
  4   2   5  ar  
  5   3   6  1   
  6   3  22  1   
  7   3  23  1   
  8   4   6  1   
  9   4   7  ar  
 10   5   8  ar  
 11   5  24  1   
 12   7   9  ar  
 13   7  25  1   
 14   8   9  ar  
 15   8  10  1   
 16   9  26  1   
 17  10  11  1   
 18  10  27  1   
 19  10  28  1   
 20  11  12  1   
 21  11  29  1   
 22  11  30  1   
 23  12  13  1   
 24  12  14  1   
 25  12  31  1   
 26  13  15  1   
 27  13  32  1   
 28  13  33  1   
 29  14  34  1   
 30  14  35  1   
 31  14  36  1   
 32  15  16  1   
 33  15  37  1   
 34  15  38  1   
 35  16  17  ar  
 36  16  18  ar  
 37  17  19  ar  
 38  17  39  1   
 39  18  20  ar  
 40  18  40  1   
 41  19  21  ar  
 42  19  41  1   
 43  20  21  ar  
 44  20  42  1   
 45  21  43  1   
@<TRIPOS>SUBSTRUCTURE
  1 ****  11 GROUP 4 **** **** 0

# MOE 2024.06 (io_trps.svl 2023.06)
