@<TRIPOS>MOLECULE
NONAME
42 43 1 0 0 
SMALL
USER_CHARGES


@<TRIPOS>ATOM
  1 O       -2.1810     4.6510     0.8620 O.2   1 <1>  -0.5700 
  2 C       -1.9440     3.8130     0.0240 C.2   1 <1>   0.5690 
  3 N       -2.9760     3.2420    -0.6830 N.am  1 <1>  -0.6600 
  4 C       -0.4880     3.3850    -0.2000 C.3   1 <1>  -0.0190 
  5 C       -2.9600     1.8630    -1.2530 C.3   1 <1>   0.1400 
  6 C       -4.3430     3.8430    -0.6240 C.3   1 <1>   0.1400 
  7 C       -0.0490     2.3400     0.8450 C.3   1 <1>  -0.1600 
  8 C        0.4790     4.5870    -0.1860 C.3   1 <1>  -0.1600 
  9 C       -3.9150     0.9510    -0.4510 C.3   1 <1>   0.3430 
 10 C       -5.2710     2.9460     0.2110 C.3   1 <1>   0.3430 
 11 C        1.4020     1.8920     0.6190 C.3   1 <1>  -0.1600 
 12 C        1.9310     4.1440    -0.4160 C.3   1 <1>  -0.1600 
 13 N       -5.3000     1.5310    -0.3160 N.4   1 <1>  -0.9590 
 14 C        2.3570     3.0920     0.6160 C.3   1 <1>  -0.1600 
 15 C       -6.1690     0.6590     0.5030 C.3   1 <1>   0.4810 
 16 C       -7.5970     1.0380     0.1890 C.2   1 <1>  -0.2880 
 17 C       -8.4290     0.3320    -0.5840 C.2   1 <1>  -0.3000 
 18 H       -0.4120     2.9480    -1.1780 H     1 <1>   0.0800 
 19 H       -1.9730     1.4410    -1.2220 H     1 <1>   0.0800 
 20 H       -3.2660     1.9000    -2.2850 H     1 <1>   0.0800 
 21 H       -4.7320     3.9520    -1.6210 H     1 <1>   0.0800 
 22 H       -4.3090     4.8260    -0.1850 H     1 <1>   0.0800 
 23 H       -0.6940     1.4820     0.8090 H     1 <1>   0.0800 
 24 H       -0.1340     2.7720     1.8290 H     1 <1>   0.0800 
 25 H        0.4130     5.0910     0.7640 H     1 <1>   0.0800 
 26 H        0.1930     5.2910    -0.9480 H     1 <1>   0.0800 
 27 H       -3.4910     0.8070     0.5290 H     1 <1>   0.0800 
 28 H       -3.9670    -0.0120    -0.9320 H     1 <1>   0.0800 
 29 H       -6.2630     3.3650     0.2010 H     1 <1>   0.0800 
 30 H       -4.9170     2.9520     1.2290 H     1 <1>   0.0800 
 31 H        1.4790     1.3750    -0.3220 H     1 <1>   0.0800 
 32 H        1.6940     1.2060     1.3970 H     1 <1>   0.0800 
 33 H        2.5810     4.9990    -0.3460 H     1 <1>   0.0800 
 34 H        2.0300     3.7350    -1.4070 H     1 <1>   0.0800 
 35 H       -5.7360     1.5580    -1.2470 H     1 <1>   0.4500 
 36 H        3.3570     2.7580     0.3980 H     1 <1>   0.0800 
 37 H        2.3680     3.5410     1.5950 H     1 <1>   0.0800 
 38 H       -5.9590     0.7730     1.5550 H     1 <1>   0.0800 
 39 H       -6.0130    -0.3720     0.2280 H     1 <1>   0.0800 
 40 H       -7.9060     1.9540     0.6640 H     1 <1>   0.1500 
 41 H       -9.4480     0.6220    -0.7870 H     1 <1>   0.1500 
 42 H       -8.1840    -0.5940    -1.0790 H     1 <1>   0.1500 
@<TRIPOS>BOND
  1   1   2  2   
  2   2   3  am  
  3   2   4  1   
  4   3   5  1   
  5   3   6  1   
  6   4   7  1   
  7   4   8  1   
  8   4  18  1   
  9   5   9  1   
 10   5  19  1   
 11   5  20  1   
 12   6  10  1   
 13   6  21  1   
 14   6  22  1   
 15   7  11  1   
 16   7  23  1   
 17   7  24  1   
 18   8  12  1   
 19   8  25  1   
 20   8  26  1   
 21   9  13  1   
 22   9  27  1   
 23   9  28  1   
 24  10  13  1   
 25  10  29  1   
 26  10  30  1   
 27  11  14  1   
 28  11  31  1   
 29  11  32  1   
 30  12  14  1   
 31  12  33  1   
 32  12  34  1   
 33  13  15  1   
 34  13  35  1   
 35  14  36  1   
 36  14  37  1   
 37  15  16  1   
 38  15  38  1   
 39  15  39  1   
 40  16  17  2   
 41  16  40  1   
 42  17  41  1   
 43  17  42  1   
@<TRIPOS>SUBSTRUCTURE
  1 ****   3 GROUP 4 **** **** 0

# MOE 2024.06 (io_trps.svl 2023.06)
