@<TRIPOS>MOLECULE
NONAME
32 32 1 0 0 
SMALL
USER_CHARGES


@<TRIPOS>ATOM
  1 S       -0.4890    -0.7190    -1.0000 S.o2  1 <1>   1.5760 
  2 O       -1.1430    -1.4850    -2.0370 O.2   1 <1>  -0.6500 
  3 O       -0.0610     0.6380    -1.2390 O.2   1 <1>  -0.6500 
  4 N        0.8310    -1.6730    -0.4280 N.am  1 <1>  -0.6930 
  5 N       -1.4700    -0.7440     0.3800 N.am  1 <1>  -0.8490 
  6 C        2.0180    -1.1220     0.0470 C.ar  1 <1>   0.1990 
  7 C        0.5940    -3.1460    -0.3480 C.3   1 <1>   0.2570 
  8 C       -0.9910     0.1640     1.4290 C.3   1 <1>   0.1160 
  9 C       -2.8660    -0.4390     0.0620 C.3   1 <1>   0.1160 
 10 C        2.7940    -0.3000    -0.7640 C.ar  1 <1>  -0.1500 
 11 C        2.4640    -1.3830     1.3400 C.ar  1 <1>  -0.1500 
 12 C        1.0290    -3.9170    -1.6000 C.2   1 <1>   0.5690 
 13 C        3.9770     0.2460    -0.3010 C.ar  1 <1>  -0.1500 
 14 C        3.6470    -0.8410     1.8080 C.ar  1 <1>  -0.1500 
 15 O        1.8340    -4.8080    -1.5010 O.2   1 <1>  -0.5700 
 16 N        0.5000    -3.6240    -2.8050 N.am  1 <1>  -0.8000 
 17 C        4.4060    -0.0250     0.9870 C.ar  1 <1>  -0.1500 
 18 H       -0.4510    -3.3330    -0.1780 H     1 <1>   0.0800 
 19 H        1.1330    -3.5530     0.4880 H     1 <1>   0.0800 
 20 H        0.0240    -0.0760     1.6940 H     1 <1>   0.0800 
 21 H       -1.6010     0.0660     2.3100 H     1 <1>   0.0800 
 22 H       -1.0240     1.1860     1.0900 H     1 <1>   0.0800 
 23 H       -3.4690    -0.4850     0.9530 H     1 <1>   0.0800 
 24 H       -2.9470     0.5450    -0.3710 H     1 <1>   0.0800 
 25 H       -3.2500    -1.1600    -0.6410 H     1 <1>   0.0800 
 26 H        2.4660    -0.0890    -1.7650 H     1 <1>   0.1500 
 27 H        1.8780    -2.0090     1.9860 H     1 <1>   0.1500 
 28 H        4.5630     0.8810    -0.9420 H     1 <1>   0.1500 
 29 H        3.9800    -1.0530     2.8090 H     1 <1>   0.1500 
 30 H        0.7990    -4.1250    -3.6410 H     1 <1>   0.3700 
 31 H       -0.1930    -2.8720    -2.9270 H     1 <1>   0.3700 
 32 H        5.3280     0.3990     1.3480 H     1 <1>   0.1500 
@<TRIPOS>BOND
  1   1   2  2   
  2   1   3  2   
  3   1   4  am  
  4   1   5  am  
  5   4   6  1   
  6   4   7  1   
  7   5   8  1   
  8   5   9  1   
  9   6  10  ar  
 10   6  11  ar  
 11   7  12  1   
 12   7  18  1   
 13   7  19  1   
 14   8  20  1   
 15   8  21  1   
 16   8  22  1   
 17   9  23  1   
 18   9  24  1   
 19   9  25  1   
 20  10  13  ar  
 21  10  26  1   
 22  11  14  ar  
 23  11  27  1   
 24  12  15  2   
 25  12  16  am  
 26  13  17  ar  
 27  13  28  1   
 28  14  17  ar  
 29  14  29  1   
 30  16  30  1   
 31  16  31  1   
 32  17  32  1   
@<TRIPOS>SUBSTRUCTURE
  1 ****   4 GROUP 4 **** **** 0

# MOE 2024.06 (io_trps.svl 2023.06)
