@<TRIPOS>MOLECULE
NONAME
47 48 1 0 0 
SMALL
USER_CHARGES


@<TRIPOS>ATOM
  1 O        1.2750    -0.5110     1.7990 O.3   1 <1>  -0.3630 
  2 C        0.7200    -1.4320     0.9710 C.ar  1 <1>   0.0830 
  3 C        2.0620     0.5070     1.2230 C.3   1 <1>   0.1200 
  4 C       -0.3380    -1.0910     0.1270 C.ar  1 <1>  -0.1440 
  5 C        1.2220    -2.7320     0.9810 C.ar  1 <1>  -0.1440 
  6 C        3.4150    -0.0740     0.8040 C.3   1 <1>  -0.1600 
  7 C       -0.8260    -2.0400    -0.7560 C.ar  1 <1>  -0.1500 
  8 C       -1.0140     0.2740     0.1530 C.3   1 <1>  -0.0960 
  9 C        0.7130    -3.6620     0.0900 C.ar  1 <1>  -0.1500 
 10 C        2.3070    -3.1730     1.9540 C.3   1 <1>  -0.0970 
 11 C        4.2930     1.0080     0.1810 C.3   1 <1>   0.3430 
 12 C       -0.3000    -3.3200    -0.7890 C.ar  1 <1>  -0.1440 
 13 N        5.5360     0.4070    -0.3770 N.4   1 <1>  -0.9590 
 14 C       -0.8490    -4.3450    -1.7640 C.3   1 <1>  -0.0970 
 15 C        6.4720    -0.0660     0.6890 C.3   1 <1>   0.3430 
 16 C        6.2090     1.3610    -1.3060 C.3   1 <1>   0.3430 
 17 C        7.6620    -0.7850     0.0510 C.3   1 <1>  -0.1600 
 18 C        7.3930     0.6720    -1.9880 C.3   1 <1>  -0.1600 
 19 C        8.3870     0.1070    -0.9650 C.3   1 <1>  -0.1600 
 20 H        2.1850     1.2720     1.9690 H     1 <1>   0.0800 
 21 H        1.5380     0.9190     0.3790 H     1 <1>   0.0800 
 22 H        3.2460    -0.8500     0.0790 H     1 <1>   0.0800 
 23 H        3.8880    -0.4860     1.6770 H     1 <1>   0.0800 
 24 H       -1.6330    -1.7860    -1.4210 H     1 <1>   0.1500 
 25 H       -0.9040     0.7350     1.1170 H     1 <1>   0.0800 
 26 H       -2.0660     0.1690    -0.0410 H     1 <1>   0.0800 
 27 H       -0.5890     0.9130    -0.5990 H     1 <1>   0.0800 
 28 H        1.1030    -4.6640     0.0820 H     1 <1>   0.1500 
 29 H        2.2460    -2.6120     2.8700 H     1 <1>   0.0800 
 30 H        3.2760    -3.0320     1.5160 H     1 <1>   0.0800 
 31 H        2.1860    -4.2130     2.1980 H     1 <1>   0.0800 
 32 H        4.5390     1.7560     0.9180 H     1 <1>   0.0800 
 33 H        3.7400     1.4840    -0.6120 H     1 <1>   0.0800 
 34 H        5.2690    -0.4160    -0.9340 H     1 <1>   0.4500 
 35 H       -1.1420    -3.8690    -2.6830 H     1 <1>   0.0800 
 36 H       -1.7060    -4.8310    -1.3350 H     1 <1>   0.0800 
 37 H       -0.1060    -5.0890    -1.9900 H     1 <1>   0.0800 
 38 H        5.9660    -0.7460     1.3560 H     1 <1>   0.0800 
 39 H        6.8250     0.7740     1.2650 H     1 <1>   0.0800 
 40 H        6.5610     2.2200    -0.7570 H     1 <1>   0.0800 
 41 H        5.5130     1.7010    -2.0570 H     1 <1>   0.0800 
 42 H        7.3200    -1.6860    -0.4290 H     1 <1>   0.0800 
 43 H        8.3530    -1.0760     0.8240 H     1 <1>   0.0800 
 44 H        7.8980     1.3830    -2.6180 H     1 <1>   0.0800 
 45 H        7.0300    -0.1170    -2.6230 H     1 <1>   0.0800 
 46 H        9.1510    -0.4600    -1.4710 H     1 <1>   0.0800 
 47 H        8.8720     0.9190    -0.4490 H     1 <1>   0.0800 
@<TRIPOS>BOND
  1   1   2  1   
  2   1   3  1   
  3   2   4  ar  
  4   2   5  ar  
  5   3   6  1   
  6   3  20  1   
  7   3  21  1   
  8   4   7  ar  
  9   4   8  1   
 10   5   9  ar  
 11   5  10  1   
 12   6  11  1   
 13   6  22  1   
 14   6  23  1   
 15   7  12  ar  
 16   7  24  1   
 17   8  25  1   
 18   8  26  1   
 19   8  27  1   
 20   9  12  ar  
 21   9  28  1   
 22  10  29  1   
 23  10  30  1   
 24  10  31  1   
 25  11  13  1   
 26  11  32  1   
 27  11  33  1   
 28  12  14  1   
 29  13  15  1   
 30  13  16  1   
 31  13  34  1   
 32  14  35  1   
 33  14  36  1   
 34  14  37  1   
 35  15  17  1   
 36  15  38  1   
 37  15  39  1   
 38  16  18  1   
 39  16  40  1   
 40  16  41  1   
 41  17  19  1   
 42  17  42  1   
 43  17  43  1   
 44  18  19  1   
 45  18  44  1   
 46  18  45  1   
 47  19  46  1   
 48  19  47  1   
@<TRIPOS>SUBSTRUCTURE
  1 ****   6 GROUP 4 **** **** 0

# MOE 2024.06 (io_trps.svl 2023.06)
