@<TRIPOS>MOLECULE
NONAME
30 31 1 0 0 
SMALL
USER_CHARGES


@<TRIPOS>ATOM
  1 O        0.0770     0.8110    -0.9650 O.2   1 <1>  -0.5700 
  2 C       -0.0600     1.5210     0.0110 C.2   1 <1>   0.6900 
  3 N       -1.2880     1.7780     0.5420 N.am  1 <1>  -0.5470 
  4 N        1.0050     2.1050     0.6220 N.am  1 <1>  -0.7300 
  5 C       -2.5490     1.2450     0.2330 C.ar  1 <1>   0.1170 
  6 C        2.4290     2.0320     0.2410 C.3   1 <1>   0.2200 
  7 C       -3.6790     2.0170     0.4960 C.ar  1 <1>  -0.1500 
  8 C       -2.7120    -0.0380    -0.3050 C.ar  1 <1>  -0.1500 
  9 C        2.6380     2.5990    -1.1610 C.3   1 <1>  -0.2400 
 10 C        2.9360     0.5970     0.3660 C.3   1 <1>  -0.2400 
 11 C       -4.9220     1.4910     0.2110 C.ar  1 <1>   0.0830 
 12 C       -3.9700    -0.5520    -0.5890 C.ar  1 <1>  -0.1500 
 13 O       -6.1200     2.0580     0.3830 O.3   1 <1>  -0.3620 
 14 C       -5.0650     0.2420    -0.3180 C.ar  1 <1>   0.0830 
 15 C       -7.0880     1.1130    -0.0710 C.3   1 <1>   0.4000 
 16 O       -6.3630    -0.0360    -0.5030 O.3   1 <1>  -0.3630 
 17 H       -1.3020     2.5760     1.1660 H     1 <1>   0.3700 
 18 H        0.8500     2.5110     1.5400 H     1 <1>   0.3700 
 19 H        2.9850     2.6440     0.9320 H     1 <1>   0.0800 
 20 H       -3.6010     3.0050     0.9080 H     1 <1>   0.1500 
 21 H       -1.8460    -0.6430    -0.5060 H     1 <1>   0.1500 
 22 H        2.1550     1.9850    -1.9000 H     1 <1>   0.0800 
 23 H        3.6880     2.6310    -1.3890 H     1 <1>   0.0800 
 24 H        2.2460     3.5980    -1.2200 H     1 <1>   0.0800 
 25 H        2.4420    -0.0450    -0.3420 H     1 <1>   0.0800 
 26 H        2.7630     0.2250     1.3590 H     1 <1>   0.0800 
 27 H        3.9910     0.5640     0.1680 H     1 <1>   0.0800 
 28 H       -4.0970    -1.5340    -1.0050 H     1 <1>   0.1500 
 29 H       -7.6350     1.5270    -0.8990 H     1 <1>   0.0800 
 30 H       -7.7390     0.8440     0.7430 H     1 <1>   0.0800 
@<TRIPOS>BOND
  1   1   2  2   
  2   2   3  am  
  3   2   4  am  
  4   3   5  1   
  5   3  17  1   
  6   4   6  1   
  7   4  18  1   
  8   5   7  ar  
  9   5   8  ar  
 10   6   9  1   
 11   6  10  1   
 12   6  19  1   
 13   7  11  ar  
 14   7  20  1   
 15   8  12  ar  
 16   8  21  1   
 17   9  22  1   
 18   9  23  1   
 19   9  24  1   
 20  10  25  1   
 21  10  26  1   
 22  10  27  1   
 23  11  13  1   
 24  11  14  ar  
 25  12  14  ar  
 26  12  28  1   
 27  13  15  1   
 28  14  16  1   
 29  15  16  1   
 30  15  29  1   
 31  15  30  1   
@<TRIPOS>SUBSTRUCTURE
  1 ****   5 GROUP 4 **** **** 0

# MOE 2024.06 (io_trps.svl 2023.06)
