@<TRIPOS>MOLECULE
NONAME
27 27 1 0 0 
SMALL
USER_CHARGES


@<TRIPOS>ATOM
  1 S       -0.0620     0.1450     1.0420 S.o2  1 <1>   1.3330 
  2 O       -0.6010    -0.5620     2.1760 O.2   1 <1>  -0.6500 
  3 O       -0.4630     1.4950     0.7320 O.2   1 <1>  -0.6500 
  4 N        1.6330     0.1430     1.2950 N.am  1 <1>  -0.7570 
  5 C       -0.2200    -0.8880    -0.4220 C.3   1 <1>  -0.0550 
  6 C        2.5800     0.5580     0.3650 C.ar  1 <1>   0.1990 
  7 C       -1.6700    -1.1280    -0.8780 C.3   1 <1>  -0.2400 
  8 C        3.6010    -0.3030    -0.0440 C.ar  1 <1>   0.1020 
  9 C        2.5400     1.8360    -0.1800 C.ar  1 <1>  -0.1500 
 10 S        3.6280    -1.9730     0.6670 S.3   1 <1>  -0.3320 
 11 C        4.5500     0.0950    -0.9710 C.ar  1 <1>  -0.1500 
 12 C        3.4840     2.2400    -1.1080 C.ar  1 <1>  -0.1500 
 13 C        5.1610    -2.7980     0.0480 C.3   1 <1>  -0.0100 
 14 C        4.4880     1.3720    -1.5040 C.ar  1 <1>  -0.1500 
 15 H        1.8940    -0.6750     1.8420 H     1 <1>   0.4200 
 16 H        0.2380    -1.8390    -0.2270 H     1 <1>   0.0800 
 17 H        0.3180    -0.4300    -1.2290 H     1 <1>   0.0800 
 18 H       -2.2280    -1.6140    -0.0960 H     1 <1>   0.0800 
 19 H       -1.6870    -1.7500    -1.7550 H     1 <1>   0.0800 
 20 H       -2.1450    -0.1900    -1.1080 H     1 <1>   0.0800 
 21 H        1.7700     2.5200     0.1310 H     1 <1>   0.1500 
 22 H        5.3340    -0.5630    -1.2910 H     1 <1>   0.1500 
 23 H        3.4380     3.2340    -1.5200 H     1 <1>   0.1500 
 24 H        5.2140    -3.7700     0.5070 H     1 <1>   0.0800 
 25 H        6.0040    -2.1960     0.3370 H     1 <1>   0.0800 
 26 H        5.0860    -2.8860    -1.0210 H     1 <1>   0.0800 
 27 H        5.2200     1.6930    -2.2260 H     1 <1>   0.1500 
@<TRIPOS>BOND
  1   1   2  2   
  2   1   3  2   
  3   1   4  am  
  4   1   5  1   
  5   4   6  1   
  6   4  15  1   
  7   5   7  1   
  8   5  16  1   
  9   5  17  1   
 10   6   8  ar  
 11   6   9  ar  
 12   7  18  1   
 13   7  19  1   
 14   7  20  1   
 15   8  10  1   
 16   8  11  ar  
 17   9  12  ar  
 18   9  21  1   
 19  10  13  1   
 20  11  14  ar  
 21  11  22  1   
 22  12  14  ar  
 23  12  23  1   
 24  13  24  1   
 25  13  25  1   
 26  13  26  1   
 27  14  27  1   
@<TRIPOS>SUBSTRUCTURE
  1 ****   6 GROUP 4 **** **** 0

# MOE 2024.06 (io_trps.svl 2023.06)
