@<TRIPOS>MOLECULE
NONAME
31 31 1 0 0 
SMALL
USER_CHARGES


@<TRIPOS>ATOM
  1 CL       0.8240     0.2030    -1.4560 Cl    1 <1>  -0.1770 
  2 C        0.3550     1.7680    -0.8230 C.ar  1 <1>   0.1770 
  3 C        1.3190     2.6420    -0.3360 C.ar  1 <1>   0.0820 
  4 C       -0.9860     2.0980    -0.8260 C.ar  1 <1>  -0.1500 
  5 O        2.6240     2.2440    -0.3670 O.3   1 <1>  -0.3630 
  6 C        0.9090     3.8770     0.1600 C.ar  1 <1>  -0.1500 
  7 C       -1.4020     3.3280    -0.3330 C.ar  1 <1>   0.1170 
  8 C        3.6640     3.0700     0.1070 C.3   1 <1>   0.0400 
  9 C       -0.4410     4.2190     0.1610 C.ar  1 <1>   0.0830 
 10 N       -2.7550     3.7210    -0.3090 N.am  1 <1>  -0.5470 
 11 O       -0.8970     5.4180     0.6360 O.3   1 <1>  -0.3630 
 12 C       -3.9260     3.1350    -0.6940 C.2   1 <1>   0.5690 
 13 C       -0.0220     6.3940     1.1580 C.3   1 <1>   0.0400 
 14 O       -4.0020     2.0330    -1.1850 O.2   1 <1>  -0.5700 
 15 C       -5.2160     3.9260    -0.4890 C.3   1 <1>   0.1810 
 16 O       -4.9720     5.1880     0.0900 O.3   1 <1>  -0.5600 
 17 C       -6.1210     5.9450     0.2950 C.3   1 <1>   0.0400 
 18 H       -1.6900     1.3870    -1.2130 H     1 <1>   0.1500 
 19 H        1.6360     4.5630     0.5390 H     1 <1>   0.1500 
 20 H        4.5920     2.5420    -0.0220 H     1 <1>   0.0800 
 21 H        3.5020     3.2720     1.1510 H     1 <1>   0.0800 
 22 H        3.6780     3.9790    -0.4680 H     1 <1>   0.0800 
 23 H       -2.8980     4.6590     0.0860 H     1 <1>   0.3700 
 24 H       -0.6110     7.2400     1.4640 H     1 <1>   0.0800 
 25 H        0.6700     6.6910     0.3900 H     1 <1>   0.0800 
 26 H        0.4930     5.9840     2.0090 H     1 <1>   0.0800 
 27 H       -5.8670     3.3690     0.1590 H     1 <1>   0.0800 
 28 H       -5.6920     4.0700    -1.4420 H     1 <1>   0.0800 
 29 H       -5.8310     6.8820     0.7380 H     1 <1>   0.0800 
 30 H       -6.7810     5.4180     0.9640 H     1 <1>   0.0800 
 31 H       -6.6040     6.1250    -0.6500 H     1 <1>   0.0800 
@<TRIPOS>BOND
  1   1   2  1   
  2   2   3  ar  
  3   2   4  ar  
  4   3   5  1   
  5   3   6  ar  
  6   4   7  ar  
  7   4  18  1   
  8   5   8  1   
  9   6   9  ar  
 10   6  19  1   
 11   7   9  ar  
 12   7  10  1   
 13   8  20  1   
 14   8  21  1   
 15   8  22  1   
 16   9  11  1   
 17  10  12  am  
 18  10  23  1   
 19  11  13  1   
 20  12  14  2   
 21  12  15  1   
 22  13  24  1   
 23  13  25  1   
 24  13  26  1   
 25  15  16  1   
 26  15  27  1   
 27  15  28  1   
 28  16  17  1   
 29  17  29  1   
 30  17  30  1   
 31  17  31  1   
@<TRIPOS>SUBSTRUCTURE
  1 ****   7 GROUP 4 **** **** 0

# MOE 2024.06 (io_trps.svl 2023.06)
