@<TRIPOS>MOLECULE
NONAME
34 34 1 0 0 
SMALL
USER_CHARGES


@<TRIPOS>ATOM
  1 F       -0.2460     0.6690    -0.4070 F     1 <1>  -0.1900 
  2 C        0.5700     1.6650    -0.6080 C.ar  1 <1>   0.1900 
  3 C        1.3610     1.6640    -1.7400 C.ar  1 <1>  -0.1500 
  4 C        0.6160     2.6900     0.3180 C.ar  1 <1>  -0.1500 
  5 C        2.2280     2.7250    -1.9430 C.ar  1 <1>  -0.1500 
  6 C        1.4890     3.7410     0.0980 C.ar  1 <1>  -0.1500 
  7 C        2.3190     3.7760    -1.0260 C.ar  1 <1>   0.0860 
  8 C        3.2270     4.8830    -1.2530 C.2   1 <1>   0.5440 
  9 O        3.1390     5.5020    -2.2970 O.2   1 <1>  -0.5700 
 10 N        4.1730     5.2730    -0.3240 N.am  1 <1>  -0.6600 
 11 C        4.5260     6.7210    -0.2530 C.3   1 <1>   0.2200 
 12 C        5.0970     4.3120     0.3540 C.3   1 <1>   0.2200 
 13 C        5.8520     6.9980    -0.9650 C.3   1 <1>  -0.2400 
 14 C        4.5420     7.2050     1.1980 C.3   1 <1>  -0.2400 
 15 C        5.6510     3.2870    -0.6360 C.3   1 <1>  -0.2400 
 16 C        4.4300     3.6350     1.5500 C.3   1 <1>  -0.2400 
 17 H        1.2940     0.8540    -2.4440 H     1 <1>   0.1500 
 18 H       -0.0190     2.6610     1.1850 H     1 <1>   0.1500 
 19 H        2.8460     2.7540    -2.8240 H     1 <1>   0.1500 
 20 H        1.5390     4.5540     0.8020 H     1 <1>   0.1500 
 21 H        3.7600     7.2820    -0.7650 H     1 <1>   0.0800 
 22 H        5.9400     4.8600     0.7360 H     1 <1>   0.0800 
 23 H        6.6810     6.5470    -0.4550 H     1 <1>   0.0800 
 24 H        6.0210     8.0580    -1.0100 H     1 <1>   0.0800 
 25 H        5.8040     6.6230    -1.9720 H     1 <1>   0.0800 
 26 H        5.3410     6.7560     1.7570 H     1 <1>   0.0800 
 27 H        3.6030     6.9790     1.6690 H     1 <1>   0.0800 
 28 H        4.6790     8.2710     1.2180 H     1 <1>   0.0800 
 29 H        4.8870     2.6090    -0.9670 H     1 <1>   0.0800 
 30 H        6.4250     2.7100    -0.1640 H     1 <1>   0.0800 
 31 H        6.0750     3.7900    -1.4870 H     1 <1>   0.0800 
 32 H        3.7230     2.8930     1.2340 H     1 <1>   0.0800 
 33 H        3.9400     4.3650     2.1680 H     1 <1>   0.0800 
 34 H        5.1780     3.1390     2.1420 H     1 <1>   0.0800 
@<TRIPOS>BOND
  1   1   2  1   
  2   2   3  ar  
  3   2   4  ar  
  4   3   5  ar  
  5   3  17  1   
  6   4   6  ar  
  7   4  18  1   
  8   5   7  ar  
  9   5  19  1   
 10   6   7  ar  
 11   6  20  1   
 12   7   8  1   
 13   8   9  2   
 14   8  10  am  
 15  10  11  1   
 16  10  12  1   
 17  11  13  1   
 18  11  14  1   
 19  11  21  1   
 20  12  15  1   
 21  12  16  1   
 22  12  22  1   
 23  13  23  1   
 24  13  24  1   
 25  13  25  1   
 26  14  26  1   
 27  14  27  1   
 28  14  28  1   
 29  15  29  1   
 30  15  30  1   
 31  15  31  1   
 32  16  32  1   
 33  16  33  1   
 34  16  34  1   
@<TRIPOS>SUBSTRUCTURE
  1 ****   7 GROUP 4 **** **** 0

# MOE 2024.06 (io_trps.svl 2023.06)
