@<TRIPOS>MOLECULE
NONAME
32 32 1 0 0 
SMALL
USER_CHARGES


@<TRIPOS>ATOM
  1 O        0.2790     0.4160     0.9880 O.2   1 <1>  -0.5700 
  2 C        0.3100     1.3090     0.1780 C.2   1 <1>   0.5690 
  3 N        1.4270     1.6590    -0.5220 N.am  1 <1>  -0.5470 
  4 C       -0.9530     2.1110    -0.0740 C.3   1 <1>  -0.0990 
  5 C        2.7430     1.1570    -0.4780 C.ar  1 <1>   0.1170 
  6 C       -0.8330     3.5660     0.4130 C.3   1 <1>  -0.1600 
  7 C        3.8120     2.0090    -0.7970 C.ar  1 <1>   0.1170 
  8 C        3.0150    -0.1670    -0.1560 C.ar  1 <1>  -0.1500 
  9 C       -2.1310     4.3410     0.1700 C.3   1 <1>  -0.2400 
 10 N        3.5960     3.3620    -1.1110 N.am  1 <1>  -0.5470 
 11 C        5.1080     1.5150    -0.8030 C.ar  1 <1>  -0.1500 
 12 C        4.3120    -0.6480    -0.1560 C.ar  1 <1>  -0.1500 
 13 C        3.1900     4.3620    -0.2910 C.2   1 <1>   0.5690 
 14 C        5.3610     0.1930    -0.4820 C.ar  1 <1>  -0.1500 
 15 O        2.8980     5.4350    -0.7500 O.2   1 <1>  -0.5700 
 16 C        3.0920     4.1420     1.2010 C.3   1 <1>  -0.1790 
 17 H        1.3310     2.5020    -1.0880 H     1 <1>   0.3700 
 18 H       -1.7680     1.6300     0.4370 H     1 <1>   0.0800 
 19 H       -1.1690     2.0910    -1.1270 H     1 <1>   0.0800 
 20 H       -0.0270     4.0650    -0.0980 H     1 <1>   0.0800 
 21 H       -0.6100     3.5700     1.4670 H     1 <1>   0.0800 
 22 H        2.2090    -0.8340     0.0930 H     1 <1>   0.1500 
 23 H       -2.3660     4.3690    -0.8800 H     1 <1>   0.0800 
 24 H       -2.0250     5.3530     0.5220 H     1 <1>   0.0800 
 25 H       -2.9490     3.8820     0.6970 H     1 <1>   0.0800 
 26 H        3.7760     3.6590    -2.0710 H     1 <1>   0.3700 
 27 H        5.9250     2.1680    -1.0520 H     1 <1>   0.1500 
 28 H        4.5030    -1.6770     0.0980 H     1 <1>   0.1500 
 29 H        6.3710    -0.1820    -0.4850 H     1 <1>   0.1500 
 30 H        2.2450     3.5250     1.4290 H     1 <1>   0.0800 
 31 H        2.9790     5.0870     1.7000 H     1 <1>   0.0800 
 32 H        3.9840     3.6650     1.5600 H     1 <1>   0.0800 
@<TRIPOS>BOND
  1   1   2  2   
  2   2   3  am  
  3   2   4  1   
  4   3   5  1   
  5   3  17  1   
  6   4   6  1   
  7   4  18  1   
  8   4  19  1   
  9   5   7  ar  
 10   5   8  ar  
 11   6   9  1   
 12   6  20  1   
 13   6  21  1   
 14   7  10  1   
 15   7  11  ar  
 16   8  12  ar  
 17   8  22  1   
 18   9  23  1   
 19   9  24  1   
 20   9  25  1   
 21  10  13  am  
 22  10  26  1   
 23  11  14  ar  
 24  11  27  1   
 25  12  14  ar  
 26  12  28  1   
 27  13  15  2   
 28  13  16  1   
 29  14  29  1   
 30  16  30  1   
 31  16  31  1   
 32  16  32  1   
@<TRIPOS>SUBSTRUCTURE
  1 ****   3 GROUP 4 **** **** 0

# MOE 2024.06 (io_trps.svl 2023.06)
