@<TRIPOS>MOLECULE
NONAME
39 40 1 0 0 
SMALL
USER_CHARGES


@<TRIPOS>ATOM
  1 S        0.9150    -0.2050     1.0210 S.o2  1 <1>   0.9740 
  2 O        0.7670     0.7400     2.1090 O.co2 1 <1>  -0.6500 
  3 O        1.9370    -1.2330     1.0640 O.co2 1 <1>  -0.6500 
  4 N       -0.5060    -0.9400     0.8150 N.2   1 <1>  -0.7400 
  5 C        1.0810     0.7350    -0.5250 C.ar  1 <1>  -0.0090 
  6 C       -1.2340    -1.5990     1.9090 C.3   1 <1>   0.2740 
  7 C        2.2210     0.6380    -1.3130 C.ar  1 <1>  -0.1500 
  8 C        0.0710     1.5860    -0.9540 C.ar  1 <1>  -0.1500 
  9 C       -0.4420    -2.6950     2.6410 C.2   1 <1>   0.6590 
 10 C       -2.2500    -2.4980     1.1990 C.2   1 <1>  -0.1240 
 11 C       -1.8790    -0.7070     3.0260 C.3   1 <1>   1.0200 
 12 C        2.3510     1.3610    -2.4880 C.ar  1 <1>  -0.1500 
 13 C        0.1870     2.3140    -2.1260 C.ar  1 <1>  -0.1500 
 14 O        0.4080    -2.5850     3.4880 O.2   1 <1>  -0.5700 
 15 O       -0.8940    -3.8960     2.2890 O.3   1 <1>  -0.2270 
 16 C       -1.9430    -3.7790     1.4820 C.2   1 <1>  -0.0620 
 17 C       -3.2860    -1.9450     0.3700 C.2   1 <1>   0.7060 
 18 F       -2.4190     0.4260     2.5840 F     1 <1>  -0.3400 
 19 F       -2.8810    -1.3520     3.6290 F     1 <1>  -0.3400 
 20 F       -1.0790    -0.3410     4.0220 F     1 <1>  -0.3400 
 21 C        1.3310     2.2020    -2.8960 C.ar  1 <1>  -0.1500 
 22 C       -2.5690    -5.0970     1.0650 C.3   1 <1>  -0.1020 
 23 O       -3.7200    -0.8170     0.4720 O.2   1 <1>  -0.5700 
 24 O       -3.8280    -2.7440    -0.5540 O.3   1 <1>  -0.4300 
 25 C       -4.8330    -2.2860    -1.4280 C.3   1 <1>   0.1200 
 26 C       -5.2400    -3.4470    -2.3310 C.3   1 <1>  -0.2400 
 27 H        3.0110    -0.0180    -0.9910 H     1 <1>   0.1500 
 28 H       -0.8170     1.6660    -0.3480 H     1 <1>   0.1500 
 29 H        3.2440     1.2650    -3.0790 H     1 <1>   0.1500 
 30 H       -0.6130     2.9640    -2.4320 H     1 <1>   0.1500 
 31 H        1.4270     2.7660    -3.8070 H     1 <1>   0.1500 
 32 H       -1.8680    -5.6550     0.4710 H     1 <1>   0.0800 
 33 H       -3.4650    -4.9510     0.4940 H     1 <1>   0.0800 
 34 H       -2.8150    -5.6720     1.9400 H     1 <1>   0.0800 
 35 H       -4.4340    -1.4670    -2.0040 H     1 <1>   0.0800 
 36 H       -5.6670    -1.9410    -0.8400 H     1 <1>   0.0800 
 37 H       -4.3930    -3.7840    -2.9010 H     1 <1>   0.0800 
 38 H       -6.0070    -3.1250    -3.0120 H     1 <1>   0.0800 
 39 H       -5.6240    -4.2580    -1.7390 H     1 <1>   0.0800 
@<TRIPOS>BOND
  1   1   2  ar  
  2   1   3  ar  
  3   1   4  2   
  4   1   5  1   
  5   4   6  1   
  6   5   7  ar  
  7   5   8  ar  
  8   6   9  1   
  9   6  10  1   
 10   6  11  1   
 11   7  12  ar  
 12   7  27  1   
 13   8  13  ar  
 14   8  28  1   
 15   9  14  2   
 16   9  15  1   
 17  10  16  2   
 18  10  17  1   
 19  11  18  1   
 20  11  19  1   
 21  11  20  1   
 22  12  21  ar  
 23  12  29  1   
 24  13  21  ar  
 25  13  30  1   
 26  15  16  1   
 27  16  22  1   
 28  17  23  2   
 29  17  24  1   
 30  21  31  1   
 31  22  32  1   
 32  22  33  1   
 33  22  34  1   
 34  24  25  1   
 35  25  26  1   
 36  25  35  1   
 37  25  36  1   
 38  26  37  1   
 39  26  38  1   
 40  26  39  1   
@<TRIPOS>SUBSTRUCTURE
  1 ****   4 GROUP 4 **** **** 0

# MOE 2024.06 (io_trps.svl 2023.06)
