@<TRIPOS>MOLECULE
NONAME
51 53 1 0 0 
SMALL
USER_CHARGES


@<TRIPOS>ATOM
  1 O       -0.2910     0.5440    -1.8080 O.2   1 <1>  -0.5700 
  2 C       -0.1560     1.4040    -0.9660 C.2   1 <1>   0.5690 
  3 N        1.0590     1.6560    -0.3860 N.am  1 <1>  -0.5470 
  4 C       -1.3920     2.2640    -0.5690 C.3   1 <1>   0.2050 
  5 C        2.3440     1.0950    -0.5140 C.ar  1 <1>   0.1170 
  6 C       -2.5620     1.4090    -0.0200 C.ar  1 <1>  -0.1440 
  7 C       -1.7930     3.0960    -1.8210 C.3   1 <1>  -0.1600 
  8 C       -1.0690     3.3470     0.4950 C.3   1 <1>  -0.1600 
  9 C        3.4020     1.7360     0.1410 C.ar  1 <1>   0.0830 
 10 C        2.6080    -0.0580    -1.2450 C.ar  1 <1>  -0.1500 
 11 C       -2.3740     0.1000     0.4160 C.ar  1 <1>  -0.1500 
 12 C       -3.8430     1.9470     0.0840 C.ar  1 <1>  -0.1500 
 13 C       -1.6140     4.5780    -1.4750 C.3   1 <1>  -0.1600 
 14 C       -0.6660     4.5940    -0.2830 C.3   1 <1>  -0.1600 
 15 O        3.0950     2.8630     0.8550 O.3   1 <1>  -0.3630 
 16 C        4.6950     1.2270     0.0540 C.ar  1 <1>  -0.1500 
 17 C        3.8940    -0.5600    -1.3290 C.ar  1 <1>  -0.1500 
 18 C       -3.4260    -0.6420     0.9220 C.ar  1 <1>  -0.1500 
 19 C       -4.8990     1.2090     0.5880 C.ar  1 <1>  -0.1500 
 20 C        4.0880     3.5970     1.5370 C.3   1 <1>   0.0400 
 21 C        4.9420     0.0740    -0.6850 C.ar  1 <1>   0.0830 
 22 C       -4.6940    -0.0990     1.0120 C.ar  1 <1>   0.0830 
 23 O        6.1710    -0.4910    -0.8250 O.3   1 <1>  -0.3630 
 24 O       -5.6700    -0.8930     1.5180 O.3   1 <1>  -0.3620 
 25 C        7.3130     0.0790    -0.2260 C.3   1 <1>   0.0400 
 26 C       -7.0020    -0.4430     1.6170 C.3   1 <1>   0.0400 
 27 H        1.0770     2.4590     0.2430 H     1 <1>   0.3700 
 28 H       -2.7950     2.8910    -2.1520 H     1 <1>   0.0800 
 29 H       -1.1420     2.8610    -2.6470 H     1 <1>   0.0800 
 30 H       -0.3370     3.0460     1.2220 H     1 <1>   0.0800 
 31 H       -1.9620     3.5880     1.0450 H     1 <1>   0.0800 
 32 H        1.8160    -0.5740    -1.7530 H     1 <1>   0.1500 
 33 H       -1.4080    -0.3710     0.3710 H     1 <1>   0.1500 
 34 H       -4.0310     2.9600    -0.2250 H     1 <1>   0.1500 
 35 H       -2.5630     4.9940    -1.1810 H     1 <1>   0.0800 
 36 H       -1.2270     5.1430    -2.3060 H     1 <1>   0.0800 
 37 H        0.3520     4.5080    -0.6260 H     1 <1>   0.0800 
 38 H       -0.7690     5.4910     0.3030 H     1 <1>   0.0800 
 39 H        5.5030     1.7170     0.5540 H     1 <1>   0.1500 
 40 H        4.0900    -1.4510    -1.8980 H     1 <1>   0.1500 
 41 H       -3.2660    -1.6530     1.2500 H     1 <1>   0.1500 
 42 H       -5.8670     1.6670     0.6450 H     1 <1>   0.1500 
 43 H        3.6160     4.4370     2.0140 H     1 <1>   0.0800 
 44 H        4.8170     3.9450     0.8260 H     1 <1>   0.0800 
 45 H        4.5430     2.9650     2.2800 H     1 <1>   0.0800 
 46 H        8.1610    -0.5320    -0.4780 H     1 <1>   0.0800 
 47 H        7.1780     0.0920     0.8410 H     1 <1>   0.0800 
 48 H        7.4520     1.0730    -0.6130 H     1 <1>   0.0800 
 49 H       -7.5940    -1.2410     2.0280 H     1 <1>   0.0800 
 50 H       -7.3590    -0.1920     0.6330 H     1 <1>   0.0800 
 51 H       -7.0350     0.4100     2.2700 H     1 <1>   0.0800 
@<TRIPOS>BOND
  1   1   2  2   
  2   2   3  am  
  3   2   4  1   
  4   3   5  1   
  5   3  27  1   
  6   4   6  1   
  7   4   7  1   
  8   4   8  1   
  9   5   9  ar  
 10   5  10  ar  
 11   6  11  ar  
 12   6  12  ar  
 13   7  13  1   
 14   7  28  1   
 15   7  29  1   
 16   8  14  1   
 17   8  30  1   
 18   8  31  1   
 19   9  15  1   
 20   9  16  ar  
 21  10  17  ar  
 22  10  32  1   
 23  11  18  ar  
 24  11  33  1   
 25  12  19  ar  
 26  12  34  1   
 27  13  14  1   
 28  13  35  1   
 29  13  36  1   
 30  14  37  1   
 31  14  38  1   
 32  15  20  1   
 33  16  21  ar  
 34  16  39  1   
 35  17  21  ar  
 36  17  40  1   
 37  18  22  ar  
 38  18  41  1   
 39  19  22  ar  
 40  19  42  1   
 41  20  43  1   
 42  20  44  1   
 43  20  45  1   
 44  21  23  1   
 45  22  24  1   
 46  23  25  1   
 47  24  26  1   
 48  25  46  1   
 49  25  47  1   
 50  25  48  1   
 51  26  49  1   
 52  26  50  1   
 53  26  51  1   
@<TRIPOS>SUBSTRUCTURE
  1 ****   2 GROUP 4 **** **** 0

# MOE 2024.06 (io_trps.svl 2023.06)
