@<TRIPOS>MOLECULE
NONAME
43 44 1 0 0 
SMALL
USER_CHARGES


@<TRIPOS>ATOM
  1 O       -0.5280    -0.3860    -1.2280 O.2   1 <1>  -0.5700 
  2 C       -0.4520    -1.4780    -0.7010 C.2   1 <1>   0.5440 
  3 N        0.7010    -1.8520    -0.0630 N.am  1 <1>  -0.7300 
  4 C       -1.5890    -2.3810    -0.7280 C.ar  1 <1>   0.0860 
  5 C        1.9660    -1.1250     0.0830 C.3   1 <1>   0.3000 
  6 C       -2.8920    -1.8860    -0.7350 C.ar  1 <1>  -0.1500 
  7 C       -1.4290    -3.7670    -0.7450 C.ar  1 <1>  -0.1500 
  8 C        2.9050    -2.0440     0.8620 C.3   1 <1>  -0.2400 
  9 C        2.5640    -0.8350    -1.2950 C.3   1 <1>  -0.2400 
 10 C        1.7360     0.1610     0.8760 C.3   1 <1>  -0.2400 
 11 C       -4.0050    -2.7150    -0.7420 C.ar  1 <1>   0.1170 
 12 C       -2.5220    -4.6130    -0.7540 C.ar  1 <1>  -0.1500 
 13 N       -5.2760    -2.1240    -0.7450 N.am  1 <1>  -0.5470 
 14 C       -3.8010    -4.0910    -0.7510 C.ar  1 <1>  -0.1500 
 15 C       -6.5410    -2.6160    -0.5680 C.2   1 <1>   0.5690 
 16 O       -6.7920    -3.7820    -0.3690 O.2   1 <1>  -0.5700 
 17 C       -7.6950    -1.6050    -0.6220 C.3   1 <1>   0.2610 
 18 O       -7.2470    -0.3090    -0.9280 O.3   1 <1>  -0.5600 
 19 C       -8.4300    -1.4320     0.7030 C.3   1 <1>  -0.1600 
 20 C       -8.1980     0.6270    -0.5290 C.3   1 <1>   0.1200 
 21 C       -8.9680    -0.0100     0.6260 C.3   1 <1>  -0.1600 
 22 H        0.6790    -2.7160     0.4730 H     1 <1>   0.3700 
 23 H       -3.0300    -0.8200    -0.7330 H     1 <1>   0.1500 
 24 H       -0.4400    -4.1900    -0.7620 H     1 <1>   0.1500 
 25 H        2.5000    -2.2660     1.8330 H     1 <1>   0.0800 
 26 H        3.8580    -1.5650     1.0000 H     1 <1>   0.0800 
 27 H        3.0670    -2.9620     0.3250 H     1 <1>   0.0800 
 28 H        2.6720    -1.7440    -1.8580 H     1 <1>   0.0800 
 29 H        3.5320    -0.3800    -1.1900 H     1 <1>   0.0800 
 30 H        1.9390    -0.1560    -1.8450 H     1 <1>   0.0800 
 31 H        1.2760    -0.0560     1.8230 H     1 <1>   0.0800 
 32 H        1.1040     0.8360     0.3290 H     1 <1>   0.0800 
 33 H        2.6710     0.6590     1.0560 H     1 <1>   0.0800 
 34 H       -2.3830    -5.6810    -0.7670 H     1 <1>   0.1500 
 35 H       -5.2940    -1.1100    -0.8990 H     1 <1>   0.3700 
 36 H       -4.6390    -4.7630    -0.7610 H     1 <1>   0.1500 
 37 H       -8.3850    -1.8990    -1.3930 H     1 <1>   0.0800 
 38 H       -7.7300    -1.5240     1.5150 H     1 <1>   0.0800 
 39 H       -9.2050    -2.1680     0.8220 H     1 <1>   0.0800 
 40 H       -8.8450     0.8270    -1.3670 H     1 <1>   0.0800 
 41 H       -7.6900     1.5290    -0.2330 H     1 <1>   0.0800 
 42 H       -8.7970     0.5230     1.5450 H     1 <1>   0.0800 
 43 H      -10.0220    -0.0030     0.4090 H     1 <1>   0.0800 
@<TRIPOS>BOND
  1   1   2  2   
  2   2   3  am  
  3   2   4  1   
  4   3   5  1   
  5   3  22  1   
  6   4   6  ar  
  7   4   7  ar  
  8   5   8  1   
  9   5   9  1   
 10   5  10  1   
 11   6  11  ar  
 12   6  23  1   
 13   7  12  ar  
 14   7  24  1   
 15   8  25  1   
 16   8  26  1   
 17   8  27  1   
 18   9  28  1   
 19   9  29  1   
 20   9  30  1   
 21  10  31  1   
 22  10  32  1   
 23  10  33  1   
 24  11  13  1   
 25  11  14  ar  
 26  12  14  ar  
 27  12  34  1   
 28  13  15  am  
 29  13  35  1   
 30  14  36  1   
 31  15  16  2   
 32  15  17  1   
 33  17  18  1   
 34  17  19  1   
 35  17  37  1   
 36  18  20  1   
 37  19  21  1   
 38  19  38  1   
 39  19  39  1   
 40  20  21  1   
 41  20  40  1   
 42  20  41  1   
 43  21  42  1   
 44  21  43  1   
@<TRIPOS>SUBSTRUCTURE
  1 ****   6 GROUP 4 **** **** 0

# MOE 2024.06 (io_trps.svl 2023.06)
