@<TRIPOS>MOLECULE
NONAME
38 39 1 0 0 
SMALL
USER_CHARGES


@<TRIPOS>ATOM
  1 CL       0.5190    -0.0130    -1.6470 Cl    1 <1>  -0.1770 
  2 C        1.2470     1.4560    -1.0500 C.ar  1 <1>   0.1770 
  3 C        0.4630     2.5790    -0.8810 C.ar  1 <1>  -0.1500 
  4 C        2.5960     1.4720    -0.7570 C.ar  1 <1>  -0.1500 
  5 C        1.0170     3.7620    -0.4000 C.ar  1 <1>  -0.0090 
  6 C        3.1660     2.6410    -0.2900 C.ar  1 <1>  -0.1500 
  7 S        0.0200     5.2610    -0.1690 S.o2  1 <1>   1.4470 
  8 C        2.3820     3.7820    -0.1170 C.ar  1 <1>   0.0830 
  9 O        0.1680     6.1460    -1.3030 O.2   1 <1>  -0.6500 
 10 O        0.1060     5.7680     1.1800 O.2   1 <1>  -0.6500 
 11 N       -1.5620     4.7020    -0.2020 N.am  1 <1>  -0.9140 
 12 O        2.9000     4.9540     0.3250 O.3   1 <1>  -0.3620 
 13 C       -2.5140     5.7250    -0.6480 C.3   1 <1>   0.1960 
 14 C        4.2560     5.1070     0.6730 C.3   1 <1>   0.1200 
 15 C       -3.9640     5.2440    -0.4890 C.3   1 <1>   0.2000 
 16 C        4.4540     6.5460     1.1370 C.3   1 <1>  -0.2400 
 17 O       -4.8340     6.2780    -0.8130 O.3   1 <1>  -0.5600 
 18 C       -4.3610     4.8610     0.9320 C.3   1 <1>  -0.1600 
 19 C       -6.0840     6.0600    -0.2390 C.3   1 <1>   0.1200 
 20 C       -5.8570     5.1270     0.9490 C.3   1 <1>  -0.1600 
 21 H       -0.5820     2.5210    -1.1320 H     1 <1>   0.1500 
 22 H        3.1850     0.5830    -0.8970 H     1 <1>   0.1500 
 23 H        4.2180     2.6440    -0.0700 H     1 <1>   0.1500 
 24 H       -1.7480     4.5570     0.7890 H     1 <1>   0.4200 
 25 H       -2.3370     5.9520    -1.6870 H     1 <1>   0.0800 
 26 H       -2.3760     6.6240    -0.0710 H     1 <1>   0.0800 
 27 H        4.8580     4.9020    -0.1950 H     1 <1>   0.0800 
 28 H        4.4870     4.4170     1.4650 H     1 <1>   0.0800 
 29 H       -4.1630     4.4340    -1.1700 H     1 <1>   0.0800 
 30 H        4.2060     7.2280     0.3440 H     1 <1>   0.0800 
 31 H        5.4800     6.7030     1.4170 H     1 <1>   0.0800 
 32 H        3.8300     6.7480     1.9900 H     1 <1>   0.0800 
 33 H       -3.8650     5.5070     1.6360 H     1 <1>   0.0800 
 34 H       -4.1220     3.8360     1.1520 H     1 <1>   0.0800 
 35 H       -6.7210     5.6070    -0.9790 H     1 <1>   0.0800 
 36 H       -6.4880     7.0110     0.0630 H     1 <1>   0.0800 
 37 H       -6.1710     5.5860     1.8700 H     1 <1>   0.0800 
 38 H       -6.4140     4.2180     0.8020 H     1 <1>   0.0800 
@<TRIPOS>BOND
  1   1   2  1   
  2   2   3  ar  
  3   2   4  ar  
  4   3   5  ar  
  5   3  21  1   
  6   4   6  ar  
  7   4  22  1   
  8   5   7  1   
  9   5   8  ar  
 10   6   8  ar  
 11   6  23  1   
 12   7   9  2   
 13   7  10  2   
 14   7  11  am  
 15   8  12  1   
 16  11  13  1   
 17  11  24  1   
 18  12  14  1   
 19  13  15  1   
 20  13  25  1   
 21  13  26  1   
 22  14  16  1   
 23  14  27  1   
 24  14  28  1   
 25  15  17  1   
 26  15  18  1   
 27  15  29  1   
 28  16  30  1   
 29  16  31  1   
 30  16  32  1   
 31  17  19  1   
 32  18  20  1   
 33  18  33  1   
 34  18  34  1   
 35  19  20  1   
 36  19  35  1   
 37  19  36  1   
 38  20  37  1   
 39  20  38  1   
@<TRIPOS>SUBSTRUCTURE
  1 ****   7 GROUP 4 **** **** 0

# MOE 2024.06 (io_trps.svl 2023.06)
