@<TRIPOS>MOLECULE
NONAME
32 32 1 0 0 
SMALL
USER_CHARGES


@<TRIPOS>ATOM
  1 S       -1.1370     0.8150     0.6750 S.3   1 <1>  -0.2660 
  2 C        0.1360     1.0530    -0.5800 C.1   1 <1>   0.5930 
  3 C       -2.5980     0.2920    -0.3230 C.3   1 <1>   0.0700 
  4 N        0.9190     1.1950    -1.3930 N.1   1 <1>  -0.5570 
  5 C       -3.7690     0.0530     0.6310 C.3   1 <1>  -0.1600 
  6 C       -5.0140    -0.3840    -0.1370 C.3   1 <1>   0.1200 
  7 O       -6.0480    -0.5860     0.7900 O.3   1 <1>  -0.3630 
  8 C       -7.2320    -0.9820     0.2500 C.ar  1 <1>   0.0830 
  9 C       -8.1710    -0.0240    -0.1330 C.ar  1 <1>   0.0830 
 10 C       -7.5050    -2.3430     0.1040 C.ar  1 <1>   0.0830 
 11 O       -7.8490     1.2940     0.0180 O.3   1 <1>  -0.3630 
 12 C       -9.3920    -0.4400    -0.6590 C.ar  1 <1>  -0.1500 
 13 O       -6.5460    -3.2380     0.4820 O.3   1 <1>  -0.3630 
 14 C       -8.7310    -2.7380    -0.4240 C.ar  1 <1>  -0.1500 
 15 C       -8.8290     2.3030    -0.0830 C.3   1 <1>   0.0400 
 16 C       -9.6670    -1.7900    -0.8000 C.ar  1 <1>  -0.1500 
 17 C       -6.8410    -4.6090     0.6250 C.3   1 <1>   0.0400 
 18 H       -2.3240    -0.6060    -0.8480 H     1 <1>   0.0800 
 19 H       -2.8100     1.0840    -1.0210 H     1 <1>   0.0800 
 20 H       -3.9870     0.9610     1.1650 H     1 <1>   0.0800 
 21 H       -3.5050    -0.7150     1.3370 H     1 <1>   0.0800 
 22 H       -4.8450    -1.3100    -0.6580 H     1 <1>   0.0800 
 23 H       -5.3300     0.3770    -0.8310 H     1 <1>   0.0800 
 24 H      -10.1370     0.2680    -0.9670 H     1 <1>   0.1500 
 25 H       -8.9740    -3.7750    -0.5530 H     1 <1>   0.1500 
 26 H       -8.3720     3.2380     0.1860 H     1 <1>   0.0800 
 27 H       -9.6300     2.0790     0.5990 H     1 <1>   0.0800 
 28 H       -9.1830     2.3470    -1.0970 H     1 <1>   0.0800 
 29 H      -10.6120    -2.1030    -1.2070 H     1 <1>   0.1500 
 30 H       -5.9750    -5.0940     1.0390 H     1 <1>   0.0800 
 31 H       -7.0630    -5.0220    -0.3430 H     1 <1>   0.0800 
 32 H       -7.6760    -4.7180     1.2940 H     1 <1>   0.0800 
@<TRIPOS>BOND
  1   1   2  1   
  2   1   3  1   
  3   2   4  3   
  4   3   5  1   
  5   3  18  1   
  6   3  19  1   
  7   5   6  1   
  8   5  20  1   
  9   5  21  1   
 10   6   7  1   
 11   6  22  1   
 12   6  23  1   
 13   7   8  1   
 14   8   9  ar  
 15   8  10  ar  
 16   9  11  1   
 17   9  12  ar  
 18  10  13  1   
 19  10  14  ar  
 20  11  15  1   
 21  12  16  ar  
 22  12  24  1   
 23  13  17  1   
 24  14  16  ar  
 25  14  25  1   
 26  15  26  1   
 27  15  27  1   
 28  15  28  1   
 29  16  29  1   
 30  17  30  1   
 31  17  31  1   
 32  17  32  1   
@<TRIPOS>SUBSTRUCTURE
  1 ****   6 GROUP 4 **** **** 0

# MOE 2024.06 (io_trps.svl 2023.06)
