@<TRIPOS>MOLECULE
NONAME
32 33 1 0 0 
SMALL
USER_CHARGES


@<TRIPOS>ATOM
  1 O       -0.6000     0.5840    -1.0480 O.2   1 <1>  -0.5700 
  2 C       -0.7620     1.6120    -0.4350 C.2   1 <1>   0.5690 
  3 N       -1.7960     1.8480     0.4100 N.am  1 <1>  -0.4200 
  4 C        0.1310     2.8620    -0.5610 C.3   1 <1>   0.2510 
  5 C       -1.7870     3.1260     0.8580 C.2   1 <1>   0.5690 
  6 C       -2.8480     0.8710     0.7300 C.3   1 <1>   0.2780 
  7 N        1.5260     2.7520    -0.0350 N.3   1 <1>  -0.8100 
  8 C       -0.6410     3.9070     0.2670 C.3   1 <1>  -0.0990 
  9 O       -2.5800     3.6100     1.6230 O.2   1 <1>  -0.5700 
 10 C       -3.8610     0.8430    -0.3990 C.2   1 <1>  -0.2880 
 11 C        2.3420     3.9280    -0.4230 C.3   1 <1>   0.1100 
 12 C        2.2120     1.5230    -0.5020 C.3   1 <1>   0.1100 
 13 C       -5.1320     1.2480    -0.3060 C.2   1 <1>  -0.3000 
 14 C        3.7910     3.7960     0.0760 C.3   1 <1>   0.1200 
 15 C        3.6750     1.4690    -0.0250 C.3   1 <1>   0.1200 
 16 O        4.3650     2.6210    -0.4140 O.3   1 <1>  -0.5600 
 17 H        0.1560     3.1460    -1.5990 H     1 <1>   0.0800 
 18 H       -3.3270     1.1500     1.6530 H     1 <1>   0.0800 
 19 H       -2.4080    -0.1040     0.8550 H     1 <1>   0.0800 
 20 H       -1.0300     4.6870    -0.3590 H     1 <1>   0.0800 
 21 H       -0.0540     4.3240     1.0650 H     1 <1>   0.0800 
 22 H       -3.4410     0.4540    -1.3120 H     1 <1>   0.1500 
 23 H        1.9190     4.8240    -0.0060 H     1 <1>   0.0800 
 24 H        2.3570     4.0300    -1.4950 H     1 <1>   0.0800 
 25 H        2.1920     1.4710    -1.5780 H     1 <1>   0.0800 
 26 H        1.7100     0.6540    -0.1150 H     1 <1>   0.0800 
 27 H       -5.8340     1.2170    -1.1220 H     1 <1>   0.1500 
 28 H       -5.5780     1.6460     0.5900 H     1 <1>   0.1500 
 29 H        3.8220     3.7750     1.1520 H     1 <1>   0.0800 
 30 H        4.3840     4.6220    -0.2740 H     1 <1>   0.0800 
 31 H        4.1770     0.6230    -0.4590 H     1 <1>   0.0800 
 32 H        3.7180     1.3870     1.0470 H     1 <1>   0.0800 
@<TRIPOS>BOND
  1   1   2  2   
  2   2   3  am  
  3   2   4  1   
  4   3   5  am  
  5   3   6  1   
  6   4   7  1   
  7   4   8  1   
  8   4  17  1   
  9   5   8  1   
 10   5   9  2   
 11   6  10  1   
 12   6  18  1   
 13   6  19  1   
 14   7  11  1   
 15   7  12  1   
 16   8  20  1   
 17   8  21  1   
 18  10  13  2   
 19  10  22  1   
 20  11  14  1   
 21  11  23  1   
 22  11  24  1   
 23  12  15  1   
 24  12  25  1   
 25  12  26  1   
 26  13  27  1   
 27  13  28  1   
 28  14  16  1   
 29  14  29  1   
 30  14  30  1   
 31  15  16  1   
 32  15  31  1   
 33  15  32  1   
@<TRIPOS>SUBSTRUCTURE
  1 ****   4 GROUP 4 **** **** 0

# MOE 2024.06 (io_trps.svl 2023.06)
