@<TRIPOS>MOLECULE
NONAME
46 48 1 0 0 
SMALL
USER_CHARGES


@<TRIPOS>ATOM
  1 O        0.3330     0.5340     2.6320 O.2   1 <1>  -0.5700 
  2 C       -0.1710     0.9570     1.6200 C.2   1 <1>   0.5690 
  3 N        0.4580     1.0460     0.4110 N.am  1 <1>  -0.5470 
  4 C       -1.6220     1.4410     1.6590 C.3   1 <1>   0.1710 
  5 C        1.7450     0.7190    -0.0400 C.ar  1 <1>   0.1170 
  6 N       -2.3230     1.3670     0.3380 N.3   1 <1>  -0.8100 
  7 C        2.7640     0.2800     0.7970 C.ar  1 <1>  -0.1500 
  8 C        2.0200     0.8410    -1.3950 C.ar  1 <1>  -0.1500 
  9 C       -2.5620    -0.0480    -0.0460 C.3   1 <1>   0.1100 
 10 C       -3.5240     2.2350     0.3030 C.3   1 <1>   0.1100 
 11 C        4.0220    -0.0330     0.3060 C.ar  1 <1>  -0.1430 
 12 C        3.2700     0.5330    -1.8970 C.ar  1 <1>  -0.1500 
 13 C       -3.6830    -0.1540    -1.0770 C.3   1 <1>  -0.1600 
 14 C       -4.7970     1.4430     0.5930 C.3   1 <1>  -0.1600 
 15 C        4.2790     0.0940    -1.0550 C.ar  1 <1>  -0.1430 
 16 C        5.0930    -0.5100     1.2770 C.3   1 <1>  -0.0970 
 17 C       -4.9960     0.3650    -0.4740 C.3   1 <1>   0.5600 
 18 C        5.6440    -0.2370    -1.6420 C.3   1 <1>  -0.0970 
 19 O       -5.7130    -0.6830     0.0900 O.3   1 <1>  -0.5600 
 20 O       -5.8050     0.8670    -1.4840 O.3   1 <1>  -0.5600 
 21 C       -6.6550    -1.1410    -0.8150 C.3   1 <1>   0.1200 
 22 C       -6.5970    -0.1540    -1.9640 C.3   1 <1>   0.1200 
 23 H       -0.1950     1.3720    -0.3080 H     1 <1>   0.3700 
 24 H       -1.5940     2.4630     1.9920 H     1 <1>   0.0800 
 25 H       -2.1620     0.8720     2.3950 H     1 <1>   0.0800 
 26 H        2.5730     0.1820     1.8490 H     1 <1>   0.1500 
 27 H        1.2510     1.1800    -2.0650 H     1 <1>   0.1500 
 28 H       -2.8400    -0.6260     0.8210 H     1 <1>   0.0800 
 29 H       -1.6580    -0.4710    -0.4500 H     1 <1>   0.0800 
 30 H       -3.6060     2.6650    -0.6830 H     1 <1>   0.0800 
 31 H       -3.4280     3.0510     0.9990 H     1 <1>   0.0800 
 32 H        3.4530     0.6370    -2.9510 H     1 <1>   0.1500 
 33 H       -3.7960    -1.1750    -1.3890 H     1 <1>   0.0800 
 34 H       -3.4130     0.4390    -1.9310 H     1 <1>   0.0800 
 35 H       -5.6480     2.0990     0.6060 H     1 <1>   0.0800 
 36 H       -4.7050     0.9880     1.5610 H     1 <1>   0.0800 
 37 H        4.7130    -0.5490     2.2820 H     1 <1>   0.0800 
 38 H        5.9310     0.1630     1.2600 H     1 <1>   0.0800 
 39 H        5.4250    -1.4950     1.0040 H     1 <1>   0.0800 
 40 H        5.8850    -1.2670    -1.4520 H     1 <1>   0.0800 
 41 H        6.3970     0.3880    -1.1980 H     1 <1>   0.0800 
 42 H        5.6560    -0.0780    -2.7040 H     1 <1>   0.0800 
 43 H       -7.6190    -1.1380    -0.3380 H     1 <1>   0.0800 
 44 H       -6.3960    -2.1380    -1.1260 H     1 <1>   0.0800 
 45 H       -6.1240    -0.5850    -2.8290 H     1 <1>   0.0800 
 46 H       -7.5670     0.2350    -2.2210 H     1 <1>   0.0800 
@<TRIPOS>BOND
  1   1   2  2   
  2   2   3  am  
  3   2   4  1   
  4   3   5  1   
  5   3  23  1   
  6   4   6  1   
  7   4  24  1   
  8   4  25  1   
  9   5   7  ar  
 10   5   8  ar  
 11   6   9  1   
 12   6  10  1   
 13   7  11  ar  
 14   7  26  1   
 15   8  12  ar  
 16   8  27  1   
 17   9  13  1   
 18   9  28  1   
 19   9  29  1   
 20  10  14  1   
 21  10  30  1   
 22  10  31  1   
 23  11  15  ar  
 24  11  16  1   
 25  12  15  ar  
 26  12  32  1   
 27  13  17  1   
 28  13  33  1   
 29  13  34  1   
 30  14  17  1   
 31  14  35  1   
 32  14  36  1   
 33  15  18  1   
 34  16  37  1   
 35  16  38  1   
 36  16  39  1   
 37  17  19  1   
 38  17  20  1   
 39  18  40  1   
 40  18  41  1   
 41  18  42  1   
 42  19  21  1   
 43  20  22  1   
 44  21  22  1   
 45  21  43  1   
 46  21  44  1   
 47  22  45  1   
 48  22  46  1   
@<TRIPOS>SUBSTRUCTURE
  1 ****   3 GROUP 4 **** **** 0

# MOE 2024.06 (io_trps.svl 2023.06)
