@<TRIPOS>MOLECULE
NONAME
51 53 1 0 0 
SMALL
USER_CHARGES


@<TRIPOS>ATOM
  1 O       -5.7010     0.2620     1.4970 O.co2 1 <1>  -0.9000 
  2 C       -5.2050     1.3550     1.8050 C.2   1 <1>   0.9060 
  3 O       -5.9280     2.2730     2.2020 O.co2 1 <1>  -0.9000 
  4 C       -3.7410     1.6590     1.5680 C.3   1 <1>  -0.1860 
  5 C       -3.5430     2.4890     0.2720 C.3   1 <1>  -0.0190 
  6 C       -2.8590     0.3960     1.5880 C.3   1 <1>  -0.0220 
  7 C       -4.0390     1.7480    -0.9870 C.2   1 <1>   0.5690 
  8 C       -2.0660     2.9380     0.1550 C.3   1 <1>  -0.0220 
  9 C       -1.4260     0.7400     1.2190 C.2   1 <1>  -0.2880 
 10 O       -3.2440     1.0720    -1.6010 O.2   1 <1>  -0.5700 
 11 N       -5.3440     1.8160    -1.4380 N.am  1 <1>  -0.6600 
 12 C       -1.0750     1.8680     0.5940 C.2   1 <1>  -0.2880 
 13 C       -5.8720     0.6950    -2.2570 C.3   1 <1>   0.1400 
 14 C       -6.4490     2.6880    -0.9200 C.3   1 <1>   0.1400 
 15 C       -6.7340    -0.1880    -1.3480 C.3   1 <1>   0.3430 
 16 C       -7.5890     1.8970    -0.2320 C.3   1 <1>   0.3430 
 17 N       -7.9320     0.5420    -0.8080 N.4   1 <1>  -0.9590 
 18 C       -8.4830    -0.2600     0.3170 C.3   1 <1>   0.4860 
 19 C       -9.8260     0.3220     0.7150 C.ar  1 <1>  -0.1430 
 20 C      -10.9670     0.0590    -0.0290 C.ar  1 <1>  -0.1500 
 21 C       -9.9140     1.1360     1.8340 C.ar  1 <1>  -0.1500 
 22 C      -12.1800     0.6140     0.3400 C.ar  1 <1>  -0.1500 
 23 C      -11.1280     1.6890     2.2000 C.ar  1 <1>  -0.1500 
 24 C      -12.2660     1.4340     1.4530 C.ar  1 <1>  -0.1430 
 25 C      -13.5970     2.0400     1.8590 C.3   1 <1>  -0.0970 
 26 H       -3.4330     2.2730     2.3940 H     1 <1>   0.0800 
 27 H       -4.1100     3.3920     0.3700 H     1 <1>   0.0800 
 28 H       -3.2330    -0.3370     0.8940 H     1 <1>   0.0800 
 29 H       -2.8900    -0.0340     2.5740 H     1 <1>   0.0800 
 30 H       -1.9130     3.8020     0.7760 H     1 <1>   0.0800 
 31 H       -1.8580     3.2250    -0.8610 H     1 <1>   0.0800 
 32 H       -0.7200    -0.0210     1.5020 H     1 <1>   0.1500 
 33 H       -0.0550     2.1040     0.3450 H     1 <1>   0.1500 
 34 H       -5.0730     0.1010    -2.6650 H     1 <1>   0.0800 
 35 H       -6.4510     1.0760    -3.0790 H     1 <1>   0.0800 
 36 H       -6.8630     3.2340    -1.7490 H     1 <1>   0.0800 
 37 H       -6.0820     3.4160    -0.2220 H     1 <1>   0.0800 
 38 H       -6.1120    -0.5210    -0.5320 H     1 <1>   0.0800 
 39 H       -7.0530    -1.0590    -1.8940 H     1 <1>   0.0800 
 40 H       -8.4730     2.5120    -0.2130 H     1 <1>   0.0800 
 41 H       -7.3260     1.7530     0.7930 H     1 <1>   0.0800 
 42 H       -8.6550     0.6570    -1.5200 H     1 <1>   0.4500 
 43 H       -7.8090    -0.2340     1.1590 H     1 <1>   0.0800 
 44 H       -8.6110    -1.2860     0.0190 H     1 <1>   0.0800 
 45 H      -10.9270    -0.5800    -0.8940 H     1 <1>   0.1500 
 46 H       -9.0360     1.3450     2.4290 H     1 <1>   0.1500 
 47 H      -13.0620     0.4030    -0.2410 H     1 <1>   0.1500 
 48 H      -11.1810     2.3180     3.0720 H     1 <1>   0.1500 
 49 H      -14.1000     1.3840     2.5460 H     1 <1>   0.0800 
 50 H      -14.2230     2.1880     0.9980 H     1 <1>   0.0800 
 51 H      -13.4460     2.9920     2.3360 H     1 <1>   0.0800 
@<TRIPOS>BOND
  1   1   2  ar  
  2   2   3  ar  
  3   2   4  1   
  4   4   5  1   
  5   4   6  1   
  6   4  26  1   
  7   5   7  1   
  8   5   8  1   
  9   5  27  1   
 10   6   9  1   
 11   6  28  1   
 12   6  29  1   
 13   7  10  2   
 14   7  11  am  
 15   8  12  1   
 16   8  30  1   
 17   8  31  1   
 18   9  12  2   
 19   9  32  1   
 20  11  13  1   
 21  11  14  1   
 22  12  33  1   
 23  13  15  1   
 24  13  34  1   
 25  13  35  1   
 26  14  16  1   
 27  14  36  1   
 28  14  37  1   
 29  15  17  1   
 30  15  38  1   
 31  15  39  1   
 32  16  17  1   
 33  16  40  1   
 34  16  41  1   
 35  17  18  1   
 36  17  42  1   
 37  18  19  1   
 38  18  43  1   
 39  18  44  1   
 40  19  20  ar  
 41  19  21  ar  
 42  20  22  ar  
 43  20  45  1   
 44  21  23  ar  
 45  21  46  1   
 46  22  24  ar  
 47  22  47  1   
 48  23  24  ar  
 49  23  48  1   
 50  24  25  1   
 51  25  49  1   
 52  25  50  1   
 53  25  51  1   
@<TRIPOS>SUBSTRUCTURE
  1 ****  16 GROUP 4 **** **** 0

# MOE 2024.06 (io_trps.svl 2023.06)
