@<TRIPOS>MOLECULE
NONAME
47 48 1 0 0 
SMALL
USER_CHARGES


@<TRIPOS>ATOM
  1 CL       0.6310    -1.1670    -2.4720 Cl    1 <1>  -0.1770 
  2 C        1.6340    -1.4020    -1.0570 C.ar  1 <1>   0.1770 
  3 C        1.2370    -2.2750    -0.0510 C.ar  1 <1>   0.0820 
  4 C        2.8210    -0.6980    -0.9770 C.ar  1 <1>  -0.1500 
  5 O        0.0590    -2.9350    -0.1950 O.3   1 <1>  -0.3630 
  6 C        2.0710    -2.4280     1.0530 C.ar  1 <1>  -0.1500 
  7 C        3.6590    -0.8440     0.1230 C.ar  1 <1>  -0.0090 
  8 C       -0.4210    -3.8280     0.7830 C.3   1 <1>   0.1200 
  9 C        3.2600    -1.7200     1.1290 C.ar  1 <1>  -0.1500 
 10 S        5.2290     0.0560     0.2340 S.o2  1 <1>   1.4470 
 11 C       -1.7600    -4.3780     0.3020 C.3   1 <1>  -0.2400 
 12 O        5.5120     0.4300     1.6000 O.2   1 <1>  -0.6500 
 13 O        5.3570     1.0190    -0.8330 O.2   1 <1>  -0.6500 
 14 N        6.3800    -1.0940    -0.1820 N.am  1 <1>  -0.9140 
 15 C        7.7140    -0.6980     0.2220 C.3   1 <1>   0.1960 
 16 C        8.7000    -1.7800    -0.2110 C.3   1 <1>  -0.1600 
 17 C       10.0980    -1.4570     0.3190 C.3   1 <1>   0.3430 
 18 N       11.0420    -2.5740     0.0320 N.4   1 <1>  -0.9590 
 19 C       12.3140    -2.4110     0.8240 C.3   1 <1>   0.3430 
 20 C       11.3630    -2.7080    -1.4360 C.3   1 <1>   0.3430 
 21 C       13.3500    -3.4950     0.4690 C.3   1 <1>   0.1200 
 22 C       12.4440    -3.7770    -1.6880 C.3   1 <1>   0.1200 
 23 O       13.5740    -3.5130    -0.9110 O.3   1 <1>  -0.5600 
 24 H        3.0860    -0.0310    -1.7790 H     1 <1>   0.1500 
 25 H        1.8130    -3.0880     1.8600 H     1 <1>   0.1500 
 26 H       -0.5410    -3.2900     1.7080 H     1 <1>   0.0800 
 27 H        0.2950    -4.6230     0.9010 H     1 <1>   0.0800 
 28 H        3.8950    -1.8480     1.9910 H     1 <1>   0.1500 
 29 H       -2.4640    -3.5750     0.1710 H     1 <1>   0.0800 
 30 H       -2.1560    -5.0650     1.0280 H     1 <1>   0.0800 
 31 H       -1.6330    -4.8980    -0.6300 H     1 <1>   0.0800 
 32 H        6.3450    -1.0790    -1.2010 H     1 <1>   0.4200 
 33 H        7.7430    -0.5930     1.2960 H     1 <1>   0.0800 
 34 H        7.9660     0.2530    -0.2220 H     1 <1>   0.0800 
 35 H        8.7090    -1.8300    -1.2850 H     1 <1>   0.0800 
 36 H        8.3720    -2.7210     0.1940 H     1 <1>   0.0800 
 37 H       10.0360    -1.3080     1.3850 H     1 <1>   0.0800 
 38 H       10.4600    -0.5440    -0.1260 H     1 <1>   0.0800 
 39 H       10.6050    -3.4550     0.3370 H     1 <1>   0.4500 
 40 H       12.1010    -2.4570     1.8790 H     1 <1>   0.0800 
 41 H       12.7510    -1.4480     0.6160 H     1 <1>   0.0800 
 42 H       11.7250    -1.7670    -1.8170 H     1 <1>   0.0800 
 43 H       10.4750    -2.9690    -1.9880 H     1 <1>   0.0800 
 44 H       13.0200    -4.4710     0.7810 H     1 <1>   0.0800 
 45 H       14.2890    -3.2820     0.9490 H     1 <1>   0.0800 
 46 H       12.7480    -3.7610    -2.7210 H     1 <1>   0.0800 
 47 H       12.0820    -4.7630    -1.4540 H     1 <1>   0.0800 
@<TRIPOS>BOND
  1   1   2  1   
  2   2   3  ar  
  3   2   4  ar  
  4   3   5  1   
  5   3   6  ar  
  6   4   7  ar  
  7   4  24  1   
  8   5   8  1   
  9   6   9  ar  
 10   6  25  1   
 11   7   9  ar  
 12   7  10  1   
 13   8  11  1   
 14   8  26  1   
 15   8  27  1   
 16   9  28  1   
 17  10  12  2   
 18  10  13  2   
 19  10  14  am  
 20  11  29  1   
 21  11  30  1   
 22  11  31  1   
 23  14  15  1   
 24  14  32  1   
 25  15  16  1   
 26  15  33  1   
 27  15  34  1   
 28  16  17  1   
 29  16  35  1   
 30  16  36  1   
 31  17  18  1   
 32  17  37  1   
 33  17  38  1   
 34  18  19  1   
 35  18  20  1   
 36  18  39  1   
 37  19  21  1   
 38  19  40  1   
 39  19  41  1   
 40  20  22  1   
 41  20  42  1   
 42  20  43  1   
 43  21  23  1   
 44  21  44  1   
 45  21  45  1   
 46  22  23  1   
 47  22  46  1   
 48  22  47  1   
@<TRIPOS>SUBSTRUCTURE
  1 ****  14 GROUP 4 **** **** 0

# MOE 2024.06 (io_trps.svl 2023.06)
