@<TRIPOS>MOLECULE
NONAME
41 43 1 0 0 
SMALL
USER_CHARGES


@<TRIPOS>ATOM
  1 S        0.3810    -0.5470    -1.0890 S.o2  1 <1>   1.4470 
  2 O        0.9110    -0.8270    -2.4060 O.2   1 <1>  -0.6500 
  3 O        0.1710     0.8250    -0.6830 O.2   1 <1>  -0.6500 
  4 N        1.4540    -1.2320     0.0300 N.am  1 <1>  -0.8490 
  5 C       -1.1520    -1.4830    -0.8200 C.ar  1 <1>  -0.0090 
  6 C        2.6420    -0.3730     0.2220 C.3   1 <1>   0.1960 
  7 C        1.8860    -2.5920    -0.3620 C.3   1 <1>   0.1960 
  8 C       -1.7570    -1.5150     0.4330 C.ar  1 <1>  -0.1500 
  9 C       -1.7620    -2.1860    -1.8560 C.ar  1 <1>  -0.1500 
 10 C        3.6100    -0.9450     1.2730 C.3   1 <1>   0.2090 
 11 C        2.8360    -3.2280     0.6710 C.3   1 <1>   0.2090 
 12 C       -2.9260    -2.2230     0.6510 C.ar  1 <1>  -0.1500 
 13 C       -2.9310    -2.8980    -1.6510 C.ar  1 <1>  -0.1500 
 14 N        4.0150    -2.3410     0.9170 N.pl3 1 <1>  -0.8380 
 15 C       -3.5100    -2.9210    -0.3930 C.ar  1 <1>   0.0820 
 16 C        5.2860    -2.6720     0.4970 C.ar  1 <1>   0.7200 
 17 O       -4.6550    -3.6040    -0.1900 O.3   1 <1>  -0.3630 
 18 N        6.1350    -1.6700     0.2730 N.ar  1 <1>  -0.6200 
 19 N        5.5550    -3.9690     0.3460 N.ar  1 <1>  -0.6200 
 20 C       -4.5520    -4.9590     0.1960 C.3   1 <1>   1.3000 
 21 C        7.3400    -2.0020    -0.1220 C.ar  1 <1>   0.1600 
 22 C        6.7670    -4.2720    -0.0470 C.ar  1 <1>   0.1600 
 23 F       -5.7590    -5.4790     0.3600 F     1 <1>  -0.3400 
 24 F       -3.9220    -5.6780    -0.7270 F     1 <1>  -0.3400 
 25 F       -3.8950    -5.0870     1.3430 F     1 <1>  -0.3400 
 26 C        7.7150    -3.3110    -0.2990 C.ar  1 <1>  -0.1500 
 27 H        2.3310     0.6050     0.5480 H     1 <1>   0.0800 
 28 H        3.1680    -0.2590    -0.7110 H     1 <1>   0.0800 
 29 H        2.3950    -2.5580    -1.3120 H     1 <1>   0.0800 
 30 H        1.0240    -3.2270    -0.4710 H     1 <1>   0.0800 
 31 H       -1.3020    -0.9730     1.2460 H     1 <1>   0.1500 
 32 H       -1.3170    -2.1710    -2.8370 H     1 <1>   0.1500 
 33 H        3.1190    -0.9590     2.2300 H     1 <1>   0.0800 
 34 H        4.4640    -0.2980     1.3630 H     1 <1>   0.0800 
 35 H        3.1410    -4.1960     0.3130 H     1 <1>   0.0800 
 36 H        2.3090    -3.3760     1.5970 H     1 <1>   0.0800 
 37 H       -3.3830    -2.2300     1.6250 H     1 <1>   0.1500 
 38 H       -3.3920    -3.4290    -2.4650 H     1 <1>   0.1500 
 39 H        8.0460    -1.2110    -0.3080 H     1 <1>   0.1500 
 40 H        7.0120    -5.3130    -0.1710 H     1 <1>   0.1500 
 41 H        8.7050    -3.5710    -0.6210 H     1 <1>   0.1500 
@<TRIPOS>BOND
  1   1   2  2   
  2   1   3  2   
  3   1   4  am  
  4   1   5  1   
  5   4   6  1   
  6   4   7  1   
  7   5   8  ar  
  8   5   9  ar  
  9   6  10  1   
 10   6  27  1   
 11   6  28  1   
 12   7  11  1   
 13   7  29  1   
 14   7  30  1   
 15   8  12  ar  
 16   8  31  1   
 17   9  13  ar  
 18   9  32  1   
 19  10  14  1   
 20  10  33  1   
 21  10  34  1   
 22  11  14  1   
 23  11  35  1   
 24  11  36  1   
 25  12  15  ar  
 26  12  37  1   
 27  13  15  ar  
 28  13  38  1   
 29  14  16  1   
 30  15  17  1   
 31  16  18  ar  
 32  16  19  ar  
 33  17  20  1   
 34  18  21  ar  
 35  19  22  ar  
 36  20  23  1   
 37  20  24  1   
 38  20  25  1   
 39  21  26  ar  
 40  21  39  1   
 41  22  26  ar  
 42  22  40  1   
 43  26  41  1   
@<TRIPOS>SUBSTRUCTURE
  1 ****   7 GROUP 4 **** **** 0

# MOE 2024.06 (io_trps.svl 2023.06)
