@<TRIPOS>MOLECULE
NONAME
47 49 1 0 0 
SMALL
USER_CHARGES


@<TRIPOS>ATOM
  1 S        0.2390    -0.9770    -1.5950 S.o2  1 <1>   1.4470 
  2 O        1.5680    -1.2570    -2.1020 O.2   1 <1>  -0.6500 
  3 O       -0.8910    -1.3090    -2.4320 O.2   1 <1>  -0.6500 
  4 N        0.0970    -1.7800    -0.1030 N.am  1 <1>  -0.8490 
  5 C        0.1810     0.7810    -1.1360 C.ar  1 <1>  -0.0090 
  6 C       -1.2200    -2.0760     0.4760 C.3   1 <1>   0.2760 
  7 C        1.1340    -2.8050     0.1860 C.3   1 <1>   0.2570 
  8 C        0.9050     1.2620    -0.0450 C.ar  1 <1>  -0.1500 
  9 C       -0.5770     1.6860    -1.8760 C.ar  1 <1>  -0.1500 
 10 C       -1.9280    -3.2600    -0.2060 C.3   1 <1>  -0.1600 
 11 C       -2.1270    -0.8380     0.5410 C.3   1 <1>  -0.1600 
 12 C        2.4170    -2.2390     0.8100 C.2   1 <1>   0.5690 
 13 C        0.8750     2.6020     0.3040 C.ar  1 <1>  -0.1500 
 14 C       -0.6210     3.0300    -1.5420 C.ar  1 <1>  -0.1500 
 15 C       -3.2510    -3.5840     0.5040 C.3   1 <1>  -0.1600 
 16 C       -3.4460    -1.1670     1.2560 C.3   1 <1>  -0.1600 
 17 O        2.6160    -2.4210     1.9890 O.2   1 <1>  -0.5700 
 18 N        3.2870    -1.5440     0.0290 N.am  1 <1>  -0.5790 
 19 C        0.1090     3.4640    -0.4540 C.ar  1 <1>   0.1900 
 20 C       -4.1590    -2.3490     0.5820 C.3   1 <1>  -0.1600 
 21 C        4.5080    -0.8630     0.4750 C.3   1 <1>   0.0490 
 22 F        0.0730     4.7280    -0.1320 F     1 <1>  -0.1900 
 23 C        4.7780     0.4980    -0.0730 C.3   1 <1>  -0.2000 
 24 C        5.6050    -0.6710    -0.5170 C.3   1 <1>  -0.2000 
 25 H       -1.0490    -2.3660     1.5010 H     1 <1>   0.0800 
 26 H        1.3810    -3.3430    -0.7120 H     1 <1>   0.0800 
 27 H        0.7480    -3.5260     0.8860 H     1 <1>   0.0800 
 28 H        1.5000     0.5820     0.5420 H     1 <1>   0.1500 
 29 H       -1.1420     1.3340    -2.7240 H     1 <1>   0.1500 
 30 H       -1.3030    -4.1330    -0.1870 H     1 <1>   0.0800 
 31 H       -2.1490    -3.0260    -1.2310 H     1 <1>   0.0800 
 32 H       -2.3660    -0.4940    -0.4490 H     1 <1>   0.0800 
 33 H       -1.6270    -0.0500     1.0750 H     1 <1>   0.0800 
 34 H        1.4320     2.9720     1.1460 H     1 <1>   0.1500 
 35 H       -1.2080     3.7290    -2.1120 H     1 <1>   0.1500 
 36 H       -3.0470    -3.9390     1.5000 H     1 <1>   0.0800 
 37 H       -3.7610    -4.3700    -0.0270 H     1 <1>   0.0800 
 38 H       -4.0890    -0.3040     1.2400 H     1 <1>   0.0800 
 39 H       -3.2470    -1.4100     2.2860 H     1 <1>   0.0800 
 40 H        3.0370    -1.3960    -0.9600 H     1 <1>   0.3700 
 41 H       -5.0520    -2.5920     1.1320 H     1 <1>   0.0800 
 42 H       -4.4550    -2.0630    -0.4140 H     1 <1>   0.0800 
 43 H        4.7640    -1.0720     1.5030 H     1 <1>   0.1000 
 44 H        5.2380     1.2300     0.5670 H     1 <1>   0.1000 
 45 H        4.0780     0.9320    -0.7650 H     1 <1>   0.1000 
 46 H        5.4760    -1.0540    -1.5150 H     1 <1>   0.1000 
 47 H        6.6240    -0.7320    -0.1780 H     1 <1>   0.1000 
@<TRIPOS>BOND
  1   1   2  2   
  2   1   3  2   
  3   1   4  am  
  4   1   5  1   
  5   4   6  1   
  6   4   7  1   
  7   5   8  ar  
  8   5   9  ar  
  9   6  10  1   
 10   6  11  1   
 11   6  25  1   
 12   7  12  1   
 13   7  26  1   
 14   7  27  1   
 15   8  13  ar  
 16   8  28  1   
 17   9  14  ar  
 18   9  29  1   
 19  10  15  1   
 20  10  30  1   
 21  10  31  1   
 22  11  16  1   
 23  11  32  1   
 24  11  33  1   
 25  12  17  2   
 26  12  18  am  
 27  13  19  ar  
 28  13  34  1   
 29  14  19  ar  
 30  14  35  1   
 31  15  20  1   
 32  15  36  1   
 33  15  37  1   
 34  16  20  1   
 35  16  38  1   
 36  16  39  1   
 37  18  21  1   
 38  18  40  1   
 39  19  22  1   
 40  20  41  1   
 41  20  42  1   
 42  21  23  1   
 43  21  24  1   
 44  21  43  1   
 45  23  24  1   
 46  23  44  1   
 47  23  45  1   
 48  24  46  1   
 49  24  47  1   
@<TRIPOS>SUBSTRUCTURE
  1 ****   4 GROUP 4 **** **** 0

# MOE 2024.06 (io_trps.svl 2023.06)
