@<TRIPOS>MOLECULE
NONAME
58 61 1 0 0 
SMALL
USER_CHARGES


@<TRIPOS>ATOM
  1 S        0.1110     1.5470     1.6520 S.3   1 <1>  -0.0800 
  2 C        0.0530     1.8880    -0.0690 C.2   1 <1>  -0.1400 
  3 C       -1.5470     0.9670     1.6430 C.2   1 <1>  -0.1400 
  4 C       -1.1340     1.5250    -0.5780 C.2   1 <1>  -0.1500 
  5 C        1.2520     2.5420    -0.7440 C.3   1 <1>   0.3760 
  6 C       -2.0630     1.0450     0.4000 C.2   1 <1>  -0.1810 
  7 C       -2.1000     0.5280     2.9840 C.3   1 <1>  -0.0600 
  8 C        2.4520     1.6050    -0.6430 C.2   1 <1>  -0.1240 
  9 C        1.4740     3.9370    -0.1380 C.2   1 <1>  -0.1240 
 10 C       -3.4830     0.7480    -0.0200 C.3   1 <1>   0.5240 
 11 C        3.5170     1.9640     0.1110 C.2   1 <1>  -0.0380 
 12 C        2.3610     0.3760    -1.3550 C.2   1 <1>   0.4950 
 13 C        2.5940     4.1440     0.6170 C.2   1 <1>  -0.0380 
 14 C        0.4330     4.8740    -0.4700 C.2   1 <1>   0.7060 
 15 N       -4.2760     2.0030     0.1260 N.4   1 <1>  -0.9590 
 16 N        3.5610     3.1710     0.7630 N.pl3 1 <1>  -0.6000 
 17 C        4.7250     1.0530     0.2790 C.3   1 <1>  -0.0220 
 18 O        1.4670     0.0930    -2.1190 O.2   1 <1>  -0.5700 
 19 C        3.4660    -0.6460    -1.1440 C.3   1 <1>  -0.0990 
 20 C        2.9330     5.4200     1.3720 C.3   1 <1>  -0.1020 
 21 O       -0.6630     4.5630    -0.9120 O.2   1 <1>  -0.5700 
 22 O        0.6830     6.1810    -0.3290 O.3   1 <1>  -0.4300 
 23 C       -5.7250     1.8430    -0.2260 C.3   1 <1>   0.3430 
 24 C       -3.6770     3.2070    -0.5570 C.3   1 <1>   0.3430 
 25 C        4.8200     0.0280    -0.8640 C.3   1 <1>  -0.1600 
 26 C       -0.2540     7.1810    -0.6770 C.3   1 <1>   0.0400 
 27 C       -6.4820     3.1910    -0.1810 C.3   1 <1>   0.1200 
 28 C       -4.5130     4.4790    -0.2960 C.3   1 <1>   0.1200 
 29 O       -5.6950     4.1900     0.4070 O.3   1 <1>  -0.5600 
 30 H       -1.3900     1.6090    -1.6210 H     1 <1>   0.1500 
 31 H        1.0320     2.6700    -1.7900 H     1 <1>   0.0800 
 32 H       -1.5030    -0.2780     3.3750 H     1 <1>   0.0800 
 33 H       -3.1160     0.1910     2.8940 H     1 <1>   0.0800 
 34 H       -2.0640     1.3470     3.6810 H     1 <1>   0.0800 
 35 H       -3.8910    -0.0220     0.6130 H     1 <1>   0.0800 
 36 H       -3.4960     0.4030    -1.0410 H     1 <1>   0.0800 
 37 H       -4.2460     2.2600     1.1220 H     1 <1>   0.4500 
 38 H        4.3750     3.3820     1.3510 H     1 <1>   0.4000 
 39 H        4.6410     0.5420     1.2220 H     1 <1>   0.0800 
 40 H        5.6260     1.6390     0.2940 H     1 <1>   0.0800 
 41 H        3.5440    -1.2650    -2.0200 H     1 <1>   0.0800 
 42 H        3.1890    -1.2730    -0.3160 H     1 <1>   0.0800 
 43 H        3.4910     5.1940     2.2630 H     1 <1>   0.0800 
 44 H        2.0480     5.9420     1.6820 H     1 <1>   0.0800 
 45 H        3.5240     6.0670     0.7490 H     1 <1>   0.0800 
 46 H       -6.1930     1.1590     0.4630 H     1 <1>   0.0800 
 47 H       -5.8240     1.4260    -1.2140 H     1 <1>   0.0800 
 48 H       -3.6110     3.0380    -1.6190 H     1 <1>   0.0800 
 49 H       -2.6750     3.3850    -0.1990 H     1 <1>   0.0800 
 50 H        5.5600    -0.7170    -0.6270 H     1 <1>   0.0800 
 51 H        5.1400     0.5390    -1.7570 H     1 <1>   0.0800 
 52 H        0.1870     8.1420    -0.4830 H     1 <1>   0.0800 
 53 H       -1.1390     7.0540    -0.0770 H     1 <1>   0.0800 
 54 H       -0.4920     7.0890    -1.7220 H     1 <1>   0.0800 
 55 H       -7.3830     3.0940     0.4000 H     1 <1>   0.0800 
 56 H       -6.7550     3.5100    -1.1730 H     1 <1>   0.0800 
 57 H       -4.7700     4.9610    -1.2230 H     1 <1>   0.0800 
 58 H       -3.9430     5.1740     0.2950 H     1 <1>   0.0800 
@<TRIPOS>BOND
  1   1   2  1   
  2   1   3  1   
  3   2   4  2   
  4   2   5  1   
  5   3   6  2   
  6   3   7  1   
  7   4   6  1   
  8   4  30  1   
  9   5   8  1   
 10   5   9  1   
 11   5  31  1   
 12   6  10  1   
 13   7  32  1   
 14   7  33  1   
 15   7  34  1   
 16   8  11  2   
 17   8  12  1   
 18   9  13  2   
 19   9  14  1   
 20  10  15  1   
 21  10  35  1   
 22  10  36  1   
 23  11  16  1   
 24  11  17  1   
 25  12  18  2   
 26  12  19  1   
 27  13  16  1   
 28  13  20  1   
 29  14  21  2   
 30  14  22  1   
 31  15  23  1   
 32  15  24  1   
 33  15  37  1   
 34  16  38  1   
 35  17  25  1   
 36  17  39  1   
 37  17  40  1   
 38  19  25  1   
 39  19  41  1   
 40  19  42  1   
 41  20  43  1   
 42  20  44  1   
 43  20  45  1   
 44  22  26  1   
 45  23  27  1   
 46  23  46  1   
 47  23  47  1   
 48  24  28  1   
 49  24  48  1   
 50  24  49  1   
 51  25  50  1   
 52  25  51  1   
 53  26  52  1   
 54  26  53  1   
 55  26  54  1   
 56  27  29  1   
 57  27  55  1   
 58  27  56  1   
 59  28  29  1   
 60  28  57  1   
 61  28  58  1   
@<TRIPOS>SUBSTRUCTURE
  1 ****   2 GROUP 4 **** **** 0

# MOE 2024.06 (io_trps.svl 2023.06)
