@<TRIPOS>MOLECULE
NONAME
33 34 1 0 0 
SMALL
USER_CHARGES


@<TRIPOS>ATOM
  1 S        0.1430    -0.2440    -0.0630 S.3   1 <1>  -0.3710 
  2 C       -1.4580    -1.0400    -0.0580 C.2   1 <1>   0.6510 
  3 C       -0.2410     1.5630    -0.0160 C.3   1 <1>   0.0700 
  4 N       -2.4900    -0.2830    -0.0250 N.2   1 <1>  -0.6290 
  5 N       -1.4630    -2.4180    -0.0890 N.am  1 <1>  -0.4200 
  6 C        1.0830     2.3280    -0.0180 C.3   1 <1>  -0.1600 
  7 C       -3.7320    -0.8770    -0.0200 C.ar  1 <1>   0.1790 
  8 C       -2.6810    -3.0630    -0.0860 C.2   1 <1>   0.5440 
  9 C       -0.1860    -3.1940    -0.1260 C.3   1 <1>   0.0600 
 10 C        0.8450     3.8430     0.0200 C.3   1 <1>  -0.1600 
 11 C       -3.8780    -2.2700    -0.0500 C.ar  1 <1>   0.0860 
 12 C       -4.8650    -0.0710     0.0150 C.ar  1 <1>  -0.1500 
 13 O       -2.7290    -4.2830    -0.1130 O.2   1 <1>  -0.5700 
 14 C        2.1710     4.6080     0.0180 C.3   1 <1>  -0.2400 
 15 C       -5.1670    -2.8120    -0.0440 C.ar  1 <1>  -0.1500 
 16 C       -6.1290    -0.6210     0.0210 C.ar  1 <1>  -0.1500 
 17 C       -6.2810    -2.0000    -0.0090 C.ar  1 <1>  -0.1500 
 18 H       -0.8090     1.7470     0.8790 H     1 <1>   0.0800 
 19 H       -0.8350     1.7870    -0.8850 H     1 <1>   0.0800 
 20 H        1.6360     2.0720    -0.9050 H     1 <1>   0.0800 
 21 H        1.6610     2.0320     0.8400 H     1 <1>   0.0800 
 22 H        0.3740    -2.9290    -1.0050 H     1 <1>   0.0800 
 23 H       -0.3700    -4.2530    -0.1470 H     1 <1>   0.0800 
 24 H        0.4000    -2.9700     0.7490 H     1 <1>   0.0800 
 25 H        0.2890     4.1000     0.9070 H     1 <1>   0.0800 
 26 H        0.2640     4.1400    -0.8360 H     1 <1>   0.0800 
 27 H       -4.7360     0.9960     0.0370 H     1 <1>   0.1500 
 28 H        2.7600     4.3420     0.8790 H     1 <1>   0.0800 
 29 H        1.9850     5.6670     0.0450 H     1 <1>   0.0800 
 30 H        2.7340     4.3820    -0.8700 H     1 <1>   0.0800 
 31 H       -5.2810    -3.8830    -0.0670 H     1 <1>   0.1500 
 32 H       -6.9990     0.0140     0.0480 H     1 <1>   0.1500 
 33 H       -7.2680    -2.4310    -0.0040 H     1 <1>   0.1500 
@<TRIPOS>BOND
  1   1   2  1   
  2   1   3  1   
  3   2   4  2   
  4   2   5  1   
  5   3   6  1   
  6   3  18  1   
  7   3  19  1   
  8   4   7  1   
  9   5   8  am  
 10   5   9  1   
 11   6  10  1   
 12   6  20  1   
 13   6  21  1   
 14   7  11  ar  
 15   7  12  ar  
 16   8  11  1   
 17   8  13  2   
 18   9  22  1   
 19   9  23  1   
 20   9  24  1   
 21  10  14  1   
 22  10  25  1   
 23  10  26  1   
 24  11  15  ar  
 25  12  16  ar  
 26  12  27  1   
 27  14  28  1   
 28  14  29  1   
 29  14  30  1   
 30  15  17  ar  
 31  15  31  1   
 32  16  17  ar  
 33  16  32  1   
 34  17  33  1   
@<TRIPOS>SUBSTRUCTURE
  1 ****   4 GROUP 4 **** **** 0

# MOE 2024.06 (io_trps.svl 2023.06)
