@<TRIPOS>MOLECULE
NONAME
39 40 1 0 0 
SMALL
USER_CHARGES


@<TRIPOS>ATOM
  1 O       -1.2500     0.2320    -0.7630 O.3   1 <1>  -0.5600 
  2 C       -1.3820     1.0900     0.3330 C.3   1 <1>   0.1200 
  3 C       -2.2060    -0.7840    -0.8380 C.3   1 <1>   0.1200 
  4 C       -2.7580     1.7830     0.3020 C.3   1 <1>   0.3430 
  5 C       -3.6210    -0.1780    -0.9230 C.3   1 <1>   0.3430 
  6 N       -3.8820     0.7840     0.2090 N.4   1 <1>  -0.9590 
  7 C       -5.1960     1.4950     0.0640 C.3   1 <1>   0.3430 
  8 C       -6.4000     0.5600     0.1990 C.3   1 <1>   0.1200 
  9 O       -7.5520     1.3490     0.0470 O.3   1 <1>  -0.3630 
 10 C       -8.7910     0.7980     0.0770 C.ar  1 <1>   0.0820 
 11 C       -9.8550     1.6510    -0.1680 C.ar  1 <1>  -0.1500 
 12 C       -9.0360    -0.5490     0.3330 C.ar  1 <1>  -0.1500 
 13 C      -11.1550     1.1770    -0.1620 C.ar  1 <1>  -0.1440 
 14 C      -10.3350    -1.0310     0.3410 C.ar  1 <1>  -0.1440 
 15 C      -11.3870    -0.1650     0.0900 C.ar  1 <1>  -0.1500 
 16 C      -12.3200     2.1110    -0.4340 C.3   1 <1>  -0.0970 
 17 C      -10.6180    -2.4970     0.6160 C.3   1 <1>  -0.0970 
 18 H       -0.5960     1.8230     0.2700 H     1 <1>   0.0800 
 19 H       -1.2490     0.5220     1.2380 H     1 <1>   0.0800 
 20 H       -2.1040    -1.4230     0.0220 H     1 <1>   0.0800 
 21 H       -1.9970    -1.3630    -1.7210 H     1 <1>   0.0800 
 22 H       -2.7840     2.4410    -0.5520 H     1 <1>   0.0800 
 23 H       -2.8720     2.3870     1.1880 H     1 <1>   0.0800 
 24 H       -4.3460    -0.9750    -0.9100 H     1 <1>   0.0800 
 25 H       -3.7110     0.3360    -1.8660 H     1 <1>   0.0800 
 26 H       -3.8860     0.2500     1.0890 H     1 <1>   0.4500 
 27 H       -5.2390     1.9790    -0.8990 H     1 <1>   0.0800 
 28 H       -5.2770     2.2540     0.8250 H     1 <1>   0.0800 
 29 H       -6.4320     0.1090     1.1750 H     1 <1>   0.0800 
 30 H       -6.4090    -0.1860    -0.5760 H     1 <1>   0.0800 
 31 H       -9.6570     2.6890    -0.3640 H     1 <1>   0.1500 
 32 H       -8.2380    -1.2360     0.5300 H     1 <1>   0.1500 
 33 H      -12.3960    -0.5370     0.0910 H     1 <1>   0.1500 
 34 H      -12.0230     3.1370    -0.3130 H     1 <1>   0.0800 
 35 H      -13.1250     1.9070     0.2500 H     1 <1>   0.0800 
 36 H      -12.6730     1.9690    -1.4390 H     1 <1>   0.0800 
 37 H       -9.8000    -2.9530     1.1440 H     1 <1>   0.0800 
 38 H      -10.7670    -3.0190    -0.3110 H     1 <1>   0.0800 
 39 H      -11.5040    -2.5970     1.2170 H     1 <1>   0.0800 
@<TRIPOS>BOND
  1   1   2  1   
  2   1   3  1   
  3   2   4  1   
  4   2  18  1   
  5   2  19  1   
  6   3   5  1   
  7   3  20  1   
  8   3  21  1   
  9   4   6  1   
 10   4  22  1   
 11   4  23  1   
 12   5   6  1   
 13   5  24  1   
 14   5  25  1   
 15   6   7  1   
 16   6  26  1   
 17   7   8  1   
 18   7  27  1   
 19   7  28  1   
 20   8   9  1   
 21   8  29  1   
 22   8  30  1   
 23   9  10  1   
 24  10  11  ar  
 25  10  12  ar  
 26  11  13  ar  
 27  11  31  1   
 28  12  14  ar  
 29  12  32  1   
 30  13  15  ar  
 31  13  16  1   
 32  14  15  ar  
 33  14  17  1   
 34  15  33  1   
 35  16  34  1   
 36  16  35  1   
 37  16  36  1   
 38  17  37  1   
 39  17  38  1   
 40  17  39  1   
@<TRIPOS>SUBSTRUCTURE
  1 ****   8 GROUP 4 **** **** 0

# MOE 2024.06 (io_trps.svl 2023.06)
