@<TRIPOS>MOLECULE
NONAME
46 48 1 0 0 
SMALL
USER_CHARGES


@<TRIPOS>ATOM
  1 CL      -0.0430    -0.4800    -1.9720 Cl    1 <1>  -0.1770 
  2 C       -0.1910    -1.8970    -0.9580 C.ar  1 <1>   0.1770 
  3 C        0.9470    -2.5380    -0.4910 C.ar  1 <1>  -0.1440 
  4 C       -1.4580    -2.3450    -0.6410 C.ar  1 <1>  -0.1500 
  5 C        0.7870    -3.6560     0.3140 C.ar  1 <1>  -0.1500 
  6 C        2.3390    -2.0370    -0.8470 C.3   1 <1>  -0.0960 
  7 C       -1.6210    -3.4670     0.1640 C.ar  1 <1>   0.1170 
  8 C       -0.4810    -4.1100     0.6350 C.ar  1 <1>  -0.1500 
  9 N       -2.8780    -3.9710     0.5360 N.am  1 <1>  -0.5470 
 10 C       -4.1130    -3.8120    -0.0340 C.2   1 <1>   0.5690 
 11 O       -4.2990    -3.1840    -1.0470 O.2   1 <1>  -0.5700 
 12 C       -5.2960    -4.4920     0.6580 C.3   1 <1>  -0.0190 
 13 C       -5.4510    -5.9480     0.1800 C.3   1 <1>  -0.1600 
 14 C       -6.6230    -3.7310     0.4540 C.3   1 <1>  -0.1600 
 15 C       -6.6330    -6.6430     0.8610 C.3   1 <1>   0.1400 
 16 C       -7.8000    -4.4420     1.1260 C.3   1 <1>   0.1400 
 17 N       -7.8740    -5.8480     0.6410 N.am  1 <1>  -0.6600 
 18 C       -8.9270    -6.3480    -0.1030 C.2   1 <1>   0.5440 
 19 O       -8.7880    -7.4020    -0.6930 O.2   1 <1>  -0.5700 
 20 C      -10.1940    -5.6520    -0.2090 C.ar  1 <1>   0.0860 
 21 C      -10.9590    -5.3570     0.9250 C.ar  1 <1>  -0.1500 
 22 C      -10.6890    -5.2630    -1.4560 C.ar  1 <1>  -0.1500 
 23 C      -12.1650    -4.6860     0.8240 C.ar  1 <1>  -0.1500 
 24 C      -11.8940    -4.5910    -1.5760 C.ar  1 <1>  -0.1500 
 25 C      -12.6110    -4.3120    -0.4290 C.ar  1 <1>   0.1900 
 26 F      -13.7440    -3.6770    -0.5310 F     1 <1>  -0.1900 
 27 H       -2.3060    -1.8100    -1.0230 H     1 <1>   0.1500 
 28 H        1.6490    -4.1770     0.6930 H     1 <1>   0.1500 
 29 H        2.4700    -2.0480    -1.9140 H     1 <1>   0.0800 
 30 H        3.0990    -2.6540    -0.4030 H     1 <1>   0.0800 
 31 H        2.4670    -1.0290    -0.4930 H     1 <1>   0.0800 
 32 H       -0.5790    -4.9800     1.2580 H     1 <1>   0.1500 
 33 H       -2.8560    -4.5950     1.3380 H     1 <1>   0.3700 
 34 H       -5.0920    -4.5050     1.7140 H     1 <1>   0.0800 
 35 H       -4.5520    -6.5020     0.3840 H     1 <1>   0.0800 
 36 H       -5.6090    -5.9650    -0.8860 H     1 <1>   0.0800 
 37 H       -6.8330    -3.6420    -0.5980 H     1 <1>   0.0800 
 38 H       -6.5330    -2.7350     0.8510 H     1 <1>   0.0800 
 39 H       -6.4550    -6.7260     1.9190 H     1 <1>   0.0800 
 40 H       -6.7400    -7.6400     0.4670 H     1 <1>   0.0800 
 41 H       -8.7050    -3.9050     0.9010 H     1 <1>   0.0800 
 42 H       -7.6690    -4.4460     2.1940 H     1 <1>   0.0800 
 43 H      -10.5960    -5.6660     1.8900 H     1 <1>   0.1500 
 44 H      -10.1150    -5.5000    -2.3360 H     1 <1>   0.1500 
 45 H      -12.7540    -4.4580     1.6950 H     1 <1>   0.1500 
 46 H      -12.2730    -4.2910    -2.5360 H     1 <1>   0.1500 
@<TRIPOS>BOND
  1   1   2  1   
  2   2   3  ar  
  3   2   4  ar  
  4   3   5  ar  
  5   3   6  1   
  6   4   7  ar  
  7   4  27  1   
  8   5   8  ar  
  9   5  28  1   
 10   6  29  1   
 11   6  30  1   
 12   6  31  1   
 13   7   8  ar  
 14   7   9  1   
 15   8  32  1   
 16   9  10  am  
 17   9  33  1   
 18  10  11  2   
 19  10  12  1   
 20  12  13  1   
 21  12  14  1   
 22  12  34  1   
 23  13  15  1   
 24  13  35  1   
 25  13  36  1   
 26  14  16  1   
 27  14  37  1   
 28  14  38  1   
 29  15  17  1   
 30  15  39  1   
 31  15  40  1   
 32  16  17  1   
 33  16  41  1   
 34  16  42  1   
 35  17  18  am  
 36  18  19  2   
 37  18  20  1   
 38  20  21  ar  
 39  20  22  ar  
 40  21  23  ar  
 41  21  43  1   
 42  22  24  ar  
 43  22  44  1   
 44  23  25  ar  
 45  23  45  1   
 46  24  25  ar  
 47  24  46  1   
 48  25  26  1   
@<TRIPOS>SUBSTRUCTURE
  1 ****  12 GROUP 4 **** **** 0

# MOE 2024.06 (io_trps.svl 2023.06)
