@<TRIPOS>MOLECULE
NONAME
50 52 1 0 0 
SMALL
USER_CHARGES


@<TRIPOS>ATOM
  1 O       -0.3080     0.6370    -1.4250 O.2   1 <1>  -0.5700 
  2 C       -0.2190     1.5940    -0.6790 C.2   1 <1>   0.5440 
  3 N       -1.3520     2.0720    -0.0660 N.am  1 <1>  -0.5390 
  4 C        1.0500     2.2620    -0.4680 C.ar  1 <1>   0.0860 
  5 C       -2.6160     1.4540     0.0540 C.2   1 <1>   0.1230 
  6 C        1.3780     2.8520     0.7550 C.ar  1 <1>  -0.1500 
  7 C        1.9960     2.3430    -1.4900 C.ar  1 <1>  -0.1500 
  8 C       -2.6700     0.1320     0.6570 C.2   1 <1>   0.6160 
  9 C       -3.7070     2.1470    -0.3730 C.2   1 <1>  -0.1050 
 10 C        2.5820     3.5070     0.9390 C.ar  1 <1>  -0.1500 
 11 C        3.2020     2.9960    -1.3090 C.ar  1 <1>  -0.1500 
 12 O       -3.1510    -0.0250     1.7650 O.2   1 <1>  -0.5700 
 13 N       -2.1250    -0.9360     0.0120 N.am  1 <1>  -0.7300 
 14 C       -5.0820     1.7580    -0.4170 C.2   1 <1>   0.0950 
 15 C        3.5020     3.5840    -0.0920 C.ar  1 <1>  -0.1430 
 16 C       -2.0610    -2.3170     0.5000 C.3   1 <1>   0.2200 
 17 O       -5.4560     0.5080    -0.1810 O.3   1 <1>  -0.2800 
 18 C       -6.1920     2.4950    -0.7030 C.2   1 <1>  -0.1500 
 19 C        4.8240     4.3030     0.1070 C.3   1 <1>  -0.0970 
 20 C       -0.5970    -2.6750     0.7730 C.3   1 <1>  -0.1600 
 21 C       -2.6720    -3.2400    -0.5590 C.3   1 <1>  -0.1600 
 22 C       -6.7650     0.4280    -0.2970 C.2   1 <1>  -0.0100 
 23 C       -7.2840     1.6300    -0.6210 C.2   1 <1>  -0.1500 
 24 C       -0.4500    -4.1500     1.1750 C.3   1 <1>  -0.1600 
 25 C       -2.5310    -4.7170    -0.1580 C.3   1 <1>  -0.1600 
 26 C       -1.0640    -5.0770     0.1170 C.3   1 <1>  -0.1600 
 27 H       -1.2750     3.0090     0.3260 H     1 <1>   0.3700 
 28 H        0.6880     2.7920     1.5780 H     1 <1>   0.1500 
 29 H        1.7770     1.8860    -2.4400 H     1 <1>   0.1500 
 30 H       -3.5490     3.1370    -0.7550 H     1 <1>   0.1500 
 31 H        2.8050     3.9540     1.8930 H     1 <1>   0.1500 
 32 H        3.9070     3.0430    -2.1200 H     1 <1>   0.1500 
 33 H       -1.5320    -0.7200    -0.8010 H     1 <1>   0.3700 
 34 H       -2.6260    -2.4070     1.4140 H     1 <1>   0.0800 
 35 H       -6.2450     3.5400    -0.9450 H     1 <1>   0.1500 
 36 H        4.7240     5.3360    -0.1770 H     1 <1>   0.0800 
 37 H        5.5920     3.8510    -0.4950 H     1 <1>   0.0800 
 38 H        5.1300     4.2540     1.1360 H     1 <1>   0.0800 
 39 H       -0.0130    -2.4910    -0.1120 H     1 <1>   0.0800 
 40 H       -0.2240    -2.0500     1.5640 H     1 <1>   0.0800 
 41 H       -3.7140    -2.9990    -0.6770 H     1 <1>   0.0800 
 42 H       -2.1760    -3.0820    -1.5000 H     1 <1>   0.0800 
 43 H       -7.2420    -0.5220    -0.1300 H     1 <1>   0.1500 
 44 H       -8.3130     1.8940    -0.7860 H     1 <1>   0.1500 
 45 H        0.5920    -4.3860     1.3030 H     1 <1>   0.0800 
 46 H       -0.9440    -4.3110     2.1190 H     1 <1>   0.0800 
 47 H       -3.1150    -4.9010     0.7270 H     1 <1>   0.0800 
 48 H       -2.9160    -5.3420    -0.9450 H     1 <1>   0.0800 
 49 H       -1.0010    -6.0980     0.4520 H     1 <1>   0.0800 
 50 H       -0.5000    -4.9950    -0.7970 H     1 <1>   0.0800 
@<TRIPOS>BOND
  1   1   2  2   
  2   2   3  am  
  3   2   4  1   
  4   3   5  1   
  5   3  27  1   
  6   4   6  ar  
  7   4   7  ar  
  8   5   8  1   
  9   5   9  2   
 10   6  10  ar  
 11   6  28  1   
 12   7  11  ar  
 13   7  29  1   
 14   8  12  2   
 15   8  13  am  
 16   9  14  1   
 17   9  30  1   
 18  10  15  ar  
 19  10  31  1   
 20  11  15  ar  
 21  11  32  1   
 22  13  16  1   
 23  13  33  1   
 24  14  17  1   
 25  14  18  2   
 26  15  19  1   
 27  16  20  1   
 28  16  21  1   
 29  16  34  1   
 30  17  22  1   
 31  18  23  1   
 32  18  35  1   
 33  19  36  1   
 34  19  37  1   
 35  19  38  1   
 36  20  24  1   
 37  20  39  1   
 38  20  40  1   
 39  21  25  1   
 40  21  41  1   
 41  21  42  1   
 42  22  23  2   
 43  22  43  1   
 44  23  44  1   
 45  24  26  1   
 46  24  45  1   
 47  24  46  1   
 48  25  26  1   
 49  25  47  1   
 50  25  48  1   
 51  26  49  1   
 52  26  50  1   
@<TRIPOS>SUBSTRUCTURE
  1 ****   8 GROUP 4 **** **** 0

# MOE 2024.06 (io_trps.svl 2023.06)
