@<TRIPOS>MOLECULE
NONAME
37 38 1 0 0 
SMALL
USER_CHARGES


@<TRIPOS>ATOM
  1 S       -0.9090     0.5400     0.7010 S.3   1 <1>  -0.0800 
  2 C       -1.4980     0.6750    -0.9500 C.2   1 <1>  -0.1400 
  3 C        0.4630     1.5720     0.3420 C.2   1 <1>  -0.1400 
  4 C       -0.6790     1.4530    -1.6820 C.2   1 <1>  -0.1500 
  5 C       -2.7780    -0.0580    -1.2740 C.3   1 <1>   0.5230 
  6 C        0.4360     1.9630    -0.9440 C.2   1 <1>  -0.1500 
  7 C        1.4370     1.8550     1.4680 C.3   1 <1>  -0.0600 
  8 N       -3.8330     0.4420    -0.3370 N.4   1 <1>  -0.9590 
  9 C       -5.0000    -0.5110    -0.2850 C.3   1 <1>   0.3430 
 10 C       -4.1400     1.8770    -0.6190 C.3   1 <1>   0.3430 
 11 C       -6.1930    -0.0880     0.6220 C.3   1 <1>   0.3430 
 12 C       -4.7900     2.5200     0.6040 C.3   1 <1>  -0.1600 
 13 N       -6.9090     1.1650     0.1700 N.4   1 <1>  -0.9590 
 14 C       -6.3190     2.4520     0.6630 C.3   1 <1>   0.3430 
 15 C       -8.3450     1.1130     0.6150 C.3   1 <1>   0.2630 
 16 H       -0.7890     1.7040    -2.7250 H     1 <1>   0.1500 
 17 H       -2.6170    -1.1150    -1.1330 H     1 <1>   0.0800 
 18 H       -3.0590     0.1170    -2.3000 H     1 <1>   0.0800 
 19 H        1.1680     2.5970    -1.4170 H     1 <1>   0.1500 
 20 H        1.8630     0.9350     1.8270 H     1 <1>   0.0800 
 21 H        0.9330     2.3470     2.2800 H     1 <1>   0.0800 
 22 H        2.2320     2.4900     1.1200 H     1 <1>   0.0800 
 23 H       -3.3370     0.4280     0.5700 H     1 <1>   0.4500 
 24 H       -4.6450    -1.4660     0.0680 H     1 <1>   0.0800 
 25 H       -5.3770    -0.6680    -1.2820 H     1 <1>   0.0800 
 26 H       -4.7650     1.9780    -1.4920 H     1 <1>   0.0800 
 27 H       -3.2170     2.4030    -0.8140 H     1 <1>   0.0800 
 28 H       -5.8530     0.0280     1.6390 H     1 <1>   0.0800 
 29 H       -6.8980    -0.9050     0.6180 H     1 <1>   0.0800 
 30 H       -4.5340     3.5660     0.5940 H     1 <1>   0.0800 
 31 H       -4.3650     2.1260     1.5100 H     1 <1>   0.0800 
 32 H       -6.9370     1.1930    -0.8600 H     1 <1>   0.4500 
 33 H       -6.7250     3.2630     0.0780 H     1 <1>   0.0800 
 34 H       -6.6230     2.6210     1.6860 H     1 <1>   0.0800 
 35 H       -8.4070     1.0880     1.6920 H     1 <1>   0.0800 
 36 H       -8.8320     0.2330     0.2240 H     1 <1>   0.0800 
 37 H       -8.8810     1.9800     0.2630 H     1 <1>   0.0800 
@<TRIPOS>BOND
  1   1   2  1   
  2   1   3  1   
  3   2   4  2   
  4   2   5  1   
  5   3   6  2   
  6   3   7  1   
  7   4   6  1   
  8   4  16  1   
  9   5   8  1   
 10   5  17  1   
 11   5  18  1   
 12   6  19  1   
 13   7  20  1   
 14   7  21  1   
 15   7  22  1   
 16   8   9  1   
 17   8  10  1   
 18   8  23  1   
 19   9  11  1   
 20   9  24  1   
 21   9  25  1   
 22  10  12  1   
 23  10  26  1   
 24  10  27  1   
 25  11  13  1   
 26  11  28  1   
 27  11  29  1   
 28  12  14  1   
 29  12  30  1   
 30  12  31  1   
 31  13  14  1   
 32  13  15  1   
 33  13  32  1   
 34  14  33  1   
 35  14  34  1   
 36  15  35  1   
 37  15  36  1   
 38  15  37  1   
@<TRIPOS>SUBSTRUCTURE
  1 ****   8 GROUP 4 **** **** 0

# MOE 2024.06 (io_trps.svl 2023.06)
