@<TRIPOS>MOLECULE
NONAME
40 41 1 0 0 
SMALL
USER_CHARGES


@<TRIPOS>ATOM
  1 O        0.4140     0.0780    -0.0710 O.2   1 <1>  -0.5700 
  2 C       -0.3400     0.6160     0.7120 C.2   1 <1>   0.7800 
  3 O        0.0460     1.6930     1.3890 O.3   1 <1>  -0.4300 
  4 N       -1.6170     0.2160     0.9520 N.am  1 <1>  -0.5470 
  5 C        1.3430     2.2220     1.2270 C.3   1 <1>   0.1200 
  6 C       -2.4020    -0.8110     0.4040 C.ar  1 <1>   0.1170 
  7 C        1.4660     3.4520     2.1200 C.3   1 <1>  -0.2400 
  8 C       -3.8020    -0.6940     0.4160 C.ar  1 <1>   0.0860 
  9 C       -1.8240    -1.9560    -0.1410 C.ar  1 <1>  -0.1500 
 10 C       -4.4540     0.4770     0.9570 C.2   1 <1>   0.5440 
 11 C       -4.5680    -1.7360    -0.1070 C.ar  1 <1>  -0.1500 
 12 C       -2.6010    -2.9700    -0.6650 C.ar  1 <1>  -0.1500 
 13 O       -5.1440     0.3560     1.9520 O.2   1 <1>  -0.5700 
 14 N       -4.3010     1.7300     0.3930 N.am  1 <1>  -0.6600 
 15 C       -3.9800    -2.8620    -0.6460 C.ar  1 <1>  -0.1500 
 16 C       -4.8920     2.9510     1.0120 C.3   1 <1>   0.1400 
 17 C       -3.6710     1.9670    -0.9390 C.3   1 <1>   0.1400 
 18 C       -5.9340     3.5580     0.0670 C.3   1 <1>  -0.1600 
 19 C       -4.7020     2.5700    -1.8990 C.3   1 <1>  -0.1600 
 20 C       -5.3420     3.8400    -1.3220 C.3   1 <1>  -0.1600 
 21 H       -2.1130     0.8740     1.5540 H     1 <1>   0.3700 
 22 H        1.4800     2.4820     0.1900 H     1 <1>   0.0800 
 23 H        2.0570     1.4660     1.5080 H     1 <1>   0.0800 
 24 H        0.7400     4.1920     1.8350 H     1 <1>   0.0800 
 25 H        2.4470     3.8770     2.0170 H     1 <1>   0.0800 
 26 H        1.3180     3.1780     3.1500 H     1 <1>   0.0800 
 27 H       -0.7550    -2.0640    -0.1540 H     1 <1>   0.1500 
 28 H       -5.6410    -1.6490    -0.0820 H     1 <1>   0.1500 
 29 H       -2.1350    -3.8460    -1.0830 H     1 <1>   0.1500 
 30 H       -4.5890    -3.6540    -1.0470 H     1 <1>   0.1500 
 31 H       -4.1070     3.6640     1.1960 H     1 <1>   0.0800 
 32 H       -5.3550     2.7190     1.9560 H     1 <1>   0.0800 
 33 H       -3.2910     1.0530    -1.3600 H     1 <1>   0.0800 
 34 H       -2.8450     2.6470    -0.8180 H     1 <1>   0.0800 
 35 H       -6.3100     4.4710     0.4930 H     1 <1>   0.0800 
 36 H       -6.7590     2.8730    -0.0200 H     1 <1>   0.0800 
 37 H       -5.4650     1.8360    -2.0930 H     1 <1>   0.0800 
 38 H       -4.2240     2.8000    -2.8350 H     1 <1>   0.0800 
 39 H       -4.5960     4.6120    -1.2420 H     1 <1>   0.0800 
 40 H       -6.1160     4.1900    -1.9820 H     1 <1>   0.0800 
@<TRIPOS>BOND
  1   1   2  2   
  2   2   3  1   
  3   2   4  am  
  4   3   5  1   
  5   4   6  1   
  6   4  21  1   
  7   5   7  1   
  8   5  22  1   
  9   5  23  1   
 10   6   8  ar  
 11   6   9  ar  
 12   7  24  1   
 13   7  25  1   
 14   7  26  1   
 15   8  10  1   
 16   8  11  ar  
 17   9  12  ar  
 18   9  27  1   
 19  10  13  2   
 20  10  14  am  
 21  11  15  ar  
 22  11  28  1   
 23  12  15  ar  
 24  12  29  1   
 25  14  16  1   
 26  14  17  1   
 27  15  30  1   
 28  16  18  1   
 29  16  31  1   
 30  16  32  1   
 31  17  19  1   
 32  17  33  1   
 33  17  34  1   
 34  18  20  1   
 35  18  35  1   
 36  18  36  1   
 37  19  20  1   
 38  19  37  1   
 39  19  38  1   
 40  20  39  1   
 41  20  40  1   
@<TRIPOS>SUBSTRUCTURE
  1 ****   4 GROUP 4 **** **** 0

# MOE 2024.06 (io_trps.svl 2023.06)
