@<TRIPOS>MOLECULE
NONAME
51 53 1 0 0 
SMALL
USER_CHARGES


@<TRIPOS>ATOM
  1 O       -1.4780     2.0040     0.4790 O.2   1 <1>  -0.5700 
  2 C       -1.2450     2.1020    -0.7110 C.2   1 <1>   0.6900 
  3 N       -2.2990     2.1670    -1.5700 N.am  1 <1>  -0.6600 
  4 N        0.0070     2.1440    -1.2370 N.am  1 <1>  -0.5470 
  5 C       -3.0340     0.8910    -1.7880 C.3   1 <1>   0.1400 
  6 C       -3.2140     3.3330    -1.4020 C.3   1 <1>   0.1400 
  7 C        1.2760     2.0540    -0.6440 C.ar  1 <1>   0.1170 
  8 C       -4.0140     0.6280    -0.6230 C.3   1 <1>   0.3430 
  9 C       -4.2060     3.0860    -0.2460 C.3   1 <1>   0.3430 
 10 C        1.4920     1.5010     0.6140 C.ar  1 <1>  -0.1500 
 11 C        2.3750     2.5240    -1.3540 C.ar  1 <1>  -0.1500 
 12 N       -4.9540     1.7830    -0.3950 N.4   1 <1>  -0.9590 
 13 C        2.7630     1.4220     1.1550 C.ar  1 <1>   0.0820 
 14 C        3.6510     2.4510    -0.8240 C.ar  1 <1>  -0.1500 
 15 C       -5.8160     1.5400     0.7920 C.3   1 <1>   0.4860 
 16 O        2.8680     0.8650     2.3880 O.3   1 <1>  -0.3630 
 17 C        3.8510     1.9010     0.4300 C.ar  1 <1>  -0.1500 
 18 C       -6.8690     2.6280     0.8470 C.ar  1 <1>  -0.1430 
 19 C        4.1100     0.7730     3.0480 C.3   1 <1>   0.0400 
 20 C       -7.9440     2.6100    -0.0300 C.ar  1 <1>  -0.1500 
 21 C       -6.7620     3.6570     1.7710 C.ar  1 <1>  -0.1500 
 22 C       -8.8910     3.6180     0.0090 C.ar  1 <1>  -0.1500 
 23 C       -7.7110     4.6630     1.8070 C.ar  1 <1>  -0.1500 
 24 C       -8.7780     4.6490     0.9260 C.ar  1 <1>  -0.1430 
 25 C       -9.8190     5.7550     0.9670 C.3   1 <1>  -0.0970 
 26 H        0.0070     2.3250    -2.2370 H     1 <1>   0.3700 
 27 H       -2.3290     0.0780    -1.8460 H     1 <1>   0.0800 
 28 H       -3.5670     0.9340    -2.7220 H     1 <1>   0.0800 
 29 H       -3.7490     3.5100    -2.3190 H     1 <1>   0.0800 
 30 H       -2.6330     4.2140    -1.1850 H     1 <1>   0.0800 
 31 H       -3.4310     0.4600     0.2690 H     1 <1>   0.0800 
 32 H       -4.5740    -0.2700    -0.8270 H     1 <1>   0.0800 
 33 H       -4.9030     3.9080    -0.1970 H     1 <1>   0.0800 
 34 H       -3.6470     3.0760     0.6770 H     1 <1>   0.0800 
 35 H        0.6740     1.1200     1.1930 H     1 <1>   0.1500 
 36 H        2.2370     2.9550    -2.3290 H     1 <1>   0.1500 
 37 H       -5.5810     1.8820    -1.2020 H     1 <1>   0.4500 
 38 H        4.4900     2.8210    -1.3870 H     1 <1>   0.1500 
 39 H       -5.2230     1.5510     1.6930 H     1 <1>   0.0800 
 40 H       -6.3010     0.5800     0.7130 H     1 <1>   0.0800 
 41 H        4.8490     1.8540     0.8210 H     1 <1>   0.1500 
 42 H        3.9440     0.3170     4.0070 H     1 <1>   0.0800 
 43 H        4.5100     1.7630     3.1780 H     1 <1>   0.0800 
 44 H        4.7720     0.1610     2.4620 H     1 <1>   0.0800 
 45 H       -8.0660     1.8180    -0.7480 H     1 <1>   0.1500 
 46 H       -5.9460     3.6900     2.4740 H     1 <1>   0.1500 
 47 H       -9.7220     3.5990    -0.6760 H     1 <1>   0.1500 
 48 H       -7.6190     5.4580     2.5270 H     1 <1>   0.1500 
 49 H      -10.7790     5.3820     0.6550 H     1 <1>   0.0800 
 50 H       -9.5290     6.5550     0.3120 H     1 <1>   0.0800 
 51 H       -9.9190     6.1430     1.9650 H     1 <1>   0.0800 
@<TRIPOS>BOND
  1   1   2  2   
  2   2   3  am  
  3   2   4  am  
  4   3   5  1   
  5   3   6  1   
  6   4   7  1   
  7   4  26  1   
  8   5   8  1   
  9   5  27  1   
 10   5  28  1   
 11   6   9  1   
 12   6  29  1   
 13   6  30  1   
 14   7  10  ar  
 15   7  11  ar  
 16   8  12  1   
 17   8  31  1   
 18   8  32  1   
 19   9  12  1   
 20   9  33  1   
 21   9  34  1   
 22  10  13  ar  
 23  10  35  1   
 24  11  14  ar  
 25  11  36  1   
 26  12  15  1   
 27  12  37  1   
 28  13  16  1   
 29  13  17  ar  
 30  14  17  ar  
 31  14  38  1   
 32  15  18  1   
 33  15  39  1   
 34  15  40  1   
 35  16  19  1   
 36  17  41  1   
 37  18  20  ar  
 38  18  21  ar  
 39  19  42  1   
 40  19  43  1   
 41  19  44  1   
 42  20  22  ar  
 43  20  45  1   
 44  21  23  ar  
 45  21  46  1   
 46  22  24  ar  
 47  22  47  1   
 48  23  24  ar  
 49  23  48  1   
 50  24  25  1   
 51  25  49  1   
 52  25  50  1   
 53  25  51  1   
@<TRIPOS>SUBSTRUCTURE
  1 ****   1 GROUP 4 **** **** 0

# MOE 2024.06 (io_trps.svl 2023.06)
