@<TRIPOS>MOLECULE
NONAME
28 28 1 0 0 
SMALL
USER_CHARGES


@<TRIPOS>ATOM
  1 BR      -0.3330     0.2380    -0.3830 Br    1 <1>  -0.1110 
  2 C        1.4940     0.8610    -0.3360 C.ar  1 <1>   0.1110 
  3 C        2.5490    -0.0110    -0.1050 C.ar  1 <1>  -0.1440 
  4 C        1.6760     2.2090    -0.5300 C.ar  1 <1>  -0.1500 
  5 C        3.8380     0.5250    -0.0520 C.ar  1 <1>  -0.1440 
  6 C        2.2840    -1.5080     0.0780 C.3   1 <1>  -0.0960 
  7 C        2.9510     2.7560    -0.4970 C.ar  1 <1>   0.0860 
  8 C        4.0390     1.8910    -0.2830 C.ar  1 <1>  -0.1440 
  9 C        5.0260    -0.3900     0.2620 C.3   1 <1>  -0.0960 
 10 C        3.0760     4.1910    -0.6650 C.2   1 <1>   0.5440 
 11 C        5.4590     2.4670    -0.3310 C.3   1 <1>  -0.0970 
 12 O        2.7410     4.7280    -1.7010 O.2   1 <1>  -0.5700 
 13 N        3.5490     4.9590     0.3640 N.am  1 <1>  -0.7300 
 14 C        3.7100     6.4350     0.3420 C.3   1 <1>   0.0600 
 15 H        0.8280     2.8470    -0.7070 H     1 <1>   0.1500 
 16 H        1.3800    -1.8170    -0.4130 H     1 <1>   0.0800 
 17 H        2.2030    -1.7390     1.1240 H     1 <1>   0.0800 
 18 H        3.0740    -2.0940    -0.3520 H     1 <1>   0.0800 
 19 H        4.7430    -1.1840     0.9280 H     1 <1>   0.0800 
 20 H        5.8180     0.1390     0.7570 H     1 <1>   0.0800 
 21 H        5.4070    -0.8170    -0.6480 H     1 <1>   0.0800 
 22 H        6.1270     1.7890    -0.8300 H     1 <1>   0.0800 
 23 H        5.8180     2.6460     0.6660 H     1 <1>   0.0800 
 24 H        5.5010     3.3890    -0.8820 H     1 <1>   0.0800 
 25 H        3.7740     4.4930     1.2450 H     1 <1>   0.3700 
 26 H        3.4560     6.8270    -0.6290 H     1 <1>   0.0800 
 27 H        4.7310     6.6930     0.5620 H     1 <1>   0.0800 
 28 H        3.0630     6.8830     1.0750 H     1 <1>   0.0800 
@<TRIPOS>BOND
  1   1   2  1   
  2   2   3  ar  
  3   2   4  ar  
  4   3   5  ar  
  5   3   6  1   
  6   4   7  ar  
  7   4  15  1   
  8   5   8  ar  
  9   5   9  1   
 10   6  16  1   
 11   6  17  1   
 12   6  18  1   
 13   7   8  ar  
 14   7  10  1   
 15   8  11  1   
 16   9  19  1   
 17   9  20  1   
 18   9  21  1   
 19  10  12  2   
 20  10  13  am  
 21  11  22  1   
 22  11  23  1   
 23  11  24  1   
 24  13  14  1   
 25  13  25  1   
 26  14  26  1   
 27  14  27  1   
 28  14  28  1   
@<TRIPOS>SUBSTRUCTURE
  1 ****   7 GROUP 4 **** **** 0

# MOE 2024.06 (io_trps.svl 2023.06)
