@<TRIPOS>MOLECULE
NONAME
44 46 1 0 0 
SMALL
USER_CHARGES


@<TRIPOS>ATOM
  1 O       -0.4200     0.4020    -0.3510 O.2   1 <1>  -0.5700 
  2 C       -0.9410     1.3910     0.1110 C.2   1 <1>   0.5690 
  3 N       -2.2340     1.3740     0.5660 N.am  1 <1>  -0.6600 
  4 C       -0.1280     2.6760     0.1780 C.3   1 <1>  -0.0990 
  5 C       -3.0620     0.1320     0.5270 C.3   1 <1>   0.1400 
  6 C       -3.0000     2.5490     1.0850 C.3   1 <1>   0.1400 
  7 C        1.3330     2.5190    -0.2660 C.3   1 <1>  -0.0160 
  8 C       -4.3640     0.3740    -0.2550 C.3   1 <1>   0.1100 
  9 C       -4.3090     2.7390     0.3010 C.3   1 <1>   0.1100 
 10 C        2.0590     3.8500    -0.1530 C.ar  1 <1>  -0.1440 
 11 N       -5.1340     1.5090     0.2960 N.3   1 <1>  -0.8100 
 12 C        2.0950     4.7220    -1.2300 C.ar  1 <1>  -0.1500 
 13 C        2.6840     4.2070     1.0320 C.ar  1 <1>  -0.1500 
 14 C       -6.3890     1.6950    -0.4600 C.3   1 <1>   0.2900 
 15 C        2.7490     5.9370    -1.1250 C.ar  1 <1>  -0.1500 
 16 C        3.3380     5.4220     1.1390 C.ar  1 <1>  -0.1500 
 17 C       -7.2680     2.7860     0.1340 C.2   1 <1>  -0.0400 
 18 C        3.3700     6.2880     0.0610 C.ar  1 <1>  -0.1500 
 19 O       -7.1500     4.0270    -0.3060 O.3   1 <1>  -0.2800 
 20 C       -8.2240     2.7130     1.0850 C.2   1 <1>  -0.1500 
 21 C       -8.0190     4.7670     0.3530 C.2   1 <1>  -0.0100 
 22 C       -8.7170     4.0160     1.2310 C.2   1 <1>  -0.1500 
 23 H       -0.1400     3.0330     1.1910 H     1 <1>   0.0800 
 24 H       -0.6020     3.4090    -0.4480 H     1 <1>   0.0800 
 25 H       -3.3030    -0.1640     1.5330 H     1 <1>   0.0800 
 26 H       -2.5180    -0.6740     0.0660 H     1 <1>   0.0800 
 27 H       -2.4230     3.4520     1.0210 H     1 <1>   0.0800 
 28 H       -3.2380     2.3810     2.1210 H     1 <1>   0.0800 
 29 H        1.3690     2.1690    -1.2840 H     1 <1>   0.0800 
 30 H        1.8230     1.7830     0.3470 H     1 <1>   0.0800 
 31 H       -4.9620    -0.5190    -0.2080 H     1 <1>   0.0800 
 32 H       -4.1180     0.5610    -1.2870 H     1 <1>   0.0800 
 33 H       -4.0800     3.0310    -0.7090 H     1 <1>   0.0800 
 34 H       -4.8590     3.5400     0.7630 H     1 <1>   0.0800 
 35 H        1.6150     4.4570    -2.1560 H     1 <1>   0.1500 
 36 H        2.6640     3.5390     1.8750 H     1 <1>   0.1500 
 37 H       -6.9430     0.7730    -0.4360 H     1 <1>   0.0800 
 38 H       -6.1740     1.9300    -1.4880 H     1 <1>   0.0800 
 39 H        2.7750     6.6090    -1.9650 H     1 <1>   0.1500 
 40 H        3.8220     5.6930     2.0610 H     1 <1>   0.1500 
 41 H        3.8780     7.2330     0.1440 H     1 <1>   0.1500 
 42 H       -8.5560     1.8520     1.6370 H     1 <1>   0.1500 
 43 H       -8.0760     5.8190     0.1350 H     1 <1>   0.1500 
 44 H       -9.4920     4.3190     1.9120 H     1 <1>   0.1500 
@<TRIPOS>BOND
  1   1   2  2   
  2   2   3  am  
  3   2   4  1   
  4   3   5  1   
  5   3   6  1   
  6   4   7  1   
  7   4  23  1   
  8   4  24  1   
  9   5   8  1   
 10   5  25  1   
 11   5  26  1   
 12   6   9  1   
 13   6  27  1   
 14   6  28  1   
 15   7  10  1   
 16   7  29  1   
 17   7  30  1   
 18   8  11  1   
 19   8  31  1   
 20   8  32  1   
 21   9  11  1   
 22   9  33  1   
 23   9  34  1   
 24  10  12  ar  
 25  10  13  ar  
 26  11  14  1   
 27  12  15  ar  
 28  12  35  1   
 29  13  16  ar  
 30  13  36  1   
 31  14  17  1   
 32  14  37  1   
 33  14  38  1   
 34  15  18  ar  
 35  15  39  1   
 36  16  18  ar  
 37  16  40  1   
 38  17  19  1   
 39  17  20  2   
 40  18  41  1   
 41  19  21  1   
 42  20  22  1   
 43  20  42  1   
 44  21  22  2   
 45  21  43  1   
 46  22  44  1   
@<TRIPOS>SUBSTRUCTURE
  1 ****   6 GROUP 4 **** **** 0

# MOE 2024.06 (io_trps.svl 2023.06)
