@<TRIPOS>MOLECULE
NONAME
46 48 1 0 0 
SMALL
USER_CHARGES


@<TRIPOS>ATOM
  1 O       -0.3240     0.6310     1.8690 O.2   1 <1>  -0.5700 
  2 C       -0.5790     1.5300     1.1050 C.2   1 <1>   0.5690 
  3 N        0.3160     2.2740     0.4200 N.am  1 <1>  -0.6600 
  4 C       -1.9840     1.9650     0.8060 C.3   1 <1>  -0.0990 
  5 C        1.7860     2.1930     0.6160 C.3   1 <1>   0.2200 
  6 C       -0.3470     3.3100    -0.4000 C.3   1 <1>   0.1400 
  7 C       -1.8220     2.8690    -0.4290 C.3   1 <1>  -0.0190 
  8 C        2.3050     3.4320     1.3580 C.3   1 <1>  -0.1600 
  9 C        2.5290     2.1640    -0.7210 C.3   1 <1>  -0.1600 
 10 C       -2.8260     4.0230    -0.5010 C.2   1 <1>   0.5690 
 11 C        3.2340     4.1860     0.3970 C.3   1 <1>  -0.1600 
 12 C        2.9730     3.6020    -0.9880 C.3   1 <1>  -0.1600 
 13 O       -2.3970     5.1430    -0.3410 O.2   1 <1>  -0.5700 
 14 N       -4.1630     3.8100    -0.7600 N.am  1 <1>  -0.6600 
 15 C       -4.7680     2.4760    -1.0490 C.3   1 <1>   0.1400 
 16 C       -5.0540     5.0070    -0.8900 C.3   1 <1>   0.1400 
 17 C       -5.4490     1.9090     0.2030 C.3   1 <1>  -0.1600 
 18 C       -6.5490     4.7580    -0.6470 C.3   1 <1>  -0.1600 
 19 C       -6.8430     2.4860     0.4810 C.3   1 <1>  -0.1600 
 20 C       -6.8640     4.0090     0.6560 C.3   1 <1>  -0.1600 
 21 H       -2.3590     2.5180     1.6480 H     1 <1>   0.0800 
 22 H       -2.6050     1.1120     0.6100 H     1 <1>   0.0800 
 23 H        2.0150     1.3020     1.1780 H     1 <1>   0.0800 
 24 H        0.0570     3.3430    -1.3960 H     1 <1>   0.0800 
 25 H       -0.2170     4.2670     0.0770 H     1 <1>   0.0800 
 26 H       -1.9290     2.2710    -1.3130 H     1 <1>   0.0800 
 27 H        2.8580     3.1270     2.2290 H     1 <1>   0.0800 
 28 H        1.4940     4.0620     1.6780 H     1 <1>   0.0800 
 29 H        1.9320     1.7550    -1.5170 H     1 <1>   0.0800 
 30 H        3.4060     1.5530    -0.6040 H     1 <1>   0.0800 
 31 H        4.2570     3.9970     0.6740 H     1 <1>   0.0800 
 32 H        3.0570     5.2470     0.4210 H     1 <1>   0.0800 
 33 H        2.1810     4.1510    -1.4650 H     1 <1>   0.0800 
 34 H        3.8490     3.6430    -1.6130 H     1 <1>   0.0800 
 35 H       -4.0110     1.7870    -1.3730 H     1 <1>   0.0800 
 36 H       -5.4740     2.5580    -1.8570 H     1 <1>   0.0800 
 37 H       -4.9210     5.4250    -1.8730 H     1 <1>   0.0800 
 38 H       -4.7300     5.7520    -0.1820 H     1 <1>   0.0800 
 39 H       -4.8210     2.0640     1.0610 H     1 <1>   0.0800 
 40 H       -5.5550     0.8460     0.0720 H     1 <1>   0.0800 
 41 H       -6.9840     4.2530    -1.4910 H     1 <1>   0.0800 
 42 H       -7.0200     5.7240    -0.5980 H     1 <1>   0.0800 
 43 H       -7.2200     2.0340     1.3830 H     1 <1>   0.0800 
 44 H       -7.5120     2.2080    -0.3160 H     1 <1>   0.0800 
 45 H       -7.8530     4.2890     0.9750 H     1 <1>   0.0800 
 46 H       -6.1790     4.3060     1.4330 H     1 <1>   0.0800 
@<TRIPOS>BOND
  1   1   2  2   
  2   2   3  am  
  3   2   4  1   
  4   3   5  1   
  5   3   6  1   
  6   4   7  1   
  7   4  21  1   
  8   4  22  1   
  9   5   8  1   
 10   5   9  1   
 11   5  23  1   
 12   6   7  1   
 13   6  24  1   
 14   6  25  1   
 15   7  10  1   
 16   7  26  1   
 17   8  11  1   
 18   8  27  1   
 19   8  28  1   
 20   9  12  1   
 21   9  29  1   
 22   9  30  1   
 23  10  13  2   
 24  10  14  am  
 25  11  12  1   
 26  11  31  1   
 27  11  32  1   
 28  12  33  1   
 29  12  34  1   
 30  14  15  1   
 31  14  16  1   
 32  15  17  1   
 33  15  35  1   
 34  15  36  1   
 35  16  18  1   
 36  16  37  1   
 37  16  38  1   
 38  17  19  1   
 39  17  39  1   
 40  17  40  1   
 41  18  20  1   
 42  18  41  1   
 43  18  42  1   
 44  19  20  1   
 45  19  43  1   
 46  19  44  1   
 47  20  45  1   
 48  20  46  1   
@<TRIPOS>SUBSTRUCTURE
  1 ****   7 GROUP 4 **** **** 0

# MOE 2024.06 (io_trps.svl 2023.06)
