@<TRIPOS>MOLECULE
NONAME
37 38 1 0 0 
SMALL
USER_CHARGES


@<TRIPOS>ATOM
  1 F        0.2750    -0.2990    -0.4940 F     1 <1>  -0.3400 
  2 C        1.3470    -1.0450    -0.2530 C.3   1 <1>   1.1640 
  3 F        0.9850    -1.9310     0.6650 F     1 <1>  -0.3400 
  4 F        1.5730    -1.7330    -1.3670 F     1 <1>  -0.3400 
  5 C        2.5590    -0.2160     0.1960 C.ar  1 <1>  -0.1440 
  6 C        3.8520    -0.6480    -0.0730 C.ar  1 <1>  -0.1500 
  7 C        2.3910     0.9790     0.8910 C.ar  1 <1>  -0.1500 
  8 C        4.9540     0.0870     0.3300 C.ar  1 <1>   0.0830 
  9 C        3.4870     1.7200     1.3000 C.ar  1 <1>  -0.1500 
 10 O        6.1690    -0.4210     0.0150 O.3   1 <1>  -0.3630 
 11 C        4.7680     1.2800     1.0220 C.ar  1 <1>  -0.1500 
 12 C        7.3580     0.2600     0.3450 C.3   1 <1>   0.1200 
 13 C        8.5340    -0.5920    -0.1370 C.3   1 <1>   0.1100 
 14 N        9.8330     0.0520     0.1580 N.3   1 <1>  -0.8100 
 15 C       10.9150    -0.9530     0.1890 C.3   1 <1>   0.1100 
 16 C       10.1390     1.1500    -0.7860 C.3   1 <1>   0.1100 
 17 C       12.2700    -0.3090     0.5460 C.3   1 <1>   0.3430 
 18 C       11.4850     1.8230    -0.4460 C.3   1 <1>   0.3430 
 19 N       12.6020     0.8230    -0.3810 N.4   1 <1>  -0.9060 
 20 H        4.0240    -1.5690    -0.6040 H     1 <1>   0.1500 
 21 H        1.4030     1.3420     1.1220 H     1 <1>   0.1500 
 22 H        3.3400     2.6420     1.8360 H     1 <1>   0.1500 
 23 H        5.5980     1.8740     1.3520 H     1 <1>   0.1500 
 24 H        7.3960     0.3770     1.4130 H     1 <1>   0.0800 
 25 H        7.3390     1.2150    -0.1460 H     1 <1>   0.0800 
 26 H        8.4410    -0.7770    -1.1940 H     1 <1>   0.0800 
 27 H        8.4760    -1.5360     0.3800 H     1 <1>   0.0800 
 28 H       10.9850    -1.4510    -0.7630 H     1 <1>   0.0800 
 29 H       10.6840    -1.6970     0.9340 H     1 <1>   0.0800 
 30 H        9.3660     1.8970    -0.7340 H     1 <1>   0.0800 
 31 H       10.1650     0.7740    -1.7950 H     1 <1>   0.0800 
 32 H       13.0440    -1.0600     0.5070 H     1 <1>   0.0800 
 33 H       12.2130     0.0560     1.5590 H     1 <1>   0.0800 
 34 H       11.3840     2.3150     0.5070 H     1 <1>   0.0800 
 35 H       11.7050     2.5760    -1.1860 H     1 <1>   0.0800 
 36 H       12.7640     0.4440    -1.3210 H     1 <1>   0.4500 
 37 H       13.4690     1.2830    -0.0770 H     1 <1>   0.4500 
@<TRIPOS>BOND
  1   1   2  1   
  2   2   3  1   
  3   2   4  1   
  4   2   5  1   
  5   5   6  ar  
  6   5   7  ar  
  7   6   8  ar  
  8   6  20  1   
  9   7   9  ar  
 10   7  21  1   
 11   8  10  1   
 12   8  11  ar  
 13   9  11  ar  
 14   9  22  1   
 15  10  12  1   
 16  11  23  1   
 17  12  13  1   
 18  12  24  1   
 19  12  25  1   
 20  13  14  1   
 21  13  26  1   
 22  13  27  1   
 23  14  15  1   
 24  14  16  1   
 25  15  17  1   
 26  15  28  1   
 27  15  29  1   
 28  16  18  1   
 29  16  30  1   
 30  16  31  1   
 31  17  19  1   
 32  17  32  1   
 33  17  33  1   
 34  18  19  1   
 35  18  34  1   
 36  18  35  1   
 37  19  36  1   
 38  19  37  1   
@<TRIPOS>SUBSTRUCTURE
  1 ****  10 GROUP 4 **** **** 0

# MOE 2024.06 (io_trps.svl 2023.06)
