@<TRIPOS>MOLECULE
NONAME
28 28 1 0 0 
SMALL
USER_CHARGES


@<TRIPOS>ATOM
  1 S       -0.4760    -0.5630     0.0120 S.3   1 <1>  -0.0800 
  2 C       -0.2250     1.1490     0.0370 C.2   1 <1>   0.4420 
  3 C        1.2530    -0.7710     0.0340 C.2   1 <1>   0.3330 
  4 N        1.0190     1.4510     0.0580 N.2   1 <1>  -0.3380 
  5 N       -1.2660     2.0430     0.0330 N.am  1 <1>  -0.4940 
  6 N        1.8470     0.3710     0.0560 N.2   1 <1>  -0.3380 
  7 C        1.8420    -2.0960     0.0260 C.2   1 <1>  -0.0930 
  8 C       -2.6120     1.8750     0.0120 C.2   1 <1>   0.7800 
  9 C        3.1810    -2.2790     0.0420 C.2   1 <1>  -0.2880 
 10 C        0.8570    -3.2660    -0.0020 C.3   1 <1>  -0.1020 
 11 O       -3.1720     0.8010    -0.0090 O.2   1 <1>  -0.5700 
 12 O       -3.3160     3.0020     0.0160 O.3   1 <1>  -0.4300 
 13 C        4.0170    -3.5530     0.0390 C.3   1 <1>  -0.1020 
 14 C       -4.7260     2.9750    -0.0040 C.3   1 <1>   0.1200 
 15 C       -5.2270     4.4160     0.0070 C.3   1 <1>  -0.2400 
 16 H       -0.9840     3.0170     0.0490 H     1 <1>   0.3700 
 17 H        3.8310    -1.4170     0.0620 H     1 <1>   0.1500 
 18 H        0.2210    -3.2320     0.8650 H     1 <1>   0.0800 
 19 H        1.3400    -4.2200    -0.0070 H     1 <1>   0.0800 
 20 H        0.2450    -3.2100    -0.8850 H     1 <1>   0.0800 
 21 H        4.6590    -3.5570    -0.8240 H     1 <1>   0.0800 
 22 H        3.4290    -4.4490     0.0190 H     1 <1>   0.0800 
 23 H        4.6350    -3.5780     0.9190 H     1 <1>   0.0800 
 24 H       -5.0460     2.4610    -0.8950 H     1 <1>   0.0800 
 25 H       -5.0700     2.4390     0.8660 H     1 <1>   0.0800 
 26 H       -4.8690     4.9400    -0.8600 H     1 <1>   0.0800 
 27 H       -4.8940     4.9190     0.8970 H     1 <1>   0.0800 
 28 H       -6.3020     4.4250    -0.0070 H     1 <1>   0.0800 
@<TRIPOS>BOND
  1   1   2  1   
  2   1   3  1   
  3   2   4  2   
  4   2   5  1   
  5   3   6  2   
  6   3   7  1   
  7   4   6  1   
  8   5   8  am  
  9   5  16  1   
 10   7   9  2   
 11   7  10  1   
 12   8  11  2   
 13   8  12  1   
 14   9  13  1   
 15   9  17  1   
 16  10  18  1   
 17  10  19  1   
 18  10  20  1   
 19  12  14  1   
 20  13  21  1   
 21  13  22  1   
 22  13  23  1   
 23  14  15  1   
 24  14  24  1   
 25  14  25  1   
 26  15  26  1   
 27  15  27  1   
 28  15  28  1   
@<TRIPOS>SUBSTRUCTURE
  1 ****   2 GROUP 4 **** **** 0

# MOE 2024.06 (io_trps.svl 2023.06)
