@<TRIPOS>MOLECULE
NONAME
51 53 1 0 0 
SMALL
USER_CHARGES


@<TRIPOS>ATOM
  1 O        3.3880    -1.8830    -0.5790 O.2   1 <1>  -0.5700 
  2 C        2.3940    -2.5630    -0.5980 C.2   1 <1>   0.5690 
  3 N        1.2400    -1.9060    -0.9050 N.am  1 <1>  -0.7300 
  4 C        2.4990    -4.0810    -0.2790 C.3   1 <1>   0.0610 
  5 C       -0.1800    -2.3210    -0.9990 C.3   1 <1>   0.1400 
  6 C        3.9530    -4.4530     0.1320 C.3   1 <1>  -0.1600 
  7 C        2.1520    -4.9380    -1.5250 C.3   1 <1>  -0.1600 
  8 C        1.5820    -4.4910     0.9060 C.3   1 <1>  -0.1600 
  9 C       -0.9360    -1.8750     0.2660 C.3   1 <1>   0.3430 
 10 C        4.0950    -5.9540     0.4430 C.3   1 <1>  -0.0800 
 11 C        2.2630    -6.4420    -1.2150 C.3   1 <1>  -0.0800 
 12 C        1.6970    -5.9970     1.2070 C.3   1 <1>  -0.0800 
 13 N       -2.3600    -2.3580     0.2990 N.4   1 <1>  -0.9590 
 14 C        3.7100    -6.7650    -0.8060 C.3   1 <1>  -0.1600 
 15 C        3.1490    -6.3220     1.5980 C.3   1 <1>  -0.1600 
 16 C        1.3170    -6.7980    -0.0520 C.3   1 <1>  -0.1600 
 17 C       -3.1440    -1.6180     1.3290 C.3   1 <1>   0.3430 
 18 C       -2.4350    -3.8280     0.5360 C.3   1 <1>   0.3430 
 19 C       -3.4790    -0.2230     0.8120 C.3   1 <1>  -0.2400 
 20 C       -3.7800    -4.3540     0.0500 C.3   1 <1>  -0.2400 
 21 H        1.4300    -0.9290    -1.1560 H     1 <1>   0.3700 
 22 H       -0.2440    -3.3830    -1.1210 H     1 <1>   0.0800 
 23 H       -0.6140    -1.8550    -1.8670 H     1 <1>   0.0800 
 24 H        4.2440    -3.8810     0.9970 H     1 <1>   0.0800 
 25 H        4.6320    -4.1920    -0.6620 H     1 <1>   0.0800 
 26 H        2.8300    -4.6890    -2.3250 H     1 <1>   0.0800 
 27 H        1.1630    -4.7320    -1.8790 H     1 <1>   0.0800 
 28 H        1.8580    -3.9290     1.7810 H     1 <1>   0.0800 
 29 H        0.5580    -4.2780     0.6910 H     1 <1>   0.0800 
 30 H       -0.9170    -0.7990     0.2990 H     1 <1>   0.0800 
 31 H       -0.4130    -2.2430     1.1340 H     1 <1>   0.0800 
 32 H        5.1120    -6.1740     0.7210 H     1 <1>   0.0800 
 33 H        2.0010    -7.0160    -2.0880 H     1 <1>   0.0800 
 34 H        1.0420    -6.2620     2.0200 H     1 <1>   0.0800 
 35 H       -2.8010    -2.1630    -0.6100 H     1 <1>   0.4500 
 36 H        3.8070    -7.8170    -0.6010 H     1 <1>   0.0800 
 37 H        4.3810    -6.5290    -1.6140 H     1 <1>   0.0800 
 38 H        3.4250    -5.7740     2.4820 H     1 <1>   0.0800 
 39 H        3.2420    -7.3700     1.8230 H     1 <1>   0.0800 
 40 H        1.3870    -7.8520     0.1570 H     1 <1>   0.0800 
 41 H        0.3000    -6.5910    -0.3320 H     1 <1>   0.0800 
 42 H       -2.5870    -1.5520     2.2500 H     1 <1>   0.0800 
 43 H       -4.0670    -2.1370     1.5340 H     1 <1>   0.0800 
 44 H       -2.3040    -4.0460     1.5850 H     1 <1>   0.0800 
 45 H       -1.6550    -4.3340    -0.0090 H     1 <1>   0.0800 
 46 H       -2.5970     0.3740     0.6720 H     1 <1>   0.0800 
 47 H       -4.0970     0.2780     1.5360 H     1 <1>   0.0800 
 48 H       -4.0320    -0.2780    -0.1090 H     1 <1>   0.0800 
 49 H       -4.5960    -3.9390     0.6130 H     1 <1>   0.0800 
 50 H       -3.8060    -5.4220     0.1800 H     1 <1>   0.0800 
 51 H       -3.9190    -4.1460    -0.9960 H     1 <1>   0.0800 
@<TRIPOS>BOND
  1   1   2  2   
  2   2   3  am  
  3   2   4  1   
  4   3   5  1   
  5   3  21  1   
  6   4   6  1   
  7   4   7  1   
  8   4   8  1   
  9   5   9  1   
 10   5  22  1   
 11   5  23  1   
 12   6  10  1   
 13   6  24  1   
 14   6  25  1   
 15   7  11  1   
 16   7  26  1   
 17   7  27  1   
 18   8  12  1   
 19   8  28  1   
 20   8  29  1   
 21   9  13  1   
 22   9  30  1   
 23   9  31  1   
 24  10  14  1   
 25  10  15  1   
 26  10  32  1   
 27  11  14  1   
 28  11  16  1   
 29  11  33  1   
 30  12  15  1   
 31  12  16  1   
 32  12  34  1   
 33  13  17  1   
 34  13  18  1   
 35  13  35  1   
 36  14  36  1   
 37  14  37  1   
 38  15  38  1   
 39  15  39  1   
 40  16  40  1   
 41  16  41  1   
 42  17  19  1   
 43  17  42  1   
 44  17  43  1   
 45  18  20  1   
 46  18  44  1   
 47  18  45  1   
 48  19  46  1   
 49  19  47  1   
 50  19  48  1   
 51  20  49  1   
 52  20  50  1   
 53  20  51  1   
@<TRIPOS>SUBSTRUCTURE
  1 ****   8 GROUP 4 **** **** 0

# MOE 2024.06 (io_trps.svl 2023.06)
