@<TRIPOS>MOLECULE
NONAME
32 32 1 0 0 
SMALL
USER_CHARGES


@<TRIPOS>ATOM
  1 S       -0.0950     0.4090     0.0260 S.3   1 <1>  -0.3320 
  2 C       -1.5580    -0.6440     0.0150 C.ar  1 <1>   0.1020 
  3 C        1.3640    -0.7230     0.0580 C.3   1 <1>   0.0700 
  4 C       -2.7870    -0.0130    -0.0120 C.ar  1 <1>  -0.1500 
  5 C       -1.4720    -2.0270     0.0320 C.ar  1 <1>  -0.1500 
  6 C        2.6300     0.1370     0.0690 C.3   1 <1>  -0.0990 
  7 C       -3.9460    -0.7700    -0.0210 C.ar  1 <1>  -0.1500 
  8 C       -2.6360    -2.7780     0.0220 C.ar  1 <1>  -0.1500 
  9 C        3.9050    -0.6910     0.0810 C.2   1 <1>   0.5690 
 10 C       -3.8750    -2.1550    -0.0030 C.ar  1 <1>  -0.1440 
 11 O        3.8030    -1.8930     0.1690 O.2   1 <1>  -0.5700 
 12 N        5.1310    -0.0740    -0.0090 N.am  1 <1>  -0.6600 
 13 C       -5.1470    -2.9840    -0.0150 C.3   1 <1>  -0.0970 
 14 C        6.3930    -0.8670    -0.0430 C.3   1 <1>   0.0600 
 15 C        5.3500     1.3980    -0.0880 C.3   1 <1>   0.0600 
 16 H        1.3170    -1.3410    -0.8210 H     1 <1>   0.0800 
 17 H        1.2910    -1.3250     0.9460 H     1 <1>   0.0800 
 18 H       -2.8340     1.0610    -0.0250 H     1 <1>   0.1500 
 19 H       -0.5260    -2.5300     0.0520 H     1 <1>   0.1500 
 20 H        2.6180     0.7600     0.9430 H     1 <1>   0.0800 
 21 H        2.6310     0.7580    -0.8070 H     1 <1>   0.0800 
 22 H       -4.9020    -0.2770    -0.0430 H     1 <1>   0.1500 
 23 H       -2.5720    -3.8520     0.0340 H     1 <1>   0.1500 
 24 H       -5.9420    -2.4590     0.4840 H     1 <1>   0.0800 
 25 H       -4.9910    -3.9210     0.4900 H     1 <1>   0.0800 
 26 H       -5.4420    -3.1810    -1.0300 H     1 <1>   0.0800 
 27 H        6.1870    -1.9240    -0.0400 H     1 <1>   0.0800 
 28 H        6.9910    -0.6340     0.8200 H     1 <1>   0.0800 
 29 H        6.9480    -0.6320    -0.9340 H     1 <1>   0.0800 
 30 H        4.4480     1.9470     0.1100 H     1 <1>   0.0800 
 31 H        5.7050     1.6570    -1.0700 H     1 <1>   0.0800 
 32 H        6.0880     1.6930     0.6380 H     1 <1>   0.0800 
@<TRIPOS>BOND
  1   1   2  1   
  2   1   3  1   
  3   2   4  ar  
  4   2   5  ar  
  5   3   6  1   
  6   3  16  1   
  7   3  17  1   
  8   4   7  ar  
  9   4  18  1   
 10   5   8  ar  
 11   5  19  1   
 12   6   9  1   
 13   6  20  1   
 14   6  21  1   
 15   7  10  ar  
 16   7  22  1   
 17   8  10  ar  
 18   8  23  1   
 19   9  11  2   
 20   9  12  am  
 21  10  13  1   
 22  12  14  1   
 23  12  15  1   
 24  13  24  1   
 25  13  25  1   
 26  13  26  1   
 27  14  27  1   
 28  14  28  1   
 29  14  29  1   
 30  15  30  1   
 31  15  31  1   
 32  15  32  1   
@<TRIPOS>SUBSTRUCTURE
  1 ****   3 GROUP 4 **** **** 0

# MOE 2024.06 (io_trps.svl 2023.06)
