@<TRIPOS>MOLECULE
NONAME
45 46 1 0 0 
SMALL
USER_CHARGES


@<TRIPOS>ATOM
  1 O        0.3790     0.5120     0.1530 O.3   1 <1>  -0.3630 
  2 C       -0.8490     1.0720     0.0030 C.ar  1 <1>   0.0830 
  3 C        1.5520     1.2240    -0.1520 C.3   1 <1>   0.1200 
  4 C       -1.9380     0.2840     0.3350 C.ar  1 <1>  -0.1500 
  5 C       -1.0580     2.3700    -0.4560 C.ar  1 <1>  -0.1500 
  6 C        2.7380     0.2990     0.1310 C.3   1 <1>  -0.1600 
  7 C       -3.2290     0.7690     0.2160 C.ar  1 <1>   0.0830 
  8 C       -2.3470     2.8610    -0.5780 C.ar  1 <1>  -0.1500 
  9 C        4.0820     0.9810    -0.1630 C.3   1 <1>  -0.1600 
 10 O       -4.2350    -0.0730     0.5640 O.3   1 <1>  -0.3630 
 11 C       -3.4310     2.0680    -0.2440 C.ar  1 <1>  -0.1500 
 12 C        5.2400     0.0220     0.1260 C.3   1 <1>   0.3430 
 13 C       -5.5850     0.3230     0.4790 C.3   1 <1>   0.0400 
 14 N        6.5410     0.6380    -0.2540 N.4   1 <1>  -0.9590 
 15 C        7.6010    -0.4090    -0.3520 C.3   1 <1>   0.3430 
 16 C        6.9480     1.7330     0.6790 C.3   1 <1>   0.3430 
 17 C        8.8930     0.2110    -0.8890 C.3   1 <1>  -0.1600 
 18 C        8.2260     2.4000     0.1670 C.3   1 <1>  -0.1600 
 19 C        9.3620     1.3860    -0.0210 C.3   1 <1>  -0.1600 
 20 H        1.5860     2.1010     0.4720 H     1 <1>   0.0800 
 21 H        1.5170     1.5030    -1.1910 H     1 <1>   0.0800 
 22 H       -1.7800    -0.7170     0.6900 H     1 <1>   0.1500 
 23 H       -0.2400     3.0090    -0.7230 H     1 <1>   0.1500 
 24 H        2.6340    -0.5820    -0.4800 H     1 <1>   0.0800 
 25 H        2.6980     0.0030     1.1660 H     1 <1>   0.0800 
 26 H       -2.5080     3.8640    -0.9330 H     1 <1>   0.1500 
 27 H        4.1610     1.8600     0.4520 H     1 <1>   0.0800 
 28 H        4.1040     1.2730    -1.1990 H     1 <1>   0.0800 
 29 H       -4.4190     2.4750    -0.3490 H     1 <1>   0.1500 
 30 H        5.0890    -0.8790    -0.4460 H     1 <1>   0.0800 
 31 H        5.2470    -0.2430     1.1720 H     1 <1>   0.0800 
 32 H       -6.1950    -0.5010     0.8030 H     1 <1>   0.0800 
 33 H       -5.8130     0.5670    -0.5430 H     1 <1>   0.0800 
 34 H       -5.7410     1.1690     1.1240 H     1 <1>   0.0800 
 35 H        6.4420     1.0520    -1.1900 H     1 <1>   0.4500 
 36 H        7.2830    -1.1990    -1.0140 H     1 <1>   0.0800 
 37 H        7.7850    -0.8350     0.6210 H     1 <1>   0.0800 
 38 H        7.1240     1.3280     1.6630 H     1 <1>   0.0800 
 39 H        6.1680     2.4730     0.7510 H     1 <1>   0.0800 
 40 H        8.7390     0.5400    -1.9020 H     1 <1>   0.0800 
 41 H        9.6620    -0.5430    -0.9100 H     1 <1>   0.0800 
 42 H        8.5360     3.1530     0.8710 H     1 <1>   0.0800 
 43 H        8.0210     2.8990    -0.7640 H     1 <1>   0.0800 
 44 H       10.2100     1.8660    -0.4810 H     1 <1>   0.0800 
 45 H        9.6780     1.0180     0.9410 H     1 <1>   0.0800 
@<TRIPOS>BOND
  1   1   2  1   
  2   1   3  1   
  3   2   4  ar  
  4   2   5  ar  
  5   3   6  1   
  6   3  20  1   
  7   3  21  1   
  8   4   7  ar  
  9   4  22  1   
 10   5   8  ar  
 11   5  23  1   
 12   6   9  1   
 13   6  24  1   
 14   6  25  1   
 15   7  10  1   
 16   7  11  ar  
 17   8  11  ar  
 18   8  26  1   
 19   9  12  1   
 20   9  27  1   
 21   9  28  1   
 22  10  13  1   
 23  11  29  1   
 24  12  14  1   
 25  12  30  1   
 26  12  31  1   
 27  13  32  1   
 28  13  33  1   
 29  13  34  1   
 30  14  15  1   
 31  14  16  1   
 32  14  35  1   
 33  15  17  1   
 34  15  36  1   
 35  15  37  1   
 36  16  18  1   
 37  16  38  1   
 38  16  39  1   
 39  17  19  1   
 40  17  40  1   
 41  17  41  1   
 42  18  19  1   
 43  18  42  1   
 44  18  43  1   
 45  19  44  1   
 46  19  45  1   
@<TRIPOS>SUBSTRUCTURE
  1 ****   3 GROUP 4 **** **** 0

# MOE 2024.06 (io_trps.svl 2023.06)
