@<TRIPOS>MOLECULE
NONAME
42 43 1 0 0 
SMALL
USER_CHARGES


@<TRIPOS>ATOM
  1 S        0.0620     1.8440     0.6160 S.3   1 <1>  -0.4600 
  2 C       -0.4430     0.5940    -0.6020 C.3   1 <1>   0.2140 
  3 C        1.5270     2.6130    -0.1640 C.3   1 <1>   0.1310 
  4 C       -1.5580    -0.2470     0.0070 C.ar  1 <1>  -0.1440 
  5 C        2.6810     1.6270    -0.2680 C.2   1 <1>   0.5690 
  6 C       -1.3300    -1.5010     0.5690 C.ar  1 <1>  -0.1440 
  7 C       -2.8460     0.2670    -0.0110 C.ar  1 <1>  -0.1500 
  8 O        3.4190     1.7100    -1.2200 O.2   1 <1>  -0.5700 
  9 N        2.8280     0.6930     0.7120 N.am  1 <1>  -0.7300 
 10 C       -2.3960    -2.2180     1.0920 C.ar  1 <1>  -0.1500 
 11 C        0.0620    -2.1130     0.6310 C.3   1 <1>  -0.0970 
 12 C       -3.9030    -0.4530     0.5140 C.ar  1 <1>  -0.1500 
 13 C        3.8750    -0.3390     0.8620 C.3   1 <1>   0.2200 
 14 C       -3.6780    -1.7000     1.0650 C.ar  1 <1>  -0.1500 
 15 C        5.2540     0.3090     1.0370 C.3   1 <1>  -0.1600 
 16 C        3.8590    -1.3190    -0.3180 C.3   1 <1>  -0.1600 
 17 C        6.3460    -0.7600     1.1990 C.3   1 <1>  -0.1600 
 18 C        4.9470    -2.3910    -0.1550 C.3   1 <1>  -0.1600 
 19 C        6.3310    -1.7500     0.0260 C.3   1 <1>  -0.1600 
 20 H        0.4220     0.0100    -0.8560 H     1 <1>   0.0800 
 21 H       -0.7880     1.1200    -1.4750 H     1 <1>   0.0800 
 22 H        1.8100     3.4510     0.4460 H     1 <1>   0.0800 
 23 H        1.2330     2.9550    -1.1390 H     1 <1>   0.0800 
 24 H       -3.0310     1.2400    -0.4320 H     1 <1>   0.1500 
 25 H        2.1130     0.6880     1.4450 H     1 <1>   0.3700 
 26 H       -2.2360    -3.1890     1.5280 H     1 <1>   0.1500 
 27 H        0.4100    -2.3330    -0.3620 H     1 <1>   0.0800 
 28 H        0.0570    -3.0260     1.1980 H     1 <1>   0.0800 
 29 H        0.7430    -1.4300     1.1050 H     1 <1>   0.0800 
 30 H       -4.8980    -0.0430     0.4950 H     1 <1>   0.1500 
 31 H        3.6580    -0.8970     1.7570 H     1 <1>   0.0800 
 32 H       -4.4970    -2.2640     1.4750 H     1 <1>   0.1500 
 33 H        5.2460     0.9470     1.9020 H     1 <1>   0.0800 
 34 H        5.4840     0.9080     0.1730 H     1 <1>   0.0800 
 35 H        4.0390    -0.7850    -1.2350 H     1 <1>   0.0800 
 36 H        2.8980    -1.7930    -0.3850 H     1 <1>   0.0800 
 37 H        6.1900    -1.2950     2.1200 H     1 <1>   0.0800 
 38 H        7.3090    -0.2830     1.2550 H     1 <1>   0.0800 
 39 H        4.9570    -3.0280    -1.0220 H     1 <1>   0.0800 
 40 H        4.7230    -3.0030     0.7020 H     1 <1>   0.0800 
 41 H        7.0660    -2.5180     0.1920 H     1 <1>   0.0800 
 42 H        6.5990    -1.2290    -0.8790 H     1 <1>   0.0800 
@<TRIPOS>BOND
  1   1   2  1   
  2   1   3  1   
  3   2   4  1   
  4   2  20  1   
  5   2  21  1   
  6   3   5  1   
  7   3  22  1   
  8   3  23  1   
  9   4   6  ar  
 10   4   7  ar  
 11   5   8  2   
 12   5   9  am  
 13   6  10  ar  
 14   6  11  1   
 15   7  12  ar  
 16   7  24  1   
 17   9  13  1   
 18   9  25  1   
 19  10  14  ar  
 20  10  26  1   
 21  11  27  1   
 22  11  28  1   
 23  11  29  1   
 24  12  14  ar  
 25  12  30  1   
 26  13  15  1   
 27  13  16  1   
 28  13  31  1   
 29  14  32  1   
 30  15  17  1   
 31  15  33  1   
 32  15  34  1   
 33  16  18  1   
 34  16  35  1   
 35  16  36  1   
 36  17  19  1   
 37  17  37  1   
 38  17  38  1   
 39  18  19  1   
 40  18  39  1   
 41  18  40  1   
 42  19  41  1   
 43  19  42  1   
@<TRIPOS>SUBSTRUCTURE
  1 ****   9 GROUP 4 **** **** 0

# MOE 2024.06 (io_trps.svl 2023.06)
