@<TRIPOS>MOLECULE
NONAME
52 53 1 0 0 
SMALL
USER_CHARGES


@<TRIPOS>ATOM
  1 O        6.1910    -4.9150    -0.0700 O.3   1 <1>  -0.3630 
  2 C        6.9980    -3.8220    -0.0340 C.ar  1 <1>   0.0830 
  3 C        4.7950    -4.8190    -0.1890 C.3   1 <1>   0.1200 
  4 C        8.3500    -3.9990     0.2770 C.ar  1 <1>  -0.1440 
  5 C        6.5100    -2.5420    -0.2980 C.ar  1 <1>  -0.1500 
  6 C        4.2330    -6.2360    -0.0530 C.3   1 <1>  -0.1600 
  7 C        9.1770    -2.8830     0.3180 C.ar  1 <1>  -0.1500 
  8 C        8.9820    -5.3660     0.5780 C.3   1 <1>   0.0640 
  9 C        7.3500    -1.4460    -0.2500 C.ar  1 <1>  -0.1500 
 10 C        2.7000    -6.2580    -0.1440 C.3   1 <1>  -0.1600 
 11 C        8.6850    -1.6170     0.0590 C.ar  1 <1>  -0.1500 
 12 C        8.9350    -6.2900    -0.6540 C.3   1 <1>  -0.1600 
 13 C        8.3690    -6.0040     1.8340 C.3   1 <1>  -0.2400 
 14 C        2.1830    -7.6920    -0.0020 C.3   1 <1>   0.3430 
 15 C        9.7820    -7.5620    -0.4990 C.3   1 <1>  -0.2400 
 16 N        0.7060    -7.7390    -0.1810 N.4   1 <1>  -0.9590 
 17 C       -0.0360    -7.1260     0.9810 C.3   1 <1>   0.3430 
 18 C        0.2470    -9.1580    -0.3960 C.3   1 <1>   0.3430 
 19 C       -1.5660    -7.2410     0.8110 C.3   1 <1>   0.1100 
 20 C       -1.2870    -9.2490    -0.5530 C.3   1 <1>   0.1100 
 21 N       -1.9760    -8.6360     0.5920 N.3   1 <1>  -0.9000 
 22 H        4.5660    -4.4000    -1.1530 H     1 <1>   0.0800 
 23 H        4.4330    -4.1800     0.5980 H     1 <1>   0.0800 
 24 H        5.4810    -2.3750    -0.5460 H     1 <1>   0.1500 
 25 H        4.5460    -6.6350     0.8970 H     1 <1>   0.0800 
 26 H        4.6540    -6.8450    -0.8350 H     1 <1>   0.0800 
 27 H       10.2200    -2.9900     0.5550 H     1 <1>   0.1500 
 28 H       10.0230    -5.2010     0.8000 H     1 <1>   0.0800 
 29 H        6.9670    -0.4610    -0.4540 H     1 <1>   0.1500 
 30 H        2.4020    -5.8570    -1.0970 H     1 <1>   0.0800 
 31 H        2.3010    -5.6380     0.6390 H     1 <1>   0.0800 
 32 H        9.3430    -0.7660     0.0970 H     1 <1>   0.1500 
 33 H        9.2990    -5.7390    -1.5040 H     1 <1>   0.0800 
 34 H        7.9200    -6.5710    -0.8650 H     1 <1>   0.0800 
 35 H        7.3700    -6.3470     1.6440 H     1 <1>   0.0800 
 36 H        8.3370    -5.2800     2.6290 H     1 <1>   0.0800 
 37 H        8.9610    -6.8380     2.1620 H     1 <1>   0.0800 
 38 H        2.4510    -8.0850     0.9660 H     1 <1>   0.0800 
 39 H        2.6560    -8.3040    -0.7530 H     1 <1>   0.0800 
 40 H       10.8020    -7.3110    -0.2690 H     1 <1>   0.0800 
 41 H        9.7680    -8.1220    -1.4170 H     1 <1>   0.0800 
 42 H        9.3900    -8.1890     0.2820 H     1 <1>   0.0800 
 43 H        0.4580    -7.2080    -1.0240 H     1 <1>   0.4500 
 44 H        0.2280    -6.0870     1.0830 H     1 <1>   0.0800 
 45 H        0.2400    -7.6300     1.8930 H     1 <1>   0.0800 
 46 H        0.5330    -9.7630     0.4490 H     1 <1>   0.0800 
 47 H        0.7160    -9.5690    -1.2740 H     1 <1>   0.0800 
 48 H       -1.8890    -6.6290    -0.0150 H     1 <1>   0.0800 
 49 H       -2.0470    -6.8710     1.7020 H     1 <1>   0.0800 
 50 H       -1.5730   -10.2850    -0.6180 H     1 <1>   0.0800 
 51 H       -1.5900    -8.7650    -1.4660 H     1 <1>   0.0800 
 52 H       -3.0000    -8.6850     0.4540 H     1 <1>   0.3600 
@<TRIPOS>BOND
  1   1   2  1   
  2   1   3  1   
  3   2   4  ar  
  4   2   5  ar  
  5   3   6  1   
  6   3  22  1   
  7   3  23  1   
  8   4   7  ar  
  9   4   8  1   
 10   5   9  ar  
 11   5  24  1   
 12   6  10  1   
 13   6  25  1   
 14   6  26  1   
 15   7  11  ar  
 16   7  27  1   
 17   8  12  1   
 18   8  13  1   
 19   8  28  1   
 20   9  11  ar  
 21   9  29  1   
 22  10  14  1   
 23  10  30  1   
 24  10  31  1   
 25  11  32  1   
 26  12  15  1   
 27  12  33  1   
 28  12  34  1   
 29  13  35  1   
 30  13  36  1   
 31  13  37  1   
 32  14  16  1   
 33  14  38  1   
 34  14  39  1   
 35  15  40  1   
 36  15  41  1   
 37  15  42  1   
 38  16  17  1   
 39  16  18  1   
 40  16  43  1   
 41  17  19  1   
 42  17  44  1   
 43  17  45  1   
 44  18  20  1   
 45  18  46  1   
 46  18  47  1   
 47  19  21  1   
 48  19  48  1   
 49  19  49  1   
 50  20  21  1   
 51  20  50  1   
 52  20  51  1   
 53  21  52  1   
@<TRIPOS>SUBSTRUCTURE
  1 ****   6 GROUP 4 **** **** 0

# MOE 2024.06 (io_trps.svl 2023.06)
