@<TRIPOS>MOLECULE
NONAME
34 37 1 0 0 
SMALL
USER_CHARGES


@<TRIPOS>ATOM
  1 S       -5.2270     1.3660     1.7310 S.3   1 <1>  -0.4600 
  2 C       -6.3870     1.3520     0.3590 C.3   1 <1>   0.7330 
  3 C       -3.8350     2.1430     0.8930 C.3   1 <1>   0.0700 
  4 N       -5.8490     2.4470    -0.4550 N.4   1 <1>  -0.9060 
  5 C       -6.3570    -0.0060    -0.3880 C.3   1 <1>  -0.0800 
  6 C       -7.8250     1.6600     0.8350 C.3   1 <1>  -0.0800 
  7 C       -4.3570     2.3930    -0.5210 C.3   1 <1>   0.3430 
  8 C       -7.2920     0.0680    -1.6210 C.3   1 <1>  -0.1600 
  9 C       -6.8810    -1.1330     0.5340 C.3   1 <1>  -0.1600 
 10 C       -8.7640     1.7410    -0.3960 C.3   1 <1>  -0.1600 
 11 C       -8.3420     0.5240     1.7490 C.3   1 <1>  -0.1600 
 12 C       -8.7310     0.4060    -1.1730 C.3   1 <1>  -0.0800 
 13 C       -8.3180    -0.8190     0.9940 C.3   1 <1>  -0.0800 
 14 C       -9.2290    -0.7140    -0.2430 C.3   1 <1>  -0.1600 
 15 H       -2.9940     1.4720     0.9140 H     1 <1>   0.0800 
 16 H       -3.6070     3.0570     1.4130 H     1 <1>   0.0800 
 17 H       -6.1460     3.3030     0.0190 H     1 <1>   0.4500 
 18 H       -6.2970     2.4050    -1.3720 H     1 <1>   0.4500 
 19 H       -5.3550    -0.2500    -0.6940 H     1 <1>   0.0800 
 20 H       -7.8460     2.5860     1.3830 H     1 <1>   0.0800 
 21 H       -4.0530     1.5760    -1.1550 H     1 <1>   0.0800 
 22 H       -3.9490     3.3080    -0.9210 H     1 <1>   0.0800 
 23 H       -6.9470     0.7960    -2.3340 H     1 <1>   0.0800 
 24 H       -7.2940    -0.8830    -2.1280 H     1 <1>   0.0800 
 25 H       -6.2440    -1.2510     1.3940 H     1 <1>   0.0800 
 26 H       -6.8710    -2.0720     0.0060 H     1 <1>   0.0800 
 27 H       -8.4910     2.5520    -1.0460 H     1 <1>   0.0800 
 28 H       -9.7720     1.9340    -0.0660 H     1 <1>   0.0800 
 29 H       -7.7420     0.4480     2.6410 H     1 <1>   0.0800 
 30 H       -9.3480     0.7390     2.0680 H     1 <1>   0.0800 
 31 H       -9.3780     0.4670    -2.0330 H     1 <1>   0.0800 
 32 H       -8.6740    -1.6060     1.6390 H     1 <1>   0.0800 
 33 H       -9.2370    -1.6530    -0.7700 H     1 <1>   0.0800 
 34 H      -10.2410    -0.5130     0.0660 H     1 <1>   0.0800 
@<TRIPOS>BOND
  1   1   2  1   
  2   1   3  1   
  3   2   4  1   
  4   2   5  1   
  5   2   6  1   
  6   3   7  1   
  7   3  15  1   
  8   3  16  1   
  9   4   7  1   
 10   4  17  1   
 11   4  18  1   
 12   5   8  1   
 13   5   9  1   
 14   5  19  1   
 15   6  10  1   
 16   6  11  1   
 17   6  20  1   
 18   7  21  1   
 19   7  22  1   
 20   8  12  1   
 21   8  23  1   
 22   8  24  1   
 23   9  13  1   
 24   9  25  1   
 25   9  26  1   
 26  10  12  1   
 27  10  27  1   
 28  10  28  1   
 29  11  13  1   
 30  11  29  1   
 31  11  30  1   
 32  12  14  1   
 33  12  31  1   
 34  13  14  1   
 35  13  32  1   
 36  14  33  1   
 37  14  34  1   
@<TRIPOS>SUBSTRUCTURE
  1 ****   2 GROUP 4 **** **** 0

# MOE 2024.06 (io_trps.svl 2023.06)
