@<TRIPOS>MOLECULE
NONAME
39 41 1 0 0 
SMALL
USER_CHARGES


@<TRIPOS>ATOM
  1 F       -1.7140    11.0230     1.1370 F     1 <1>  -0.1900 
  2 C       -2.4890    10.0560     0.7270 C.ar  1 <1>   0.1900 
  3 C       -3.8570    10.2110     0.8190 C.ar  1 <1>  -0.1500 
  4 C       -1.9140     8.9120     0.2130 C.ar  1 <1>  -0.1500 
  5 C       -4.6750     9.1820     0.3860 C.ar  1 <1>  -0.1500 
  6 C       -2.7410     7.8890    -0.2170 C.ar  1 <1>  -0.1500 
  7 C       -4.1280     8.0060    -0.1280 C.ar  1 <1>  -0.1430 
  8 C       -5.0010     6.8470    -0.6090 C.3   1 <1>   0.4240 
  9 O       -4.9070     6.7930    -1.9870 O.3   1 <1>  -0.6800 
 10 C       -4.6030     5.4770    -0.0490 C.3   1 <1>   0.3430 
 11 C       -6.4870     6.8820    -0.2690 C.3   1 <1>  -0.1600 
 12 N       -5.7570     4.5730    -0.3650 N.4   1 <1>  -0.9590 
 13 C       -6.9720     5.4370    -0.4150 C.3   1 <1>   0.3430 
 14 C       -5.8550     3.3760     0.5120 C.3   1 <1>   0.4860 
 15 C       -4.5370     2.6290     0.4500 C.ar  1 <1>  -0.1430 
 16 C       -4.1970     1.8950    -0.6780 C.ar  1 <1>  -0.1500 
 17 C       -3.6550     2.6820     1.5210 C.ar  1 <1>  -0.1500 
 18 C       -2.9840     1.2340    -0.7390 C.ar  1 <1>  -0.1500 
 19 C       -2.4430     2.0190     1.4590 C.ar  1 <1>  -0.1500 
 20 C       -2.1060     1.2970     0.3280 C.ar  1 <1>  -0.1500 
 21 H       -4.2650    11.1220     1.2200 H     1 <1>   0.1500 
 22 H       -0.8430     8.8320     0.1510 H     1 <1>   0.1500 
 23 H       -5.7390     9.3270     0.4570 H     1 <1>   0.1500 
 24 H       -2.2850     7.0050    -0.6300 H     1 <1>   0.1500 
 25 H       -4.7260     7.6960    -2.3230 H     1 <1>   0.4000 
 26 H       -4.4790     5.5590     1.0170 H     1 <1>   0.0800 
 27 H       -3.6850     5.1250    -0.4880 H     1 <1>   0.0800 
 28 H       -7.0400     7.5600    -0.8950 H     1 <1>   0.0800 
 29 H       -6.6210     7.1740     0.7570 H     1 <1>   0.0800 
 30 H       -5.5740     4.2480    -1.3250 H     1 <1>   0.4500 
 31 H       -7.4660     5.3110    -1.3660 H     1 <1>   0.0800 
 32 H       -7.6630     5.1910     0.3760 H     1 <1>   0.0800 
 33 H       -6.6510     2.7310     0.1770 H     1 <1>   0.0800 
 34 H       -6.0570     3.6730     1.5280 H     1 <1>   0.0800 
 35 H       -4.8660     1.8250    -1.5190 H     1 <1>   0.1500 
 36 H       -3.8970     3.2330     2.4150 H     1 <1>   0.1500 
 37 H       -2.7190     0.6640    -1.6140 H     1 <1>   0.1500 
 38 H       -1.7580     2.0590     2.2900 H     1 <1>   0.1500 
 39 H       -1.1620     0.7800     0.2800 H     1 <1>   0.1500 
@<TRIPOS>BOND
  1   1   2  1   
  2   2   3  ar  
  3   2   4  ar  
  4   3   5  ar  
  5   3  21  1   
  6   4   6  ar  
  7   4  22  1   
  8   5   7  ar  
  9   5  23  1   
 10   6   7  ar  
 11   6  24  1   
 12   7   8  1   
 13   8   9  1   
 14   8  10  1   
 15   8  11  1   
 16   9  25  1   
 17  10  12  1   
 18  10  26  1   
 19  10  27  1   
 20  11  13  1   
 21  11  28  1   
 22  11  29  1   
 23  12  13  1   
 24  12  14  1   
 25  12  30  1   
 26  13  31  1   
 27  13  32  1   
 28  14  15  1   
 29  14  33  1   
 30  14  34  1   
 31  15  16  ar  
 32  15  17  ar  
 33  16  18  ar  
 34  16  35  1   
 35  17  19  ar  
 36  17  36  1   
 37  18  20  ar  
 38  18  37  1   
 39  19  20  ar  
 40  19  38  1   
 41  20  39  1   
@<TRIPOS>SUBSTRUCTURE
  1 ****  10 GROUP 4 **** **** 0

# MOE 2024.06 (io_trps.svl 2023.06)
