@<TRIPOS>MOLECULE
NONAME
45 47 1 0 0 
SMALL
USER_CHARGES


@<TRIPOS>ATOM
  1 O       -0.3130     0.7030    -0.6160 O.3   1 <1>  -0.3630 
  2 C       -1.5000     1.2590    -0.2330 C.ar  1 <1>   0.0830 
  3 C        0.2960     0.9660    -1.8590 C.3   1 <1>   0.0400 
  4 C       -2.3400     2.0870    -1.0000 C.ar  1 <1>   0.0830 
  5 C       -1.8840     0.9490     1.0620 C.ar  1 <1>  -0.1500 
  6 O       -2.0690     2.4550    -2.2700 O.3   1 <1>  -0.5330 
  7 C       -3.5210     2.5680    -0.4550 C.ar  1 <1>  -0.1500 
  8 C       -3.0630     1.4340     1.5990 C.ar  1 <1>  -0.1500 
  9 C       -3.8910     2.2460     0.8410 C.ar  1 <1>  -0.1430 
 10 C       -5.1980     2.7750     1.4160 C.3   1 <1>   0.2530 
 11 N       -6.3690     2.2830     0.6450 N.3   1 <1>  -0.8100 
 12 C       -7.6680     2.8030     1.1470 C.3   1 <1>   0.1900 
 13 C       -6.3840     0.7990     0.6150 C.3   1 <1>   0.1100 
 14 C       -8.8860     2.2280     0.3510 C.3   1 <1>   0.4230 
 15 C       -7.6900     4.3390     1.1170 C.3   1 <1>  -0.2400 
 16 C       -7.5220     0.2520    -0.2610 C.3   1 <1>   0.3430 
 17 N       -8.8760     0.7410     0.1790 N.4   1 <1>  -0.9590 
 18 C       -9.0530     2.7450    -1.0780 C.3   1 <1>  -0.1600 
 19 C       -9.8940     0.4580    -0.8640 C.3   1 <1>   0.3430 
 20 C       -9.8620     1.6640    -1.8010 C.3   1 <1>  -0.1600 
 21 H        1.2350     0.4460    -1.8890 H     1 <1>   0.0800 
 22 H        0.4590     2.0250    -1.9490 H     1 <1>   0.0800 
 23 H       -0.3470     0.6080    -2.6430 H     1 <1>   0.0800 
 24 H       -1.2420     0.3190     1.6530 H     1 <1>   0.1500 
 25 H       -2.7290     3.0710    -2.6320 H     1 <1>   0.4500 
 26 H       -4.1680     3.1970    -1.0380 H     1 <1>   0.1500 
 27 H       -3.3240     1.1740     2.6100 H     1 <1>   0.1500 
 28 H       -5.1490     3.8480     1.3730 H     1 <1>   0.0800 
 29 H       -5.2910     2.4860     2.4500 H     1 <1>   0.0800 
 30 H       -7.7860     2.4960     2.1740 H     1 <1>   0.0800 
 31 H       -6.4700     0.4080     1.6140 H     1 <1>   0.0800 
 32 H       -5.4610     0.4320     0.1980 H     1 <1>   0.0800 
 33 H       -9.7800     2.4960     0.8890 H     1 <1>   0.0800 
 34 H       -7.3670     4.7080     0.1590 H     1 <1>   0.0800 
 35 H       -7.0590     4.7500     1.8840 H     1 <1>   0.0800 
 36 H       -8.6850     4.7020     1.3060 H     1 <1>   0.0800 
 37 H       -7.4980    -0.8250    -0.2430 H     1 <1>   0.0800 
 38 H       -7.3360     0.5690    -1.2740 H     1 <1>   0.0800 
 39 H       -9.1200     0.2930     1.0690 H     1 <1>   0.4500 
 40 H       -8.0870     2.8590    -1.5400 H     1 <1>   0.0800 
 41 H       -9.5530     3.6980    -1.0910 H     1 <1>   0.0800 
 42 H      -10.8690     0.3860    -0.4100 H     1 <1>   0.0800 
 43 H       -9.6820    -0.4600    -1.3900 H     1 <1>   0.0800 
 44 H       -9.3990     1.4030    -2.7370 H     1 <1>   0.0800 
 45 H      -10.8670     1.9950    -2.0010 H     1 <1>   0.0800 
@<TRIPOS>BOND
  1   1   2  1   
  2   1   3  1   
  3   2   4  ar  
  4   2   5  ar  
  5   3  21  1   
  6   3  22  1   
  7   3  23  1   
  8   4   6  1   
  9   4   7  ar  
 10   5   8  ar  
 11   5  24  1   
 12   6  25  1   
 13   7   9  ar  
 14   7  26  1   
 15   8   9  ar  
 16   8  27  1   
 17   9  10  1   
 18  10  11  1   
 19  10  28  1   
 20  10  29  1   
 21  11  12  1   
 22  11  13  1   
 23  12  14  1   
 24  12  15  1   
 25  12  30  1   
 26  13  16  1   
 27  13  31  1   
 28  13  32  1   
 29  14  17  1   
 30  14  18  1   
 31  14  33  1   
 32  15  34  1   
 33  15  35  1   
 34  15  36  1   
 35  16  17  1   
 36  16  37  1   
 37  16  38  1   
 38  17  19  1   
 39  17  39  1   
 40  18  20  1   
 41  18  40  1   
 42  18  41  1   
 43  19  20  1   
 44  19  42  1   
 45  19  43  1   
 46  20  44  1   
 47  20  45  1   
@<TRIPOS>SUBSTRUCTURE
  1 ****  11 GROUP 4 **** **** 0

# MOE 2024.06 (io_trps.svl 2023.06)
