@<TRIPOS>MOLECULE
NONAME
49 51 1 0 0 
SMALL
USER_CHARGES


@<TRIPOS>ATOM
  1 N       -0.0410    -0.5600    -0.4480 N.pl3 1 <1>  -0.8380 
  2 C       -1.1250     0.1660     0.0480 C.ar  1 <1>   0.1000 
  3 C        1.1810     0.1750    -0.8940 C.3   1 <1>   0.2090 
  4 C        0.1470    -1.9420     0.0730 C.3   1 <1>   0.2090 
  5 C       -2.3820     0.1110    -0.5650 C.ar  1 <1>  -0.1440 
  6 C       -0.9600     0.9430     1.1890 C.ar  1 <1>  -0.1500 
  7 C        2.3360     0.0410     0.1210 C.3   1 <1>   0.3430 
  8 C        1.3050    -2.0080     1.0890 C.3   1 <1>   0.3430 
  9 C       -3.4510     0.8130    -0.0130 C.ar  1 <1>  -0.1440 
 10 C       -2.5800    -0.7200    -1.8350 C.3   1 <1>  -0.0970 
 11 C       -2.0170     1.6480     1.7250 C.ar  1 <1>  -0.1500 
 12 N        2.5720    -1.3860     0.5600 N.4   1 <1>  -0.9590 
 13 C       -3.2590     1.5800     1.1260 C.ar  1 <1>  -0.1500 
 14 C       -4.8490     0.7730    -0.6180 C.3   1 <1>  -0.0970 
 15 C        3.6920    -1.4850     1.5350 C.3   1 <1>   0.4860 
 16 C        4.9560    -0.9920     0.8620 C.ar  1 <1>  -0.1440 
 17 C        5.5950    -1.7730    -0.0910 C.ar  1 <1>  -0.1500 
 18 C        5.4810     0.2500     1.1860 C.ar  1 <1>  -0.1500 
 19 C        6.7360    -1.3080    -0.7210 C.ar  1 <1>  -0.1500 
 20 C        6.6230     0.7110     0.5540 C.ar  1 <1>  -0.1500 
 21 C        7.2520    -0.0640    -0.4050 C.ar  1 <1>  -0.1440 
 22 C        8.5070     0.4420    -1.0950 C.3   1 <1>  -0.0970 
 23 H        0.9420     1.2160    -1.0310 H     1 <1>   0.0800 
 24 H        1.4910    -0.2120    -1.8490 H     1 <1>   0.0800 
 25 H        0.3420    -2.6060    -0.7510 H     1 <1>   0.0800 
 26 H       -0.7630    -2.2710     0.5480 H     1 <1>   0.0800 
 27 H       -0.0040     0.9970     1.6670 H     1 <1>   0.1500 
 28 H        2.0980     0.6450     0.9800 H     1 <1>   0.0800 
 29 H        3.2330     0.4430    -0.3230 H     1 <1>   0.0800 
 30 H        1.4800    -3.0380     1.3520 H     1 <1>   0.0800 
 31 H        0.9930    -1.4880     1.9800 H     1 <1>   0.0800 
 32 H       -1.6600    -0.8360    -2.3760 H     1 <1>   0.0800 
 33 H       -3.2750    -0.2470    -2.5030 H     1 <1>   0.0800 
 34 H       -2.9530    -1.6930    -1.5750 H     1 <1>   0.0800 
 35 H       -1.8820     2.2490     2.6070 H     1 <1>   0.1500 
 36 H        2.8620    -1.9010    -0.2800 H     1 <1>   0.4500 
 37 H       -4.0780     2.1310     1.5540 H     1 <1>   0.1500 
 38 H       -5.1480    -0.2440    -0.7990 H     1 <1>   0.0800 
 39 H       -4.8610     1.3150    -1.5460 H     1 <1>   0.0800 
 40 H       -5.5690     1.2170     0.0430 H     1 <1>   0.0800 
 41 H        3.8290    -2.5080     1.8440 H     1 <1>   0.0800 
 42 H        3.4820    -0.8880     2.4070 H     1 <1>   0.0800 
 43 H        5.2240    -2.7490    -0.3530 H     1 <1>   0.1500 
 44 H        5.0180     0.8730     1.9320 H     1 <1>   0.1500 
 45 H        7.2280    -1.9210    -1.4580 H     1 <1>   0.1500 
 46 H        7.0260     1.6750     0.8130 H     1 <1>   0.1500 
 47 H        8.5700     0.0530    -2.0960 H     1 <1>   0.0800 
 48 H        9.3770     0.1270    -0.5470 H     1 <1>   0.0800 
 49 H        8.5020     1.5160    -1.1500 H     1 <1>   0.0800 
@<TRIPOS>BOND
  1   1   2  1   
  2   1   3  1   
  3   1   4  1   
  4   2   5  ar  
  5   2   6  ar  
  6   3   7  1   
  7   3  23  1   
  8   3  24  1   
  9   4   8  1   
 10   4  25  1   
 11   4  26  1   
 12   5   9  ar  
 13   5  10  1   
 14   6  11  ar  
 15   6  27  1   
 16   7  12  1   
 17   7  28  1   
 18   7  29  1   
 19   8  12  1   
 20   8  30  1   
 21   8  31  1   
 22   9  13  ar  
 23   9  14  1   
 24  10  32  1   
 25  10  33  1   
 26  10  34  1   
 27  11  13  ar  
 28  11  35  1   
 29  12  15  1   
 30  12  36  1   
 31  13  37  1   
 32  14  38  1   
 33  14  39  1   
 34  14  40  1   
 35  15  16  1   
 36  15  41  1   
 37  15  42  1   
 38  16  17  ar  
 39  16  18  ar  
 40  17  19  ar  
 41  17  43  1   
 42  18  20  ar  
 43  18  44  1   
 44  19  21  ar  
 45  19  45  1   
 46  20  21  ar  
 47  20  46  1   
 48  21  22  1   
 49  22  47  1   
 50  22  48  1   
 51  22  49  1   
@<TRIPOS>SUBSTRUCTURE
  1 ****   7 GROUP 4 **** **** 0

# MOE 2024.06 (io_trps.svl 2023.06)
