@<TRIPOS>MOLECULE
NONAME
38 39 1 0 0 
SMALL
USER_CHARGES


@<TRIPOS>ATOM
  1 O        4.0820     0.2220    -0.5450 O.3   1 <1>  -0.3630 
  2 C        3.7070    -0.9660    -0.0060 C.ar  1 <1>   0.0830 
  3 C        5.2000     0.9550    -0.0920 C.3   1 <1>   0.1200 
  4 C        2.6400    -1.6050    -0.6140 C.ar  1 <1>  -0.1500 
  5 C        4.3170    -1.5570     1.0970 C.ar  1 <1>  -0.1500 
  6 C        6.4770     0.3500    -0.6770 C.3   1 <1>  -0.2400 
  7 C        2.1670    -2.8170    -0.1360 C.ar  1 <1>  -0.1430 
  8 C        3.8550    -2.7710     1.5730 C.ar  1 <1>  -0.1500 
  9 C        2.7850    -3.4000     0.9610 C.ar  1 <1>  -0.1500 
 10 C        0.9810    -3.4930    -0.8000 C.3   1 <1>  -0.0170 
 11 C       -0.3090    -3.2330    -0.0070 C.3   1 <1>   0.4230 
 12 N       -1.4270    -4.0170    -0.5960 N.4   1 <1>  -0.9060 
 13 C       -0.7010    -1.7470     0.0160 C.3   1 <1>  -0.1600 
 14 C       -2.6940    -3.8860     0.1720 C.3   1 <1>   0.3430 
 15 C       -2.0280    -1.5110     0.7510 C.3   1 <1>  -0.1600 
 16 C       -3.1290    -2.4200     0.1890 C.3   1 <1>  -0.1600 
 17 H        5.2070     0.9730     0.9830 H     1 <1>   0.0800 
 18 H        5.0800     1.9640    -0.4470 H     1 <1>   0.0800 
 19 H        2.1910    -1.1290    -1.4680 H     1 <1>   0.1500 
 20 H        5.1470    -1.0920     1.5920 H     1 <1>   0.1500 
 21 H        6.6110    -0.6620    -0.3420 H     1 <1>   0.0800 
 22 H        7.3280     0.9270    -0.3640 H     1 <1>   0.0800 
 23 H        6.4310     0.3650    -1.7510 H     1 <1>   0.0800 
 24 H        4.3330    -3.2270     2.4240 H     1 <1>   0.1500 
 25 H        2.4490    -4.3460     1.3480 H     1 <1>   0.1500 
 26 H        1.1780    -4.5490    -0.8440 H     1 <1>   0.0800 
 27 H        0.8790    -3.1280    -1.8070 H     1 <1>   0.0800 
 28 H       -0.1490    -3.5570     1.0100 H     1 <1>   0.0800 
 29 H       -1.1590    -5.0060    -0.6580 H     1 <1>   0.4500 
 30 H       -1.5870    -3.6780    -1.5510 H     1 <1>   0.4500 
 31 H       -0.7700    -1.3700    -0.9900 H     1 <1>   0.0800 
 32 H        0.0670    -1.1810     0.5160 H     1 <1>   0.0800 
 33 H       -2.5460    -4.2280     1.1840 H     1 <1>   0.0800 
 34 H       -3.4680    -4.4870    -0.2800 H     1 <1>   0.0800 
 35 H       -2.3210    -0.4780     0.6550 H     1 <1>   0.0800 
 36 H       -1.8960    -1.7140     1.8010 H     1 <1>   0.0800 
 37 H       -4.0140    -2.3220     0.7950 H     1 <1>   0.0800 
 38 H       -3.3900    -2.1080    -0.8080 H     1 <1>   0.0800 
@<TRIPOS>BOND
  1   1   2  1   
  2   1   3  1   
  3   2   4  ar  
  4   2   5  ar  
  5   3   6  1   
  6   3  17  1   
  7   3  18  1   
  8   4   7  ar  
  9   4  19  1   
 10   5   8  ar  
 11   5  20  1   
 12   6  21  1   
 13   6  22  1   
 14   6  23  1   
 15   7   9  ar  
 16   7  10  1   
 17   8   9  ar  
 18   8  24  1   
 19   9  25  1   
 20  10  11  1   
 21  10  26  1   
 22  10  27  1   
 23  11  12  1   
 24  11  13  1   
 25  11  28  1   
 26  12  14  1   
 27  12  29  1   
 28  12  30  1   
 29  13  15  1   
 30  13  31  1   
 31  13  32  1   
 32  14  16  1   
 33  14  33  1   
 34  14  34  1   
 35  15  16  1   
 36  15  35  1   
 37  15  36  1   
 38  16  37  1   
 39  16  38  1   
@<TRIPOS>SUBSTRUCTURE
  1 ****   7 GROUP 4 **** **** 0

# MOE 2024.06 (io_trps.svl 2023.06)
