@<TRIPOS>MOLECULE
NONAME
51 53 1 0 0 
SMALL
USER_CHARGES


@<TRIPOS>ATOM
  1 O       -6.7310    -3.2940     0.9370 O.3   1 <1>  -0.3630 
  2 C       -8.0480    -2.9990     0.7780 C.ar  1 <1>   0.0830 
  3 C       -5.9690    -3.8230    -0.1270 C.3   1 <1>   0.1200 
  4 C       -8.7250    -2.5490     1.9010 C.ar  1 <1>  -0.1500 
  5 C       -8.7330    -3.1260    -0.4290 C.ar  1 <1>  -0.1500 
  6 C       -4.5430    -4.0740     0.3770 C.3   1 <1>   0.2000 
  7 C      -10.0680    -2.2290     1.8260 C.ar  1 <1>  -0.1500 
  8 C      -10.0780    -2.8040    -0.5020 C.ar  1 <1>  -0.1500 
  9 O       -4.0630    -2.9080     0.9790 O.3   1 <1>  -0.6800 
 10 C       -3.5760    -4.4890    -0.7520 C.3   1 <1>   0.3430 
 11 C      -10.7530    -2.3530     0.6290 C.ar  1 <1>   0.0830 
 12 N       -2.1620    -4.1840    -0.3730 N.4   1 <1>  -0.9590 
 13 O      -12.0700    -2.0180     0.6420 O.3   1 <1>  -0.3620 
 14 C       -1.2570    -3.9890    -1.5620 C.3   1 <1>   0.3430 
 15 C       -1.5850    -5.1750     0.6070 C.3   1 <1>   0.3430 
 16 C      -12.8570    -2.1050    -0.5250 C.3   1 <1>   0.0400 
 17 C        0.1910    -3.6500    -1.1540 C.3   1 <1>   0.2090 
 18 C       -0.1370    -4.8310     1.0110 C.3   1 <1>   0.2090 
 19 N        0.7350    -4.6490    -0.1870 N.pl3 1 <1>  -0.8380 
 20 C        2.0680    -4.4720     0.1110 C.ar  1 <1>   0.4100 
 21 N        2.3780    -3.3600     0.7620 N.ar  1 <1>  -0.6200 
 22 C        2.9990    -5.4330    -0.2700 C.ar  1 <1>  -0.1500 
 23 C        3.6630    -3.2020     1.0420 C.ar  1 <1>   0.1600 
 24 C        4.3300    -5.2550     0.0280 C.ar  1 <1>  -0.1500 
 25 C        4.6610    -4.0990     0.7050 C.ar  1 <1>  -0.1500 
 26 H       -5.9700    -3.1090    -0.9330 H     1 <1>   0.0800 
 27 H       -6.4280    -4.7430    -0.4490 H     1 <1>   0.0800 
 28 H       -8.2000    -2.4510     2.8340 H     1 <1>   0.1500 
 29 H       -8.2460    -3.4680    -1.3200 H     1 <1>   0.1500 
 30 H       -4.5710    -4.8420     1.1310 H     1 <1>   0.0800 
 31 H      -10.5950    -1.8800     2.6960 H     1 <1>   0.1500 
 32 H      -10.5830    -2.9100    -1.4430 H     1 <1>   0.1500 
 33 H       -4.7900    -2.5160     1.5190 H     1 <1>   0.4000 
 34 H       -3.8330    -3.9250    -1.6320 H     1 <1>   0.0800 
 35 H       -3.6940    -5.5350    -0.9830 H     1 <1>   0.0800 
 36 H       -2.2340    -3.2830     0.1390 H     1 <1>   0.4500 
 37 H       -1.6380    -3.1970    -2.1850 H     1 <1>   0.0800 
 38 H       -1.2350    -4.8920    -2.1480 H     1 <1>   0.0800 
 39 H       -1.5840    -6.1580     0.1680 H     1 <1>   0.0800 
 40 H       -2.1940    -5.2060     1.4950 H     1 <1>   0.0800 
 41 H      -13.8550    -1.7890    -0.2780 H     1 <1>   0.0800 
 42 H      -12.8700    -3.1260    -0.8620 H     1 <1>   0.0800 
 43 H      -12.4430    -1.4540    -1.2740 H     1 <1>   0.0800 
 44 H        0.2230    -2.6680    -0.7140 H     1 <1>   0.0800 
 45 H        0.8150    -3.6340    -2.0320 H     1 <1>   0.0800 
 46 H        0.2620    -5.6230     1.6210 H     1 <1>   0.0800 
 47 H       -0.1310    -3.9300     1.6020 H     1 <1>   0.0800 
 48 H        2.6620    -6.3060    -0.7940 H     1 <1>   0.1500 
 49 H        3.9370    -2.3040     1.5700 H     1 <1>   0.1500 
 50 H        5.0760    -5.9780    -0.2520 H     1 <1>   0.1500 
 51 H        5.6840    -3.8960     0.9700 H     1 <1>   0.1500 
@<TRIPOS>BOND
  1   1   2  1   
  2   1   3  1   
  3   2   4  ar  
  4   2   5  ar  
  5   3   6  1   
  6   3  26  1   
  7   3  27  1   
  8   4   7  ar  
  9   4  28  1   
 10   5   8  ar  
 11   5  29  1   
 12   6   9  1   
 13   6  10  1   
 14   6  30  1   
 15   7  11  ar  
 16   7  31  1   
 17   8  11  ar  
 18   8  32  1   
 19   9  33  1   
 20  10  12  1   
 21  10  34  1   
 22  10  35  1   
 23  11  13  1   
 24  12  14  1   
 25  12  15  1   
 26  12  36  1   
 27  13  16  1   
 28  14  17  1   
 29  14  37  1   
 30  14  38  1   
 31  15  18  1   
 32  15  39  1   
 33  15  40  1   
 34  16  41  1   
 35  16  42  1   
 36  16  43  1   
 37  17  19  1   
 38  17  44  1   
 39  17  45  1   
 40  18  19  1   
 41  18  46  1   
 42  18  47  1   
 43  19  20  1   
 44  20  21  ar  
 45  20  22  ar  
 46  21  23  ar  
 47  22  24  ar  
 48  22  48  1   
 49  23  25  ar  
 50  23  49  1   
 51  24  25  ar  
 52  24  50  1   
 53  25  51  1   
@<TRIPOS>SUBSTRUCTURE
  1 ****   6 GROUP 4 **** **** 0

# MOE 2024.06 (io_trps.svl 2023.06)
