@<TRIPOS>MOLECULE
NONAME
48 50 1 0 0 
SMALL
USER_CHARGES


@<TRIPOS>ATOM
  1 F        1.4460    -1.1050     1.6470 F     1 <1>  -0.1900 
  2 C        0.3250    -1.6060     1.1830 C.ar  1 <1>   0.1900 
  3 C        0.3590    -2.5350     0.1350 C.ar  1 <1>   0.1000 
  4 C       -0.8510    -1.1790     1.7680 C.ar  1 <1>  -0.1500 
  5 N        1.5240    -2.9990    -0.4900 N.pl3 1 <1>  -0.8380 
  6 C       -0.8640    -3.0230    -0.3070 C.ar  1 <1>  -0.1500 
  7 C       -2.0540    -1.6870     1.3030 C.ar  1 <1>  -0.1500 
  8 C        2.4490    -3.8010     0.3650 C.3   1 <1>   0.2090 
  9 C        2.2670    -1.9930    -1.3100 C.3   1 <1>   0.2090 
 10 C       -2.0550    -2.6080     0.2670 C.ar  1 <1>  -0.1500 
 11 C        3.5210    -4.5030    -0.4900 C.3   1 <1>   0.1400 
 12 C        3.3270    -2.6810    -2.1860 C.3   1 <1>   0.1400 
 13 N        4.2500    -3.5230    -1.3580 N.am  1 <1>  -0.6600 
 14 C        5.5290    -3.1080    -1.1020 C.2   1 <1>   0.6900 
 15 O        5.8700    -1.9680    -1.3550 O.2   1 <1>  -0.5700 
 16 N        6.4110    -4.0100    -0.5810 N.am  1 <1>  -0.5470 
 17 C        7.6960    -3.8350    -0.0460 C.ar  1 <1>   0.1170 
 18 C        8.5870    -4.9000    -0.0700 C.ar  1 <1>  -0.1500 
 19 C        8.1030    -2.6400     0.5330 C.ar  1 <1>  -0.1500 
 20 C        9.8640    -4.7810     0.4690 C.ar  1 <1>   0.0830 
 21 C        9.3680    -2.5050     1.0750 C.ar  1 <1>  -0.1500 
 22 O       10.7600    -5.8100     0.4560 O.3   1 <1>  -0.3630 
 23 C       10.2600    -3.5730     1.0500 C.ar  1 <1>   0.0830 
 24 C       10.5490    -6.9690    -0.3190 C.3   1 <1>   0.0400 
 25 O       11.5210    -3.4910     1.5720 O.3   1 <1>  -0.3630 
 26 C       12.0190    -2.2820     2.0960 C.3   1 <1>   0.0400 
 27 H       -0.8250    -0.4640     2.5700 H     1 <1>   0.1500 
 28 H       -0.8690    -3.7370    -1.1100 H     1 <1>   0.1500 
 29 H       -2.9820    -1.3690     1.7450 H     1 <1>   0.1500 
 30 H        1.8820    -4.5370     0.9070 H     1 <1>   0.0800 
 31 H        2.9330    -3.1570     1.0790 H     1 <1>   0.0800 
 32 H        2.7510    -1.2800    -0.6650 H     1 <1>   0.0800 
 33 H        1.5730    -1.4610    -1.9370 H     1 <1>   0.0800 
 34 H       -2.9880    -3.0040    -0.0960 H     1 <1>   0.1500 
 35 H        3.0410    -5.2370    -1.1140 H     1 <1>   0.0800 
 36 H        4.2000    -5.0150     0.1660 H     1 <1>   0.0800 
 37 H        3.8810    -1.9340    -2.7270 H     1 <1>   0.0800 
 38 H        2.8310    -3.3060    -2.9070 H     1 <1>   0.0800 
 39 H        6.1130    -4.9680    -0.7230 H     1 <1>   0.3700 
 40 H        8.2650    -5.8190    -0.5150 H     1 <1>   0.1500 
 41 H        7.4260    -1.8050     0.5630 H     1 <1>   0.1500 
 42 H        9.6340    -1.5610     1.5100 H     1 <1>   0.1500 
 43 H       11.4320    -7.5780    -0.2500 H     1 <1>   0.0800 
 44 H       10.3840    -6.6790    -1.3410 H     1 <1>   0.0800 
 45 H        9.7050    -7.5050     0.0760 H     1 <1>   0.0800 
 46 H       13.0330    -2.4490     2.4130 H     1 <1>   0.0800 
 47 H       11.4170    -1.9920     2.9390 H     1 <1>   0.0800 
 48 H       11.9960    -1.5320     1.3260 H     1 <1>   0.0800 
@<TRIPOS>BOND
  1   1   2  1   
  2   2   3  ar  
  3   2   4  ar  
  4   3   5  1   
  5   3   6  ar  
  6   4   7  ar  
  7   4  27  1   
  8   5   8  1   
  9   5   9  1   
 10   6  10  ar  
 11   6  28  1   
 12   7  10  ar  
 13   7  29  1   
 14   8  11  1   
 15   8  30  1   
 16   8  31  1   
 17   9  12  1   
 18   9  32  1   
 19   9  33  1   
 20  10  34  1   
 21  11  13  1   
 22  11  35  1   
 23  11  36  1   
 24  12  13  1   
 25  12  37  1   
 26  12  38  1   
 27  13  14  am  
 28  14  15  2   
 29  14  16  am  
 30  16  17  1   
 31  16  39  1   
 32  17  18  ar  
 33  17  19  ar  
 34  18  20  ar  
 35  18  40  1   
 36  19  21  ar  
 37  19  41  1   
 38  20  22  1   
 39  20  23  ar  
 40  21  23  ar  
 41  21  42  1   
 42  22  24  1   
 43  23  25  1   
 44  24  43  1   
 45  24  44  1   
 46  24  45  1   
 47  25  26  1   
 48  26  46  1   
 49  26  47  1   
 50  26  48  1   
@<TRIPOS>SUBSTRUCTURE
  1 ****  14 GROUP 4 **** **** 0

# MOE 2024.06 (io_trps.svl 2023.06)
