@<TRIPOS>MOLECULE
NONAME
34 36 1 0 0 
SMALL
USER_CHARGES


@<TRIPOS>ATOM
  1 S       -0.3150    -0.0580    -1.2900 S.3   1 <1>  -0.0800 
  2 C       -1.8690     0.4670    -0.6750 C.ar  1 <1>   0.0400 
  3 C        0.4670     1.1920    -0.3260 C.2   1 <1>   0.1980 
  4 C       -1.6500     1.5240     0.1870 C.ar  1 <1>   0.2270 
  5 C       -3.1210    -0.0410    -0.9610 C.ar  1 <1>  -0.1500 
  6 N       -0.3230     1.9080     0.3630 N.2   1 <1>  -0.5650 
  7 C        1.9720     1.2830    -0.4170 C.3   1 <1>  -0.0600 
  8 C       -2.7530     2.1030     0.7970 C.ar  1 <1>  -0.1500 
  9 C       -4.2260     0.5410    -0.3500 C.ar  1 <1>   0.1170 
 10 C       -4.0210     1.6130     0.5290 C.ar  1 <1>  -0.1500 
 11 N       -5.4960     0.0190    -0.6200 N.am  1 <1>  -0.5470 
 12 C       -6.7390     0.5780    -0.5380 C.2   1 <1>   0.6900 
 13 O       -6.8840     1.7700    -0.3480 O.2   1 <1>  -0.5700 
 14 N       -7.8290    -0.2350    -0.7060 N.am  1 <1>  -0.6600 
 15 C       -9.1830     0.3360    -0.9750 C.3   1 <1>   0.1400 
 16 C       -7.8770    -1.6530    -0.2380 C.3   1 <1>   0.1400 
 17 C      -10.1270     0.0660     0.2080 C.3   1 <1>   0.1200 
 18 C       -8.9030    -1.8110     0.8980 C.3   1 <1>   0.1200 
 19 O      -10.1480    -1.3000     0.5160 O.3   1 <1>  -0.5600 
 20 H       -3.2260    -0.8640    -1.6430 H     1 <1>   0.1500 
 21 H        2.2640     1.4820    -1.4320 H     1 <1>   0.0800 
 22 H        2.4130     0.3580    -0.0940 H     1 <1>   0.0800 
 23 H        2.3250     2.0790     0.2120 H     1 <1>   0.0800 
 24 H       -2.6040     2.9270     1.4700 H     1 <1>   0.1500 
 25 H       -4.8670     2.0680     1.0120 H     1 <1>   0.1500 
 26 H       -5.5150    -0.8820    -1.0830 H     1 <1>   0.3700 
 27 H       -9.5890    -0.1190    -1.8610 H     1 <1>   0.0800 
 28 H       -9.1230     1.3960    -1.1500 H     1 <1>   0.0800 
 29 H       -6.9150    -1.9720     0.1190 H     1 <1>   0.0800 
 30 H       -8.1600    -2.2880    -1.0600 H     1 <1>   0.0800 
 31 H      -11.1300     0.3630    -0.0420 H     1 <1>   0.0800 
 32 H       -9.8090     0.6160     1.0770 H     1 <1>   0.0800 
 33 H       -8.5730    -1.2910     1.7810 H     1 <1>   0.0800 
 34 H       -9.0360    -2.8510     1.1380 H     1 <1>   0.0800 
@<TRIPOS>BOND
  1   1   2  1   
  2   1   3  1   
  3   2   4  ar  
  4   2   5  ar  
  5   3   6  2   
  6   3   7  1   
  7   4   6  1   
  8   4   8  ar  
  9   5   9  ar  
 10   5  20  1   
 11   7  21  1   
 12   7  22  1   
 13   7  23  1   
 14   8  10  ar  
 15   8  24  1   
 16   9  10  ar  
 17   9  11  1   
 18  10  25  1   
 19  11  12  am  
 20  11  26  1   
 21  12  13  2   
 22  12  14  am  
 23  14  15  1   
 24  14  16  1   
 25  15  17  1   
 26  15  27  1   
 27  15  28  1   
 28  16  18  1   
 29  16  29  1   
 30  16  30  1   
 31  17  19  1   
 32  17  31  1   
 33  17  32  1   
 34  18  19  1   
 35  18  33  1   
 36  18  34  1   
@<TRIPOS>SUBSTRUCTURE
  1 ****   9 GROUP 4 **** **** 0

# MOE 2024.06 (io_trps.svl 2023.06)
