@<TRIPOS>MOLECULE
NONAME
45 46 1 0 0 
SMALL
USER_CHARGES


@<TRIPOS>ATOM
  1 I        1.2900     0.0360     1.8550 I     1 <1>  -0.0810 
  2 C        0.4910    -1.7310     0.9540 C.ar  1 <1>   0.0810 
  3 C        1.0380    -2.2420    -0.2130 C.ar  1 <1>   0.0830 
  4 C       -0.5860    -2.3270     1.5830 C.ar  1 <1>  -0.1500 
  5 O        2.0850    -1.6580    -0.8330 O.3   1 <1>  -0.5330 
  6 C        0.4900    -3.3970    -0.7640 C.ar  1 <1>   0.0830 
  7 C       -1.1430    -3.4700     1.0250 C.ar  1 <1>  -0.1430 
  8 O        1.0620    -3.8710    -1.9080 O.3   1 <1>  -0.3630 
  9 C       -0.5980    -4.0050    -0.1390 C.ar  1 <1>  -0.1500 
 10 C       -2.3470    -4.1200     1.6830 C.3   1 <1>   0.4860 
 11 C        0.7050    -5.1210    -2.4580 C.3   1 <1>   0.0400 
 12 N       -3.5590    -3.8000     0.8790 N.4   1 <1>  -0.9590 
 13 C       -3.8420    -2.3340     0.8520 C.3   1 <1>   0.3430 
 14 C       -4.7390    -4.5880     1.3320 C.3   1 <1>   0.3430 
 15 C       -4.9810    -2.0560    -0.1260 C.3   1 <1>  -0.1600 
 16 C       -5.8980    -4.3640     0.3630 C.3   1 <1>  -0.1600 
 17 C       -6.2460    -2.8700     0.2080 C.3   1 <1>  -0.0190 
 18 C       -7.3160    -2.6610    -0.8600 C.2   1 <1>   0.6590 
 19 O       -7.1730    -3.0880    -1.9760 O.2   1 <1>  -0.5700 
 20 O       -8.3890    -1.9850    -0.4820 O.3   1 <1>  -0.4300 
 21 C       -9.4450    -1.7220    -1.3780 C.3   1 <1>   0.1200 
 22 C      -10.5120    -0.9280    -0.6320 C.3   1 <1>  -0.2400 
 23 H       -0.9700    -1.8930     2.4910 H     1 <1>   0.1500 
 24 H        2.3310    -2.1720    -1.6290 H     1 <1>   0.4500 
 25 H       -1.0230    -4.8970    -0.5600 H     1 <1>   0.1500 
 26 H       -2.4590    -3.7540     2.6910 H     1 <1>   0.0800 
 27 H       -2.1970    -5.1860     1.7220 H     1 <1>   0.0800 
 28 H        1.3380    -5.3040    -3.3080 H     1 <1>   0.0800 
 29 H       -0.3220    -5.0870    -2.7730 H     1 <1>   0.0800 
 30 H        0.8610    -5.8880    -1.7190 H     1 <1>   0.0800 
 31 H       -3.3490    -4.0710    -0.0910 H     1 <1>   0.4500 
 32 H       -2.9650    -1.7900     0.5350 H     1 <1>   0.0800 
 33 H       -4.1150    -1.9930     1.8370 H     1 <1>   0.0800 
 34 H       -5.0300    -4.2780     2.3230 H     1 <1>   0.0800 
 35 H       -4.4970    -5.6390     1.3610 H     1 <1>   0.0800 
 36 H       -4.6510    -2.2820    -1.1260 H     1 <1>   0.0800 
 37 H       -5.2170    -1.0060    -0.1000 H     1 <1>   0.0800 
 38 H       -6.7640    -4.8940     0.7220 H     1 <1>   0.0800 
 39 H       -5.6430    -4.7850    -0.5950 H     1 <1>   0.0800 
 40 H       -6.6440    -2.5140     1.1430 H     1 <1>   0.0800 
 41 H       -9.8370    -2.6610    -1.7300 H     1 <1>   0.0800 
 42 H       -9.0560    -1.1590    -2.2100 H     1 <1>   0.0800 
 43 H      -10.8860    -1.4970     0.2010 H     1 <1>   0.0800 
 44 H      -11.3310    -0.7130    -1.2930 H     1 <1>   0.0800 
 45 H      -10.1060     0.0030    -0.2790 H     1 <1>   0.0800 
@<TRIPOS>BOND
  1   1   2  1   
  2   2   3  ar  
  3   2   4  ar  
  4   3   5  1   
  5   3   6  ar  
  6   4   7  ar  
  7   4  23  1   
  8   5  24  1   
  9   6   8  1   
 10   6   9  ar  
 11   7   9  ar  
 12   7  10  1   
 13   8  11  1   
 14   9  25  1   
 15  10  12  1   
 16  10  26  1   
 17  10  27  1   
 18  11  28  1   
 19  11  29  1   
 20  11  30  1   
 21  12  13  1   
 22  12  14  1   
 23  12  31  1   
 24  13  15  1   
 25  13  32  1   
 26  13  33  1   
 27  14  16  1   
 28  14  34  1   
 29  14  35  1   
 30  15  17  1   
 31  15  36  1   
 32  15  37  1   
 33  16  17  1   
 34  16  38  1   
 35  16  39  1   
 36  17  18  1   
 37  17  40  1   
 38  18  19  2   
 39  18  20  1   
 40  20  21  1   
 41  21  22  1   
 42  21  41  1   
 43  21  42  1   
 44  22  43  1   
 45  22  44  1   
 46  22  45  1   
@<TRIPOS>SUBSTRUCTURE
  1 ****  13 GROUP 4 **** **** 0

# MOE 2024.06 (io_trps.svl 2023.06)
