@<TRIPOS>MOLECULE
NONAME
52 56 1 0 0 
SMALL
USER_CHARGES


@<TRIPOS>ATOM
  1 S       -0.4030     0.0310    -2.4160 S.3   1 <1>  -0.2860 
  2 C        0.0620    -0.9310    -0.9850 C.2   1 <1>   0.5340 
  3 C       -1.5380     1.3250    -1.7180 C.3   1 <1>   0.1310 
  4 O        0.8050    -1.9700    -1.1360 O.3   1 <1>  -0.2800 
  5 N       -0.2860    -0.7010     0.2210 N.2   1 <1>  -0.3380 
  6 C       -2.9450     0.7770    -1.5410 C.2   1 <1>   0.5690 
  7 C        0.9170    -2.4150     0.0790 C.2   1 <1>   0.2980 
  8 N        0.2780    -1.6840     0.9240 N.2   1 <1>  -0.3380 
  9 O       -3.8190     1.2670    -2.2140 O.2   1 <1>  -0.5700 
 10 N       -3.1600    -0.2120    -0.6150 N.am  1 <1>  -0.5470 
 11 C        1.7390    -3.6820     0.3500 C.3   1 <1>   0.1800 
 12 C       -4.3220    -0.9090    -0.2410 C.ar  1 <1>   0.1170 
 13 C        1.7460    -4.0400     1.8570 C.3   1 <1>  -0.1600 
 14 C        3.2020    -3.4750    -0.1080 C.3   1 <1>  -0.1600 
 15 C        1.1420    -4.8770    -0.4300 C.3   1 <1>  -0.1600 
 16 C       -4.3630    -1.5700     0.9910 C.ar  1 <1>  -0.1430 
 17 C       -5.4380    -0.9830    -1.0700 C.ar  1 <1>  -0.1500 
 18 C        2.5730    -5.3130     2.1150 C.3   1 <1>  -0.0800 
 19 C        4.0360    -4.7460     0.1380 C.3   1 <1>  -0.0800 
 20 C        1.9660    -6.1550    -0.1860 C.3   1 <1>  -0.0800 
 21 C       -5.4990    -2.2710     1.3640 C.ar  1 <1>  -0.1500 
 22 C       -3.1790    -1.5480     1.9520 C.3   1 <1>  -0.0970 
 23 C       -6.5690    -1.6820    -0.6910 C.ar  1 <1>  -0.1500 
 24 C        4.0200    -5.0790     1.6410 C.3   1 <1>  -0.1600 
 25 C        1.9610    -6.4810     1.3190 C.3   1 <1>  -0.1600 
 26 C        3.4160    -5.9170    -0.6470 C.3   1 <1>  -0.1600 
 27 C       -6.6000    -2.3280     0.5300 C.ar  1 <1>  -0.1500 
 28 H       -1.5460     2.1390    -2.4200 H     1 <1>   0.0800 
 29 H       -1.1300     1.6590    -0.7830 H     1 <1>   0.0800 
 30 H       -2.3390    -0.4800    -0.0660 H     1 <1>   0.3700 
 31 H        0.7370    -4.1920     2.1990 H     1 <1>   0.0800 
 32 H        2.1600    -3.2220     2.4220 H     1 <1>   0.0800 
 33 H        3.6340    -2.6480     0.4280 H     1 <1>   0.0800 
 34 H        3.2260    -3.2300    -1.1560 H     1 <1>   0.0800 
 35 H        1.1300    -4.6570    -1.4830 H     1 <1>   0.0800 
 36 H        0.1240    -5.0380    -0.1210 H     1 <1>   0.0800 
 37 H       -5.4330    -0.4960    -2.0270 H     1 <1>   0.1500 
 38 H        2.5670    -5.5450     3.1660 H     1 <1>   0.0800 
 39 H        5.0500    -4.5860    -0.1880 H     1 <1>   0.0800 
 40 H        1.5390    -6.9760    -0.7370 H     1 <1>   0.0800 
 41 H       -5.5360    -2.7810     2.3110 H     1 <1>   0.1500 
 42 H       -2.7970    -0.5490     2.0630 H     1 <1>   0.0800 
 43 H       -2.3980    -2.1860     1.5810 H     1 <1>   0.0800 
 44 H       -3.4670    -1.9000     2.9250 H     1 <1>   0.0800 
 45 H       -7.4210    -1.7220    -1.3460 H     1 <1>   0.1500 
 46 H        4.6090    -5.9610     1.8250 H     1 <1>   0.0800 
 47 H        4.4610    -4.2720     2.2000 H     1 <1>   0.0800 
 48 H        0.9530    -6.6610     1.6510 H     1 <1>   0.0800 
 49 H        2.5270    -7.3790     1.4990 H     1 <1>   0.0800 
 50 H        3.9990    -6.8080    -0.4900 H     1 <1>   0.0800 
 51 H        3.4330    -5.7000    -1.7010 H     1 <1>   0.0800 
 52 H       -7.4780    -2.8730     0.8300 H     1 <1>   0.1500 
@<TRIPOS>BOND
  1   1   2  1   
  2   1   3  1   
  3   2   4  1   
  4   2   5  2   
  5   3   6  1   
  6   3  28  1   
  7   3  29  1   
  8   4   7  1   
  9   5   8  1   
 10   6   9  2   
 11   6  10  am  
 12   7   8  2   
 13   7  11  1   
 14  10  12  1   
 15  10  30  1   
 16  11  13  1   
 17  11  14  1   
 18  11  15  1   
 19  12  16  ar  
 20  12  17  ar  
 21  13  18  1   
 22  13  31  1   
 23  13  32  1   
 24  14  19  1   
 25  14  33  1   
 26  14  34  1   
 27  15  20  1   
 28  15  35  1   
 29  15  36  1   
 30  16  21  ar  
 31  16  22  1   
 32  17  23  ar  
 33  17  37  1   
 34  18  24  1   
 35  18  25  1   
 36  18  38  1   
 37  19  24  1   
 38  19  26  1   
 39  19  39  1   
 40  20  25  1   
 41  20  26  1   
 42  20  40  1   
 43  21  27  ar  
 44  21  41  1   
 45  22  42  1   
 46  22  43  1   
 47  22  44  1   
 48  23  27  ar  
 49  23  45  1   
 50  24  46  1   
 51  24  47  1   
 52  25  48  1   
 53  25  49  1   
 54  26  50  1   
 55  26  51  1   
 56  27  52  1   
@<TRIPOS>SUBSTRUCTURE
  1 ****   8 GROUP 4 **** **** 0

# MOE 2024.06 (io_trps.svl 2023.06)
