@<TRIPOS>MOLECULE
NONAME
56 58 1 0 0 
SMALL
USER_CHARGES


@<TRIPOS>ATOM
  1 S       -0.0820    -0.4440    -1.1480 S.o2  1 <1>   1.4470 
  2 O        0.6150    -1.3090    -2.0750 O.2   1 <1>  -0.6500 
  3 O        0.1300     0.9850    -1.2060 O.2   1 <1>  -0.6500 
  4 N        0.3560    -0.9410     0.4110 N.am  1 <1>  -0.8490 
  5 C       -1.8650    -0.7660    -1.1980 C.ar  1 <1>  -0.0090 
  6 C        1.7440    -0.5510     0.7480 C.3   1 <1>   0.1960 
  7 C        0.1220    -2.3870     0.6380 C.3   1 <1>   0.1960 
  8 C       -2.7330    -0.0830    -0.3620 C.ar  1 <1>  -0.1500 
  9 C       -2.4110    -1.7060    -2.0650 C.ar  1 <1>  -0.1500 
 10 C        2.7510    -1.7110     0.5710 C.3   1 <1>   0.2000 
 11 C        1.0620    -2.9850     1.7100 C.3   1 <1>   0.2000 
 12 C       -4.1120    -0.2960    -0.3600 C.ar  1 <1>   0.0860 
 13 C       -3.7680    -1.9460    -2.0840 C.ar  1 <1>  -0.1500 
 14 O        2.4120    -2.8200     1.3640 O.3   1 <1>  -0.5600 
 15 C        4.1720    -1.3100     0.9580 C.3   1 <1>  -0.2400 
 16 C        0.8380    -4.4820     1.9070 C.3   1 <1>  -0.2400 
 17 C       -4.6360    -1.2630    -1.2360 C.ar  1 <1>   0.1000 
 18 C       -4.9580     0.4740     0.5260 C.2   1 <1>   0.5440 
 19 N       -5.9960    -1.5280    -1.2850 N.pl3 1 <1>  -0.8690 
 20 O       -5.8300    -0.0560     1.1890 O.2   1 <1>  -0.5700 
 21 N       -4.7820     1.8280     0.6360 N.am  1 <1>  -0.7300 
 22 C       -6.5210    -2.9040    -1.3710 C.3   1 <1>   0.3530 
 23 C       -5.5840     2.7380     1.4930 C.3   1 <1>   0.0600 
 24 C       -7.8350    -2.9730    -0.6110 C.ar  1 <1>  -0.1430 
 25 C       -9.0180    -3.2750    -1.2700 C.ar  1 <1>  -0.1500 
 26 C       -7.8630    -2.7310     0.7550 C.ar  1 <1>  -0.1500 
 27 C      -10.2110    -3.3410    -0.5720 C.ar  1 <1>  -0.1500 
 28 C       -9.0560    -2.7950     1.4540 C.ar  1 <1>  -0.1500 
 29 C      -10.2310    -3.1020     0.7910 C.ar  1 <1>  -0.1500 
 30 H        1.7730    -0.2340     1.7760 H     1 <1>   0.0800 
 31 H        2.0600     0.2900     0.1540 H     1 <1>   0.0800 
 32 H        0.2760    -2.9440    -0.2710 H     1 <1>   0.0800 
 33 H       -0.9010    -2.5320     0.9400 H     1 <1>   0.0800 
 34 H       -2.3200     0.6430     0.3190 H     1 <1>   0.1500 
 35 H       -1.7640    -2.2480    -2.7360 H     1 <1>   0.1500 
 36 H        2.7410    -2.0320    -0.4570 H     1 <1>   0.0800 
 37 H        0.9010    -2.4750     2.6440 H     1 <1>   0.0800 
 38 H       -4.1680    -2.6660    -2.7750 H     1 <1>   0.1500 
 39 H        4.2090    -1.0150     1.9920 H     1 <1>   0.0800 
 40 H        4.5020    -0.4880     0.3500 H     1 <1>   0.0800 
 41 H        4.8380    -2.1390     0.8010 H     1 <1>   0.0800 
 42 H        1.0290    -5.0130     0.9910 H     1 <1>   0.0800 
 43 H       -0.1750    -4.6690     2.2130 H     1 <1>   0.0800 
 44 H        1.4980    -4.8500     2.6720 H     1 <1>   0.0800 
 45 H       -6.5440    -1.0150    -0.5690 H     1 <1>   0.4000 
 46 H       -4.1220     2.2850     0.0020 H     1 <1>   0.3700 
 47 H       -5.8180    -3.5940    -0.9350 H     1 <1>   0.0800 
 48 H       -6.6700    -3.1640    -2.4040 H     1 <1>   0.0800 
 49 H       -6.2460     2.1730     2.1280 H     1 <1>   0.0800 
 50 H       -6.1740     3.3920     0.8750 H     1 <1>   0.0800 
 51 H       -4.9300     3.3260     2.1120 H     1 <1>   0.0800 
 52 H       -9.0170    -3.4570    -2.3300 H     1 <1>   0.1500 
 53 H       -6.9550    -2.4840     1.2800 H     1 <1>   0.1500 
 54 H      -11.1250    -3.5750    -1.0890 H     1 <1>   0.1500 
 55 H       -9.0660    -2.6020     2.5120 H     1 <1>   0.1500 
 56 H      -11.1580    -3.1510     1.3350 H     1 <1>   0.1500 
@<TRIPOS>BOND
  1   1   2  2   
  2   1   3  2   
  3   1   4  am  
  4   1   5  1   
  5   4   6  1   
  6   4   7  1   
  7   5   8  ar  
  8   5   9  ar  
  9   6  10  1   
 10   6  30  1   
 11   6  31  1   
 12   7  11  1   
 13   7  32  1   
 14   7  33  1   
 15   8  12  ar  
 16   8  34  1   
 17   9  13  ar  
 18   9  35  1   
 19  10  14  1   
 20  10  15  1   
 21  10  36  1   
 22  11  14  1   
 23  11  16  1   
 24  11  37  1   
 25  12  17  ar  
 26  12  18  1   
 27  13  17  ar  
 28  13  38  1   
 29  15  39  1   
 30  15  40  1   
 31  15  41  1   
 32  16  42  1   
 33  16  43  1   
 34  16  44  1   
 35  17  19  1   
 36  18  20  2   
 37  18  21  am  
 38  19  22  1   
 39  19  45  1   
 40  21  23  1   
 41  21  46  1   
 42  22  24  1   
 43  22  47  1   
 44  22  48  1   
 45  23  49  1   
 46  23  50  1   
 47  23  51  1   
 48  24  25  ar  
 49  24  26  ar  
 50  25  27  ar  
 51  25  52  1   
 52  26  28  ar  
 53  26  53  1   
 54  27  29  ar  
 55  27  54  1   
 56  28  29  ar  
 57  28  55  1   
 58  29  56  1   
@<TRIPOS>SUBSTRUCTURE
  1 ****   8 GROUP 4 **** **** 0

# MOE 2024.06 (io_trps.svl 2023.06)
