@<TRIPOS>MOLECULE
NONAME
25 26 1 0 0 
SMALL
USER_CHARGES


@<TRIPOS>ATOM
  1 BR       0.4860     1.5040    -0.8330 Br    1 <1>  -0.1110 
  2 C       -1.4050     1.6200    -0.4870 C.ar  1 <1>   0.1110 
  3 C       -1.9410     0.8700     0.5400 C.ar  1 <1>  -0.1500 
  4 C       -2.1780     2.4540    -1.2730 C.ar  1 <1>  -0.1500 
  5 C       -3.3000     0.9710     0.7670 C.ar  1 <1>   0.1770 
  6 C       -3.5390     2.5380    -1.0240 C.ar  1 <1>  -0.1500 
  7 CL      -3.9970     0.0350     2.0740 Cl    1 <1>  -0.1770 
  8 C       -4.1290     1.7920    -0.0030 C.ar  1 <1>   0.1170 
  9 N       -5.5060     1.8480     0.2900 N.am  1 <1>  -0.5470 
 10 C       -6.5770     2.2230    -0.4700 C.2   1 <1>   0.6900 
 11 O       -6.4550     2.5200    -1.6420 O.2   1 <1>  -0.5700 
 12 N       -7.7980     2.2430     0.1260 N.am  1 <1>  -0.5790 
 13 C       -9.0640     2.5960    -0.5330 C.3   1 <1>   0.0490 
 14 C      -10.0670     3.3780     0.2490 C.3   1 <1>  -0.2000 
 15 C      -10.3120     1.9300    -0.0560 C.3   1 <1>  -0.2000 
 16 H       -1.3230     0.2300     1.1420 H     1 <1>   0.1500 
 17 H       -1.7260     3.0260    -2.0640 H     1 <1>   0.1500 
 18 H       -4.1390     3.1920    -1.6320 H     1 <1>   0.1500 
 19 H       -5.7580     1.3940     1.1640 H     1 <1>   0.3700 
 20 H       -7.8690     2.0820     1.1260 H     1 <1>   0.3700 
 21 H       -8.9580     2.8000    -1.5880 H     1 <1>   0.1000 
 22 H      -10.6590     4.1130    -0.2670 H     1 <1>   0.1000 
 23 H       -9.8310     3.6700     1.2570 H     1 <1>   0.1000 
 24 H      -10.2460     1.2070     0.7370 H     1 <1>   0.1000 
 25 H      -11.0700     1.6840    -0.7780 H     1 <1>   0.1000 
@<TRIPOS>BOND
  1   1   2  1   
  2   2   3  ar  
  3   2   4  ar  
  4   3   5  ar  
  5   3  16  1   
  6   4   6  ar  
  7   4  17  1   
  8   5   7  1   
  9   5   8  ar  
 10   6   8  ar  
 11   6  18  1   
 12   8   9  1   
 13   9  10  am  
 14   9  19  1   
 15  10  11  2   
 16  10  12  am  
 17  12  13  1   
 18  12  20  1   
 19  13  14  1   
 20  13  15  1   
 21  13  21  1   
 22  14  15  1   
 23  14  22  1   
 24  14  23  1   
 25  15  24  1   
 26  15  25  1   
@<TRIPOS>SUBSTRUCTURE
  1 ****   9 GROUP 4 **** **** 0

# MOE 2024.06 (io_trps.svl 2023.06)
