@<TRIPOS>MOLECULE
NONAME
31 31 1 0 0 
SMALL
USER_CHARGES


@<TRIPOS>ATOM
  1 CL       0.0050     0.7870     2.6090 Cl    1 <1>  -0.1770 
  2 C       -1.2550     1.1990     1.4730 C.ar  1 <1>   0.1770 
  3 C       -1.0990     2.3130     0.6670 C.ar  1 <1>  -0.1440 
  4 C       -2.3810     0.3970     1.3930 C.ar  1 <1>  -0.1500 
  5 C       -2.1110     2.5910    -0.2320 C.ar  1 <1>   0.1900 
  6 C        0.1230     3.1930     0.7660 C.3   1 <1>   0.4860 
  7 C       -3.3830     0.7050     0.4840 C.ar  1 <1>  -0.1500 
  8 F       -1.9810     3.6250    -1.0190 F     1 <1>  -0.1900 
  9 C       -3.2500     1.8120    -0.3400 C.ar  1 <1>  -0.1500 
 10 N        1.1540     2.6410    -0.1370 N.4   1 <1>  -0.9060 
 11 C        2.4590     3.3130    -0.2250 C.3   1 <1>   0.5030 
 12 C        3.4220     2.3360    -0.9530 C.3   1 <1>   0.1200 
 13 C        2.2930     4.6120    -1.0120 C.3   1 <1>  -0.2400 
 14 C        2.9880     3.6010     1.1850 C.3   1 <1>  -0.2400 
 15 O        3.1880     1.0220    -0.5250 O.3   1 <1>  -0.6800 
 16 H       -2.4730    -0.4620     2.0360 H     1 <1>   0.1500 
 17 H        0.4810     3.2060     1.7830 H     1 <1>   0.0800 
 18 H       -0.1280     4.2010     0.4750 H     1 <1>   0.0800 
 19 H       -4.2630     0.0850     0.4180 H     1 <1>   0.1500 
 20 H       -4.0160     2.0660    -1.0520 H     1 <1>   0.1500 
 21 H        0.7650     2.5430    -1.0770 H     1 <1>   0.4500 
 22 H        1.3990     1.6780     0.1510 H     1 <1>   0.4500 
 23 H        4.4490     2.5890    -0.7500 H     1 <1>   0.0800 
 24 H        3.2660     2.3700    -2.0180 H     1 <1>   0.0800 
 25 H        3.2500     5.0920    -1.1270 H     1 <1>   0.0800 
 26 H        1.9000     4.4210    -1.9950 H     1 <1>   0.0800 
 27 H        1.6440     5.3000    -0.5010 H     1 <1>   0.0800 
 28 H        2.3920     4.3340     1.6980 H     1 <1>   0.0800 
 29 H        3.0290     2.6980     1.7700 H     1 <1>   0.0800 
 30 H        3.9880     3.9950     1.1250 H     1 <1>   0.0800 
 31 H        3.8660     0.4060    -0.8850 H     1 <1>   0.4000 
@<TRIPOS>BOND
  1   1   2  1   
  2   2   3  ar  
  3   2   4  ar  
  4   3   5  ar  
  5   3   6  1   
  6   4   7  ar  
  7   4  16  1   
  8   5   8  1   
  9   5   9  ar  
 10   6  10  1   
 11   6  17  1   
 12   6  18  1   
 13   7   9  ar  
 14   7  19  1   
 15   9  20  1   
 16  10  11  1   
 17  10  21  1   
 18  10  22  1   
 19  11  12  1   
 20  11  13  1   
 21  11  14  1   
 22  12  15  1   
 23  12  23  1   
 24  12  24  1   
 25  13  25  1   
 26  13  26  1   
 27  13  27  1   
 28  14  28  1   
 29  14  29  1   
 30  14  30  1   
 31  15  31  1   
@<TRIPOS>SUBSTRUCTURE
  1 ****   6 GROUP 4 **** **** 0

# MOE 2024.06 (io_trps.svl 2023.06)
