@<TRIPOS>MOLECULE
NONAME
53 55 1 0 0 
SMALL
USER_CHARGES


@<TRIPOS>ATOM
  1 CL      -4.4530     3.6010     2.7100 Cl    1 <1>  -0.1770 
  2 C       -3.9900     2.6830     1.2990 C.ar  1 <1>   0.1770 
  3 C       -4.8170     1.6760     0.8470 C.ar  1 <1>  -0.1500 
  4 C       -2.8040     2.9810     0.6580 C.ar  1 <1>  -0.1500 
  5 C       -4.4620     0.9380    -0.2760 C.ar  1 <1>   0.1000 
  6 C       -2.4430     2.2500    -0.4620 C.ar  1 <1>  -0.1500 
  7 N       -5.2990    -0.0760    -0.7380 N.pl3 1 <1>  -0.8380 
  8 C       -3.2630     1.2340    -0.9300 C.ar  1 <1>  -0.1430 
  9 C       -6.5630     0.3590    -1.4130 C.3   1 <1>   0.2090 
 10 C       -5.4080    -1.2970     0.1250 C.3   1 <1>   0.2090 
 11 C       -2.8480     0.4420    -2.1620 C.3   1 <1>  -0.0970 
 12 C       -7.8190     0.0290    -0.5840 C.3   1 <1>   0.1400 
 13 C       -6.6140    -2.1810    -0.2390 C.3   1 <1>   0.1400 
 14 N       -7.9070    -1.4230    -0.2180 N.am  1 <1>  -0.6600 
 15 C       -9.1030    -2.0860    -0.0370 C.2   1 <1>   0.5440 
 16 O       -9.1000    -3.3020    -0.0440 O.2   1 <1>  -0.5700 
 17 C      -10.3550    -1.3770     0.1460 C.ar  1 <1>   0.0860 
 18 C      -10.4910    -0.3600     1.0880 C.ar  1 <1>  -0.1500 
 19 C      -11.4730    -1.6950    -0.6200 C.ar  1 <1>  -0.1500 
 20 C      -11.6760     0.3330     1.2620 C.ar  1 <1>   0.0830 
 21 C      -12.6700    -1.0210    -0.4670 C.ar  1 <1>   0.0830 
 22 O      -11.6350     1.3150     2.2060 O.3   1 <1>  -0.3630 
 23 C      -12.7970    -0.0140     0.4960 C.ar  1 <1>   0.0830 
 24 O      -13.6950    -1.3940    -1.2740 O.3   1 <1>  -0.3630 
 25 C      -12.4280     2.4760     2.0870 C.3   1 <1>   0.0400 
 26 O      -13.9980     0.5870     0.6940 O.3   1 <1>  -0.3630 
 27 C      -14.1400    -0.4440    -2.2170 C.3   1 <1>   0.0400 
 28 C      -14.9660    -0.1840     1.3700 C.3   1 <1>   0.0400 
 29 H       -5.7310     1.4640     1.3650 H     1 <1>   0.1500 
 30 H       -2.1760     3.7710     1.0290 H     1 <1>   0.1500 
 31 H       -1.5190     2.4780    -0.9650 H     1 <1>   0.1500 
 32 H       -6.6330    -0.1320    -2.3670 H     1 <1>   0.0800 
 33 H       -6.5270     1.4190    -1.5950 H     1 <1>   0.0800 
 34 H       -5.4920    -1.0050     1.1570 H     1 <1>   0.0800 
 35 H       -4.5060    -1.8730     0.0210 H     1 <1>   0.0800 
 36 H       -2.7670    -0.6000    -1.9120 H     1 <1>   0.0800 
 37 H       -1.9020     0.7800    -2.5450 H     1 <1>   0.0800 
 38 H       -3.5910     0.5530    -2.9300 H     1 <1>   0.0800 
 39 H       -8.6890     0.3140    -1.1480 H     1 <1>   0.0800 
 40 H       -7.7980     0.6170     0.3160 H     1 <1>   0.0800 
 41 H       -6.6680    -3.0020     0.4550 H     1 <1>   0.0800 
 42 H       -6.4650    -2.5910    -1.2220 H     1 <1>   0.0800 
 43 H       -9.6510    -0.1040     1.7080 H     1 <1>   0.1500 
 44 H      -11.4030    -2.4850    -1.3470 H     1 <1>   0.1500 
 45 H      -11.9930     3.2440     2.7010 H     1 <1>   0.0800 
 46 H      -13.4210     2.2560     2.4330 H     1 <1>   0.0800 
 47 H      -12.4430     2.7900     1.0580 H     1 <1>   0.0800 
 48 H      -14.8580    -0.9210    -2.8590 H     1 <1>   0.0800 
 49 H      -13.2980    -0.1050    -2.7930 H     1 <1>   0.0800 
 50 H      -14.6010     0.3800    -1.7040 H     1 <1>   0.0800 
 51 H      -15.8460     0.4190     1.5040 H     1 <1>   0.0800 
 52 H      -14.5690    -0.4780     2.3260 H     1 <1>   0.0800 
 53 H      -15.2020    -1.0530     0.7810 H     1 <1>   0.0800 
@<TRIPOS>BOND
  1   1   2  1   
  2   2   3  ar  
  3   2   4  ar  
  4   3   5  ar  
  5   3  29  1   
  6   4   6  ar  
  7   4  30  1   
  8   5   7  1   
  9   5   8  ar  
 10   6   8  ar  
 11   6  31  1   
 12   7   9  1   
 13   7  10  1   
 14   8  11  1   
 15   9  12  1   
 16   9  32  1   
 17   9  33  1   
 18  10  13  1   
 19  10  34  1   
 20  10  35  1   
 21  11  36  1   
 22  11  37  1   
 23  11  38  1   
 24  12  14  1   
 25  12  39  1   
 26  12  40  1   
 27  13  14  1   
 28  13  41  1   
 29  13  42  1   
 30  14  15  am  
 31  15  16  2   
 32  15  17  1   
 33  17  18  ar  
 34  17  19  ar  
 35  18  20  ar  
 36  18  43  1   
 37  19  21  ar  
 38  19  44  1   
 39  20  22  1   
 40  20  23  ar  
 41  21  23  ar  
 42  21  24  1   
 43  22  25  1   
 44  23  26  1   
 45  24  27  1   
 46  25  45  1   
 47  25  46  1   
 48  25  47  1   
 49  26  28  1   
 50  27  48  1   
 51  27  49  1   
 52  27  50  1   
 53  28  51  1   
 54  28  52  1   
 55  28  53  1   
@<TRIPOS>SUBSTRUCTURE
  1 ****  12 GROUP 4 **** **** 0

# MOE 2024.06 (io_trps.svl 2023.06)
