@<TRIPOS>MOLECULE
NONAME
34 37 1 0 0 
SMALL
USER_CHARGES


@<TRIPOS>ATOM
  1 CL      -0.0130     0.1420     0.1840 Cl    1 <1>  -0.1770 
  2 C        1.6330     0.7180     0.0710 C.ar  1 <1>   0.1770 
  3 C        2.6720    -0.1750     0.1410 C.ar  1 <1>  -0.1500 
  4 C        1.8480     2.0890    -0.0920 C.ar  1 <1>  -0.1500 
  5 C        3.9810     0.3130     0.0470 C.ar  1 <1>   0.0000 
  6 C        3.1320     2.5740    -0.1830 C.ar  1 <1>  -0.1500 
  7 C        4.2080     1.6770    -0.1100 C.ar  1 <1>  -0.1520 
  8 C        5.2460    -0.2910     0.0670 C.2   1 <1>  -0.1810 
  9 N        5.5700     1.8860    -0.1710 N.pl3 1 <1>   0.0480 
 10 C        6.2090     0.6680    -0.0510 C.2   1 <1>  -0.2370 
 11 C        5.5240    -1.7760     0.1790 C.3   1 <1>   0.0210 
 12 C        6.1720     3.2010    -0.4490 C.3   1 <1>   0.0960 
 13 C        7.6280     0.3830    -0.0530 C.2   1 <1>   0.4740 
 14 C        6.9230    -2.0700    -0.3750 C.3   1 <1>  -0.1600 
 15 C        7.5060     3.3740     0.2670 C.3   1 <1>   0.2000 
 16 N        8.6260     1.1490    -0.2170 N.2   1 <1>  -0.6960 
 17 C        7.9660    -1.0880     0.1920 C.3   1 <1>  -0.0990 
 18 O        7.8270     4.7260     0.2360 O.3   1 <1>  -0.6800 
 19 C        8.6510     2.6000    -0.3960 C.3   1 <1>   0.0860 
 20 H        2.4940    -1.2250     0.2650 H     1 <1>   0.1500 
 21 H        0.9980     2.7460    -0.1420 H     1 <1>   0.1500 
 22 H        3.3060     3.6270    -0.3080 H     1 <1>   0.1500 
 23 H        4.7890    -2.3320    -0.3760 H     1 <1>   0.0800 
 24 H        5.4640    -2.0660     1.2130 H     1 <1>   0.0800 
 25 H        5.4980     3.9590    -0.0990 H     1 <1>   0.0800 
 26 H        6.2980     3.2990    -1.5110 H     1 <1>   0.0800 
 27 H        6.9010    -1.9690    -1.4470 H     1 <1>   0.0800 
 28 H        7.2030    -3.0820    -0.1410 H     1 <1>   0.0800 
 29 H        7.4160     3.1010     1.3050 H     1 <1>   0.0800 
 30 H        8.0470    -1.2320     1.2540 H     1 <1>   0.0800 
 31 H        8.9270    -1.3070    -0.2400 H     1 <1>   0.0800 
 32 H        8.1100     5.0000    -0.6580 H     1 <1>   0.4000 
 33 H        9.5670     2.9460     0.0500 H     1 <1>   0.0800 
 34 H        8.6930     2.8130    -1.4500 H     1 <1>   0.0800 
@<TRIPOS>BOND
  1   1   2  1   
  2   2   3  ar  
  3   2   4  ar  
  4   3   5  ar  
  5   3  20  1   
  6   4   6  ar  
  7   4  21  1   
  8   5   7  ar  
  9   5   8  1   
 10   6   7  ar  
 11   6  22  1   
 12   7   9  1   
 13   8  10  2   
 14   8  11  1   
 15   9  10  1   
 16   9  12  1   
 17  10  13  1   
 18  11  14  1   
 19  11  23  1   
 20  11  24  1   
 21  12  15  1   
 22  12  25  1   
 23  12  26  1   
 24  13  16  2   
 25  13  17  1   
 26  14  17  1   
 27  14  27  1   
 28  14  28  1   
 29  15  18  1   
 30  15  19  1   
 31  15  29  1   
 32  16  19  1   
 33  17  30  1   
 34  17  31  1   
 35  18  32  1   
 36  19  33  1   
 37  19  34  1   
@<TRIPOS>SUBSTRUCTURE
  1 ****   9 GROUP 4 **** **** 0

# MOE 2024.06 (io_trps.svl 2023.06)
