@<TRIPOS>MOLECULE
NONAME
50 52 1 0 0 
SMALL
USER_CHARGES


@<TRIPOS>ATOM
  1 O       -0.5090    -1.4000    -1.4420 O.3   1 <1>  -0.3630 
  2 C       -1.4440    -1.4800    -0.4410 C.ar  1 <1>   0.0830 
  3 C       -0.6810    -0.5160    -2.5310 C.3   1 <1>   0.0400 
  4 C       -1.1860    -2.3360     0.6470 C.ar  1 <1>   0.1000 
  5 C       -2.6270    -0.7470    -0.4730 C.ar  1 <1>  -0.1500 
  6 N       -0.0280    -3.1170     0.7730 N.pl3 1 <1>  -0.8380 
  7 C       -2.1250    -2.4230     1.6650 C.ar  1 <1>  -0.1500 
  8 C       -3.5480    -0.8520     0.5560 C.ar  1 <1>  -0.1500 
  9 C        1.2260    -2.3290     0.9700 C.3   1 <1>   0.2090 
 10 C        0.0920    -4.2050    -0.2420 C.3   1 <1>   0.2090 
 11 C       -3.2970    -1.6910     1.6250 C.ar  1 <1>  -0.1500 
 12 C        2.4240    -3.2540     1.2610 C.3   1 <1>   0.3430 
 13 C        1.2970    -5.1170     0.0620 C.3   1 <1>   0.3430 
 14 N        2.5770    -4.3390     0.2220 N.4   1 <1>  -0.9590 
 15 C        3.7430    -5.2140     0.5010 C.3   1 <1>   0.4860 
 16 C        4.9990    -4.3670     0.4290 C.ar  1 <1>  -0.1430 
 17 C        5.5380    -3.9510    -0.7860 C.ar  1 <1>  -0.1430 
 18 C        5.6120    -3.9930     1.6160 C.ar  1 <1>  -0.1500 
 19 C        6.6670    -3.1460    -0.7830 C.ar  1 <1>  -0.1500 
 20 C        4.9450    -4.3460    -2.1340 C.3   1 <1>  -0.0970 
 21 C        6.7400    -3.1940     1.6030 C.ar  1 <1>  -0.1500 
 22 C        7.2700    -2.7620     0.4020 C.ar  1 <1>  -0.1430 
 23 C        8.5090    -1.8850     0.3790 C.3   1 <1>  -0.0970 
 24 H        0.1780    -0.6010    -3.1720 H     1 <1>   0.0800 
 25 H       -0.7580     0.4890    -2.1570 H     1 <1>   0.0800 
 26 H       -1.5680    -0.7960    -3.0720 H     1 <1>   0.0800 
 27 H       -2.8600    -0.0860    -1.2850 H     1 <1>   0.1500 
 28 H       -1.9300    -3.0750     2.4960 H     1 <1>   0.1500 
 29 H       -4.4600    -0.2820     0.5230 H     1 <1>   0.1500 
 30 H        1.0890    -1.6520     1.7960 H     1 <1>   0.0800 
 31 H        1.4330    -1.7390     0.0940 H     1 <1>   0.0800 
 32 H        0.1990    -3.7810    -1.2250 H     1 <1>   0.0800 
 33 H       -0.8110    -4.7910    -0.2350 H     1 <1>   0.0800 
 34 H       -4.0120    -1.7730     2.4260 H     1 <1>   0.1500 
 35 H        2.2750    -3.6990     2.2300 H     1 <1>   0.0800 
 36 H        3.3200    -2.6570     1.3040 H     1 <1>   0.0800 
 37 H        1.3990    -5.8360    -0.7340 H     1 <1>   0.0800 
 38 H        1.0860    -5.6540     0.9710 H     1 <1>   0.0800 
 39 H        2.7810    -3.8560    -0.6610 H     1 <1>   0.4500 
 40 H        3.8020    -6.0050    -0.2280 H     1 <1>   0.0800 
 41 H        3.6520    -5.6580     1.4790 H     1 <1>   0.0800 
 42 H        5.2250    -4.3170     2.5670 H     1 <1>   0.1500 
 43 H        7.0940    -2.8130    -1.7140 H     1 <1>   0.1500 
 44 H        4.0860    -3.7420    -2.3590 H     1 <1>   0.0800 
 45 H        4.6700    -5.3850    -2.1450 H     1 <1>   0.0800 
 46 H        5.6680    -4.2000    -2.9180 H     1 <1>   0.0800 
 47 H        7.2080    -2.9110     2.5310 H     1 <1>   0.1500 
 48 H        9.3840    -2.4940     0.2340 H     1 <1>   0.0800 
 49 H        8.6120    -1.3470     1.3040 H     1 <1>   0.0800 
 50 H        8.4480    -1.1700    -0.4230 H     1 <1>   0.0800 
@<TRIPOS>BOND
  1   1   2  1   
  2   1   3  1   
  3   2   4  ar  
  4   2   5  ar  
  5   3  24  1   
  6   3  25  1   
  7   3  26  1   
  8   4   6  1   
  9   4   7  ar  
 10   5   8  ar  
 11   5  27  1   
 12   6   9  1   
 13   6  10  1   
 14   7  11  ar  
 15   7  28  1   
 16   8  11  ar  
 17   8  29  1   
 18   9  12  1   
 19   9  30  1   
 20   9  31  1   
 21  10  13  1   
 22  10  32  1   
 23  10  33  1   
 24  11  34  1   
 25  12  14  1   
 26  12  35  1   
 27  12  36  1   
 28  13  14  1   
 29  13  37  1   
 30  13  38  1   
 31  14  15  1   
 32  14  39  1   
 33  15  16  1   
 34  15  40  1   
 35  15  41  1   
 36  16  17  ar  
 37  16  18  ar  
 38  17  19  ar  
 39  17  20  1   
 40  18  21  ar  
 41  18  42  1   
 42  19  22  ar  
 43  19  43  1   
 44  20  44  1   
 45  20  45  1   
 46  20  46  1   
 47  21  22  ar  
 48  21  47  1   
 49  22  23  1   
 50  23  48  1   
 51  23  49  1   
 52  23  50  1   
@<TRIPOS>SUBSTRUCTURE
  1 ****  12 GROUP 4 **** **** 0

# MOE 2024.06 (io_trps.svl 2023.06)
