@<TRIPOS>MOLECULE
NONAME
29 29 1 0 0 
SMALL
USER_CHARGES


@<TRIPOS>ATOM
  1 O        0.0760    -1.2910     1.2560 O.co2 1 <1>  -0.9000 
  2 C       -0.0980    -1.6950     0.1160 C.2   1 <1>   0.9060 
  3 O        0.8150    -2.0100    -0.6550 O.co2 1 <1>  -0.9000 
  4 C       -1.4690    -2.1190    -0.2810 C.3   1 <1>  -0.2660 
  5 C       -1.5170    -3.6120    -0.0150 C.3   1 <1>   0.4230 
  6 N       -0.5320    -4.2600    -0.8910 N.4   1 <1>  -0.8530 
  7 C       -2.8890    -4.2380    -0.2830 C.3   1 <1>  -0.1600 
  8 C       -3.9650    -3.7720     0.7090 C.3   1 <1>  -0.0170 
  9 C       -5.2510    -4.5420     0.4620 C.ar  1 <1>  -0.1440 
 10 C       -6.1670    -4.0900    -0.4760 C.ar  1 <1>  -0.1500 
 11 C       -5.5180    -5.7060     1.1670 C.ar  1 <1>  -0.1500 
 12 C       -7.3350    -4.7960    -0.7100 C.ar  1 <1>  -0.1500 
 13 C       -6.6860    -6.4120     0.9340 C.ar  1 <1>  -0.1500 
 14 C       -7.5940    -5.9580    -0.0050 C.ar  1 <1>  -0.1500 
 15 H       -1.6480    -1.8770    -1.3110 H     1 <1>   0.0800 
 16 H       -2.1680    -1.5880     0.3350 H     1 <1>   0.0800 
 17 H       -1.2380    -3.7770     1.0160 H     1 <1>   0.0800 
 18 H       -0.8460    -4.2950    -1.8590 H     1 <1>   0.4500 
 19 H       -0.2160    -5.1650    -0.5470 H     1 <1>   0.4500 
 20 H        0.2940    -3.6070    -0.8890 H     1 <1>   0.4500 
 21 H       -2.8080    -5.3070    -0.1980 H     1 <1>   0.0800 
 22 H       -3.2130    -4.0000    -1.2810 H     1 <1>   0.0800 
 23 H       -4.1600    -2.7200     0.5960 H     1 <1>   0.0800 
 24 H       -3.6370    -3.9370     1.7210 H     1 <1>   0.0800 
 25 H       -5.9790    -3.1870    -1.0290 H     1 <1>   0.1500 
 26 H       -4.8220    -6.0700     1.9020 H     1 <1>   0.1500 
 27 H       -8.0440    -4.4410    -1.4380 H     1 <1>   0.1500 
 28 H       -6.8900    -7.3150     1.4840 H     1 <1>   0.1500 
 29 H       -8.5020    -6.5060    -0.1860 H     1 <1>   0.1500 
@<TRIPOS>BOND
  1   1   2  ar  
  2   2   3  ar  
  3   2   4  1   
  4   4   5  1   
  5   4  15  1   
  6   4  16  1   
  7   5   6  1   
  8   5   7  1   
  9   5  17  1   
 10   6  18  1   
 11   6  19  1   
 12   6  20  1   
 13   7   8  1   
 14   7  21  1   
 15   7  22  1   
 16   8   9  1   
 17   8  23  1   
 18   8  24  1   
 19   9  10  ar  
 20   9  11  ar  
 21  10  12  ar  
 22  10  25  1   
 23  11  13  ar  
 24  11  26  1   
 25  12  14  ar  
 26  12  27  1   
 27  13  14  ar  
 28  13  28  1   
 29  14  29  1   
@<TRIPOS>SUBSTRUCTURE
  1 ****   7 GROUP 4 **** **** 0

# MOE 2024.06 (io_trps.svl 2023.06)
