@<TRIPOS>MOLECULE
NONAME
45 46 1 0 0 
SMALL
USER_CHARGES


@<TRIPOS>ATOM
  1 O       -1.3830     0.3630    -0.0660 O.3   1 <1>  -0.2800 
  2 C       -1.8740     1.0610    -1.0730 C.2   1 <1>  -0.0400 
  3 C       -0.1060     0.6670     0.0440 C.2   1 <1>  -0.0400 
  4 C       -0.9150     1.8340    -1.6280 C.2   1 <1>  -0.1500 
  5 C       -3.3430     0.8940    -1.4010 C.3   1 <1>   0.5230 
  6 C        0.2470     1.5730    -0.8920 C.2   1 <1>  -0.1500 
  7 C        0.7170    -0.0020     1.1240 C.3   1 <1>  -0.0600 
  8 N       -4.1080     1.0570    -0.1330 N.4   1 <1>  -0.9590 
  9 C       -5.4830     0.4880    -0.2530 C.3   1 <1>   0.3430 
 10 C       -4.0810     2.4810     0.3310 C.3   1 <1>   0.2630 
 11 C       -6.1610     0.3270     1.1080 C.3   1 <1>  -0.0170 
 12 C       -7.5160    -0.3180     0.8910 C.ar  1 <1>  -0.1430 
 13 C       -8.5960     0.4580     0.4990 C.ar  1 <1>  -0.1500 
 14 C       -7.6870    -1.6830     1.0710 C.ar  1 <1>  -0.1500 
 15 C       -9.8360    -0.1160     0.2770 C.ar  1 <1>   0.0830 
 16 C       -8.9210    -2.2670     0.8400 C.ar  1 <1>  -0.1500 
 17 O      -10.8450     0.7160    -0.0790 O.3   1 <1>  -0.3620 
 18 C       -9.9940    -1.4990     0.4250 C.ar  1 <1>   0.0830 
 19 C      -11.9310     0.8110     0.8190 C.3   1 <1>   0.0400 
 20 O      -11.1620    -2.1410     0.1780 O.3   1 <1>  -0.3630 
 21 C      -11.6100    -2.1430    -1.1600 C.3   1 <1>   0.0400 
 22 H       -0.9720     2.5190    -2.4570 H     1 <1>   0.1500 
 23 H       -3.4950    -0.0960    -1.7990 H     1 <1>   0.0800 
 24 H       -3.6530     1.6190    -2.1350 H     1 <1>   0.0800 
 25 H        1.2110     2.0190    -1.0670 H     1 <1>   0.1500 
 26 H        0.3110     0.2280     2.0920 H     1 <1>   0.0800 
 27 H        1.7350     0.3420     1.0830 H     1 <1>   0.0800 
 28 H        0.7060    -1.0680     0.9840 H     1 <1>   0.0800 
 29 H       -3.5600     0.4980     0.5430 H     1 <1>   0.4500 
 30 H       -5.4320    -0.4850    -0.7170 H     1 <1>   0.0800 
 31 H       -6.0910     1.1200    -0.8800 H     1 <1>   0.0800 
 32 H       -4.6080     3.1140    -0.3640 H     1 <1>   0.0800 
 33 H       -3.0620     2.8270     0.4100 H     1 <1>   0.0800 
 34 H       -4.5420     2.5710     1.3000 H     1 <1>   0.0800 
 35 H       -6.3030     1.2810     1.5820 H     1 <1>   0.0800 
 36 H       -5.5640    -0.2950     1.7510 H     1 <1>   0.0800 
 37 H       -8.5010     1.5200     0.3650 H     1 <1>   0.1500 
 38 H       -6.8690    -2.3060     1.3910 H     1 <1>   0.1500 
 39 H       -9.0580    -3.3260     0.9750 H     1 <1>   0.1500 
 40 H      -12.5790     1.5980     0.4790 H     1 <1>   0.0800 
 41 H      -11.5530     1.0400     1.7990 H     1 <1>   0.0800 
 42 H      -12.4660    -0.1210     0.8340 H     1 <1>   0.0800 
 43 H      -12.4900    -2.7570    -1.2180 H     1 <1>   0.0800 
 44 H      -10.8350    -2.5500    -1.7850 H     1 <1>   0.0800 
 45 H      -11.8450    -1.1380    -1.4610 H     1 <1>   0.0800 
@<TRIPOS>BOND
  1   1   2  1   
  2   1   3  1   
  3   2   4  2   
  4   2   5  1   
  5   3   6  2   
  6   3   7  1   
  7   4   6  1   
  8   4  22  1   
  9   5   8  1   
 10   5  23  1   
 11   5  24  1   
 12   6  25  1   
 13   7  26  1   
 14   7  27  1   
 15   7  28  1   
 16   8   9  1   
 17   8  10  1   
 18   8  29  1   
 19   9  11  1   
 20   9  30  1   
 21   9  31  1   
 22  10  32  1   
 23  10  33  1   
 24  10  34  1   
 25  11  12  1   
 26  11  35  1   
 27  11  36  1   
 28  12  13  ar  
 29  12  14  ar  
 30  13  15  ar  
 31  13  37  1   
 32  14  16  ar  
 33  14  38  1   
 34  15  17  1   
 35  15  18  ar  
 36  16  18  ar  
 37  16  39  1   
 38  17  19  1   
 39  18  20  1   
 40  19  40  1   
 41  19  41  1   
 42  19  42  1   
 43  20  21  1   
 44  21  43  1   
 45  21  44  1   
 46  21  45  1   
@<TRIPOS>SUBSTRUCTURE
  1 ****   9 GROUP 4 **** **** 0

# MOE 2024.06 (io_trps.svl 2023.06)
