@<TRIPOS>MOLECULE
NONAME
35 36 1 0 0 
SMALL
USER_CHARGES


@<TRIPOS>ATOM
  1 CL      -0.1280     0.4350    -1.6710 Cl    1 <1>  -0.1770 
  2 C       -1.0130     1.7000    -0.8460 C.ar  1 <1>   0.1770 
  3 C       -0.3740     2.8520    -0.4220 C.ar  1 <1>   0.1900 
  4 C       -2.3670     1.5430    -0.6220 C.ar  1 <1>  -0.1500 
  5 F        0.9090     3.0080    -0.6330 F     1 <1>  -0.1900 
  6 C       -1.0650     3.8600     0.2250 C.ar  1 <1>  -0.1500 
  7 C       -3.0890     2.5410     0.0320 C.ar  1 <1>   0.1170 
  8 C       -2.4230     3.6950     0.4460 C.ar  1 <1>  -0.1500 
  9 N       -4.4650     2.4340     0.2700 N.am  1 <1>  -0.5470 
 10 C       -5.2520     1.3330     0.4620 C.2   1 <1>   0.6900 
 11 O       -4.7540     0.2270     0.5630 O.2   1 <1>  -0.5700 
 12 N       -6.6090     1.4980     0.5670 N.am  1 <1>  -0.6600 
 13 C       -7.3190     2.7620     0.1930 C.3   1 <1>   0.1400 
 14 C       -7.5150     0.3270     0.7930 C.3   1 <1>   0.1400 
 15 C       -8.8430     2.5630     0.0460 C.3   1 <1>   0.2000 
 16 C       -8.6000     0.2150    -0.3070 C.3   1 <1>   0.2000 
 17 O       -9.0940     1.4520    -0.7560 O.3   1 <1>  -0.5600 
 18 C       -9.5200     3.7580    -0.6200 C.3   1 <1>  -0.2400 
 19 C       -9.8010    -0.6080     0.1560 C.3   1 <1>  -0.2400 
 20 H       -2.8550     0.6460    -0.9580 H     1 <1>   0.1500 
 21 H       -0.5480     4.7460     0.5460 H     1 <1>   0.1500 
 22 H       -2.9710     4.4700     0.9520 H     1 <1>   0.1500 
 23 H       -4.9600     3.3030     0.4260 H     1 <1>   0.3700 
 24 H       -6.9290     3.1180    -0.7450 H     1 <1>   0.0800 
 25 H       -7.1360     3.5090     0.9440 H     1 <1>   0.0800 
 26 H       -7.9880     0.4430     1.7520 H     1 <1>   0.0800 
 27 H       -6.9590    -0.5930     0.8250 H     1 <1>   0.0800 
 28 H       -9.2920     2.3920     1.0100 H     1 <1>   0.0800 
 29 H       -8.1610    -0.2640    -1.1660 H     1 <1>   0.0800 
 30 H       -9.1160     3.9160    -1.6040 H     1 <1>   0.0800 
 31 H       -9.3690     4.6460    -0.0340 H     1 <1>   0.0800 
 32 H      -10.5770     3.5770    -0.6990 H     1 <1>   0.0800 
 33 H      -10.2810    -0.1350     0.9940 H     1 <1>   0.0800 
 34 H       -9.4820    -1.5920     0.4480 H     1 <1>   0.0800 
 35 H      -10.5070    -0.7040    -0.6490 H     1 <1>   0.0800 
@<TRIPOS>BOND
  1   1   2  1   
  2   2   3  ar  
  3   2   4  ar  
  4   3   5  1   
  5   3   6  ar  
  6   4   7  ar  
  7   4  20  1   
  8   6   8  ar  
  9   6  21  1   
 10   7   8  ar  
 11   7   9  1   
 12   8  22  1   
 13   9  10  am  
 14   9  23  1   
 15  10  11  2   
 16  10  12  am  
 17  12  13  1   
 18  12  14  1   
 19  13  15  1   
 20  13  24  1   
 21  13  25  1   
 22  14  16  1   
 23  14  26  1   
 24  14  27  1   
 25  15  17  1   
 26  15  18  1   
 27  15  28  1   
 28  16  17  1   
 29  16  19  1   
 30  16  29  1   
 31  18  30  1   
 32  18  31  1   
 33  18  32  1   
 34  19  33  1   
 35  19  34  1   
 36  19  35  1   
@<TRIPOS>SUBSTRUCTURE
  1 ****   9 GROUP 4 **** **** 0

# MOE 2024.06 (io_trps.svl 2023.06)
