@<TRIPOS>MOLECULE
NONAME
43 45 1 0 0 
SMALL
USER_CHARGES


@<TRIPOS>ATOM
  1 O        0.1960    -2.0860     2.4360 O.2   1 <1>  -0.5700 
  2 C        0.0480    -2.8160     1.4820 C.2   1 <1>   0.5690 
  3 N       -0.8580    -2.5410     0.4630 N.am  1 <1>  -0.4770 
  4 C        0.8880    -4.0920     1.4900 C.3   1 <1>   0.1810 
  5 C       -1.4890    -1.2850     0.2660 C.ar  1 <1>   0.1170 
  6 C       -1.3300    -3.6170    -0.4520 C.3   1 <1>   0.1400 
  7 O        1.6050    -4.2700     0.2740 O.3   1 <1>  -0.3630 
  8 C       -2.7770    -1.2090    -0.2770 C.ar  1 <1>  -0.1440 
  9 C       -0.8410    -0.0910     0.5810 C.ar  1 <1>  -0.1500 
 10 C       -2.8430    -3.7520    -0.2960 C.3   1 <1>  -0.1600 
 11 C        2.8050    -3.6550     0.1630 C.ar  1 <1>   0.0820 
 12 C       -3.3880     0.0220    -0.4600 C.ar  1 <1>  -0.1500 
 13 C       -3.5420    -2.4540    -0.7120 C.3   1 <1>  -0.0170 
 14 C       -1.4540     1.1340     0.3950 C.ar  1 <1>  -0.1500 
 15 C        2.9970    -2.6670    -0.7970 C.ar  1 <1>  -0.1430 
 16 C        3.8490    -4.0280     0.9980 C.ar  1 <1>  -0.1500 
 17 C       -2.7330     1.1920    -0.1230 C.ar  1 <1>  -0.1500 
 18 C        4.2350    -2.0500    -0.8900 C.ar  1 <1>  -0.1500 
 19 C        1.8790    -2.2450    -1.7380 C.3   1 <1>  -0.0970 
 20 C        5.0790    -3.4050     0.8930 C.ar  1 <1>  -0.1500 
 21 C        5.2780    -2.4120    -0.0510 C.ar  1 <1>  -0.1430 
 22 C        6.6240    -1.7210    -0.1690 C.3   1 <1>  -0.0970 
 23 H        0.2490    -4.9440     1.6250 H     1 <1>   0.0800 
 24 H        1.5830    -4.0580     2.3090 H     1 <1>   0.0800 
 25 H       -0.8690    -4.5630    -0.2380 H     1 <1>   0.0800 
 26 H       -1.0840    -3.3470    -1.4650 H     1 <1>   0.0800 
 27 H        0.1570    -0.1140     0.9780 H     1 <1>   0.1500 
 28 H       -3.0680    -3.9710     0.7340 H     1 <1>   0.0800 
 29 H       -3.2050    -4.5670    -0.8970 H     1 <1>   0.0800 
 30 H       -4.3810     0.0760    -0.8720 H     1 <1>   0.1500 
 31 H       -3.6260    -2.4330    -1.7850 H     1 <1>   0.0800 
 32 H       -4.5360    -2.4350    -0.3020 H     1 <1>   0.0800 
 33 H       -0.9340     2.0390     0.6550 H     1 <1>   0.1500 
 34 H        3.7040    -4.8060     1.7240 H     1 <1>   0.1500 
 35 H       -3.2160     2.1430    -0.2660 H     1 <1>   0.1500 
 36 H        4.3920    -1.2780    -1.6230 H     1 <1>   0.1500 
 37 H        1.2000    -1.5890    -1.2250 H     1 <1>   0.0800 
 38 H        1.3400    -3.1080    -2.0840 H     1 <1>   0.0800 
 39 H        2.2730    -1.7290    -2.5940 H     1 <1>   0.0800 
 40 H        5.8800    -3.6980     1.5490 H     1 <1>   0.1500 
 41 H        6.6090    -0.8010     0.3870 H     1 <1>   0.0800 
 42 H        6.8430    -1.5030    -1.1990 H     1 <1>   0.0800 
 43 H        7.4070    -2.3490     0.2180 H     1 <1>   0.0800 
@<TRIPOS>BOND
  1   1   2  2   
  2   2   3  am  
  3   2   4  1   
  4   3   5  1   
  5   3   6  1   
  6   4   7  1   
  7   4  23  1   
  8   4  24  1   
  9   5   8  ar  
 10   5   9  ar  
 11   6  10  1   
 12   6  25  1   
 13   6  26  1   
 14   7  11  1   
 15   8  12  ar  
 16   8  13  1   
 17   9  14  ar  
 18   9  27  1   
 19  10  13  1   
 20  10  28  1   
 21  10  29  1   
 22  11  15  ar  
 23  11  16  ar  
 24  12  17  ar  
 25  12  30  1   
 26  13  31  1   
 27  13  32  1   
 28  14  17  ar  
 29  14  33  1   
 30  15  18  ar  
 31  15  19  1   
 32  16  20  ar  
 33  16  34  1   
 34  17  35  1   
 35  18  21  ar  
 36  18  36  1   
 37  19  37  1   
 38  19  38  1   
 39  19  39  1   
 40  20  21  ar  
 41  20  40  1   
 42  21  22  1   
 43  22  41  1   
 44  22  42  1   
 45  22  43  1   
@<TRIPOS>SUBSTRUCTURE
  1 ****   3 GROUP 4 **** **** 0

# MOE 2024.06 (io_trps.svl 2023.06)
