@<TRIPOS>MOLECULE
NONAME
38 40 1 0 0 
SMALL
USER_CHARGES


@<TRIPOS>ATOM
  1 O       -0.0110     1.0200     1.3680 O.2   1 <1>  -0.5700 
  2 C        0.1530     1.8910     0.5480 C.2   1 <1>   0.5690 
  3 N        1.3580     2.1490    -0.0490 N.am  1 <1>  -0.5470 
  4 C       -1.0330     2.7730     0.1530 C.3   1 <1>  -0.0190 
  5 C        2.6110     1.5250     0.0820 C.ar  1 <1>   0.1170 
  6 C       -1.5260     3.6150     1.3460 C.3   1 <1>  -0.1600 
  7 C       -2.1870     1.9370    -0.4330 C.3   1 <1>  -0.1600 
  8 C        3.7430     2.2330    -0.3030 C.ar  1 <1>  -0.1500 
  9 C        2.7680     0.2260     0.5600 C.ar  1 <1>  -0.1500 
 10 C       -2.7210     4.4980     0.9580 C.3   1 <1>  -0.1600 
 11 C       -3.3820     2.8190    -0.8220 C.3   1 <1>  -0.1600 
 12 C        5.0000     1.6640    -0.2090 C.ar  1 <1>   0.0830 
 13 C        4.0240    -0.3500     0.6640 C.ar  1 <1>  -0.1500 
 14 C       -3.8620     3.6570     0.3700 C.3   1 <1>  -0.1600 
 15 O        6.0770     2.3880    -0.6100 O.3   1 <1>  -0.3630 
 16 C        5.1440     0.3680     0.2860 C.ar  1 <1>   0.0830 
 17 C        7.2910     1.6820    -0.7900 C.3   1 <1>   0.1200 
 18 O        6.3700    -0.2080     0.4100 O.3   1 <1>  -0.3630 
 19 C        7.4850     0.6600     0.3380 C.3   1 <1>   0.1200 
 20 H        1.3610     2.9570    -0.6650 H     1 <1>   0.3700 
 21 H       -0.7050     3.4530    -0.6130 H     1 <1>   0.0800 
 22 H       -0.7240     4.2340     1.7090 H     1 <1>   0.0800 
 23 H       -1.8170     2.9560     2.1460 H     1 <1>   0.0800 
 24 H       -2.5060     1.2120     0.2980 H     1 <1>   0.0800 
 25 H       -1.8410     1.3970    -1.2970 H     1 <1>   0.0800 
 26 H        3.6590     3.2350    -0.6780 H     1 <1>   0.1500 
 27 H        1.9090    -0.3490     0.8550 H     1 <1>   0.1500 
 28 H       -2.4070     5.2300     0.2340 H     1 <1>   0.0800 
 29 H       -3.0750     5.0250     1.8270 H     1 <1>   0.0800 
 30 H       -4.1890     2.1970    -1.1710 H     1 <1>   0.0800 
 31 H       -3.0990     3.4740    -1.6280 H     1 <1>   0.0800 
 32 H        4.1380    -1.3510     1.0390 H     1 <1>   0.1500 
 33 H       -4.6630     4.3050     0.0570 H     1 <1>   0.0800 
 34 H       -4.2480     3.0010     1.1320 H     1 <1>   0.0800 
 35 H        8.0920     2.3980    -0.7990 H     1 <1>   0.0800 
 36 H        7.2510     1.1830    -1.7420 H     1 <1>   0.0800 
 37 H        7.5810     1.1610     1.2850 H     1 <1>   0.0800 
 38 H        8.3600     0.0600     0.1660 H     1 <1>   0.0800 
@<TRIPOS>BOND
  1   1   2  2   
  2   2   3  am  
  3   2   4  1   
  4   3   5  1   
  5   3  20  1   
  6   4   6  1   
  7   4   7  1   
  8   4  21  1   
  9   5   8  ar  
 10   5   9  ar  
 11   6  10  1   
 12   6  22  1   
 13   6  23  1   
 14   7  11  1   
 15   7  24  1   
 16   7  25  1   
 17   8  12  ar  
 18   8  26  1   
 19   9  13  ar  
 20   9  27  1   
 21  10  14  1   
 22  10  28  1   
 23  10  29  1   
 24  11  14  1   
 25  11  30  1   
 26  11  31  1   
 27  12  15  1   
 28  12  16  ar  
 29  13  16  ar  
 30  13  32  1   
 31  14  33  1   
 32  14  34  1   
 33  15  17  1   
 34  16  18  1   
 35  17  19  1   
 36  17  35  1   
 37  17  36  1   
 38  18  19  1   
 39  19  37  1   
 40  19  38  1   
@<TRIPOS>SUBSTRUCTURE
  1 ****   5 GROUP 4 **** **** 0

# MOE 2024.06 (io_trps.svl 2023.06)
