@<TRIPOS>MOLECULE
NONAME
52 54 1 0 0 
SMALL
USER_CHARGES


@<TRIPOS>ATOM
  1 O       -3.3680     0.7390    -1.0280 O.2   1 <1>  -0.5700 
  2 C       -3.9470     0.7460     0.0320 C.2   1 <1>   0.5690 
  3 N       -4.3490    -0.4010     0.6700 N.am  1 <1>  -0.5470 
  4 C       -4.2240     2.1230     0.6640 C.3   1 <1>   0.4040 
  5 C       -4.2300    -1.7180     0.2020 C.ar  1 <1>   0.1170 
  6 N       -3.3910     3.2370     0.0660 N.4   1 <1>  -0.9590 
  7 C       -5.4130    -2.4720     0.0040 C.ar  1 <1>   0.0000 
  8 C       -3.0180    -2.3270    -0.0610 C.ar  1 <1>  -0.1430 
  9 C       -1.9590     3.0970     0.4560 C.3   1 <1>   0.3430 
 10 C       -3.9880     4.5790     0.3170 C.3   1 <1>   0.3430 
 11 C       -5.2770    -3.7930    -0.4660 C.ar  1 <1>   0.3100 
 12 C       -6.7210    -1.9850     0.2410 C.ar  1 <1>  -0.1500 
 13 C       -3.0090    -3.6460    -0.5570 C.ar  1 <1>   0.1670 
 14 C       -1.6900    -1.6020     0.1860 C.3   1 <1>  -0.0970 
 15 C       -1.0430     4.0240    -0.3450 C.3   1 <1>  -0.1600 
 16 C       -3.6340     5.5250    -0.8300 C.3   1 <1>  -0.1600 
 17 N       -4.0830    -4.3510    -0.7470 N.ar  1 <1>  -0.6200 
 18 C       -6.4290    -4.5730    -0.6580 C.ar  1 <1>  -0.1500 
 19 C       -7.8270    -2.7680     0.0430 C.ar  1 <1>  -0.1500 
 20 C       -1.7140    -4.3700    -0.9200 C.3   1 <1>  -0.0170 
 21 C       -1.1760     5.5000     0.0540 C.3   1 <1>  -0.1600 
 22 C       -2.2910     6.2580    -0.6800 C.3   1 <1>  -0.1600 
 23 C       -7.6810    -4.0810    -0.4100 C.ar  1 <1>  -0.1500 
 24 C       -1.1830    -5.2100     0.2490 C.3   1 <1>  -0.2400 
 25 H       -4.9290    -0.3200     1.5050 H     1 <1>   0.3700 
 26 H       -4.0460     2.0660     1.7240 H     1 <1>   0.0800 
 27 H       -5.2670     2.3410     0.5100 H     1 <1>   0.0800 
 28 H       -3.4100     3.0600    -0.9530 H     1 <1>   0.4500 
 29 H       -1.6430     2.0810     0.2740 H     1 <1>   0.0800 
 30 H       -1.8400     3.2980     1.5080 H     1 <1>   0.0800 
 31 H       -3.6510     4.9830     1.2580 H     1 <1>   0.0800 
 32 H       -5.0610     4.4890     0.3530 H     1 <1>   0.0800 
 33 H       -6.8620    -0.9770     0.5800 H     1 <1>   0.1500 
 34 H       -1.8000    -0.7790     0.8630 H     1 <1>   0.0800 
 35 H       -1.3030    -1.2320    -0.7470 H     1 <1>   0.0800 
 36 H       -0.9670    -2.2640     0.6240 H     1 <1>   0.0800 
 37 H       -1.1880     3.8890    -1.4030 H     1 <1>   0.0800 
 38 H       -0.0320     3.7220    -0.1310 H     1 <1>   0.0800 
 39 H       -4.4030     6.2760    -0.8930 H     1 <1>   0.0800 
 40 H       -3.6560     4.9890    -1.7630 H     1 <1>   0.0800 
 41 H       -6.2910    -5.5790    -1.0100 H     1 <1>   0.1500 
 42 H       -8.8180    -2.3890     0.2280 H     1 <1>   0.1500 
 43 H       -0.9630    -3.6780    -1.2520 H     1 <1>   0.0800 
 44 H       -1.9110    -5.0250    -1.7510 H     1 <1>   0.0800 
 45 H       -0.2460     6.0000    -0.1680 H     1 <1>   0.0800 
 46 H       -1.3180     5.5790     1.1190 H     1 <1>   0.0800 
 47 H       -2.4550     7.1860    -0.1570 H     1 <1>   0.0800 
 48 H       -1.9420     6.5220    -1.6650 H     1 <1>   0.0800 
 49 H       -8.5560    -4.6900    -0.5620 H     1 <1>   0.1500 
 50 H       -0.9770    -4.5890     1.1020 H     1 <1>   0.0800 
 51 H       -0.2810    -5.7180    -0.0390 H     1 <1>   0.0800 
 52 H       -1.9180    -5.9440     0.5300 H     1 <1>   0.0800 
@<TRIPOS>BOND
  1   1   2  2   
  2   2   3  am  
  3   2   4  1   
  4   3   5  1   
  5   3  25  1   
  6   4   6  1   
  7   4  26  1   
  8   4  27  1   
  9   5   7  ar  
 10   5   8  ar  
 11   6   9  1   
 12   6  10  1   
 13   6  28  1   
 14   7  11  ar  
 15   7  12  ar  
 16   8  13  ar  
 17   8  14  1   
 18   9  15  1   
 19   9  29  1   
 20   9  30  1   
 21  10  16  1   
 22  10  31  1   
 23  10  32  1   
 24  11  17  ar  
 25  11  18  ar  
 26  12  19  ar  
 27  12  33  1   
 28  13  17  ar  
 29  13  20  1   
 30  14  34  1   
 31  14  35  1   
 32  14  36  1   
 33  15  21  1   
 34  15  37  1   
 35  15  38  1   
 36  16  22  1   
 37  16  39  1   
 38  16  40  1   
 39  18  23  ar  
 40  18  41  1   
 41  19  23  ar  
 42  19  42  1   
 43  20  24  1   
 44  20  43  1   
 45  20  44  1   
 46  21  22  1   
 47  21  45  1   
 48  21  46  1   
 49  22  47  1   
 50  22  48  1   
 51  23  49  1   
 52  24  50  1   
 53  24  51  1   
 54  24  52  1   
@<TRIPOS>SUBSTRUCTURE
  1 ****   3 GROUP 4 **** **** 0

# MOE 2024.06 (io_trps.svl 2023.06)
