@<TRIPOS>MOLECULE
NONAME
44 45 1 0 0 
SMALL
USER_CHARGES


@<TRIPOS>ATOM
  1 S        0.5530    -0.5720     0.4820 S.o2  1 <1>   1.4470 
  2 O       -0.0160    -0.6660     1.8070 O.2   1 <1>  -0.6500 
  3 O        0.5910    -1.7330    -0.3770 O.2   1 <1>  -0.6500 
  4 N       -0.3530     0.5280    -0.4000 N.am  1 <1>  -0.9140 
  5 C        2.1810     0.2170     0.5650 C.ar  1 <1>  -0.0090 
  6 C       -1.7720     0.4200    -0.1850 C.3   1 <1>   0.2760 
  7 C        3.3190    -0.4210     0.0800 C.ar  1 <1>  -0.1500 
  8 C        2.3280     1.4810     1.1220 C.ar  1 <1>  -0.1500 
  9 C       -2.4520     0.6620    -1.5270 C.3   1 <1>  -0.2400 
 10 C       -2.1920     1.4840     0.8250 C.3   1 <1>  -0.2400 
 11 C        4.5700     0.1730     0.1350 C.ar  1 <1>  -0.1430 
 12 C        3.5650     2.0940     1.1850 C.ar  1 <1>  -0.1500 
 13 C        4.6810     1.4470     0.6830 C.ar  1 <1>   0.0830 
 14 C        5.7800    -0.5850    -0.3950 C.3   1 <1>  -0.0970 
 15 O        5.8670     2.0830     0.7470 O.3   1 <1>  -0.3630 
 16 C        6.3120     2.7110    -0.4490 C.3   1 <1>   0.1810 
 17 C        7.7110     2.2440    -0.8220 C.2   1 <1>   0.5690 
 18 O        8.0840     2.3930    -1.9620 O.2   1 <1>  -0.5700 
 19 N        8.4880     1.6700     0.1350 N.am  1 <1>  -0.5790 
 20 C        9.8460     1.1430    -0.0470 C.3   1 <1>   0.0490 
 21 C       10.2190    -0.1010     0.6890 C.3   1 <1>  -0.2000 
 22 C       10.7900     1.2220     1.1060 C.3   1 <1>  -0.2000 
 23 H       -0.1960     0.2190    -1.3560 H     1 <1>   0.4200 
 24 H       -2.0370    -0.5640     0.1730 H     1 <1>   0.0800 
 25 H        3.2160    -1.4060    -0.3460 H     1 <1>   0.1500 
 26 H        1.4590     1.9880     1.5100 H     1 <1>   0.1500 
 27 H       -2.1930     1.6310    -1.9160 H     1 <1>   0.0800 
 28 H       -3.5190     0.6200    -1.4050 H     1 <1>   0.0800 
 29 H       -2.1690    -0.0970    -2.2340 H     1 <1>   0.0800 
 30 H       -1.9210     2.4640     0.4760 H     1 <1>   0.0800 
 31 H       -1.7240     1.3060     1.7760 H     1 <1>   0.0800 
 32 H       -3.2560     1.4510     0.9690 H     1 <1>   0.0800 
 33 H        3.6680     3.0710     1.6210 H     1 <1>   0.1500 
 34 H        5.5500    -1.6260    -0.5360 H     1 <1>   0.0800 
 35 H        6.5960    -0.5160     0.3010 H     1 <1>   0.0800 
 36 H        6.0900    -0.1750    -1.3400 H     1 <1>   0.0800 
 37 H        6.3170     3.7720    -0.2840 H     1 <1>   0.0800 
 38 H        5.6320     2.4810    -1.2510 H     1 <1>   0.0800 
 39 H        8.0760     1.5400     1.0620 H     1 <1>   0.3700 
 40 H       10.2310     1.2910    -1.0440 H     1 <1>   0.1000 
 41 H       10.8720    -0.8070     0.2080 H     1 <1>   0.1000 
 42 H        9.4870    -0.5750     1.3190 H     1 <1>   0.1000 
 43 H       10.4540     1.6730     2.0220 H     1 <1>   0.1000 
 44 H       11.8300     1.4120     0.9070 H     1 <1>   0.1000 
@<TRIPOS>BOND
  1   1   2  2   
  2   1   3  2   
  3   1   4  am  
  4   1   5  1   
  5   4   6  1   
  6   4  23  1   
  7   5   7  ar  
  8   5   8  ar  
  9   6   9  1   
 10   6  10  1   
 11   6  24  1   
 12   7  11  ar  
 13   7  25  1   
 14   8  12  ar  
 15   8  26  1   
 16   9  27  1   
 17   9  28  1   
 18   9  29  1   
 19  10  30  1   
 20  10  31  1   
 21  10  32  1   
 22  11  13  ar  
 23  11  14  1   
 24  12  13  ar  
 25  12  33  1   
 26  13  15  1   
 27  14  34  1   
 28  14  35  1   
 29  14  36  1   
 30  15  16  1   
 31  16  17  1   
 32  16  37  1   
 33  16  38  1   
 34  17  18  2   
 35  17  19  am  
 36  19  20  1   
 37  19  39  1   
 38  20  21  1   
 39  20  22  1   
 40  20  40  1   
 41  21  22  1   
 42  21  41  1   
 43  21  42  1   
 44  22  43  1   
 45  22  44  1   
@<TRIPOS>SUBSTRUCTURE
  1 ****  11 GROUP 4 **** **** 0

# MOE 2024.06 (io_trps.svl 2023.06)
