@<TRIPOS>MOLECULE
NONAME
39 41 1 0 0 
SMALL
USER_CHARGES


@<TRIPOS>ATOM
  1 O       -0.6300     0.0390    -0.5190 O.3   1 <1>  -0.6800 
  2 C       -1.6740     0.4810     0.2700 C.3   1 <1>   0.1200 
  3 C       -2.9910    -0.0380    -0.3290 C.3   1 <1>  -0.0800 
  4 C       -4.1870     0.5930     0.4080 C.3   1 <1>   0.3430 
  5 C       -3.0680    -1.5790    -0.3220 C.3   1 <1>  -0.1600 
  6 N       -5.3950    -0.2930     0.4180 N.4   1 <1>  -0.9590 
  7 C       -4.3830    -2.0700    -0.9570 C.3   1 <1>  -0.1600 
  8 C       -5.5440    -1.0760    -0.8410 C.3   1 <1>   0.3430 
  9 C       -6.6320     0.4460     0.7750 C.3   1 <1>   0.5240 
 10 C       -7.6990    -0.5760     1.0890 C.2   1 <1>  -0.1810 
 11 C       -8.6970    -0.9750     0.1730 C.ar  1 <1>   0.0000 
 12 C       -7.8840    -1.2750     2.2360 C.2   1 <1>  -0.3020 
 13 C       -9.4540    -1.9440     0.8240 C.ar  1 <1>  -0.1520 
 14 C       -9.0280    -0.6100    -1.1380 C.ar  1 <1>  -0.1500 
 15 N       -8.9550    -2.1120     2.0890 N.pl3 1 <1>   0.0330 
 16 C      -10.5270    -2.5690     0.1850 C.ar  1 <1>  -0.1500 
 17 C      -10.0850    -1.2260    -1.7670 C.ar  1 <1>  -0.1500 
 18 C      -10.8330    -2.2080    -1.1060 C.ar  1 <1>  -0.1500 
 19 H        0.2360     0.3350    -0.1710 H     1 <1>   0.4000 
 20 H       -1.6480     1.5580     0.2770 H     1 <1>   0.0800 
 21 H       -1.5230     0.1080     1.2690 H     1 <1>   0.0800 
 22 H       -3.0280     0.3010    -1.3500 H     1 <1>   0.0800 
 23 H       -4.4220     1.5320    -0.0670 H     1 <1>   0.0800 
 24 H       -3.9040     0.8020     1.4270 H     1 <1>   0.0800 
 25 H       -3.0030    -1.9340     0.6930 H     1 <1>   0.0800 
 26 H       -2.2350    -2.0000    -0.8620 H     1 <1>   0.0800 
 27 H       -5.2770    -0.9990     1.1560 H     1 <1>   0.4500 
 28 H       -4.6670    -3.0060    -0.5090 H     1 <1>   0.0800 
 29 H       -4.2210    -2.2650    -2.0030 H     1 <1>   0.0800 
 30 H       -5.5300    -0.4050    -1.6850 H     1 <1>   0.0800 
 31 H       -6.4760    -1.6170    -0.8530 H     1 <1>   0.0800 
 32 H       -6.9480     1.0810    -0.0360 H     1 <1>   0.0800 
 33 H       -6.4610     1.0540     1.6480 H     1 <1>   0.0800 
 34 H       -7.3310    -1.2400     3.1600 H     1 <1>   0.1500 
 35 H       -8.4650     0.1500    -1.6480 H     1 <1>   0.1500 
 36 H       -9.3440    -2.7500     2.7930 H     1 <1>   0.2700 
 37 H      -11.1010    -3.3200     0.6990 H     1 <1>   0.1500 
 38 H      -10.3550    -0.9590    -2.7740 H     1 <1>   0.1500 
 39 H      -11.6550    -2.6750    -1.6210 H     1 <1>   0.1500 
@<TRIPOS>BOND
  1   1   2  1   
  2   1  19  1   
  3   2   3  1   
  4   2  20  1   
  5   2  21  1   
  6   3   4  1   
  7   3   5  1   
  8   3  22  1   
  9   4   6  1   
 10   4  23  1   
 11   4  24  1   
 12   5   7  1   
 13   5  25  1   
 14   5  26  1   
 15   6   8  1   
 16   6   9  1   
 17   6  27  1   
 18   7   8  1   
 19   7  28  1   
 20   7  29  1   
 21   8  30  1   
 22   8  31  1   
 23   9  10  1   
 24   9  32  1   
 25   9  33  1   
 26  10  11  1   
 27  10  12  2   
 28  11  13  ar  
 29  11  14  ar  
 30  12  15  1   
 31  12  34  1   
 32  13  15  1   
 33  13  16  ar  
 34  14  17  ar  
 35  14  35  1   
 36  15  36  1   
 37  16  18  ar  
 38  16  37  1   
 39  17  18  ar  
 40  17  38  1   
 41  18  39  1   
@<TRIPOS>SUBSTRUCTURE
  1 ****   6 GROUP 4 **** **** 0

# MOE 2024.06 (io_trps.svl 2023.06)
