@<TRIPOS>MOLECULE
NONAME
44 45 1 0 0 
SMALL
USER_CHARGES


@<TRIPOS>ATOM
  1 CL      -0.3940     0.2130    -0.7360 Cl    1 <1>  -0.1770 
  2 C       -1.8170    -0.7450    -0.4250 C.ar  1 <1>   0.1770 
  3 C       -2.9550    -0.1230     0.0530 C.ar  1 <1>  -0.1500 
  4 C       -1.7870    -2.1050    -0.6620 C.ar  1 <1>  -0.1500 
  5 C       -4.0940    -0.8770     0.3000 C.ar  1 <1>  -0.1440 
  6 C       -2.9200    -2.8620    -0.4180 C.ar  1 <1>  -0.1500 
  7 C       -4.0780    -2.2510     0.0620 C.ar  1 <1>   0.0830 
  8 C       -5.3440    -0.2100     0.8360 C.3   1 <1>   0.4870 
  9 O       -5.2260    -2.9370     0.3080 O.3   1 <1>  -0.3630 
 10 N       -6.4160    -0.4300    -0.1530 N.4   1 <1>  -0.9060 
 11 C       -5.2440    -4.3500     0.3340 C.3   1 <1>   0.1200 
 12 C       -7.7500     0.0480     0.2980 C.3   1 <1>   0.3430 
 13 C       -6.6410    -4.7940     0.7560 C.3   1 <1>  -0.2400 
 14 C       -8.8430    -0.3050    -0.7180 C.3   1 <1>   0.1100 
 15 N      -10.1570     0.0800    -0.1920 N.3   1 <1>  -0.8100 
 16 C      -11.2420    -0.6660    -0.8710 C.3   1 <1>   0.1100 
 17 C      -10.4240     1.5340    -0.3150 C.3   1 <1>   0.1100 
 18 C      -12.6290    -0.2370    -0.3580 C.3   1 <1>   0.1200 
 19 C      -11.8360     1.8900     0.1860 C.3   1 <1>   0.1200 
 20 O      -12.7940     1.1430    -0.5030 O.3   1 <1>  -0.5600 
 21 H       -2.9240     0.9390     0.2260 H     1 <1>   0.1500 
 22 H       -0.8840    -2.5610    -1.0330 H     1 <1>   0.1500 
 23 H       -2.8760    -3.9180    -0.6120 H     1 <1>   0.1500 
 24 H       -5.1740     0.8440     0.9840 H     1 <1>   0.0800 
 25 H       -5.6090    -0.6600     1.7800 H     1 <1>   0.0800 
 26 H       -6.4250    -1.4560    -0.2920 H     1 <1>   0.4500 
 27 H       -6.1360    -0.0170    -1.0490 H     1 <1>   0.4500 
 28 H       -4.5070    -4.6910     1.0420 H     1 <1>   0.0800 
 29 H       -5.0110    -4.7190    -0.6510 H     1 <1>   0.0800 
 30 H       -7.7290     1.1170     0.4360 H     1 <1>   0.0800 
 31 H       -8.0020    -0.4140     1.2390 H     1 <1>   0.0800 
 32 H       -6.8760    -4.4140     1.7340 H     1 <1>   0.0800 
 33 H       -6.6790    -5.8690     0.7950 H     1 <1>   0.0800 
 34 H       -7.3750    -4.4570     0.0470 H     1 <1>   0.0800 
 35 H       -8.8310    -1.3710    -0.8730 H     1 <1>   0.0800 
 36 H       -8.6680     0.1860    -1.6610 H     1 <1>   0.0800 
 37 H      -11.1220    -1.7210    -0.6950 H     1 <1>   0.0800 
 38 H      -11.2020    -0.4950    -1.9340 H     1 <1>   0.0800 
 39 H      -10.3420     1.8410    -1.3450 H     1 <1>   0.0800 
 40 H       -9.7080     2.0920     0.2620 H     1 <1>   0.0800 
 41 H      -12.7470    -0.4930     0.6810 H     1 <1>   0.0800 
 42 H      -13.4050    -0.7210    -0.9250 H     1 <1>   0.0800 
 43 H      -12.0460     2.9300     0.0120 H     1 <1>   0.0800 
 44 H      -11.9310     1.6870     1.2380 H     1 <1>   0.0800 
@<TRIPOS>BOND
  1   1   2  1   
  2   2   3  ar  
  3   2   4  ar  
  4   3   5  ar  
  5   3  21  1   
  6   4   6  ar  
  7   4  22  1   
  8   5   7  ar  
  9   5   8  1   
 10   6   7  ar  
 11   6  23  1   
 12   7   9  1   
 13   8  10  1   
 14   8  24  1   
 15   8  25  1   
 16   9  11  1   
 17  10  12  1   
 18  10  26  1   
 19  10  27  1   
 20  11  13  1   
 21  11  28  1   
 22  11  29  1   
 23  12  14  1   
 24  12  30  1   
 25  12  31  1   
 26  13  32  1   
 27  13  33  1   
 28  13  34  1   
 29  14  15  1   
 30  14  35  1   
 31  14  36  1   
 32  15  16  1   
 33  15  17  1   
 34  16  18  1   
 35  16  37  1   
 36  16  38  1   
 37  17  19  1   
 38  17  39  1   
 39  17  40  1   
 40  18  20  1   
 41  18  41  1   
 42  18  42  1   
 43  19  20  1   
 44  19  43  1   
 45  19  44  1   
@<TRIPOS>SUBSTRUCTURE
  1 ****  10 GROUP 4 **** **** 0

# MOE 2024.06 (io_trps.svl 2023.06)
