@<TRIPOS>MOLECULE
NONAME
42 44 1 0 0 
SMALL
USER_CHARGES


@<TRIPOS>ATOM
  1 O       -0.2820    -0.1940     1.0330 O.co2 1 <1>  -0.9000 
  2 C        0.1240    -1.1070     0.3100 C.2   1 <1>   0.9060 
  3 O       -0.2880    -1.2630    -0.8420 O.co2 1 <1>  -0.9000 
  4 C        1.2360    -1.9690     0.8730 C.3   1 <1>  -0.1860 
  5 C        2.7890    -1.3560     0.6260 C.3   1 <1>  -0.0190 
  6 C        1.2030    -3.5120     0.3120 C.3   1 <1>  -0.0800 
  7 C        2.9930     0.0920     0.1250 C.2   1 <1>   0.5690 
  8 C        3.6070    -2.4870    -0.2500 C.3   1 <1>  -0.0800 
  9 C        2.4130    -3.0090     0.0540 C.3   1 <1>  -0.1600 
 10 C        2.0510    -4.6370    -0.5160 C.3   1 <1>  -0.1600 
 11 O        4.0180     0.3230    -0.4780 O.2   1 <1>  -0.5700 
 12 N        2.1120     1.1000     0.4300 N.am  1 <1>  -0.5470 
 13 C        3.5930    -4.0390    -0.7580 C.3   1 <1>  -0.1600 
 14 C        2.2300     2.4890     0.1850 C.ar  1 <1>   0.1170 
 15 C        1.1130     3.2870    -0.1080 C.ar  1 <1>   0.0830 
 16 C        3.4680     3.1230     0.2580 C.ar  1 <1>  -0.1500 
 17 O       -0.1450     2.7880    -0.1700 O.3   1 <1>  -0.3630 
 18 C        1.2490     4.6490    -0.3150 C.ar  1 <1>  -0.1500 
 19 C        3.6110     4.4850     0.0430 C.ar  1 <1>  -0.1430 
 20 C       -0.4550     1.9010    -1.2280 C.3   1 <1>   0.0400 
 21 C        2.4940     5.2490    -0.2450 C.ar  1 <1>  -0.1500 
 22 C        4.9840     5.1250     0.1220 C.3   1 <1>  -0.0970 
 23 H        1.0560    -1.9850     1.9350 H     1 <1>   0.0800 
 24 H        3.2520    -1.3270     1.6010 H     1 <1>   0.0800 
 25 H        0.9900    -4.0500     1.2250 H     1 <1>   0.0800 
 26 H        3.7650    -1.9810    -1.1940 H     1 <1>   0.0800 
 27 H        1.9990    -2.5940    -0.9670 H     1 <1>   0.0800 
 28 H        2.8100    -3.4120     1.0830 H     1 <1>   0.0800 
 29 H        1.5720    -4.8220    -1.4660 H     1 <1>   0.0800 
 30 H        2.0850    -5.5720     0.0200 H     1 <1>   0.0800 
 31 H        1.1590     0.8000     0.7280 H     1 <1>   0.3700 
 32 H        4.3100    -4.6190    -0.1980 H     1 <1>   0.0800 
 33 H        3.8620    -4.1040    -1.8000 H     1 <1>   0.0800 
 34 H        4.3370     2.5370     0.4900 H     1 <1>   0.1500 
 35 H        0.3730     5.2320    -0.5280 H     1 <1>   0.1500 
 36 H       -1.3170     1.3250    -0.9400 H     1 <1>   0.0800 
 37 H        0.3650     1.2320    -1.4100 H     1 <1>   0.0800 
 38 H       -0.6640     2.4760    -2.1100 H     1 <1>   0.0800 
 39 H        2.5840     6.3070    -0.4140 H     1 <1>   0.1500 
 40 H        5.4820     5.0290    -0.8250 H     1 <1>   0.0800 
 41 H        5.5770     4.6400     0.8770 H     1 <1>   0.0800 
 42 H        4.9030     6.1680     0.3710 H     1 <1>   0.0800 
@<TRIPOS>BOND
  1   1   2  ar  
  2   2   3  ar  
  3   2   4  1   
  4   4   5  1   
  5   4   6  1   
  6   4  23  1   
  7   5   7  1   
  8   5   8  1   
  9   5  24  1   
 10   6   9  1   
 11   6  10  1   
 12   6  25  1   
 13   7  11  2   
 14   7  12  am  
 15   8   9  1   
 16   8  13  1   
 17   8  26  1   
 18   9  27  1   
 19   9  28  1   
 20  10  13  1   
 21  10  29  1   
 22  10  30  1   
 23  12  14  1   
 24  12  31  1   
 25  13  32  1   
 26  13  33  1   
 27  14  15  ar  
 28  14  16  ar  
 29  15  17  1   
 30  15  18  ar  
 31  16  19  ar  
 32  16  34  1   
 33  17  20  1   
 34  18  21  ar  
 35  18  35  1   
 36  19  21  ar  
 37  19  22  1   
 38  20  36  1   
 39  20  37  1   
 40  20  38  1   
 41  21  39  1   
 42  22  40  1   
 43  22  41  1   
 44  22  42  1   
@<TRIPOS>SUBSTRUCTURE
  1 ****  12 GROUP 4 **** **** 0

# MOE 2024.06 (io_trps.svl 2023.06)
