@<TRIPOS>MOLECULE
NONAME
39 42 1 0 0 
SMALL
USER_CHARGES


@<TRIPOS>ATOM
  1 O        0.2310     0.2740    -0.3230 O.2   1 <1>  -0.5700 
  2 C        0.4520     1.4490    -0.1870 C.2   1 <1>   0.5690 
  3 N        1.6300     2.1470    -0.4100 N.am  1 <1>  -0.2370 
  4 C       -0.5510     2.4430     0.3030 C.3   1 <1>  -0.0190 
  5 C        2.9090     1.5740    -0.6010 C.ar  1 <1>   0.1170 
  6 C        1.3380     3.5050    -0.4120 C.2   1 <1>   0.5690 
  7 C       -2.0420     2.7040     0.4720 C.3   1 <1>   0.4180 
  8 C       -0.1470     3.6380    -0.5500 C.3   1 <1>  -0.0190 
  9 C        4.0270     2.0980     0.0410 C.ar  1 <1>  -0.1500 
 10 C        3.0780     0.4730    -1.4360 C.ar  1 <1>  -0.1500 
 11 O        2.0990     4.4360    -0.3470 O.2   1 <1>  -0.5700 
 12 O       -1.8790     4.0190     0.9030 O.3   1 <1>  -0.5600 
 13 C       -2.8070     3.0110    -0.8030 C.2   1 <1>  -0.2880 
 14 C       -2.7940     1.9020     1.5240 C.3   1 <1>  -0.2400 
 15 C       -1.3040     4.6020    -0.2220 C.3   1 <1>   0.4180 
 16 C        5.2860     1.5400    -0.1500 C.ar  1 <1>   0.0830 
 17 C        4.3260    -0.0910    -1.6250 C.ar  1 <1>  -0.1500 
 18 C       -2.3950     4.2140    -1.1980 C.2   1 <1>  -0.2880 
 19 C       -1.0290     6.0800    -0.0080 C.3   1 <1>  -0.2400 
 20 O        6.4150     2.0110     0.4360 O.3   1 <1>  -0.3630 
 21 C        5.4280     0.4420    -0.9830 C.ar  1 <1>  -0.1500 
 22 C        6.4070     3.2090     1.1810 C.3   1 <1>   0.0400 
 23 H       -0.1900     2.5900     1.3110 H     1 <1>   0.0800 
 24 H       -0.2700     3.4080    -1.5970 H     1 <1>   0.0800 
 25 H        3.8990     2.9440     0.6870 H     1 <1>   0.1500 
 26 H        2.2290     0.0470    -1.9420 H     1 <1>   0.1500 
 27 H       -3.5270     2.3190    -1.2030 H     1 <1>   0.1500 
 28 H       -2.2680     1.9210     2.4610 H     1 <1>   0.0800 
 29 H       -2.8880     0.8820     1.2000 H     1 <1>   0.0800 
 30 H       -3.7780     2.3130     1.6600 H     1 <1>   0.0800 
 31 H        4.4410    -0.9450    -2.2710 H     1 <1>   0.1500 
 32 H       -2.6640     4.8460    -2.0250 H     1 <1>   0.1500 
 33 H       -1.9400     6.5880     0.2510 H     1 <1>   0.0800 
 34 H       -0.6340     6.5110    -0.9100 H     1 <1>   0.0800 
 35 H       -0.3080     6.2090     0.7780 H     1 <1>   0.0800 
 36 H        6.4040     0.0130    -1.1230 H     1 <1>   0.1500 
 37 H        7.4150     3.4180     1.4890 H     1 <1>   0.0800 
 38 H        5.7800     3.0790     2.0450 H     1 <1>   0.0800 
 39 H        6.0430     4.0060     0.5560 H     1 <1>   0.0800 
@<TRIPOS>BOND
  1   1   2  2   
  2   2   3  am  
  3   2   4  1   
  4   3   5  1   
  5   3   6  am  
  6   4   7  1   
  7   4   8  1   
  8   4  23  1   
  9   5   9  ar  
 10   5  10  ar  
 11   6   8  1   
 12   6  11  2   
 13   7  12  1   
 14   7  13  1   
 15   7  14  1   
 16   8  15  1   
 17   8  24  1   
 18   9  16  ar  
 19   9  25  1   
 20  10  17  ar  
 21  10  26  1   
 22  12  15  1   
 23  13  18  2   
 24  13  27  1   
 25  14  28  1   
 26  14  29  1   
 27  14  30  1   
 28  15  18  1   
 29  15  19  1   
 30  16  20  1   
 31  16  21  ar  
 32  17  21  ar  
 33  17  31  1   
 34  18  32  1   
 35  19  33  1   
 36  19  34  1   
 37  19  35  1   
 38  20  22  1   
 39  21  36  1   
 40  22  37  1   
 41  22  38  1   
 42  22  39  1   
@<TRIPOS>SUBSTRUCTURE
  1 ****   3 GROUP 4 **** **** 0

# MOE 2024.06 (io_trps.svl 2023.06)
