@<TRIPOS>MOLECULE
NONAME
41 41 1 0 0 
SMALL
USER_CHARGES


@<TRIPOS>ATOM
  1 O       -7.4660    -3.9080     0.2810 O.3   1 <1>  -0.3630 
  2 C       -8.7870    -4.0980     0.0420 C.ar  1 <1>   0.0830 
  3 C       -6.5840    -5.0000     0.4290 C.3   1 <1>   0.1200 
  4 C       -9.5730    -2.9610    -0.0540 C.ar  1 <1>  -0.1500 
  5 C       -9.3770    -5.3500    -0.1090 C.ar  1 <1>  -0.1500 
  6 C       -5.1750    -4.4490     0.6870 C.3   1 <1>   0.2000 
  7 C      -10.9310    -3.0660    -0.2970 C.ar  1 <1>  -0.1500 
  8 C      -10.7360    -5.4500    -0.3530 C.ar  1 <1>  -0.1500 
  9 O       -4.8700    -3.5040    -0.2950 O.3   1 <1>  -0.6800 
 10 C       -4.0920    -5.5460     0.6670 C.3   1 <1>   0.3430 
 11 C      -11.5200    -4.3110    -0.4490 C.ar  1 <1>  -0.1440 
 12 N       -2.7660    -4.9350     0.3520 N.4   1 <1>  -0.9060 
 13 C      -13.0120    -4.4260    -0.7170 C.3   1 <1>  -0.0170 
 14 C       -1.7530    -5.8350    -0.2080 C.3   1 <1>   0.4230 
 15 C      -13.7870    -4.5230     0.5990 C.3   1 <1>  -0.2400 
 16 C       -0.4240    -5.0940    -0.1790 C.3   1 <1>  -0.2400 
 17 C       -2.1370    -6.1990    -1.6390 C.3   1 <1>  -0.2400 
 18 H       -6.6080    -5.5800    -0.4770 H     1 <1>   0.0800 
 19 H       -6.9200    -5.5970     1.2590 H     1 <1>   0.0800 
 20 H       -9.1220    -1.9940     0.0640 H     1 <1>   0.1500 
 21 H       -8.8070    -6.2560    -0.0420 H     1 <1>   0.1500 
 22 H       -5.1660    -3.9470     1.6400 H     1 <1>   0.0800 
 23 H      -11.5290    -2.1740    -0.3660 H     1 <1>   0.1500 
 24 H      -11.1860    -6.4210    -0.4660 H     1 <1>   0.1500 
 25 H       -5.6710    -2.9450    -0.4440 H     1 <1>   0.4000 
 26 H       -4.3520    -6.2590    -0.0970 H     1 <1>   0.0800 
 27 H       -4.0630    -6.0650     1.6120 H     1 <1>   0.0800 
 28 H       -2.3920    -4.4430     1.1680 H     1 <1>   0.4500 
 29 H       -2.9870    -4.1910    -0.3340 H     1 <1>   0.4500 
 30 H      -13.2070    -5.2990    -1.3160 H     1 <1>   0.0800 
 31 H      -13.3480    -3.5680    -1.2720 H     1 <1>   0.0800 
 32 H       -1.6760    -6.7290     0.3930 H     1 <1>   0.0800 
 33 H      -13.4710    -5.3880     1.1530 H     1 <1>   0.0800 
 34 H      -14.8420    -4.6020     0.4030 H     1 <1>   0.0800 
 35 H      -13.6100    -3.6470     1.1980 H     1 <1>   0.0800 
 36 H       -0.4650    -4.1940    -0.7670 H     1 <1>   0.0800 
 37 H        0.3490    -5.7220    -0.5870 H     1 <1>   0.0800 
 38 H       -0.1440    -4.8510     0.8310 H     1 <1>   0.0800 
 39 H       -2.2530    -5.3180    -2.2460 H     1 <1>   0.0800 
 40 H       -3.0440    -6.7740    -1.6680 H     1 <1>   0.0800 
 41 H       -1.3610    -6.8030    -2.0760 H     1 <1>   0.0800 
@<TRIPOS>BOND
  1   1   2  1   
  2   1   3  1   
  3   2   4  ar  
  4   2   5  ar  
  5   3   6  1   
  6   3  18  1   
  7   3  19  1   
  8   4   7  ar  
  9   4  20  1   
 10   5   8  ar  
 11   5  21  1   
 12   6   9  1   
 13   6  10  1   
 14   6  22  1   
 15   7  11  ar  
 16   7  23  1   
 17   8  11  ar  
 18   8  24  1   
 19   9  25  1   
 20  10  12  1   
 21  10  26  1   
 22  10  27  1   
 23  11  13  1   
 24  12  14  1   
 25  12  28  1   
 26  12  29  1   
 27  13  15  1   
 28  13  30  1   
 29  13  31  1   
 30  14  16  1   
 31  14  17  1   
 32  14  32  1   
 33  15  33  1   
 34  15  34  1   
 35  15  35  1   
 36  16  36  1   
 37  16  37  1   
 38  16  38  1   
 39  17  39  1   
 40  17  40  1   
 41  17  41  1   
@<TRIPOS>SUBSTRUCTURE
  1 ****   1 GROUP 4 **** **** 0

# MOE 2024.06 (io_trps.svl 2023.06)
