@<TRIPOS>MOLECULE
NONAME
33 34 1 0 0 
SMALL
USER_CHARGES


@<TRIPOS>ATOM
  1 S        0.0500    -0.2260    -0.0640 S.3   1 <1>  -0.0800 
  2 C        1.6120     0.5650     0.0000 C.ar  1 <1>   0.0400 
  3 C       -0.7290     1.3330     0.1920 C.2   1 <1>   0.1980 
  4 C        1.3970     1.9140     0.2070 C.ar  1 <1>   0.2270 
  5 C        2.8650     0.0000    -0.1250 C.ar  1 <1>  -0.1500 
  6 N        0.0670     2.3140     0.3100 N.2   1 <1>  -0.5650 
  7 C       -2.2390     1.3410     0.2440 C.3   1 <1>  -0.0600 
  8 C        2.5060     2.7410     0.2910 C.ar  1 <1>  -0.1500 
  9 C        3.9780     0.8300    -0.0390 C.ar  1 <1>   0.1170 
 10 C        3.7760     2.2010     0.1670 C.ar  1 <1>  -0.1500 
 11 N        5.2490     0.2560    -0.1800 N.am  1 <1>  -0.5470 
 12 C        6.4950     0.6870     0.1990 C.2   1 <1>   0.5690 
 13 O        6.6690     1.7250     0.7930 O.2   1 <1>  -0.5700 
 14 C        7.7280    -0.1930    -0.1360 C.3   1 <1>   0.0610 
 15 C        8.6940     0.5920    -1.0430 C.3   1 <1>  -0.2400 
 16 C        7.3620    -1.5070    -0.8630 C.3   1 <1>  -0.2400 
 17 C        8.4700    -0.5680     1.1610 C.3   1 <1>  -0.2400 
 18 H        2.9650    -1.0570    -0.2820 H     1 <1>   0.1500 
 19 H       -2.6380     0.9740    -0.6830 H     1 <1>   0.0800 
 20 H       -2.5900     2.3440     0.4030 H     1 <1>   0.0800 
 21 H       -2.5790     0.7190     1.0500 H     1 <1>   0.0800 
 22 H        2.3600     3.7940     0.4510 H     1 <1>   0.1500 
 23 H        4.6240     2.8600     0.2280 H     1 <1>   0.1500 
 24 H        5.2520    -0.6660    -0.6100 H     1 <1>   0.3700 
 25 H        8.2060     0.8670    -1.9610 H     1 <1>   0.0800 
 26 H        9.5660     0.0070    -1.2770 H     1 <1>   0.0800 
 27 H        9.0140     1.4950    -0.5520 H     1 <1>   0.0800 
 28 H        8.2500    -2.0780    -1.0730 H     1 <1>   0.0800 
 29 H        6.7160    -2.1140    -0.2530 H     1 <1>   0.0800 
 30 H        6.8740    -1.3020    -1.8000 H     1 <1>   0.0800 
 31 H        8.7910     0.3210     1.6770 H     1 <1>   0.0800 
 32 H        9.3380    -1.1680     0.9510 H     1 <1>   0.0800 
 33 H        7.8210    -1.1180     1.8190 H     1 <1>   0.0800 
@<TRIPOS>BOND
  1   1   2  1   
  2   1   3  1   
  3   2   4  ar  
  4   2   5  ar  
  5   3   6  2   
  6   3   7  1   
  7   4   6  1   
  8   4   8  ar  
  9   5   9  ar  
 10   5  18  1   
 11   7  19  1   
 12   7  20  1   
 13   7  21  1   
 14   8  10  ar  
 15   8  22  1   
 16   9  10  ar  
 17   9  11  1   
 18  10  23  1   
 19  11  12  am  
 20  11  24  1   
 21  12  13  2   
 22  12  14  1   
 23  14  15  1   
 24  14  16  1   
 25  14  17  1   
 26  15  25  1   
 27  15  26  1   
 28  15  27  1   
 29  16  28  1   
 30  16  29  1   
 31  16  30  1   
 32  17  31  1   
 33  17  32  1   
 34  17  33  1   
@<TRIPOS>SUBSTRUCTURE
  1 ****   9 GROUP 4 **** **** 0

# MOE 2024.06 (io_trps.svl 2023.06)
