@<TRIPOS>MOLECULE
NONAME
37 38 1 0 0 
SMALL
USER_CHARGES


@<TRIPOS>ATOM
  1 F        1.0940    -0.3640     1.0780 F     1 <1>  -0.1900 
  2 C        2.0560    -1.0500     0.5140 C.ar  1 <1>   0.1900 
  3 C        1.8070    -2.3560     0.1130 C.ar  1 <1>  -0.1440 
  4 C        3.2800    -0.4360     0.3430 C.ar  1 <1>  -0.1500 
  5 C        2.8460    -3.0550    -0.4820 C.ar  1 <1>  -0.1500 
  6 C        0.4460    -3.0050     0.3180 C.3   1 <1>  -0.0960 
  7 C        4.3130    -1.1430    -0.2570 C.ar  1 <1>   0.1170 
  8 C        4.0800    -2.4520    -0.6620 C.ar  1 <1>  -0.1500 
  9 N        5.5780    -0.5950    -0.4880 N.am  1 <1>  -0.5470 
 10 C        6.3120     0.3180     0.2120 C.2   1 <1>   0.5690 
 11 O        5.8620     0.8770     1.1870 O.2   1 <1>  -0.5700 
 12 C        7.7210     0.6840    -0.3160 C.3   1 <1>  -0.0190 
 13 C        8.7820    -0.4650    -0.3280 C.3   1 <1>  -0.1860 
 14 C        8.2850     1.9660     0.3680 C.3   1 <1>  -0.1600 
 15 C        8.2160    -1.8280    -0.7120 C.2   1 <1>   0.9060 
 16 C        9.6190    -0.4520     0.9680 C.3   1 <1>  -0.1600 
 17 C        9.8160     2.0380     0.3350 C.3   1 <1>  -0.1600 
 18 O        8.3540    -2.8060     0.0240 O.co2 1 <1>  -0.9000 
 19 O        7.5820    -1.8990    -1.7740 O.co2 1 <1>  -0.9000 
 20 C       10.4290     0.8530     1.1050 C.3   1 <1>  -0.1600 
 21 H        3.4280     0.5760     0.6690 H     1 <1>   0.1500 
 22 H        2.7080    -4.0710    -0.8070 H     1 <1>   0.1500 
 23 H        0.4400    -4.0130    -0.0550 H     1 <1>   0.0800 
 24 H       -0.3090    -2.4420    -0.2000 H     1 <1>   0.0800 
 25 H        0.2060    -3.0240     1.3660 H     1 <1>   0.0800 
 26 H        4.8900    -3.0000    -1.1180 H     1 <1>   0.1500 
 27 H        6.1570    -1.1420    -1.1570 H     1 <1>   0.3700 
 28 H        7.5670     0.9330    -1.3500 H     1 <1>   0.0800 
 29 H        9.4670    -0.2530    -1.1270 H     1 <1>   0.0800 
 30 H        7.9980     1.9880     1.4050 H     1 <1>   0.0800 
 31 H        7.8590     2.8360    -0.1010 H     1 <1>   0.0800 
 32 H       10.2880    -1.2960     0.9810 H     1 <1>   0.0800 
 33 H        8.9490    -0.5620     1.8050 H     1 <1>   0.0800 
 34 H       10.1520     2.9630     0.7690 H     1 <1>   0.0800 
 35 H       10.1470     2.0160    -0.6900 H     1 <1>   0.0800 
 36 H       11.4290     0.6900     0.7430 H     1 <1>   0.0800 
 37 H       10.4990     1.1000     2.1500 H     1 <1>   0.0800 
@<TRIPOS>BOND
  1   1   2  1   
  2   2   3  ar  
  3   2   4  ar  
  4   3   5  ar  
  5   3   6  1   
  6   4   7  ar  
  7   4  21  1   
  8   5   8  ar  
  9   5  22  1   
 10   6  23  1   
 11   6  24  1   
 12   6  25  1   
 13   7   8  ar  
 14   7   9  1   
 15   8  26  1   
 16   9  10  am  
 17   9  27  1   
 18  10  11  2   
 19  10  12  1   
 20  12  13  1   
 21  12  14  1   
 22  12  28  1   
 23  13  15  1   
 24  13  16  1   
 25  13  29  1   
 26  14  17  1   
 27  14  30  1   
 28  14  31  1   
 29  15  18  ar  
 30  15  19  ar  
 31  16  20  1   
 32  16  32  1   
 33  16  33  1   
 34  17  20  1   
 35  17  34  1   
 36  17  35  1   
 37  20  36  1   
 38  20  37  1   
@<TRIPOS>SUBSTRUCTURE
  1 ****   9 GROUP 4 **** **** 0

# MOE 2024.06 (io_trps.svl 2023.06)
