@<TRIPOS>MOLECULE
NONAME
34 36 1 0 0 
SMALL
USER_CHARGES


@<TRIPOS>ATOM
  1 O       -0.5790     0.4360    -0.4020 O.3   1 <1>  -0.2800 
  2 C       -1.6330     0.6620     0.3610 C.2   1 <1>  -0.0400 
  3 C        0.2810     1.4140    -0.2030 C.2   1 <1>  -0.0400 
  4 C       -1.4590     1.8000     1.0700 C.2   1 <1>  -0.1500 
  5 C       -2.7820    -0.3310     0.3160 C.3   1 <1>   0.3890 
  6 C       -0.2030     2.2940     0.6980 C.2   1 <1>  -0.1500 
  7 C        1.5870     1.3960    -0.9650 C.3   1 <1>  -0.0600 
  8 N       -3.9770     0.2270     0.9920 N.pl3 1 <1>  -0.8690 
  9 C       -5.1980    -0.3760     0.7240 C.ar  1 <1>   0.1000 
 10 C       -6.2450     0.3790     0.2070 C.ar  1 <1>  -0.1500 
 11 C       -5.3990    -1.7340     0.9660 C.ar  1 <1>  -0.1500 
 12 C       -7.4540    -0.2280    -0.0720 C.ar  1 <1>  -0.1430 
 13 C       -6.6130    -2.3370     0.6840 C.ar  1 <1>  -0.1500 
 14 C       -7.6370    -1.5680     0.1610 C.ar  1 <1>  -0.1430 
 15 C       -8.7020     0.4050    -0.6350 C.3   1 <1>  -0.0170 
 16 C       -9.0290    -2.0070    -0.2160 C.3   1 <1>  -0.0170 
 17 C       -9.7760    -0.6780    -0.4290 C.3   1 <1>  -0.1600 
 18 H       -2.1210     2.2550     1.7850 H     1 <1>   0.1500 
 19 H       -2.4820    -1.2440     0.7990 H     1 <1>   0.0800 
 20 H       -3.0220    -0.5480    -0.7110 H     1 <1>   0.0800 
 21 H        0.2500     3.1920     1.0760 H     1 <1>   0.1500 
 22 H        2.1320     0.5000    -0.7280 H     1 <1>   0.0800 
 23 H        2.1830     2.2500    -0.7020 H     1 <1>   0.0800 
 24 H        1.3910     1.4160    -2.0210 H     1 <1>   0.0800 
 25 H       -3.9920     1.2390     0.8480 H     1 <1>   0.4000 
 26 H       -6.1110     1.4280     0.0230 H     1 <1>   0.1500 
 27 H       -4.5990    -2.3150     1.3840 H     1 <1>   0.1500 
 28 H       -6.7600    -3.3850     0.8720 H     1 <1>   0.1500 
 29 H       -8.5590     0.6040    -1.6830 H     1 <1>   0.0800 
 30 H       -8.9520     1.3140    -0.1190 H     1 <1>   0.0800 
 31 H       -9.4830    -2.5960     0.5610 H     1 <1>   0.0800 
 32 H       -8.9900    -2.5720    -1.1310 H     1 <1>   0.0800 
 33 H      -10.4570    -0.7300    -1.2600 H     1 <1>   0.0800 
 34 H      -10.3300    -0.4480     0.4650 H     1 <1>   0.0800 
@<TRIPOS>BOND
  1   1   2  1   
  2   1   3  1   
  3   2   4  2   
  4   2   5  1   
  5   3   6  2   
  6   3   7  1   
  7   4   6  1   
  8   4  18  1   
  9   5   8  1   
 10   5  19  1   
 11   5  20  1   
 12   6  21  1   
 13   7  22  1   
 14   7  23  1   
 15   7  24  1   
 16   8   9  1   
 17   8  25  1   
 18   9  10  ar  
 19   9  11  ar  
 20  10  12  ar  
 21  10  26  1   
 22  11  13  ar  
 23  11  27  1   
 24  12  14  ar  
 25  12  15  1   
 26  13  14  ar  
 27  13  28  1   
 28  14  16  1   
 29  15  17  1   
 30  15  29  1   
 31  15  30  1   
 32  16  17  1   
 33  16  31  1   
 34  16  32  1   
 35  17  33  1   
 36  17  34  1   
@<TRIPOS>SUBSTRUCTURE
  1 ****   8 GROUP 4 **** **** 0

# MOE 2024.06 (io_trps.svl 2023.06)
