@<TRIPOS>MOLECULE
NONAME
37 39 1 0 0 
SMALL
USER_CHARGES


@<TRIPOS>ATOM
  1 O        1.8500    -0.9860     1.6030 O.3   1 <1>  -0.3370 
  2 N        1.3240    -1.9640     0.8960 N.2   1 <1>  -0.5130 
  3 C        0.7850    -2.9180     0.2600 C.2   1 <1>   0.3280 
  4 C       -0.7510    -2.9810     0.0310 C.3   1 <1>   0.0610 
  5 C        1.6480    -4.0740    -0.2990 C.3   1 <1>   0.2610 
  6 C       -1.4250    -3.8350     1.1340 C.3   1 <1>  -0.1600 
  7 C       -1.1320    -3.5870    -1.3480 C.3   1 <1>  -0.1600 
  8 C       -1.3720    -1.5560     0.0990 C.3   1 <1>  -0.1600 
  9 O        1.4180    -5.2460     0.4060 O.3   1 <1>  -0.6800 
 10 C        3.1610    -3.8360    -0.2340 C.3   1 <1>  -0.2400 
 11 C       -2.9550    -3.8810     0.9510 C.3   1 <1>  -0.0800 
 12 C       -2.6590    -3.6300    -1.5420 C.3   1 <1>  -0.0800 
 13 C       -2.8980    -1.5880    -0.0910 C.3   1 <1>  -0.0800 
 14 C       -3.2820    -4.4880    -0.4250 C.3   1 <1>  -0.1600 
 15 C       -3.5210    -2.4520     1.0190 C.3   1 <1>  -0.1600 
 16 C       -3.2240    -2.2020    -1.4630 C.3   1 <1>  -0.1600 
 17 H        1.4240    -0.1140     1.4840 H     1 <1>   0.4000 
 18 H        1.3910    -4.2580    -1.3260 H     1 <1>   0.0800 
 19 H       -1.1890    -3.4240     2.1010 H     1 <1>   0.0800 
 20 H       -1.0430    -4.8400     1.1090 H     1 <1>   0.0800 
 21 H       -0.6850    -3.0090    -2.1370 H     1 <1>   0.0800 
 22 H       -0.7650    -4.5960    -1.4250 H     1 <1>   0.0800 
 23 H       -1.1570    -1.1090     1.0530 H     1 <1>   0.0800 
 24 H       -0.9280    -0.9330    -0.6580 H     1 <1>   0.0800 
 25 H        1.6860    -5.1080     1.3350 H     1 <1>   0.4000 
 26 H        3.4800    -3.6830     0.7820 H     1 <1>   0.0800 
 27 H        3.4100    -2.9550    -0.7980 H     1 <1>   0.0800 
 28 H        3.6890    -4.6710    -0.6580 H     1 <1>   0.0800 
 29 H       -3.3950    -4.4840     1.7280 H     1 <1>   0.0800 
 30 H       -2.8920    -4.0600    -2.5010 H     1 <1>   0.0800 
 31 H       -3.2930    -0.5880    -0.0380 H     1 <1>   0.0800 
 32 H       -4.3490    -4.5370    -0.5570 H     1 <1>   0.0800 
 33 H       -2.9010    -5.4930    -0.4810 H     1 <1>   0.0800 
 34 H       -3.3070    -2.0210     1.9820 H     1 <1>   0.0800 
 35 H       -4.5910    -2.4780     0.9040 H     1 <1>   0.0800 
 36 H       -2.8000    -1.5970    -2.2450 H     1 <1>   0.0800 
 37 H       -4.2900    -2.2240    -1.6080 H     1 <1>   0.0800 
@<TRIPOS>BOND
  1   1   2  1   
  2   1  17  1   
  3   2   3  2   
  4   3   4  1   
  5   3   5  1   
  6   4   6  1   
  7   4   7  1   
  8   4   8  1   
  9   5   9  1   
 10   5  10  1   
 11   5  18  1   
 12   6  11  1   
 13   6  19  1   
 14   6  20  1   
 15   7  12  1   
 16   7  21  1   
 17   7  22  1   
 18   8  13  1   
 19   8  23  1   
 20   8  24  1   
 21   9  25  1   
 22  10  26  1   
 23  10  27  1   
 24  10  28  1   
 25  11  14  1   
 26  11  15  1   
 27  11  29  1   
 28  12  14  1   
 29  12  16  1   
 30  12  30  1   
 31  13  15  1   
 32  13  16  1   
 33  13  31  1   
 34  14  32  1   
 35  14  33  1   
 36  15  34  1   
 37  15  35  1   
 38  16  36  1   
 39  16  37  1   
@<TRIPOS>SUBSTRUCTURE
  1 ****   4 GROUP 4 **** **** 0

# MOE 2024.06 (io_trps.svl 2023.06)
