@<TRIPOS>MOLECULE
NONAME
38 40 1 0 0 
SMALL
USER_CHARGES


@<TRIPOS>ATOM
  1 CL       1.2470     0.6500     3.8500 Cl    1 <1>  -0.1770 
  2 C        2.4630     0.4010     2.6250 C.ar  1 <1>   0.1770 
  3 C        3.6530    -0.2100     2.9620 C.ar  1 <1>  -0.1500 
  4 C        2.2210     0.8160     1.3320 C.ar  1 <1>  -0.1500 
  5 C        4.6180    -0.4050     1.9890 C.ar  1 <1>  -0.1500 
  6 C        3.1900     0.6160     0.3640 C.ar  1 <1>  -0.1500 
  7 C        4.4090     0.0100     0.6710 C.ar  1 <1>  -0.1430 
  8 C        5.4570    -0.2020    -0.4610 C.3   1 <1>   0.4240 
  9 O        5.2920     0.8480    -1.3810 O.3   1 <1>  -0.4300 
 10 C        5.5410    -1.6860    -0.8930 C.3   1 <1>   0.0610 
 11 C        6.9160     0.0340    -0.1330 C.3   1 <1>   0.2000 
 12 C        6.0040     1.9070    -0.9720 C.2   1 <1>   0.6590 
 13 C        6.6260    -2.1100     0.1330 C.2   1 <1>   0.6590 
 14 C        4.2260    -2.4890    -0.7240 C.3   1 <1>  -0.2400 
 15 C        6.0100    -1.8860    -2.3590 C.3   1 <1>  -0.2400 
 16 O        7.2820    -1.0620     0.6410 O.3   1 <1>  -0.4300 
 17 C        7.0560     1.5320     0.0970 C.3   1 <1>   0.0610 
 18 O        5.8550     3.0030    -1.4360 O.2   1 <1>  -0.5700 
 19 O        6.8560    -3.2390     0.4660 O.2   1 <1>  -0.5700 
 20 C        6.7230     2.0490     1.5130 C.3   1 <1>  -0.2400 
 21 C        8.4780     2.0060    -0.2760 C.3   1 <1>  -0.2400 
 22 H        3.8180    -0.5290     3.9760 H     1 <1>   0.1500 
 23 H        1.2860     1.2880     1.0890 H     1 <1>   0.1500 
 24 H        5.5290    -0.8870     2.2980 H     1 <1>   0.1500 
 25 H        2.9730     0.9420    -0.6400 H     1 <1>   0.1500 
 26 H        7.4800    -0.1220    -1.0360 H     1 <1>   0.0800 
 27 H        3.9110    -2.5270     0.3040 H     1 <1>   0.0800 
 28 H        4.3660    -3.5060    -1.0470 H     1 <1>   0.0800 
 29 H        3.4370    -2.0500    -1.3110 H     1 <1>   0.0800 
 30 H        6.9580    -1.4280    -2.5650 H     1 <1>   0.0800 
 31 H        5.2830    -1.4760    -3.0380 H     1 <1>   0.0800 
 32 H        6.1120    -2.9370    -2.5700 H     1 <1>   0.0800 
 33 H        5.6740     1.9980     1.7290 H     1 <1>   0.0800 
 34 H        7.0020     3.0850     1.6020 H     1 <1>   0.0800 
 35 H        7.2630     1.4880     2.2560 H     1 <1>   0.0800 
 36 H        8.7390     1.7120    -1.2780 H     1 <1>   0.0800 
 37 H        9.2030     1.5930     0.4040 H     1 <1>   0.0800 
 38 H        8.5360     3.0800    -0.2280 H     1 <1>   0.0800 
@<TRIPOS>BOND
  1   1   2  1   
  2   2   3  ar  
  3   2   4  ar  
  4   3   5  ar  
  5   3  22  1   
  6   4   6  ar  
  7   4  23  1   
  8   5   7  ar  
  9   5  24  1   
 10   6   7  ar  
 11   6  25  1   
 12   7   8  1   
 13   8   9  1   
 14   8  10  1   
 15   8  11  1   
 16   9  12  1   
 17  10  13  1   
 18  10  14  1   
 19  10  15  1   
 20  11  16  1   
 21  11  17  1   
 22  11  26  1   
 23  12  17  1   
 24  12  18  2   
 25  13  16  1   
 26  13  19  2   
 27  14  27  1   
 28  14  28  1   
 29  14  29  1   
 30  15  30  1   
 31  15  31  1   
 32  15  32  1   
 33  17  20  1   
 34  17  21  1   
 35  20  33  1   
 36  20  34  1   
 37  20  35  1   
 38  21  36  1   
 39  21  37  1   
 40  21  38  1   
@<TRIPOS>SUBSTRUCTURE
  1 ****   7 GROUP 4 **** **** 0

# MOE 2024.06 (io_trps.svl 2023.06)
