@<TRIPOS>MOLECULE
NONAME
46 47 1 0 0 
SMALL
USER_CHARGES


@<TRIPOS>ATOM
  1 N        2.9680    -2.8020    -0.6020 N.4   1 <1>  -0.9590 
  2 C        1.7450    -3.6330    -0.3340 C.3   1 <1>   0.4230 
  3 C        4.0230    -2.8520     0.4760 C.3   1 <1>   0.4230 
  4 C        2.6540    -1.3800    -0.9730 C.3   1 <1>   0.3430 
  5 C        0.8880    -3.7850    -1.5940 C.3   1 <1>  -0.1600 
  6 C        0.8990    -3.0830     0.8200 C.3   1 <1>  -0.1600 
  7 C        5.2930    -2.1430    -0.0310 C.3   1 <1>  -0.1600 
  8 C        4.3330    -4.3110     0.8870 C.3   1 <1>  -0.1600 
  9 C        3.8960    -0.6910    -1.5280 C.3   1 <1>  -0.1600 
 10 C       -0.3100    -4.6940    -1.3140 C.3   1 <1>   0.3430 
 11 C       -0.3070    -3.9880     1.0780 C.3   1 <1>   0.3430 
 12 C        5.0320    -0.7100    -0.5060 C.3   1 <1>  -0.1600 
 13 C        5.4470    -4.4530     1.9370 C.3   1 <1>  -0.2400 
 14 N       -1.1090    -4.1530    -0.1740 N.4   1 <1>  -0.9590 
 15 C       -2.3030    -5.0190     0.0550 C.3   1 <1>   0.3430 
 16 C       -3.3370    -4.2640     0.8830 C.3   1 <1>  -0.2400 
 17 H        3.4390    -3.2010    -1.4240 H     1 <1>   0.4500 
 18 H        2.0650    -4.6260    -0.0640 H     1 <1>   0.0800 
 19 H        3.6660    -2.3220     1.3440 H     1 <1>   0.0800 
 20 H        2.3090    -0.8420    -0.1050 H     1 <1>   0.0800 
 21 H        1.8830    -1.3450    -1.7230 H     1 <1>   0.0800 
 22 H        1.4730    -4.2310    -2.3790 H     1 <1>   0.0800 
 23 H        0.5190    -2.8380    -1.9430 H     1 <1>   0.0800 
 24 H        0.5420    -2.0910     0.6070 H     1 <1>   0.0800 
 25 H        1.4830    -3.0440     1.7210 H     1 <1>   0.0800 
 26 H        5.7350    -2.7150    -0.8290 H     1 <1>   0.0800 
 27 H        6.0190    -2.0890     0.7610 H     1 <1>   0.0800 
 28 H        4.6140    -4.8840     0.0200 H     1 <1>   0.0800 
 29 H        3.4630    -4.7590     1.3270 H     1 <1>   0.0800 
 30 H        3.6560     0.3310    -1.7690 H     1 <1>   0.0800 
 31 H        4.2060    -1.1720    -2.4400 H     1 <1>   0.0800 
 32 H        0.0340    -5.6890    -1.0770 H     1 <1>   0.0800 
 33 H       -0.9280    -4.7580    -2.1970 H     1 <1>   0.0800 
 34 H       -0.9180    -3.5550     1.8540 H     1 <1>   0.0800 
 35 H        0.0300    -4.9540     1.4220 H     1 <1>   0.0800 
 36 H        5.9280    -0.3010    -0.9450 H     1 <1>   0.0800 
 37 H        4.7720    -0.0920     0.3370 H     1 <1>   0.0800 
 38 H        6.4110    -4.1990     1.5290 H     1 <1>   0.0800 
 39 H        5.5020    -5.4740     2.2760 H     1 <1>   0.0800 
 40 H        5.2550    -3.8280     2.7930 H     1 <1>   0.0800 
 41 H       -1.4850    -3.2320    -0.4470 H     1 <1>   0.4500 
 42 H       -2.0190    -5.9310     0.5580 H     1 <1>   0.0800 
 43 H       -2.7500    -5.2840    -0.8910 H     1 <1>   0.0800 
 44 H       -2.9830    -4.0620     1.8780 H     1 <1>   0.0800 
 45 H       -4.2210    -4.8710     0.9740 H     1 <1>   0.0800 
 46 H       -3.6210    -3.3440     0.4030 H     1 <1>   0.0800 
@<TRIPOS>BOND
  1   1   2  1   
  2   1   3  1   
  3   1   4  1   
  4   1  17  1   
  5   2   5  1   
  6   2   6  1   
  7   2  18  1   
  8   3   7  1   
  9   3   8  1   
 10   3  19  1   
 11   4   9  1   
 12   4  20  1   
 13   4  21  1   
 14   5  10  1   
 15   5  22  1   
 16   5  23  1   
 17   6  11  1   
 18   6  24  1   
 19   6  25  1   
 20   7  12  1   
 21   7  26  1   
 22   7  27  1   
 23   8  13  1   
 24   8  28  1   
 25   8  29  1   
 26   9  12  1   
 27   9  30  1   
 28   9  31  1   
 29  10  14  1   
 30  10  32  1   
 31  10  33  1   
 32  11  14  1   
 33  11  34  1   
 34  11  35  1   
 35  12  36  1   
 36  12  37  1   
 37  13  38  1   
 38  13  39  1   
 39  13  40  1   
 40  14  15  1   
 41  14  41  1   
 42  15  16  1   
 43  15  42  1   
 44  15  43  1   
 45  16  44  1   
 46  16  45  1   
 47  16  46  1   
@<TRIPOS>SUBSTRUCTURE
  1 ****   2 GROUP 4 **** **** 0

# MOE 2024.06 (io_trps.svl 2023.06)
