@<TRIPOS>MOLECULE
NONAME
33 33 1 0 0 
SMALL
USER_CHARGES


@<TRIPOS>ATOM
  1 CL       0.2300     0.1240    -1.3180 Cl    1 <1>  -0.1770 
  2 C        0.1310     1.7890    -0.7810 C.ar  1 <1>   0.1770 
  3 C        1.2880     2.4920    -0.4700 C.ar  1 <1>   0.0830 
  4 C       -1.1180     2.3680    -0.6800 C.ar  1 <1>  -0.1500 
  5 O        2.4850     1.8500    -0.5960 O.3   1 <1>  -0.3630 
  6 C        1.1710     3.8140    -0.0470 C.ar  1 <1>  -0.1500 
  7 C       -1.2430     3.6860    -0.2590 C.ar  1 <1>   0.1170 
  8 C        3.7070     2.4890    -0.3010 C.3   1 <1>   0.0400 
  9 C       -0.0840     4.4070     0.0590 C.ar  1 <1>   0.0830 
 10 N       -2.4840     4.3440    -0.1310 N.am  1 <1>  -0.5470 
 11 O       -0.2570     5.7010     0.4690 O.3   1 <1>  -0.3630 
 12 C       -3.7770     3.9600    -0.3480 C.2   1 <1>   0.5690 
 13 C        0.8390     6.5220     0.8140 C.3   1 <1>   0.0400 
 14 O       -4.0920     2.8590    -0.7300 O.2   1 <1>  -0.5700 
 15 C       -4.8750     4.9980    -0.0860 C.3   1 <1>  -0.0190 
 16 C       -5.8340     4.5360     1.0230 C.3   1 <1>  -0.2400 
 17 C       -5.6660     5.3170    -1.3660 C.3   1 <1>  -0.2400 
 18 H       -1.9780     1.7790    -0.9330 H     1 <1>   0.1500 
 19 H        2.0510     4.3700     0.1970 H     1 <1>   0.1500 
 20 H        4.5000     1.7840    -0.4750 H     1 <1>   0.0800 
 21 H        3.7060     2.7870     0.7330 H     1 <1>   0.0800 
 22 H        3.8250     3.3370    -0.9510 H     1 <1>   0.0800 
 23 H       -2.3590     5.3040     0.1910 H     1 <1>   0.3700 
 24 H        0.4580     7.4850     1.1020 H     1 <1>   0.0800 
 25 H        1.4820     6.6260    -0.0420 H     1 <1>   0.0800 
 26 H        1.3630     6.0770     1.6410 H     1 <1>   0.0800 
 27 H       -4.4080     5.9090     0.2450 H     1 <1>   0.0800 
 28 H       -6.3390     3.6330     0.7270 H     1 <1>   0.0800 
 29 H       -6.5710     5.2930     1.2270 H     1 <1>   0.0800 
 30 H       -5.2860     4.3370     1.9270 H     1 <1>   0.0800 
 31 H       -6.1650     4.4340    -1.7240 H     1 <1>   0.0800 
 32 H       -4.9990     5.6650    -2.1350 H     1 <1>   0.0800 
 33 H       -6.4010     6.0790    -1.1770 H     1 <1>   0.0800 
@<TRIPOS>BOND
  1   1   2  1   
  2   2   3  ar  
  3   2   4  ar  
  4   3   5  1   
  5   3   6  ar  
  6   4   7  ar  
  7   4  18  1   
  8   5   8  1   
  9   6   9  ar  
 10   6  19  1   
 11   7   9  ar  
 12   7  10  1   
 13   8  20  1   
 14   8  21  1   
 15   8  22  1   
 16   9  11  1   
 17  10  12  am  
 18  10  23  1   
 19  11  13  1   
 20  12  14  2   
 21  12  15  1   
 22  13  24  1   
 23  13  25  1   
 24  13  26  1   
 25  15  16  1   
 26  15  17  1   
 27  15  27  1   
 28  16  28  1   
 29  16  29  1   
 30  16  30  1   
 31  17  31  1   
 32  17  32  1   
 33  17  33  1   
@<TRIPOS>SUBSTRUCTURE
  1 ****   7 GROUP 4 **** **** 0

# MOE 2024.06 (io_trps.svl 2023.06)
