@<TRIPOS>MOLECULE
NONAME
50 52 1 0 0 
SMALL
USER_CHARGES


@<TRIPOS>ATOM
  1 F       -3.6950     0.2200    -3.3510 F     1 <1>  -0.1900 
  2 C       -3.6350     0.5030    -2.0790 C.ar  1 <1>   0.1900 
  3 C       -4.7240     0.2060    -1.2820 C.ar  1 <1>  -0.1500 
  4 C       -2.4890     1.0890    -1.5780 C.ar  1 <1>  -0.1500 
  5 C       -4.6690     0.5120     0.0720 C.ar  1 <1>  -0.1440 
  6 C       -2.4350     1.3850    -0.2270 C.ar  1 <1>  -0.1500 
  7 C       -3.5180     1.0970     0.5910 C.ar  1 <1>  -0.1500 
  8 C       -5.8510     0.2160     0.9760 C.3   1 <1>   0.4870 
  9 N       -6.9650     1.1380     0.6340 N.4   1 <1>  -0.9590 
 10 C       -6.6120     2.5970     0.6930 C.3   1 <1>   0.3430 
 11 C       -8.2410     0.8620     1.3710 C.3   1 <1>   0.3430 
 12 C       -7.7670     3.4660     0.1330 C.3   1 <1>   0.1100 
 13 C       -9.3860     1.7740     0.8610 C.3   1 <1>   0.1100 
 14 N       -8.9390     2.6470    -0.2530 N.3   1 <1>  -0.8100 
 15 C      -10.0310     3.4460    -0.8850 C.3   1 <1>   0.1710 
 16 C      -11.2150     2.6130    -1.3960 C.2   1 <1>   0.5690 
 17 O      -11.0590     1.9390    -2.3850 O.2   1 <1>  -0.5700 
 18 N      -12.3880     2.6650    -0.6880 N.am  1 <1>  -0.5470 
 19 C      -13.5890     1.9480    -0.8250 C.ar  1 <1>   0.1170 
 20 C      -14.7660     2.4660    -0.2750 C.ar  1 <1>  -0.1430 
 21 C      -13.6410     0.7160    -1.4730 C.ar  1 <1>  -0.1500 
 22 C      -15.9500     1.7530    -0.3800 C.ar  1 <1>  -0.1500 
 23 C      -14.7870     3.8120     0.4400 C.3   1 <1>  -0.0970 
 24 C      -14.8260     0.0130    -1.5750 C.ar  1 <1>  -0.1500 
 25 C      -15.9840     0.5310    -1.0270 C.ar  1 <1>  -0.1500 
 26 H       -5.5850    -0.2550    -1.7330 H     1 <1>   0.1500 
 27 H       -1.6610     1.3020    -2.2320 H     1 <1>   0.1500 
 28 H       -1.5480     1.8370     0.1850 H     1 <1>   0.1500 
 29 H       -3.4460     1.3350     1.6400 H     1 <1>   0.1500 
 30 H       -5.5650     0.3470     2.0060 H     1 <1>   0.0800 
 31 H       -6.1610    -0.8060     0.8340 H     1 <1>   0.0800 
 32 H       -7.2170     1.0030    -0.3580 H     1 <1>   0.4500 
 33 H       -5.7240     2.7870     0.1110 H     1 <1>   0.0800 
 34 H       -6.4060     2.8880     1.7090 H     1 <1>   0.0800 
 35 H       -8.1030     1.0240     2.4280 H     1 <1>   0.0800 
 36 H       -8.5310    -0.1660     1.2300 H     1 <1>   0.0800 
 37 H       -7.4070     3.9990    -0.7310 H     1 <1>   0.0800 
 38 H       -8.0530     4.1970     0.8700 H     1 <1>   0.0800 
 39 H       -9.7560     2.3750     1.6740 H     1 <1>   0.0800 
 40 H      -10.1930     1.1430     0.5290 H     1 <1>   0.0800 
 41 H       -9.6270     3.9710    -1.7330 H     1 <1>   0.0800 
 42 H      -10.3900     4.1810    -0.1870 H     1 <1>   0.0800 
 43 H      -12.4360     3.3780     0.0340 H     1 <1>   0.3700 
 44 H      -12.7540     0.2920    -1.9040 H     1 <1>   0.1500 
 45 H      -16.8610     2.1430     0.0400 H     1 <1>   0.1500 
 46 H      -14.3960     4.5790    -0.2040 H     1 <1>   0.0800 
 47 H      -14.2010     3.7630     1.3390 H     1 <1>   0.0800 
 48 H      -15.7910     4.0870     0.7090 H     1 <1>   0.0800 
 49 H      -14.8460    -0.9370    -2.0820 H     1 <1>   0.1500 
 50 H      -16.9080    -0.0150    -1.1040 H     1 <1>   0.1500 
@<TRIPOS>BOND
  1   1   2  1   
  2   2   3  ar  
  3   2   4  ar  
  4   3   5  ar  
  5   3  26  1   
  6   4   6  ar  
  7   4  27  1   
  8   5   7  ar  
  9   5   8  1   
 10   6   7  ar  
 11   6  28  1   
 12   7  29  1   
 13   8   9  1   
 14   8  30  1   
 15   8  31  1   
 16   9  10  1   
 17   9  11  1   
 18   9  32  1   
 19  10  12  1   
 20  10  33  1   
 21  10  34  1   
 22  11  13  1   
 23  11  35  1   
 24  11  36  1   
 25  12  14  1   
 26  12  37  1   
 27  12  38  1   
 28  13  14  1   
 29  13  39  1   
 30  13  40  1   
 31  14  15  1   
 32  15  16  1   
 33  15  41  1   
 34  15  42  1   
 35  16  17  2   
 36  16  18  am  
 37  18  19  1   
 38  18  43  1   
 39  19  20  ar  
 40  19  21  ar  
 41  20  22  ar  
 42  20  23  1   
 43  21  24  ar  
 44  21  44  1   
 45  22  25  ar  
 46  22  45  1   
 47  23  46  1   
 48  23  47  1   
 49  23  48  1   
 50  24  25  ar  
 51  24  49  1   
 52  25  50  1   
@<TRIPOS>SUBSTRUCTURE
  1 ****  14 GROUP 4 **** **** 0

# MOE 2024.06 (io_trps.svl 2023.06)
