@<TRIPOS>MOLECULE
NONAME
46 47 1 0 0 
SMALL
USER_CHARGES


@<TRIPOS>ATOM
  1 O       -0.8140    -0.5590     1.3650 O.2   1 <1>  -0.5700 
  2 C       -1.5840    -0.9130     0.5100 C.2   1 <1>   0.5690 
  3 N       -1.4190    -2.1120    -0.1050 N.am  1 <1>  -0.5470 
  4 C       -2.7560    -0.0110     0.1530 C.3   1 <1>  -0.0990 
  5 C       -2.2290    -2.7260    -1.0750 C.ar  1 <1>   0.1170 
  6 C       -4.0600    -0.5210     0.7870 C.3   1 <1>  -0.1600 
  7 C       -3.1080    -3.7610    -0.7380 C.ar  1 <1>   0.0820 
  8 C       -2.1670    -2.2990    -2.3940 C.ar  1 <1>  -0.1500 
  9 C       -5.2890     0.2730     0.3330 C.3   1 <1>  -0.0160 
 10 O       -3.1720    -4.1540     0.5640 O.3   1 <1>  -0.3630 
 11 C       -3.8950    -4.3530    -1.7180 C.ar  1 <1>  -0.1500 
 12 C       -2.9590    -2.8850    -3.3660 C.ar  1 <1>  -0.1500 
 13 C       -6.5530    -0.4750     0.7440 C.ar  1 <1>  -0.1430 
 14 C       -4.4220    -4.5170     1.1140 C.3   1 <1>   0.0400 
 15 C       -3.8220    -3.9130    -3.0290 C.ar  1 <1>  -0.1500 
 16 C       -7.1650    -1.4200    -0.0790 C.ar  1 <1>  -0.1430 
 17 C       -7.0940    -0.2060     1.9930 C.ar  1 <1>  -0.1500 
 18 C       -8.3060    -2.0740     0.3610 C.ar  1 <1>  -0.1500 
 19 C       -6.6180    -1.7630    -1.4590 C.3   1 <1>  -0.0970 
 20 C       -8.2300    -0.8640     2.4250 C.ar  1 <1>  -0.1500 
 21 C       -8.8450    -1.8010     1.6150 C.ar  1 <1>   0.0820 
 22 O       -9.9560    -2.4020     2.1100 O.3   1 <1>  -0.3620 
 23 C      -10.7020    -3.3140     1.3370 C.3   1 <1>   0.0400 
 24 H       -0.7600    -2.7220     0.3780 H     1 <1>   0.3700 
 25 H       -2.8520     0.0300    -0.9150 H     1 <1>   0.0800 
 26 H       -2.5470     0.9820     0.5060 H     1 <1>   0.0800 
 27 H       -3.9810    -0.4790     1.8600 H     1 <1>   0.0800 
 28 H       -4.2020    -1.5500     0.5190 H     1 <1>   0.0800 
 29 H       -1.4900    -1.5070    -2.6600 H     1 <1>   0.1500 
 30 H       -5.2730     0.4130    -0.7330 H     1 <1>   0.0800 
 31 H       -5.2750     1.2500     0.7820 H     1 <1>   0.0800 
 32 H       -4.5610    -5.1580    -1.4730 H     1 <1>   0.1500 
 33 H       -2.9000    -2.5450    -4.3860 H     1 <1>   0.1500 
 34 H       -5.1580    -3.7830     0.8360 H     1 <1>   0.0800 
 35 H       -4.3200    -4.5430     2.1840 H     1 <1>   0.0800 
 36 H       -4.6960    -5.4910     0.7520 H     1 <1>   0.0800 
 37 H       -4.4330    -4.3730    -3.7860 H     1 <1>   0.1500 
 38 H       -6.6290     0.5170     2.6390 H     1 <1>   0.1500 
 39 H       -8.7700    -2.7950    -0.2810 H     1 <1>   0.1500 
 40 H       -6.7950    -0.9450    -2.1340 H     1 <1>   0.0800 
 41 H       -7.0930    -2.6410    -1.8570 H     1 <1>   0.0800 
 42 H       -5.5620    -1.9520    -1.4110 H     1 <1>   0.0800 
 43 H       -8.6460    -0.6540     3.3930 H     1 <1>   0.1500 
 44 H      -11.5460    -3.6340     1.9210 H     1 <1>   0.0800 
 45 H      -10.0810    -4.1590     1.0990 H     1 <1>   0.0800 
 46 H      -11.0410    -2.8190     0.4450 H     1 <1>   0.0800 
@<TRIPOS>BOND
  1   1   2  2   
  2   2   3  am  
  3   2   4  1   
  4   3   5  1   
  5   3  24  1   
  6   4   6  1   
  7   4  25  1   
  8   4  26  1   
  9   5   7  ar  
 10   5   8  ar  
 11   6   9  1   
 12   6  27  1   
 13   6  28  1   
 14   7  10  1   
 15   7  11  ar  
 16   8  12  ar  
 17   8  29  1   
 18   9  13  1   
 19   9  30  1   
 20   9  31  1   
 21  10  14  1   
 22  11  15  ar  
 23  11  32  1   
 24  12  15  ar  
 25  12  33  1   
 26  13  16  ar  
 27  13  17  ar  
 28  14  34  1   
 29  14  35  1   
 30  14  36  1   
 31  15  37  1   
 32  16  18  ar  
 33  16  19  1   
 34  17  20  ar  
 35  17  38  1   
 36  18  21  ar  
 37  18  39  1   
 38  19  40  1   
 39  19  41  1   
 40  19  42  1   
 41  20  21  ar  
 42  20  43  1   
 43  21  22  1   
 44  22  23  1   
 45  23  44  1   
 46  23  45  1   
 47  23  46  1   
@<TRIPOS>SUBSTRUCTURE
  1 ****   6 GROUP 4 **** **** 0

# MOE 2024.06 (io_trps.svl 2023.06)
