@<TRIPOS>MOLECULE
NONAME
39 40 1 0 0 
SMALL
USER_CHARGES


@<TRIPOS>ATOM
  1 CL      -1.6030     1.2390    -2.1450 Cl    1 <1>  -0.1770 
  2 C       -0.7420     2.2690    -1.0200 C.ar  1 <1>   0.1770 
  3 C        0.4830     2.8120    -1.3720 C.ar  1 <1>   0.1770 
  4 C       -1.3090     2.5440     0.2170 C.ar  1 <1>  -0.1440 
  5 CL       1.1870     2.4750    -2.9350 Cl    1 <1>  -0.1770 
  6 C        1.1630     3.6340    -0.4940 C.ar  1 <1>  -0.1500 
  7 C       -0.6210     3.3690     1.0990 C.ar  1 <1>  -0.1500 
  8 C       -2.6520     1.9490     0.5990 C.3   1 <1>   0.4870 
  9 C        0.6060     3.9100     0.7450 C.ar  1 <1>  -0.1500 
 10 N       -3.7180     2.5340    -0.2600 N.4   1 <1>  -0.9590 
 11 C       -3.8350     4.0300    -0.0860 C.3   1 <1>   0.3430 
 12 C       -5.0380     1.8360    -0.0550 C.3   1 <1>   0.3430 
 13 C       -4.9380     4.6300    -0.9750 C.3   1 <1>   0.1400 
 14 C       -6.1540     2.4280    -0.9370 C.3   1 <1>   0.1400 
 15 N       -6.2240     3.9070    -0.7540 N.am  1 <1>  -0.6600 
 16 C       -7.3300     4.5540    -0.2650 C.2   1 <1>   0.7800 
 17 O       -7.3120     5.7330     0.0200 O.2   1 <1>  -0.5700 
 18 O       -8.4340     3.8340    -0.0770 O.3   1 <1>  -0.4300 
 19 C       -9.6130     4.4360     0.4100 C.3   1 <1>   0.1200 
 20 C      -10.6870     3.3570     0.5140 C.3   1 <1>  -0.2400 
 21 H        2.1150     4.0490    -0.7760 H     1 <1>   0.1500 
 22 H       -1.0230     3.5990     2.0730 H     1 <1>   0.1500 
 23 H       -2.8610     2.1500     1.6380 H     1 <1>   0.0800 
 24 H       -2.6150     0.8800     0.4620 H     1 <1>   0.0800 
 25 H        1.1360     4.5480     1.4350 H     1 <1>   0.1500 
 26 H       -3.4270     2.3630    -1.2350 H     1 <1>   0.4500 
 27 H       -2.8970     4.5050    -0.3260 H     1 <1>   0.0800 
 28 H       -4.0670     4.2600     0.9410 H     1 <1>   0.0800 
 29 H       -5.3400     1.9290     0.9760 H     1 <1>   0.0800 
 30 H       -4.9380     0.7860    -0.2770 H     1 <1>   0.0800 
 31 H       -4.6590     4.5520    -2.0120 H     1 <1>   0.0800 
 32 H       -5.0450     5.6770    -0.7480 H     1 <1>   0.0800 
 33 H       -7.0910     1.9640    -0.6790 H     1 <1>   0.0800 
 34 H       -5.9600     2.2080    -1.9730 H     1 <1>   0.0800 
 35 H       -9.9100     5.2110    -0.2760 H     1 <1>   0.0800 
 36 H       -9.4050     4.8680     1.3750 H     1 <1>   0.0800 
 37 H      -10.8800     2.9310    -0.4540 H     1 <1>   0.0800 
 38 H      -11.5990     3.7900     0.8820 H     1 <1>   0.0800 
 39 H      -10.3760     2.5850     1.1950 H     1 <1>   0.0800 
@<TRIPOS>BOND
  1   1   2  1   
  2   2   3  ar  
  3   2   4  ar  
  4   3   5  1   
  5   3   6  ar  
  6   4   7  ar  
  7   4   8  1   
  8   6   9  ar  
  9   6  21  1   
 10   7   9  ar  
 11   7  22  1   
 12   8  10  1   
 13   8  23  1   
 14   8  24  1   
 15   9  25  1   
 16  10  11  1   
 17  10  12  1   
 18  10  26  1   
 19  11  13  1   
 20  11  27  1   
 21  11  28  1   
 22  12  14  1   
 23  12  29  1   
 24  12  30  1   
 25  13  15  1   
 26  13  31  1   
 27  13  32  1   
 28  14  15  1   
 29  14  33  1   
 30  14  34  1   
 31  15  16  am  
 32  16  17  2   
 33  16  18  1   
 34  18  19  1   
 35  19  20  1   
 36  19  35  1   
 37  19  36  1   
 38  20  37  1   
 39  20  38  1   
 40  20  39  1   
@<TRIPOS>SUBSTRUCTURE
  1 ****  10 GROUP 4 **** **** 0

# MOE 2024.06 (io_trps.svl 2023.06)
