@<TRIPOS>MOLECULE
NONAME
54 56 1 0 0 
SMALL
USER_CHARGES


@<TRIPOS>ATOM
  1 O       -5.1330    -2.2150    -1.3480 O.2   1 <1>  -0.5700 
  2 C       -5.2470    -1.9580    -0.1710 C.2   1 <1>   0.5690 
  3 N       -4.2810    -2.2770     0.7460 N.am  1 <1>  -0.5470 
  4 C       -6.5470    -1.2540     0.3120 C.3   1 <1>   0.4840 
  5 C       -3.0530    -2.9040     0.4860 C.ar  1 <1>   0.1170 
  6 N       -7.8070    -1.6070    -0.4480 N.4   1 <1>  -0.9590 
  7 C       -6.4510     0.2600     0.1240 C.3   1 <1>  -0.1600 
  8 C       -2.9890    -4.2590     0.1490 C.ar  1 <1>  -0.1430 
  9 C       -1.8720    -2.1670     0.5920 C.ar  1 <1>  -0.1430 
 10 C       -7.9730    -3.0630    -0.7400 C.3   1 <1>   0.4230 
 11 C       -7.7440    -0.7640    -1.6730 C.3   1 <1>   0.3430 
 12 C       -7.1440     0.5580    -1.2100 C.3   1 <1>  -0.1600 
 13 C       -1.7590    -4.8500    -0.0820 C.ar  1 <1>  -0.1500 
 14 C       -4.2390    -5.1210     0.0300 C.3   1 <1>  -0.0970 
 15 C       -0.6540    -2.7820     0.3610 C.ar  1 <1>  -0.1500 
 16 C       -1.8860    -0.6850     0.9500 C.3   1 <1>  -0.0970 
 17 C       -9.2660    -3.2970    -1.5420 C.3   1 <1>  -0.1600 
 18 C       -8.0150    -3.8570     0.5780 C.3   1 <1>  -0.1600 
 19 C       -0.5880    -4.1210     0.0210 C.ar  1 <1>  -0.1430 
 20 C       -9.5140    -4.7920    -1.7900 C.3   1 <1>  -0.1600 
 21 C       -8.2550    -5.3520     0.3280 C.3   1 <1>  -0.1600 
 22 C        0.7540    -4.7830    -0.2340 C.3   1 <1>  -0.0970 
 23 C       -9.5400    -5.5790    -0.4760 C.3   1 <1>  -0.1600 
 24 H       -4.3570    -1.9290     1.7000 H     1 <1>   0.3700 
 25 H       -6.6750    -1.4840     1.3560 H     1 <1>   0.0800 
 26 H       -8.6120    -1.2970     0.1040 H     1 <1>   0.4500 
 27 H       -5.4280     0.5970     0.1230 H     1 <1>   0.0800 
 28 H       -6.9700     0.7540     0.9270 H     1 <1>   0.0800 
 29 H       -7.1400    -3.4130    -1.3310 H     1 <1>   0.0800 
 30 H       -8.7180    -0.6270    -2.1170 H     1 <1>   0.0800 
 31 H       -7.0840    -1.2230    -2.3940 H     1 <1>   0.0800 
 32 H       -6.4450     0.9150    -1.9470 H     1 <1>   0.0800 
 33 H       -7.9180     1.2960    -1.0850 H     1 <1>   0.0800 
 34 H       -1.7040    -5.8920    -0.3460 H     1 <1>   0.1500 
 35 H       -4.7920    -4.8420    -0.8490 H     1 <1>   0.0800 
 36 H       -4.8590    -5.0000     0.8980 H     1 <1>   0.0800 
 37 H       -3.9810    -6.1620    -0.0520 H     1 <1>   0.0800 
 38 H        0.2590    -2.2180     0.4420 H     1 <1>   0.1500 
 39 H       -2.2760    -0.5470     1.9420 H     1 <1>   0.0800 
 40 H       -2.4940    -0.1440     0.2480 H     1 <1>   0.0800 
 41 H       -0.8940    -0.2730     0.9180 H     1 <1>   0.0800 
 42 H       -9.2070    -2.8160    -2.5010 H     1 <1>   0.0800 
 43 H      -10.1070    -2.8940    -1.0050 H     1 <1>   0.0800 
 44 H       -8.8080    -3.4840     1.2020 H     1 <1>   0.0800 
 45 H       -7.0860    -3.7640     1.1090 H     1 <1>   0.0800 
 46 H       -8.7380    -5.1870    -2.4260 H     1 <1>   0.0800 
 47 H      -10.4520    -4.9240    -2.3040 H     1 <1>   0.0800 
 48 H       -8.3270    -5.8720     1.2690 H     1 <1>   0.0800 
 49 H       -7.4210    -5.7700    -0.2110 H     1 <1>   0.0800 
 50 H        0.6500    -5.5820    -0.9460 H     1 <1>   0.0800 
 51 H        1.1410    -5.1850     0.6850 H     1 <1>   0.0800 
 52 H        1.4570    -4.0700    -0.6260 H     1 <1>   0.0800 
 53 H       -9.6510    -6.6290    -0.6890 H     1 <1>   0.0800 
 54 H      -10.3910    -5.2760     0.1100 H     1 <1>   0.0800 
@<TRIPOS>BOND
  1   1   2  2   
  2   2   3  am  
  3   2   4  1   
  4   3   5  1   
  5   3  24  1   
  6   4   6  1   
  7   4   7  1   
  8   4  25  1   
  9   5   8  ar  
 10   5   9  ar  
 11   6  10  1   
 12   6  11  1   
 13   6  26  1   
 14   7  12  1   
 15   7  27  1   
 16   7  28  1   
 17   8  13  ar  
 18   8  14  1   
 19   9  15  ar  
 20   9  16  1   
 21  10  17  1   
 22  10  18  1   
 23  10  29  1   
 24  11  12  1   
 25  11  30  1   
 26  11  31  1   
 27  12  32  1   
 28  12  33  1   
 29  13  19  ar  
 30  13  34  1   
 31  14  35  1   
 32  14  36  1   
 33  14  37  1   
 34  15  19  ar  
 35  15  38  1   
 36  16  39  1   
 37  16  40  1   
 38  16  41  1   
 39  17  20  1   
 40  17  42  1   
 41  17  43  1   
 42  18  21  1   
 43  18  44  1   
 44  18  45  1   
 45  19  22  1   
 46  20  23  1   
 47  20  46  1   
 48  20  47  1   
 49  21  23  1   
 50  21  48  1   
 51  21  49  1   
 52  22  50  1   
 53  22  51  1   
 54  22  52  1   
 55  23  53  1   
 56  23  54  1   
@<TRIPOS>SUBSTRUCTURE
  1 ****   2 GROUP 4 **** **** 0

# MOE 2024.06 (io_trps.svl 2023.06)
