@<TRIPOS>MOLECULE
NONAME
39 41 1 0 0 
SMALL
USER_CHARGES


@<TRIPOS>ATOM
  1 S       -0.1640    -0.3740     1.2100 S.3   1 <1>  -0.2860 
  2 C       -1.9240    -0.2040     0.9750 C.2   1 <1>   0.5340 
  3 C        0.4180    -1.1960    -0.3490 C.3   1 <1>   0.0700 
  4 O       -2.4380    -0.6650    -0.1510 O.3   1 <1>  -0.2800 
  5 N       -2.7250     0.3300     1.8140 N.2   1 <1>  -0.5650 
  6 C        1.9480    -1.3720    -0.3550 C.3   1 <1>   0.2800 
  7 C       -3.7260    -0.4030    -0.0390 C.ar  1 <1>   0.1400 
  8 C       -3.9210     0.2150     1.1760 C.ar  1 <1>   0.2270 
  9 O        2.2680    -1.9400    -1.5790 O.3   1 <1>  -0.6800 
 10 C        2.7030    -0.0200    -0.2460 C.3   1 <1>   0.1500 
 11 C        2.4140    -2.3580     0.7360 C.3   1 <1>  -0.1600 
 12 C       -4.7690    -0.6590    -0.9180 C.ar  1 <1>  -0.1500 
 13 C       -5.2010     0.6040     1.5540 C.ar  1 <1>  -0.1500 
 14 S        2.3580     0.9970    -1.7250 S.3   1 <1>  -0.4600 
 15 C        4.2300    -0.1760    -0.1490 C.3   1 <1>  -0.1600 
 16 C        3.9440    -2.5010     0.8040 C.3   1 <1>  -0.1600 
 17 C       -6.0400    -0.2710    -0.5390 C.ar  1 <1>  -0.1500 
 18 C       -6.2540     0.3580     0.6930 C.ar  1 <1>  -0.1500 
 19 C        2.5460     2.6960    -1.1210 C.3   1 <1>  -0.0100 
 20 C        4.6220    -1.1370     0.9820 C.3   1 <1>  -0.1600 
 21 H        0.0940    -0.5740    -1.1630 H     1 <1>   0.0800 
 22 H       -0.0750    -2.1500    -0.4000 H     1 <1>   0.0800 
 23 H        2.3420    -1.2100    -2.2320 H     1 <1>   0.4000 
 24 H        2.3480     0.5310     0.6060 H     1 <1>   0.0800 
 25 H        1.9660    -3.3210     0.5630 H     1 <1>   0.0800 
 26 H        2.0710    -2.0140     1.6950 H     1 <1>   0.0800 
 27 H       -4.5760    -1.1440    -1.8580 H     1 <1>   0.1500 
 28 H       -5.3430     1.0850     2.5050 H     1 <1>   0.1500 
 29 H        4.6840     0.7830     0.0220 H     1 <1>   0.0800 
 30 H        4.6080    -0.5630    -1.0800 H     1 <1>   0.0800 
 31 H        4.2990    -2.9620    -0.1020 H     1 <1>   0.0800 
 32 H        4.2080    -3.1460     1.6240 H     1 <1>   0.0800 
 33 H       -6.8780    -0.4510    -1.1920 H     1 <1>   0.1500 
 34 H       -7.2530     0.6520     0.9680 H     1 <1>   0.1500 
 35 H        2.3350     3.3600    -1.9410 H     1 <1>   0.0800 
 36 H        3.5570     2.8220    -0.7790 H     1 <1>   0.0800 
 37 H        1.8430     2.8450    -0.3200 H     1 <1>   0.0800 
 38 H        4.3350    -0.7140     1.9300 H     1 <1>   0.0800 
 39 H        5.6900    -1.2660     0.9880 H     1 <1>   0.0800 
@<TRIPOS>BOND
  1   1   2  1   
  2   1   3  1   
  3   2   4  1   
  4   2   5  2   
  5   3   6  1   
  6   3  21  1   
  7   3  22  1   
  8   4   7  1   
  9   5   8  1   
 10   6   9  1   
 11   6  10  1   
 12   6  11  1   
 13   7   8  ar  
 14   7  12  ar  
 15   8  13  ar  
 16   9  23  1   
 17  10  14  1   
 18  10  15  1   
 19  10  24  1   
 20  11  16  1   
 21  11  25  1   
 22  11  26  1   
 23  12  17  ar  
 24  12  27  1   
 25  13  18  ar  
 26  13  28  1   
 27  14  19  1   
 28  15  20  1   
 29  15  29  1   
 30  15  30  1   
 31  16  20  1   
 32  16  31  1   
 33  16  32  1   
 34  17  18  ar  
 35  17  33  1   
 36  18  34  1   
 37  19  35  1   
 38  19  36  1   
 39  19  37  1   
 40  20  38  1   
 41  20  39  1   
@<TRIPOS>SUBSTRUCTURE
  1 ****   1 GROUP 4 **** **** 0

# MOE 2024.06 (io_trps.svl 2023.06)
