@<TRIPOS>MOLECULE
NONAME
41 42 1 0 0 
SMALL
USER_CHARGES


@<TRIPOS>ATOM
  1 CL      -1.3360     0.3990    -2.2600 Cl    1 <1>  -0.1770 
  2 C       -2.1110     1.0100    -0.8140 C.ar  1 <1>   0.1770 
  3 C       -3.3050     0.4760    -0.3090 C.ar  1 <1>   0.0830 
  4 C       -1.4970     2.0860    -0.2020 C.ar  1 <1>  -0.1500 
  5 O       -3.9680    -0.5890    -0.8440 O.3   1 <1>  -0.3630 
  6 C       -3.8940     1.0690     0.8100 C.ar  1 <1>  -0.1440 
  7 C       -2.0890     2.6440     0.9130 C.ar  1 <1>   0.1770 
  8 C       -3.2570    -1.7300    -1.2910 C.3   1 <1>   0.0400 
  9 C       -3.2770     2.1520     1.4210 C.ar  1 <1>  -0.1500 
 10 C       -5.2000     0.5310     1.3620 C.3   1 <1>   0.4870 
 11 CL      -1.3310     4.0040     1.6960 Cl    1 <1>  -0.1770 
 12 N       -6.2240     0.6970     0.3110 N.4   1 <1>  -0.9060 
 13 C       -7.5460     0.1240     0.6820 C.3   1 <1>   0.3430 
 14 C       -8.5760     0.3080    -0.4400 C.3   1 <1>   0.1100 
 15 N       -9.8950    -0.0860     0.0540 N.3   1 <1>  -0.8100 
 16 C      -10.1490    -1.5420     0.0440 C.3   1 <1>   0.1100 
 17 C      -11.0030     0.6340    -0.6250 C.3   1 <1>   0.1100 
 18 C      -11.4970    -1.8860     0.7230 C.3   1 <1>   0.1200 
 19 C      -12.3730    -0.0730    -0.5030 C.3   1 <1>   0.1200 
 20 O      -12.4370    -0.8470     0.6560 O.3   1 <1>  -0.5600 
 21 H       -0.5780     2.4880    -0.5890 H     1 <1>   0.1500 
 22 H       -3.8870    -2.5930    -1.1680 H     1 <1>   0.0800 
 23 H       -2.3600    -1.8500    -0.7090 H     1 <1>   0.0800 
 24 H       -3.0200    -1.6100    -2.3330 H     1 <1>   0.0800 
 25 H       -3.6970     2.6290     2.2920 H     1 <1>   0.1500 
 26 H       -5.4820     1.0700     2.2520 H     1 <1>   0.0800 
 27 H       -5.0820    -0.5120     1.6070 H     1 <1>   0.0800 
 28 H       -5.8360     0.2260    -0.5240 H     1 <1>   0.4500 
 29 H       -6.3040     1.6930     0.0790 H     1 <1>   0.4500 
 30 H       -7.9210     0.6180     1.5650 H     1 <1>   0.0800 
 31 H       -7.4460    -0.9270     0.8960 H     1 <1>   0.0800 
 32 H       -8.3170    -0.2740    -1.3080 H     1 <1>   0.0800 
 33 H       -8.6060     1.3500    -0.7100 H     1 <1>   0.0800 
 34 H       -9.3630    -2.0690     0.5540 H     1 <1>   0.0800 
 35 H      -10.1740    -1.8950    -0.9730 H     1 <1>   0.0800 
 36 H      -10.7830     0.7570    -1.6710 H     1 <1>   0.0800 
 37 H      -11.0880     1.6160    -0.1930 H     1 <1>   0.0800 
 38 H      -11.3360    -2.0940     1.7660 H     1 <1>   0.0800 
 39 H      -11.9290    -2.7600     0.2700 H     1 <1>   0.0800 
 40 H      -12.5430    -0.7180    -1.3470 H     1 <1>   0.0800 
 41 H      -13.1670     0.6520    -0.4650 H     1 <1>   0.0800 
@<TRIPOS>BOND
  1   1   2  1   
  2   2   3  ar  
  3   2   4  ar  
  4   3   5  1   
  5   3   6  ar  
  6   4   7  ar  
  7   4  21  1   
  8   5   8  1   
  9   6   9  ar  
 10   6  10  1   
 11   7   9  ar  
 12   7  11  1   
 13   8  22  1   
 14   8  23  1   
 15   8  24  1   
 16   9  25  1   
 17  10  12  1   
 18  10  26  1   
 19  10  27  1   
 20  12  13  1   
 21  12  28  1   
 22  12  29  1   
 23  13  14  1   
 24  13  30  1   
 25  13  31  1   
 26  14  15  1   
 27  14  32  1   
 28  14  33  1   
 29  15  16  1   
 30  15  17  1   
 31  16  18  1   
 32  16  34  1   
 33  16  35  1   
 34  17  19  1   
 35  17  36  1   
 36  17  37  1   
 37  18  20  1   
 38  18  38  1   
 39  18  39  1   
 40  19  20  1   
 41  19  40  1   
 42  19  41  1   
@<TRIPOS>SUBSTRUCTURE
  1 ****  12 GROUP 4 **** **** 0

# MOE 2024.06 (io_trps.svl 2023.06)
