@<TRIPOS>MOLECULE
NONAME
37 37 1 0 0 
SMALL
USER_CHARGES


@<TRIPOS>ATOM
  1 O       -1.0640     0.4180     1.3800 O.2   1 <1>  -0.5700 
  2 C       -1.9180     0.9210     0.6790 C.2   1 <1>   0.7800 
  3 O       -2.7320     0.1730    -0.0720 O.3   1 <1>  -0.4300 
  4 N       -2.0940     2.2580     0.6310 N.am  1 <1>  -0.7300 
  5 C       -2.7320    -1.2300    -0.1950 C.3   1 <1>   0.2800 
  6 C       -2.9600     2.9970    -0.3060 C.3   1 <1>   0.2200 
  7 C       -1.3980    -1.7120    -0.7780 C.3   1 <1>  -0.2400 
  8 C       -3.8560    -1.5410    -1.1840 C.3   1 <1>  -0.2400 
  9 C       -3.0530    -1.8810     1.1560 C.3   1 <1>  -0.2400 
 10 C       -2.5850     4.4920    -0.3220 C.3   1 <1>  -0.1860 
 11 C       -4.4320     2.7630     0.1060 C.3   1 <1>  -0.1600 
 12 C       -1.0840     4.6940    -0.4280 C.2   1 <1>   0.9060 
 13 C       -3.2220     5.2400     0.8670 C.3   1 <1>  -0.1600 
 14 C       -5.3090     4.0180    -0.0250 C.3   1 <1>  -0.1600 
 15 O       -0.6180     5.0810    -1.5030 O.co2 1 <1>  -0.9000 
 16 O       -0.3740     4.4580     0.5590 O.co2 1 <1>  -0.9000 
 17 C       -4.7620     5.1730     0.8340 C.3   1 <1>  -0.1600 
 18 H       -1.3010     2.8370     0.9660 H     1 <1>   0.3700 
 19 H       -2.7960     2.6060    -1.2970 H     1 <1>   0.0800 
 20 H       -1.4520    -2.7610    -1.0030 H     1 <1>   0.0800 
 21 H       -0.5970    -1.5690    -0.0770 H     1 <1>   0.0800 
 22 H       -1.1730    -1.1760    -1.6820 H     1 <1>   0.0800 
 23 H       -3.9330    -2.6010    -1.3440 H     1 <1>   0.0800 
 24 H       -3.6600    -1.0660    -2.1280 H     1 <1>   0.0800 
 25 H       -4.7960    -1.1840    -0.8010 H     1 <1>   0.0800 
 26 H       -2.2480    -1.7390     1.8530 H     1 <1>   0.0800 
 27 H       -3.1920    -2.9390     1.0310 H     1 <1>   0.0800 
 28 H       -3.9530    -1.4620     1.5670 H     1 <1>   0.0800 
 29 H       -2.9920     4.9180    -1.2190 H     1 <1>   0.0800 
 30 H       -4.8400     1.9740    -0.4990 H     1 <1>   0.0800 
 31 H       -4.4710     2.4430     1.1330 H     1 <1>   0.0800 
 32 H       -2.8600     4.7950     1.7790 H     1 <1>   0.0800 
 33 H       -2.8990     6.2670     0.8630 H     1 <1>   0.0800 
 34 H       -5.3290     4.3210    -1.0580 H     1 <1>   0.0800 
 35 H       -6.3190     3.7940     0.2700 H     1 <1>   0.0800 
 36 H       -5.1180     5.0670     1.8450 H     1 <1>   0.0800 
 37 H       -5.1510     6.0990     0.4490 H     1 <1>   0.0800 
@<TRIPOS>BOND
  1   1   2  2   
  2   2   3  1   
  3   2   4  am  
  4   3   5  1   
  5   4   6  1   
  6   4  18  1   
  7   5   7  1   
  8   5   8  1   
  9   5   9  1   
 10   6  10  1   
 11   6  11  1   
 12   6  19  1   
 13   7  20  1   
 14   7  21  1   
 15   7  22  1   
 16   8  23  1   
 17   8  24  1   
 18   8  25  1   
 19   9  26  1   
 20   9  27  1   
 21   9  28  1   
 22  10  12  1   
 23  10  13  1   
 24  10  29  1   
 25  11  14  1   
 26  11  30  1   
 27  11  31  1   
 28  12  15  ar  
 29  12  16  ar  
 30  13  17  1   
 31  13  32  1   
 32  13  33  1   
 33  14  17  1   
 34  14  34  1   
 35  14  35  1   
 36  17  36  1   
 37  17  37  1   
@<TRIPOS>SUBSTRUCTURE
  1 ****   4 GROUP 4 **** **** 0

# MOE 2024.06 (io_trps.svl 2023.06)
