@<TRIPOS>MOLECULE
NONAME
44 47 1 0 0 
SMALL
USER_CHARGES


@<TRIPOS>ATOM
  1 O       -0.0140     0.9690    -1.8240 O.2   1 <1>  -0.5700 
  2 C        0.0950     1.7890    -0.9490 C.2   1 <1>   0.5690 
  3 N        1.1840     2.0210    -0.1300 N.am  1 <1>  -0.2370 
  4 C       -1.0090     2.7090    -0.5010 C.3   1 <1>  -0.0190 
  5 C        2.4130     1.3350    -0.1980 C.ar  1 <1>   0.1170 
  6 C        0.9640     3.1740     0.6010 C.2   1 <1>   0.5690 
  7 C       -2.3200     3.2220    -1.1580 C.3   1 <1>   0.0580 
  8 C       -0.1670     3.9080    -0.0620 C.3   1 <1>  -0.0190 
  9 C        3.5780     1.9840    -0.6170 C.ar  1 <1>   0.0830 
 10 C        2.4880    -0.0070     0.1560 C.ar  1 <1>  -0.1500 
 11 O        1.5430     3.5560     1.5860 O.2   1 <1>  -0.5700 
 12 C       -2.1320     4.6040    -1.7970 C.2   1 <1>  -0.2880 
 13 C       -3.2070     3.5800     0.0700 C.3   1 <1>  -0.1600 
 14 C       -1.1180     5.0560     0.3640 C.3   1 <1>   0.0580 
 15 O        3.5190     3.2870    -0.9900 O.3   1 <1>  -0.3630 
 16 C        4.7840     1.3020    -0.6730 C.ar  1 <1>  -0.1500 
 17 C        3.6930    -0.6860     0.1040 C.ar  1 <1>  -0.1500 
 18 C       -1.5850     5.5440    -1.0110 C.2   1 <1>  -0.2880 
 19 C       -2.4060     4.5120     1.0480 C.3   1 <1>  -0.1600 
 20 C        4.2620     4.2000    -0.2160 C.3   1 <1>   0.1200 
 21 C        4.8420    -0.0320    -0.3090 C.ar  1 <1>  -0.1500 
 22 C        3.7960     5.6120    -0.5700 C.3   1 <1>  -0.1600 
 23 C        4.5540     6.6690     0.2410 C.3   1 <1>  -0.2400 
 24 H       -1.3330     2.1830     0.3820 H     1 <1>   0.0800 
 25 H       -2.7860     2.5010    -1.8080 H     1 <1>   0.0800 
 26 H        0.3480     4.2950    -0.9290 H     1 <1>   0.0800 
 27 H        1.5980    -0.5220     0.4700 H     1 <1>   0.1500 
 28 H       -2.4850     4.7270    -2.8070 H     1 <1>   0.1500 
 29 H       -3.5340     2.6920     0.5830 H     1 <1>   0.0800 
 30 H       -4.0910     4.0930    -0.2730 H     1 <1>   0.0800 
 31 H       -0.6120     5.8210     0.9280 H     1 <1>   0.0800 
 32 H        5.6710     1.8060    -1.0090 H     1 <1>   0.1500 
 33 H        3.7370    -1.7250     0.3830 H     1 <1>   0.1500 
 34 H       -1.4150     6.5800    -1.2530 H     1 <1>   0.1500 
 35 H       -2.1350     3.9730     1.9390 H     1 <1>   0.0800 
 36 H       -3.0300     5.3380     1.3420 H     1 <1>   0.0800 
 37 H        5.3060     4.0710    -0.4400 H     1 <1>   0.0800 
 38 H        4.0820     3.9910     0.8260 H     1 <1>   0.0800 
 39 H        5.7780    -0.5630    -0.3510 H     1 <1>   0.1500 
 40 H        2.7440     5.6980    -0.3620 H     1 <1>   0.0800 
 41 H        3.9560     5.7860    -1.6200 H     1 <1>   0.0800 
 42 H        4.3900     6.5200     1.2940 H     1 <1>   0.0800 
 43 H        4.2070     7.6520    -0.0220 H     1 <1>   0.0800 
 44 H        5.6090     6.6130     0.0410 H     1 <1>   0.0800 
@<TRIPOS>BOND
  1   1   2  2   
  2   2   3  am  
  3   2   4  1   
  4   3   5  1   
  5   3   6  am  
  6   4   7  1   
  7   4   8  1   
  8   4  24  1   
  9   5   9  ar  
 10   5  10  ar  
 11   6   8  1   
 12   6  11  2   
 13   7  12  1   
 14   7  13  1   
 15   7  25  1   
 16   8  14  1   
 17   8  26  1   
 18   9  15  1   
 19   9  16  ar  
 20  10  17  ar  
 21  10  27  1   
 22  12  18  2   
 23  12  28  1   
 24  13  19  1   
 25  13  29  1   
 26  13  30  1   
 27  14  18  1   
 28  14  19  1   
 29  14  31  1   
 30  15  20  1   
 31  16  21  ar  
 32  16  32  1   
 33  17  21  ar  
 34  17  33  1   
 35  18  34  1   
 36  19  35  1   
 37  19  36  1   
 38  20  22  1   
 39  20  37  1   
 40  20  38  1   
 41  21  39  1   
 42  22  23  1   
 43  22  40  1   
 44  22  41  1   
 45  23  42  1   
 46  23  43  1   
 47  23  44  1   
@<TRIPOS>SUBSTRUCTURE
  1 ****   6 GROUP 4 **** **** 0

# MOE 2024.06 (io_trps.svl 2023.06)
