@<TRIPOS>MOLECULE
NONAME
40 42 1 0 0 
SMALL
USER_CHARGES


@<TRIPOS>ATOM
  1 O        0.5070    -0.0460    -0.2030 O.2   1 <1>  -0.5700 
  2 C        1.4510    -0.8080    -0.0490 C.2   1 <1>   0.5440 
  3 N        2.7520    -0.3540    -0.2060 N.am  1 <1>  -0.2980 
  4 C        1.2710    -2.1910     0.2820 C.ar  1 <1>   0.0860 
  5 N        3.8610    -1.1060     0.0120 N.2   1 <1>  -0.5120 
  6 C        2.9790     1.0560    -0.6010 C.3   1 <1>   0.0600 
  7 C        2.4150    -2.9880     0.4710 C.ar  1 <1>   0.0860 
  8 C       -0.0040    -2.7560     0.3920 C.ar  1 <1>  -0.1500 
  9 C        3.7220    -2.3550     0.3880 C.2   1 <1>   0.3640 
 10 C        2.2020    -4.3590     0.7030 C.ar  1 <1>  -0.1500 
 11 C       -0.1740    -4.0960     0.6510 C.ar  1 <1>  -0.1500 
 12 C        4.9380    -3.0870     0.7140 C.2   1 <1>   0.6300 
 13 C        0.9400    -4.9020     0.7990 C.ar  1 <1>  -0.1500 
 14 O        4.9740    -3.9700     1.5570 O.2   1 <1>  -0.5700 
 15 N        6.1160    -2.7640     0.0910 N.am  1 <1>  -0.7300 
 16 C        7.4430    -3.3380     0.3630 C.3   1 <1>   0.2200 
 17 C        8.2860    -2.2990     1.1080 C.3   1 <1>  -0.1600 
 18 C        8.0920    -3.7310    -0.9680 C.3   1 <1>  -0.1600 
 19 C        9.7220    -2.8000     1.3230 C.3   1 <1>  -0.1600 
 20 C        9.5270    -4.2350    -0.7580 C.3   1 <1>  -0.1600 
 21 C       10.3750    -3.1990    -0.0080 C.3   1 <1>  -0.1600 
 22 H        2.5010     1.2460    -1.5450 H     1 <1>   0.0800 
 23 H        4.0330     1.2510    -0.6910 H     1 <1>   0.0800 
 24 H        2.5600     1.7080     0.1450 H     1 <1>   0.0800 
 25 H       -0.8680    -2.1240     0.2640 H     1 <1>   0.1500 
 26 H        3.0310    -5.0350     0.8110 H     1 <1>   0.1500 
 27 H       -1.1620    -4.5180     0.7320 H     1 <1>   0.1500 
 28 H        0.8150    -5.9550     0.9890 H     1 <1>   0.1500 
 29 H        6.1100    -1.9200    -0.4860 H     1 <1>   0.3700 
 30 H        7.3430    -4.2180     0.9780 H     1 <1>   0.0800 
 31 H        7.8350    -2.0970     2.0640 H     1 <1>   0.0800 
 32 H        8.3160    -1.3850     0.5430 H     1 <1>   0.0800 
 33 H        8.1140    -2.8790    -1.6240 H     1 <1>   0.0800 
 34 H        7.5080    -4.5060    -1.4330 H     1 <1>   0.0800 
 35 H        9.7070    -3.6530     1.9810 H     1 <1>   0.0800 
 36 H       10.3060    -2.0300     1.7960 H     1 <1>   0.0800 
 37 H        9.9780    -4.4490    -1.7120 H     1 <1>   0.0800 
 38 H        9.5030    -5.1520    -0.1920 H     1 <1>   0.0800 
 39 H       11.3560    -3.6030     0.1790 H     1 <1>   0.0800 
 40 H       10.4930    -2.3230    -0.6230 H     1 <1>   0.0800 
@<TRIPOS>BOND
  1   1   2  2   
  2   2   3  am  
  3   2   4  1   
  4   3   5  1   
  5   3   6  1   
  6   4   7  ar  
  7   4   8  ar  
  8   5   9  2   
  9   6  22  1   
 10   6  23  1   
 11   6  24  1   
 12   7   9  1   
 13   7  10  ar  
 14   8  11  ar  
 15   8  25  1   
 16   9  12  1   
 17  10  13  ar  
 18  10  26  1   
 19  11  13  ar  
 20  11  27  1   
 21  12  14  2   
 22  12  15  am  
 23  13  28  1   
 24  15  16  1   
 25  15  29  1   
 26  16  17  1   
 27  16  18  1   
 28  16  30  1   
 29  17  19  1   
 30  17  31  1   
 31  17  32  1   
 32  18  20  1   
 33  18  33  1   
 34  18  34  1   
 35  19  21  1   
 36  19  35  1   
 37  19  36  1   
 38  20  21  1   
 39  20  37  1   
 40  20  38  1   
 41  21  39  1   
 42  21  40  1   
@<TRIPOS>SUBSTRUCTURE
  1 ****   9 GROUP 4 **** **** 0

# MOE 2024.06 (io_trps.svl 2023.06)
