@<TRIPOS>MOLECULE
NONAME
32 32 1 0 0 
SMALL
USER_CHARGES


@<TRIPOS>ATOM
  1 CL       0.2750     0.4400     0.0080 Cl    1 <1>  -0.1770 
  2 C        1.6460    -0.6390    -0.0060 C.ar  1 <1>   0.1770 
  3 C        2.9220    -0.1130     0.0010 C.ar  1 <1>  -0.1500 
  4 C        1.4310    -2.0040    -0.0240 C.ar  1 <1>  -0.1500 
  5 C        4.0140    -0.9670    -0.0100 C.ar  1 <1>   0.0820 
  6 C        2.5190    -2.8600    -0.0350 C.ar  1 <1>  -0.1500 
  7 O        5.2400    -0.3870    -0.0020 O.3   1 <1>  -0.3630 
  8 C        3.8070    -2.3460    -0.0280 C.ar  1 <1>  -0.1500 
  9 C        6.4180    -1.1540    -0.0120 C.3   1 <1>   0.1200 
 10 C        7.5940    -0.1750     0.0010 C.3   1 <1>   0.3430 
 11 N        8.9120    -0.8820    -0.0080 N.4   1 <1>  -0.9060 
 12 C       10.0470     0.0920     0.0060 C.3   1 <1>   0.3430 
 13 C       11.4070    -0.6110    -0.0030 C.3   1 <1>   0.1200 
 14 O       12.3710     0.3820     0.0110 O.3   1 <1>  -0.5600 
 15 C       13.6850    -0.0840     0.0060 C.3   1 <1>   0.0400 
 16 H        3.0620     0.9520     0.0150 H     1 <1>   0.1500 
 17 H        0.4260    -2.3870    -0.0290 H     1 <1>   0.1500 
 18 H        2.3610    -3.9260    -0.0490 H     1 <1>   0.1500 
 19 H        4.6250    -3.0400    -0.0370 H     1 <1>   0.1500 
 20 H        6.4180    -1.7500    -0.9080 H     1 <1>   0.0800 
 21 H        6.4180    -1.7740     0.8680 H     1 <1>   0.0800 
 22 H        7.5190     0.4400     0.8840 H     1 <1>   0.0800 
 23 H        7.5200     0.4630    -0.8650 H     1 <1>   0.0800 
 24 H        8.9850    -1.4730    -0.8460 H     1 <1>   0.4500 
 25 H        8.9840    -1.4950     0.8150 H     1 <1>   0.4500 
 26 H        9.9880     0.7090     0.8890 H     1 <1>   0.0800 
 27 H        9.9890     0.7320    -0.8600 H     1 <1>   0.0800 
 28 H       11.5370    -1.1960    -0.8970 H     1 <1>   0.0800 
 29 H       11.5360    -1.2200     0.8760 H     1 <1>   0.0800 
 30 H       14.3440     0.7680     0.0170 H     1 <1>   0.0800 
 31 H       13.8600    -0.6590    -0.8870 H     1 <1>   0.0800 
 32 H       13.8590    -0.6830     0.8840 H     1 <1>   0.0800 
@<TRIPOS>BOND
  1   1   2  1   
  2   2   3  ar  
  3   2   4  ar  
  4   3   5  ar  
  5   3  16  1   
  6   4   6  ar  
  7   4  17  1   
  8   5   7  1   
  9   5   8  ar  
 10   6   8  ar  
 11   6  18  1   
 12   7   9  1   
 13   8  19  1   
 14   9  10  1   
 15   9  20  1   
 16   9  21  1   
 17  10  11  1   
 18  10  22  1   
 19  10  23  1   
 20  11  12  1   
 21  11  24  1   
 22  11  25  1   
 23  12  13  1   
 24  12  26  1   
 25  12  27  1   
 26  13  14  1   
 27  13  28  1   
 28  13  29  1   
 29  14  15  1   
 30  15  30  1   
 31  15  31  1   
 32  15  32  1   
@<TRIPOS>SUBSTRUCTURE
  1 ****   9 GROUP 4 **** **** 0

# MOE 2024.06 (io_trps.svl 2023.06)
