@<TRIPOS>MOLECULE
NONAME
28 29 1 0 0 
SMALL
USER_CHARGES


@<TRIPOS>ATOM
  1 BR       1.2680     3.0580     1.3420 Br    1 <1>  -0.0580 
  2 C        2.1560     1.6560     0.3770 C.2   1 <1>   0.0980 
  3 S        3.5810     0.9870     1.1340 S.3   1 <1>  -0.0800 
  4 C        1.8720     1.0840    -0.8040 C.2   1 <1>  -0.1500 
  5 C        3.8000    -0.1270    -0.2230 C.2   1 <1>  -0.0220 
  6 C        2.8210     0.0650    -1.1390 C.2   1 <1>  -0.1500 
  7 S        5.2130    -1.2540    -0.1640 S.o2  1 <1>   1.5000 
  8 O        5.2820    -2.0120    -1.3920 O.2   1 <1>  -0.6500 
  9 O        5.2840    -1.9220     1.1130 O.2   1 <1>  -0.6500 
 10 N        6.5310    -0.2190    -0.1380 N.am  1 <1>  -0.9140 
 11 C        7.7770    -0.8920    -0.5140 C.3   1 <1>   0.1960 
 12 C        8.9850     0.0430    -0.3530 C.3   1 <1>   0.2000 
 13 O       10.1530    -0.6680    -0.5930 O.3   1 <1>  -0.5600 
 14 C        9.1800     0.6060     1.0500 C.3   1 <1>  -0.1600 
 15 C       11.2410    -0.0190    -0.0160 C.3   1 <1>   0.1200 
 16 C       10.6810     0.8380     1.1160 C.3   1 <1>  -0.1600 
 17 H        1.0450     1.3330    -1.4450 H     1 <1>   0.1500 
 18 H        2.7330    -0.4870    -2.0600 H     1 <1>   0.1500 
 19 H        6.6150     0.0140     0.8490 H     1 <1>   0.4200 
 20 H        7.7200    -1.2070    -1.5430 H     1 <1>   0.0800 
 21 H        7.9210    -1.7620     0.1060 H     1 <1>   0.0800 
 22 H        8.9380     0.8380    -1.0780 H     1 <1>   0.0800 
 23 H        8.8900    -0.1280     1.7820 H     1 <1>   0.0800 
 24 H        8.6160     1.5090     1.2010 H     1 <1>   0.0800 
 25 H       11.7120     0.5860    -0.7720 H     1 <1>   0.0800 
 26 H       11.9310    -0.7650     0.3410 H     1 <1>   0.0800 
 27 H       11.0880     0.5440     2.0670 H     1 <1>   0.0800 
 28 H       10.9210     1.8720     0.9370 H     1 <1>   0.0800 
@<TRIPOS>BOND
  1   1   2  1   
  2   2   3  1   
  3   2   4  2   
  4   3   5  1   
  5   4   6  1   
  6   4  17  1   
  7   5   6  2   
  8   5   7  1   
  9   6  18  1   
 10   7   8  2   
 11   7   9  2   
 12   7  10  am  
 13  10  11  1   
 14  10  19  1   
 15  11  12  1   
 16  11  20  1   
 17  11  21  1   
 18  12  13  1   
 19  12  14  1   
 20  12  22  1   
 21  13  15  1   
 22  14  16  1   
 23  14  23  1   
 24  14  24  1   
 25  15  16  1   
 26  15  25  1   
 27  15  26  1   
 28  16  27  1   
 29  16  28  1   
@<TRIPOS>SUBSTRUCTURE
  1 ****  10 GROUP 4 **** **** 0

# MOE 2024.06 (io_trps.svl 2023.06)
