@<TRIPOS>MOLECULE
NONAME
40 41 1 0 0 
SMALL
USER_CHARGES


@<TRIPOS>ATOM
  1 CL      -1.2020    -1.2490     1.9850 Cl    1 <1>  -0.1770 
  2 C       -0.0140    -2.2000     1.1320 C.ar  1 <1>   0.1770 
  3 C        0.6870    -3.1780     1.8120 C.ar  1 <1>  -0.1500 
  4 C        0.2080    -1.9610    -0.2110 C.ar  1 <1>  -0.1500 
  5 C        1.6290    -3.9310     1.1300 C.ar  1 <1>  -0.1500 
  6 C        1.1520    -2.7170    -0.8870 C.ar  1 <1>  -0.1500 
  7 C        1.8660    -3.7050    -0.2200 C.ar  1 <1>  -0.1430 
  8 C        2.9050    -4.5390    -0.9620 C.3   1 <1>   0.3390 
  9 N        4.2150    -4.5060    -0.3020 N.am  1 <1>  -0.8490 
 10 S        5.3070    -5.5000    -1.1290 S.o2  1 <1>   1.3330 
 11 C        4.7070    -3.1050    -0.1390 C.3   1 <1>   0.2570 
 12 O        5.9700    -4.6770    -2.1140 O.2   1 <1>  -0.6500 
 13 O        4.5770    -6.6610    -1.5800 O.2   1 <1>  -0.6500 
 14 C        6.4680    -6.0630     0.1010 C.3   1 <1>  -0.1350 
 15 C        6.0170    -2.9360     0.6550 C.2   1 <1>   0.5690 
 16 O        6.0450    -3.3450     1.7940 O.2   1 <1>  -0.5700 
 17 N        7.1250    -2.3470     0.1010 N.am  1 <1>  -0.6600 
 18 C        8.3820    -2.1750     0.8630 C.3   1 <1>   0.1400 
 19 C        7.2650    -1.8080    -1.2730 C.3   1 <1>   0.1400 
 20 C        9.4070    -1.7140    -0.1670 C.3   1 <1>  -0.1600 
 21 C        8.5790    -1.0360    -1.2540 C.3   1 <1>  -0.1600 
 22 H        0.4990    -3.3450     2.8570 H     1 <1>   0.1500 
 23 H       -0.3520    -1.1950    -0.7150 H     1 <1>   0.1500 
 24 H        2.1850    -4.6920     1.6520 H     1 <1>   0.1500 
 25 H        1.3220    -2.5320    -1.9340 H     1 <1>   0.1500 
 26 H        3.0030    -4.1960    -1.9790 H     1 <1>   0.0800 
 27 H        2.5400    -5.5520    -0.9910 H     1 <1>   0.0800 
 28 H        3.9760    -2.5330     0.4020 H     1 <1>   0.0800 
 29 H        4.8070    -2.6520    -1.1070 H     1 <1>   0.0800 
 30 H        7.1110    -5.2700     0.4200 H     1 <1>   0.0800 
 31 H        7.0790    -6.8430    -0.3090 H     1 <1>   0.0800 
 32 H        5.9430    -6.4490     0.9530 H     1 <1>   0.0800 
 33 H        8.6770    -3.0980     1.3340 H     1 <1>   0.0800 
 34 H        8.2340    -1.4190     1.6150 H     1 <1>   0.0800 
 35 H        6.4410    -1.1650    -1.5320 H     1 <1>   0.0800 
 36 H        7.3320    -2.6230    -1.9730 H     1 <1>   0.0800 
 37 H        9.9060    -2.5770    -0.5730 H     1 <1>   0.0800 
 38 H       10.1400    -1.0560     0.2640 H     1 <1>   0.0800 
 39 H        8.3820    -0.0140    -0.9800 H     1 <1>   0.0800 
 40 H        9.0670    -1.0540    -2.2130 H     1 <1>   0.0800 
@<TRIPOS>BOND
  1   1   2  1   
  2   2   3  ar  
  3   2   4  ar  
  4   3   5  ar  
  5   3  22  1   
  6   4   6  ar  
  7   4  23  1   
  8   5   7  ar  
  9   5  24  1   
 10   6   7  ar  
 11   6  25  1   
 12   7   8  1   
 13   8   9  1   
 14   8  26  1   
 15   8  27  1   
 16   9  10  am  
 17   9  11  1   
 18  10  12  2   
 19  10  13  2   
 20  10  14  1   
 21  11  15  1   
 22  11  28  1   
 23  11  29  1   
 24  14  30  1   
 25  14  31  1   
 26  14  32  1   
 27  15  16  2   
 28  15  17  am  
 29  17  18  1   
 30  17  19  1   
 31  18  20  1   
 32  18  33  1   
 33  18  34  1   
 34  19  21  1   
 35  19  35  1   
 36  19  36  1   
 37  20  21  1   
 38  20  37  1   
 39  20  38  1   
 40  21  39  1   
 41  21  40  1   
@<TRIPOS>SUBSTRUCTURE
  1 ****  11 GROUP 4 **** **** 0

# MOE 2024.06 (io_trps.svl 2023.06)
