@<TRIPOS>MOLECULE
NONAME
36 37 1 0 0 
SMALL
USER_CHARGES


@<TRIPOS>ATOM
  1 CL       0.1860     1.0920     0.5190 Cl    1 <1>  -0.1770 
  2 C       -1.5310     1.3820     0.3200 C.ar  1 <1>   0.1770 
  3 C       -2.3540     0.3970    -0.2120 C.ar  1 <1>   0.0830 
  4 C       -2.0290     2.6100     0.7080 C.ar  1 <1>  -0.1500 
  5 O       -1.7890    -0.7900    -0.5720 O.3   1 <1>  -0.3630 
  6 C       -3.7120     0.6690    -0.3530 C.ar  1 <1>  -0.1500 
  7 C       -3.3870     2.8720     0.5640 C.ar  1 <1>   0.0830 
  8 C       -2.5640    -1.8350    -1.1200 C.3   1 <1>   0.0400 
  9 C       -4.2400     1.8980     0.0290 C.ar  1 <1>   0.1170 
 10 O       -3.9520     4.0650     0.9250 O.3   1 <1>  -0.3630 
 11 N       -5.6070     2.2190    -0.0940 N.am  1 <1>  -0.5470 
 12 C       -3.1740     5.1080     1.4720 C.3   1 <1>   0.0400 
 13 C       -6.7060     1.5490    -0.5550 C.2   1 <1>   0.5690 
 14 O       -6.6680     0.4230    -0.9880 O.2   1 <1>  -0.5700 
 15 C       -8.0600     2.2460    -0.5290 C.3   1 <1>   0.1310 
 16 S       -7.9570     3.9710     0.1620 S.3   1 <1>  -0.3710 
 17 C       -9.6470     4.5160     0.0680 C.2   1 <1>   0.7320 
 18 S       -9.9380     6.1440     0.6500 S.3   1 <1>  -0.3710 
 19 N      -10.6320     3.8690    -0.3630 N.2   1 <1>  -0.6960 
 20 C      -11.7250     6.0260     0.2800 C.3   1 <1>   0.0700 
 21 C      -11.9100     4.6070    -0.3070 C.3   1 <1>   0.0860 
 22 H       -1.3440     3.3280     1.1120 H     1 <1>   0.1500 
 23 H       -4.3680    -0.0720    -0.7610 H     1 <1>   0.1500 
 24 H       -1.9110    -2.6630    -1.3250 H     1 <1>   0.0800 
 25 H       -3.0170    -1.4920    -2.0340 H     1 <1>   0.0800 
 26 H       -3.3130    -2.1270    -0.4060 H     1 <1>   0.0800 
 27 H       -5.8040     3.1690     0.2410 H     1 <1>   0.3700 
 28 H       -3.8260     5.9380     1.6770 H     1 <1>   0.0800 
 29 H       -2.4270     5.4000     0.7560 H     1 <1>   0.0800 
 30 H       -2.7220     4.7660     2.3860 H     1 <1>   0.0800 
 31 H       -8.7470     1.6960     0.0870 H     1 <1>   0.0800 
 32 H       -8.4540     2.3250    -1.5250 H     1 <1>   0.0800 
 33 H      -11.9720     6.7970    -0.4290 H     1 <1>   0.0800 
 34 H      -12.2670     6.1620     1.1980 H     1 <1>   0.0800 
 35 H      -12.6070     4.0540     0.2990 H     1 <1>   0.0800 
 36 H      -12.3160     4.6780    -1.3020 H     1 <1>   0.0800 
@<TRIPOS>BOND
  1   1   2  1   
  2   2   3  ar  
  3   2   4  ar  
  4   3   5  1   
  5   3   6  ar  
  6   4   7  ar  
  7   4  22  1   
  8   5   8  1   
  9   6   9  ar  
 10   6  23  1   
 11   7   9  ar  
 12   7  10  1   
 13   8  24  1   
 14   8  25  1   
 15   8  26  1   
 16   9  11  1   
 17  10  12  1   
 18  11  13  am  
 19  11  27  1   
 20  12  28  1   
 21  12  29  1   
 22  12  30  1   
 23  13  14  2   
 24  13  15  1   
 25  15  16  1   
 26  15  31  1   
 27  15  32  1   
 28  16  17  1   
 29  17  18  1   
 30  17  19  2   
 31  18  20  1   
 32  19  21  1   
 33  20  21  1   
 34  20  33  1   
 35  20  34  1   
 36  21  35  1   
 37  21  36  1   
@<TRIPOS>SUBSTRUCTURE
  1 ****  11 GROUP 4 **** **** 0

# MOE 2024.06 (io_trps.svl 2023.06)
