@<TRIPOS>MOLECULE
NONAME
31 31 1 0 0 
SMALL
USER_CHARGES


@<TRIPOS>ATOM
  1 O       -0.0580    -0.7410    -1.2910 O.2   1 <1>  -0.5700 
  2 C       -0.0950    -1.3550    -0.2460 C.2   1 <1>   0.8700 
  3 O        0.9860    -1.6360     0.4810 O.3   1 <1>  -0.2320 
  4 O       -1.2400    -1.7990     0.2650 O.3   1 <1>  -0.4300 
  5 C        2.2290    -1.2330     0.1260 C.ar  1 <1>   0.0830 
  6 C       -2.4650    -1.5790    -0.4040 C.3   1 <1>   0.1200 
  7 C        2.6340     0.0910     0.2810 C.ar  1 <1>  -0.1440 
  8 C        3.1040    -2.1840    -0.3750 C.ar  1 <1>  -0.1500 
  9 C       -3.6090    -2.2180     0.3970 C.3   1 <1>  -0.0800 
 10 C        3.9220     0.4440    -0.0920 C.ar  1 <1>  -0.1500 
 11 C        1.7020     1.1530     0.8470 C.3   1 <1>  -0.0960 
 12 C        4.3870    -1.8200    -0.7400 C.ar  1 <1>  -0.1500 
 13 C       -3.4250    -3.7350     0.5440 C.3   1 <1>  -0.2400 
 14 C       -4.9540    -1.9250    -0.2800 C.3   1 <1>  -0.2400 
 15 C        4.7950    -0.5050    -0.6000 C.ar  1 <1>  -0.1500 
 16 H       -2.3980    -2.0130    -1.3870 H     1 <1>   0.0800 
 17 H       -2.6110    -0.5150    -0.4940 H     1 <1>   0.0800 
 18 H        2.7800    -3.2040    -0.4790 H     1 <1>   0.1500 
 19 H       -3.6240    -1.7710     1.3770 H     1 <1>   0.0800 
 20 H        4.2560     1.4610     0.0110 H     1 <1>   0.1500 
 21 H        2.2570     2.0160     1.1680 H     1 <1>   0.0800 
 22 H        0.9980     1.4590     0.0940 H     1 <1>   0.0800 
 23 H        1.1640     0.7660     1.6940 H     1 <1>   0.0800 
 24 H        5.0670    -2.5560    -1.1330 H     1 <1>   0.1500 
 25 H       -3.3870    -4.2090    -0.4210 H     1 <1>   0.0800 
 26 H       -4.2400    -4.1590     1.1040 H     1 <1>   0.0800 
 27 H       -2.5110    -3.9530     1.0690 H     1 <1>   0.0800 
 28 H       -4.9840    -2.3540    -1.2670 H     1 <1>   0.0800 
 29 H       -5.1090    -0.8630    -0.3620 H     1 <1>   0.0800 
 30 H       -5.7610    -2.3390     0.2980 H     1 <1>   0.0800 
 31 H        5.7920    -0.2180    -0.8860 H     1 <1>   0.1500 
@<TRIPOS>BOND
  1   1   2  2   
  2   2   3  1   
  3   2   4  1   
  4   3   5  1   
  5   4   6  1   
  6   5   7  ar  
  7   5   8  ar  
  8   6   9  1   
  9   6  16  1   
 10   6  17  1   
 11   7  10  ar  
 12   7  11  1   
 13   8  12  ar  
 14   8  18  1   
 15   9  13  1   
 16   9  14  1   
 17   9  19  1   
 18  10  15  ar  
 19  10  20  1   
 20  11  21  1   
 21  11  22  1   
 22  11  23  1   
 23  12  15  ar  
 24  12  24  1   
 25  13  25  1   
 26  13  26  1   
 27  13  27  1   
 28  14  28  1   
 29  14  29  1   
 30  14  30  1   
 31  15  31  1   
@<TRIPOS>SUBSTRUCTURE
  1 ****   2 GROUP 4 **** **** 0

# MOE 2024.06 (io_trps.svl 2023.06)
