@<TRIPOS>MOLECULE
NONAME
27 27 1 0 0 
SMALL
USER_CHARGES


@<TRIPOS>ATOM
  1 CL       0.3740     0.0880    -1.1910 Cl    1 <1>  -0.1770 
  2 C        0.9810     1.6480    -0.6690 C.ar  1 <1>   0.1770 
  3 C        0.0960     2.6480    -0.2860 C.ar  1 <1>   0.0830 
  4 C        2.3470     1.8440    -0.6530 C.ar  1 <1>  -0.1500 
  5 O       -1.2400     2.3770    -0.3300 O.3   1 <1>  -0.3630 
  6 C        0.6140     3.8740     0.1230 C.ar  1 <1>  -0.1500 
  7 C        2.8710     3.0640    -0.2460 C.ar  1 <1>   0.1170 
  8 C       -2.2060     3.3350     0.0420 C.3   1 <1>   0.0400 
  9 C        1.9910     4.0820     0.1430 C.ar  1 <1>   0.0830 
 10 N        4.2540     3.3350    -0.2040 N.am  1 <1>  -0.5470 
 11 O        2.5530     5.2670     0.5350 O.3   1 <1>  -0.3630 
 12 C        5.3600     2.5970    -0.5040 C.2   1 <1>   0.5690 
 13 C        1.7630     6.3620     0.9480 C.3   1 <1>   0.0400 
 14 O        5.3350     1.4600    -0.9000 O.2   1 <1>  -0.5700 
 15 C        6.7000     3.2640    -0.3220 C.3   1 <1>  -0.1790 
 16 H        2.9850     1.0370    -0.9590 H     1 <1>   0.1500 
 17 H       -0.0520     4.6560     0.4210 H     1 <1>   0.1500 
 18 H       -3.1770     2.8900    -0.0760 H     1 <1>   0.0800 
 19 H       -2.1170     4.1910    -0.6020 H     1 <1>   0.0800 
 20 H       -2.0520     3.6050     1.0720 H     1 <1>   0.0800 
 21 H        4.4360     4.2860     0.1210 H     1 <1>   0.3700 
 22 H        2.4210     7.1720     1.2060 H     1 <1>   0.0800 
 23 H        1.1870     6.0730     1.8100 H     1 <1>   0.0800 
 24 H        1.1230     6.6580     0.1350 H     1 <1>   0.0800 
 25 H        6.8270     3.5520     0.7050 H     1 <1>   0.0800 
 26 H        6.7640     4.1300    -0.9520 H     1 <1>   0.0800 
 27 H        7.4840     2.5800    -0.5900 H     1 <1>   0.0800 
@<TRIPOS>BOND
  1   1   2  1   
  2   2   3  ar  
  3   2   4  ar  
  4   3   5  1   
  5   3   6  ar  
  6   4   7  ar  
  7   4  16  1   
  8   5   8  1   
  9   6   9  ar  
 10   6  17  1   
 11   7   9  ar  
 12   7  10  1   
 13   8  18  1   
 14   8  19  1   
 15   8  20  1   
 16   9  11  1   
 17  10  12  am  
 18  10  21  1   
 19  11  13  1   
 20  12  14  2   
 21  12  15  1   
 22  13  22  1   
 23  13  23  1   
 24  13  24  1   
 25  15  25  1   
 26  15  26  1   
 27  15  27  1   
@<TRIPOS>SUBSTRUCTURE
  1 ****   7 GROUP 4 **** **** 0

# MOE 2024.06 (io_trps.svl 2023.06)
