@<TRIPOS>MOLECULE
NONAME
39 40 1 0 0 
SMALL
USER_CHARGES


@<TRIPOS>ATOM
  1 O       -0.3170     0.4540     0.6260 O.2   1 <1>  -0.5700 
  2 C       -0.8750     1.5280     0.5000 C.2   1 <1>   0.5440 
  3 N       -0.1330     2.6890     0.6100 N.am  1 <1>  -0.6600 
  4 C       -2.3000     1.5510     0.2340 C.ar  1 <1>   0.0860 
  5 C        1.2820     2.6720     1.0790 C.3   1 <1>   0.1400 
  6 C       -0.5990     4.0180     0.1230 C.3   1 <1>   0.1400 
  7 C       -3.1870     2.2420     1.0620 C.ar  1 <1>  -0.1500 
  8 C       -2.8350     0.8730    -0.8600 C.ar  1 <1>  -0.1500 
  9 C        2.2070     3.1450    -0.0460 C.3   1 <1>  -0.1600 
 10 C        0.3160     4.5060    -1.0060 C.3   1 <1>  -0.1600 
 11 C       -4.5450     2.2720     0.8020 C.ar  1 <1>  -0.1500 
 12 C       -4.1910     0.8990    -1.1280 C.ar  1 <1>  -0.1500 
 13 C        1.7900     4.5230    -0.5790 C.3   1 <1>  -0.1600 
 14 C       -5.0570     1.5990    -0.3040 C.ar  1 <1>   0.0830 
 15 O       -6.3680     1.5790    -0.6340 O.3   1 <1>  -0.3630 
 16 C       -7.3430     2.2250     0.1520 C.3   1 <1>   0.1200 
 17 C       -8.7090     1.9890    -0.4930 C.3   1 <1>  -0.1600 
 18 C       -9.8290     2.6650     0.3070 C.3   1 <1>  -0.2400 
 19 H        1.5700     1.6830     1.3930 H     1 <1>   0.0800 
 20 H        1.3750     3.3260     1.9290 H     1 <1>   0.0800 
 21 H       -0.5750     4.7170     0.9410 H     1 <1>   0.0800 
 22 H       -1.6080     3.9640    -0.2450 H     1 <1>   0.0800 
 23 H       -2.7950     2.7570     1.9210 H     1 <1>   0.1500 
 24 H       -2.1700     0.3200    -1.5000 H     1 <1>   0.1500 
 25 H        2.1770     2.4210    -0.8420 H     1 <1>   0.0800 
 26 H        3.2180     3.1870     0.3200 H     1 <1>   0.0800 
 27 H        0.0150     5.4950    -1.3050 H     1 <1>   0.0800 
 28 H        0.1930     3.8560    -1.8550 H     1 <1>   0.0800 
 29 H       -5.1870     2.8190     1.4660 H     1 <1>   0.1500 
 30 H       -4.5890     0.3730    -1.9770 H     1 <1>   0.1500 
 31 H        2.4100     4.7920    -1.4170 H     1 <1>   0.0800 
 32 H        1.9320     5.2610     0.1920 H     1 <1>   0.0800 
 33 H       -7.1130     3.2760     0.1820 H     1 <1>   0.0800 
 34 H       -7.3130     1.8060     1.1420 H     1 <1>   0.0800 
 35 H       -8.8980     0.9310    -0.5430 H     1 <1>   0.0800 
 36 H       -8.7000     2.3850    -1.4940 H     1 <1>   0.0800 
 37 H       -9.8670     2.2720     1.3080 H     1 <1>   0.0800 
 38 H      -10.7780     2.4840    -0.1670 H     1 <1>   0.0800 
 39 H       -9.6690     3.7280     0.3550 H     1 <1>   0.0800 
@<TRIPOS>BOND
  1   1   2  2   
  2   2   3  am  
  3   2   4  1   
  4   3   5  1   
  5   3   6  1   
  6   4   7  ar  
  7   4   8  ar  
  8   5   9  1   
  9   5  19  1   
 10   5  20  1   
 11   6  10  1   
 12   6  21  1   
 13   6  22  1   
 14   7  11  ar  
 15   7  23  1   
 16   8  12  ar  
 17   8  24  1   
 18   9  13  1   
 19   9  25  1   
 20   9  26  1   
 21  10  13  1   
 22  10  27  1   
 23  10  28  1   
 24  11  14  ar  
 25  11  29  1   
 26  12  14  ar  
 27  12  30  1   
 28  13  31  1   
 29  13  32  1   
 30  14  15  1   
 31  15  16  1   
 32  16  17  1   
 33  16  33  1   
 34  16  34  1   
 35  17  18  1   
 36  17  35  1   
 37  17  36  1   
 38  18  37  1   
 39  18  38  1   
 40  18  39  1   
@<TRIPOS>SUBSTRUCTURE
  1 ****   4 GROUP 4 **** **** 0

# MOE 2024.06 (io_trps.svl 2023.06)
