@<TRIPOS>MOLECULE
NONAME
42 44 1 0 0 
SMALL
USER_CHARGES


@<TRIPOS>ATOM
  1 O       -0.3590    -0.2890    -0.3450 O.2   1 <1>  -0.5700 
  2 C       -1.4400    -0.8520    -0.3920 C.2   1 <1>   0.6900 
  3 N       -1.5010    -2.2310    -0.2570 N.am  1 <1>  -0.4200 
  4 N       -2.5980    -0.1180    -0.5740 N.am  1 <1>  -0.4230 
  5 C       -2.7160    -2.8980    -0.2380 C.2   1 <1>   0.7160 
  6 C       -0.2340    -3.0030    -0.0790 C.3   1 <1>   0.0600 
  7 C       -3.8470    -0.7660    -0.6050 C.2   1 <1>   0.0630 
  8 C       -2.5810     1.3600    -0.7290 C.3   1 <1>   0.0600 
  9 O       -2.7360    -4.1000    -0.0340 O.2   1 <1>  -0.5700 
 10 C       -3.9230    -2.1510    -0.4440 C.2   1 <1>  -0.0860 
 11 C       -5.1070    -0.2910    -0.7680 C.2   1 <1>  -0.3020 
 12 C       -5.2640    -2.4800    -0.5280 C.2   1 <1>  -0.2050 
 13 N       -5.9800    -1.3340    -0.7210 N.pl3 1 <1>   0.0480 
 14 C       -5.8650    -3.7830    -0.4230 C.ar  1 <1>   0.0530 
 15 C       -7.4530    -1.2090    -0.7960 C.3   1 <1>   0.0960 
 16 C       -5.8610    -4.4740     0.7850 C.ar  1 <1>  -0.1500 
 17 C       -6.4780    -4.3850    -1.5180 C.ar  1 <1>  -0.1500 
 18 C       -8.0630    -1.2220     0.6100 C.3   1 <1>  -0.1600 
 19 C       -6.4650    -5.7120     0.9030 C.ar  1 <1>  -0.1500 
 20 C       -7.0860    -5.6220    -1.4080 C.ar  1 <1>  -0.1500 
 21 C       -9.5870    -1.1600     0.5370 C.3   1 <1>   0.1200 
 22 C       -7.0830    -6.2870    -0.1940 C.ar  1 <1>  -0.1500 
 23 O      -10.0790    -1.1130     1.8240 O.3   1 <1>  -0.6800 
 24 H        0.5700    -2.5350    -0.6210 H     1 <1>   0.0800 
 25 H       -0.3460    -4.0080    -0.4470 H     1 <1>   0.0800 
 26 H        0.0200    -3.0360     0.9660 H     1 <1>   0.0800 
 27 H       -1.5750     1.7410    -0.7120 H     1 <1>   0.0800 
 28 H       -3.1360     1.8100     0.0740 H     1 <1>   0.0800 
 29 H       -3.0340     1.6260    -1.6670 H     1 <1>   0.0800 
 30 H       -5.4270     0.7250    -0.9100 H     1 <1>   0.1500 
 31 H       -7.8410    -2.0260    -1.3760 H     1 <1>   0.0800 
 32 H       -7.6970    -0.2900    -1.2980 H     1 <1>   0.0800 
 33 H       -5.3710    -4.0320     1.6330 H     1 <1>   0.1500 
 34 H       -6.4700    -3.8750    -2.4640 H     1 <1>   0.1500 
 35 H       -7.6980    -0.3710     1.1590 H     1 <1>   0.0800 
 36 H       -7.7700    -2.1260     1.1140 H     1 <1>   0.0800 
 37 H       -6.4500    -6.2300     1.8450 H     1 <1>   0.1500 
 38 H       -7.5570    -6.0720    -2.2650 H     1 <1>   0.1500 
 39 H       -9.9940    -2.0290     0.0480 H     1 <1>   0.0800 
 40 H       -9.9170    -0.2710     0.0260 H     1 <1>   0.0800 
 41 H       -7.5530    -7.2510    -0.1050 H     1 <1>   0.1500 
 42 H       -9.8110    -1.9080     2.3250 H     1 <1>   0.4000 
@<TRIPOS>BOND
  1   1   2  2   
  2   2   3  am  
  3   2   4  am  
  4   3   5  am  
  5   3   6  1   
  6   4   7  1   
  7   4   8  1   
  8   5   9  2   
  9   5  10  1   
 10   6  24  1   
 11   6  25  1   
 12   6  26  1   
 13   7  10  1   
 14   7  11  2   
 15   8  27  1   
 16   8  28  1   
 17   8  29  1   
 18  10  12  2   
 19  11  13  1   
 20  11  30  1   
 21  12  13  1   
 22  12  14  1   
 23  13  15  1   
 24  14  16  ar  
 25  14  17  ar  
 26  15  18  1   
 27  15  31  1   
 28  15  32  1   
 29  16  19  ar  
 30  16  33  1   
 31  17  20  ar  
 32  17  34  1   
 33  18  21  1   
 34  18  35  1   
 35  18  36  1   
 36  19  22  ar  
 37  19  37  1   
 38  20  22  ar  
 39  20  38  1   
 40  21  23  1   
 41  21  39  1   
 42  21  40  1   
 43  22  41  1   
 44  23  42  1   
@<TRIPOS>SUBSTRUCTURE
  1 ****  12 GROUP 4 **** **** 0

# MOE 2024.06 (io_trps.svl 2023.06)
