@<TRIPOS>MOLECULE
NONAME
50 53 1 0 0 
SMALL
USER_CHARGES


@<TRIPOS>ATOM
  1 O       -2.2580     2.2940    -2.0470 O.2   1 <1>  -0.5700 
  2 C       -1.2920     2.0950    -1.3460 C.2   1 <1>   0.5690 
  3 N       -0.9050     0.8260    -1.0510 N.am  1 <1>  -0.7300 
  4 C       -0.5050     3.2980    -0.7810 C.3   1 <1>   0.0610 
  5 C       -1.5970    -0.4190    -1.4490 C.3   1 <1>   0.1400 
  6 C        0.7130     2.8680     0.0830 C.3   1 <1>  -0.1600 
  7 C       -1.4350     4.1630     0.1040 C.3   1 <1>  -0.1600 
  8 C        0.0200     4.1750    -1.9430 C.3   1 <1>  -0.1600 
  9 C       -1.7140    -1.3600    -0.2410 C.3   1 <1>   0.2000 
 10 C        1.4750     4.0910     0.6310 C.3   1 <1>   0.0000 
 11 C       -0.6980     5.4010     0.6530 C.3   1 <1>   0.0000 
 12 C        0.7700     5.4080    -1.4080 C.3   1 <1>  -0.0800 
 13 O       -0.4770    -1.5010     0.3870 O.3   1 <1>  -0.5600 
 14 C       -2.1250    -2.7830    -0.5900 C.3   1 <1>  -0.1600 
 15 C        0.5100     4.9320     1.4890 C.3   1 <1>  -0.1600 
 16 C        1.9640     4.9450    -0.5550 C.3   1 <1>  -0.1600 
 17 C        2.6700     3.6320     1.4770 C.3   1 <1>  -0.2400 
 18 C       -0.1850     6.2410    -0.5350 C.3   1 <1>  -0.1600 
 19 C       -1.6480     6.2380     1.5190 C.3   1 <1>  -0.2400 
 20 C       -0.4340    -2.6870     1.1170 C.3   1 <1>   0.1200 
 21 C       -1.5320    -3.5880     0.5540 C.3   1 <1>  -0.1600 
 22 H       -0.1250     0.6570    -0.4090 H     1 <1>   0.3700 
 23 H       -1.0320    -0.8980    -2.2280 H     1 <1>   0.0800 
 24 H       -2.5780    -0.1930    -1.8330 H     1 <1>   0.0800 
 25 H        1.3830     2.2710    -0.5120 H     1 <1>   0.0800 
 26 H        0.3750     2.2640     0.9080 H     1 <1>   0.0800 
 27 H       -1.8070     3.5670     0.9180 H     1 <1>   0.0800 
 28 H       -2.2840     4.4780    -0.4770 H     1 <1>   0.0800 
 29 H       -0.8070     4.4970    -2.5530 H     1 <1>   0.0800 
 30 H        0.6740     3.5930    -2.5690 H     1 <1>   0.0800 
 31 H       -2.3980    -0.9460     0.4810 H     1 <1>   0.0800 
 32 H        1.1210     6.0050    -2.2320 H     1 <1>   0.0800 
 33 H       -1.6720    -3.0770    -1.5210 H     1 <1>   0.0800 
 34 H       -3.1930    -2.8870    -0.6620 H     1 <1>   0.0800 
 35 H        0.1650     4.3490     2.3250 H     1 <1>   0.0800 
 36 H        1.0290     5.7890     1.8830 H     1 <1>   0.0800 
 37 H        2.6410     4.3730    -1.1660 H     1 <1>   0.0800 
 38 H        2.4990     5.8050    -0.1920 H     1 <1>   0.0800 
 39 H        2.3360     3.0350     2.3070 H     1 <1>   0.0800 
 40 H        3.2050     4.4820     1.8620 H     1 <1>   0.0800 
 41 H        3.3470     3.0430     0.8850 H     1 <1>   0.0800 
 42 H        0.3290     7.1130    -0.1720 H     1 <1>   0.0800 
 43 H       -1.0160     6.5760    -1.1310 H     1 <1>   0.0800 
 44 H       -2.0090     5.6570     2.3490 H     1 <1>   0.0800 
 45 H       -2.4930     6.5660     0.9400 H     1 <1>   0.0800 
 46 H       -1.1410     7.1040     1.9050 H     1 <1>   0.0800 
 47 H       -0.6090    -2.4540     2.1540 H     1 <1>   0.0800 
 48 H        0.5440    -3.1210     0.9970 H     1 <1>   0.0800 
 49 H       -1.1350    -4.5300     0.2190 H     1 <1>   0.0800 
 50 H       -2.2690    -3.7710     1.3160 H     1 <1>   0.0800 
@<TRIPOS>BOND
  1   1   2  2   
  2   2   3  am  
  3   2   4  1   
  4   3   5  1   
  5   3  22  1   
  6   4   6  1   
  7   4   7  1   
  8   4   8  1   
  9   5   9  1   
 10   5  23  1   
 11   5  24  1   
 12   6  10  1   
 13   6  25  1   
 14   6  26  1   
 15   7  11  1   
 16   7  27  1   
 17   7  28  1   
 18   8  12  1   
 19   8  29  1   
 20   8  30  1   
 21   9  13  1   
 22   9  14  1   
 23   9  31  1   
 24  10  15  1   
 25  10  16  1   
 26  10  17  1   
 27  11  15  1   
 28  11  18  1   
 29  11  19  1   
 30  12  16  1   
 31  12  18  1   
 32  12  32  1   
 33  13  20  1   
 34  14  21  1   
 35  14  33  1   
 36  14  34  1   
 37  15  35  1   
 38  15  36  1   
 39  16  37  1   
 40  16  38  1   
 41  17  39  1   
 42  17  40  1   
 43  17  41  1   
 44  18  42  1   
 45  18  43  1   
 46  19  44  1   
 47  19  45  1   
 48  19  46  1   
 49  20  21  1   
 50  20  47  1   
 51  20  48  1   
 52  21  49  1   
 53  21  50  1   
@<TRIPOS>SUBSTRUCTURE
  1 ****   4 GROUP 4 **** **** 0

# MOE 2024.06 (io_trps.svl 2023.06)
