@<TRIPOS>MOLECULE
NONAME
41 42 1 0 0 
SMALL
USER_CHARGES


@<TRIPOS>ATOM
  1 O        0.1870     0.6550     1.6280 O.2   1 <1>  -0.5700 
  2 C        0.1940     1.5110     0.7760 C.2   1 <1>   0.4950 
  3 C        1.4180     2.2080     0.4750 C.2   1 <1>  -0.1360 
  4 C       -1.1520     1.8050     0.0490 C.3   1 <1>   0.0610 
  5 C        2.6200     2.0030     1.0670 C.2   1 <1>  -0.1780 
  6 C       -1.6390     0.5010    -0.6380 C.3   1 <1>  -0.1600 
  7 C       -2.2020     2.2410     1.1070 C.3   1 <1>  -0.1600 
  8 C       -1.0330     2.9200    -1.0240 C.3   1 <1>  -0.2400 
  9 C        3.8810     2.6550     0.8220 C.ar  1 <1>   0.0280 
 10 C       -3.0810     0.5650    -1.1720 C.3   1 <1>  -0.1600 
 11 C       -3.6450     2.3100     0.5790 C.3   1 <1>  -0.1600 
 12 C        5.0070     2.2760     1.5540 C.ar  1 <1>  -0.1500 
 13 C        4.0480     3.6680    -0.1250 C.ar  1 <1>  -0.1500 
 14 C       -4.0610     0.9850    -0.0710 C.3   1 <1>  -0.1600 
 15 C        6.2360     2.8750     1.3520 C.ar  1 <1>  -0.1500 
 16 C        5.2750     4.2720    -0.3330 C.ar  1 <1>  -0.1500 
 17 C        6.3840     3.8770     0.4090 C.ar  1 <1>   0.0830 
 18 O        7.6180     4.4140     0.2690 O.3   1 <1>  -0.3630 
 19 C        7.8800     5.4400    -0.6610 C.3   1 <1>   0.0400 
 20 H        1.3540     2.9510    -0.2870 H     1 <1>   0.1500 
 21 H        2.6690     1.2480     1.8350 H     1 <1>   0.1500 
 22 H       -0.9710     0.2430    -1.4410 H     1 <1>   0.0800 
 23 H       -1.5970    -0.3040     0.0770 H     1 <1>   0.0800 
 24 H       -2.1900     1.5320     1.9180 H     1 <1>   0.0800 
 25 H       -1.9250     3.1950     1.5200 H     1 <1>   0.0800 
 26 H       -1.9700     3.1080    -1.5130 H     1 <1>   0.0800 
 27 H       -0.3280     2.6380    -1.7850 H     1 <1>   0.0800 
 28 H       -0.7170     3.8440    -0.5740 H     1 <1>   0.0800 
 29 H       -3.1460     1.2520    -1.9960 H     1 <1>   0.0800 
 30 H       -3.3630    -0.4060    -1.5430 H     1 <1>   0.0800 
 31 H       -4.3100     2.5260     1.3970 H     1 <1>   0.0800 
 32 H       -3.7460     3.1100    -0.1330 H     1 <1>   0.0800 
 33 H        4.9190     1.5000     2.2930 H     1 <1>   0.1500 
 34 H        3.2130     3.9950    -0.7130 H     1 <1>   0.1500 
 35 H       -4.0920     0.2180     0.6850 H     1 <1>   0.0800 
 36 H       -5.0510     1.0790    -0.4830 H     1 <1>   0.0800 
 37 H        7.0920     2.5690     1.9260 H     1 <1>   0.1500 
 38 H        5.3520     5.0450    -1.0730 H     1 <1>   0.1500 
 39 H        8.9210     5.6990    -0.5880 H     1 <1>   0.0800 
 40 H        7.2720     6.2940    -0.4200 H     1 <1>   0.0800 
 41 H        7.6630     5.0780    -1.6510 H     1 <1>   0.0800 
@<TRIPOS>BOND
  1   1   2  2   
  2   2   3  1   
  3   2   4  1   
  4   3   5  2   
  5   3  20  1   
  6   4   6  1   
  7   4   7  1   
  8   4   8  1   
  9   5   9  1   
 10   5  21  1   
 11   6  10  1   
 12   6  22  1   
 13   6  23  1   
 14   7  11  1   
 15   7  24  1   
 16   7  25  1   
 17   8  26  1   
 18   8  27  1   
 19   8  28  1   
 20   9  12  ar  
 21   9  13  ar  
 22  10  14  1   
 23  10  29  1   
 24  10  30  1   
 25  11  14  1   
 26  11  31  1   
 27  11  32  1   
 28  12  15  ar  
 29  12  33  1   
 30  13  16  ar  
 31  13  34  1   
 32  14  35  1   
 33  14  36  1   
 34  15  17  ar  
 35  15  37  1   
 36  16  17  ar  
 37  16  38  1   
 38  17  18  1   
 39  18  19  1   
 40  19  39  1   
 41  19  40  1   
 42  19  41  1   
@<TRIPOS>SUBSTRUCTURE
  1 ****   3 GROUP 4 **** **** 0

# MOE 2024.06 (io_trps.svl 2023.06)
