@<TRIPOS>MOLECULE
NONAME
35 35 1 0 0 
SMALL
USER_CHARGES


@<TRIPOS>ATOM
  1 O        0.0640    -1.5720     1.2080 O.2   1 <1>  -0.5700 
  2 C       -0.4200    -1.7130     0.1030 C.2   1 <1>   0.7800 
  3 O        0.3410    -2.0120    -0.9450 O.3   1 <1>  -0.4300 
  4 N       -1.7380    -1.5810    -0.1390 N.am  1 <1>  -0.7300 
  5 C        1.7390    -2.1650    -0.8060 C.3   1 <1>   0.0400 
  6 C       -2.7620    -1.3480     0.8870 C.3   1 <1>   0.2840 
  7 C       -4.0180    -2.1000     0.4850 C.ar  1 <1>  -0.1430 
  8 C       -5.1010    -1.4250    -0.0570 C.ar  1 <1>  -0.1500 
  9 C       -4.0810    -3.4740     0.6570 C.ar  1 <1>  -0.1500 
 10 C       -6.2520    -2.1140    -0.4280 C.ar  1 <1>   0.0830 
 11 C       -5.2210    -4.1840     0.2910 C.ar  1 <1>   0.0830 
 12 O       -7.3440    -1.4880    -0.9570 O.3   1 <1>  -0.3630 
 13 C       -6.3060    -3.4970    -0.2530 C.ar  1 <1>   0.0830 
 14 O       -5.3230    -5.5370     0.4470 O.3   1 <1>  -0.3630 
 15 C       -7.2960    -0.1410    -1.3710 C.3   1 <1>   0.0400 
 16 O       -7.4180    -4.1820    -0.6370 O.3   1 <1>  -0.3630 
 17 C       -4.2030    -6.3260     0.7780 C.3   1 <1>   0.0400 
 18 C       -8.3870    -4.3590     0.3660 C.3   1 <1>   0.0400 
 19 H       -2.0760    -1.7860    -1.0770 H     1 <1>   0.3700 
 20 H        2.1540    -2.4020    -1.7690 H     1 <1>   0.0800 
 21 H        1.9340    -2.9630    -0.1110 H     1 <1>   0.0800 
 22 H        2.1550    -1.2430    -0.4390 H     1 <1>   0.0800 
 23 H       -2.9590    -0.2920     0.9600 H     1 <1>   0.0800 
 24 H       -2.4120    -1.6950     1.8460 H     1 <1>   0.0800 
 25 H       -5.0360    -0.3610    -0.1810 H     1 <1>   0.1500 
 26 H       -3.2300    -3.9750     1.0780 H     1 <1>   0.1500 
 27 H       -8.2360     0.0970    -1.8360 H     1 <1>   0.0800 
 28 H       -6.4970    -0.0230    -2.0820 H     1 <1>   0.0800 
 29 H       -7.1460     0.4850    -0.5100 H     1 <1>   0.0800 
 30 H       -4.5050    -7.3580     0.7520 H     1 <1>   0.0800 
 31 H       -3.8730    -6.0680     1.7680 H     1 <1>   0.0800 
 32 H       -3.4280    -6.1540     0.0530 H     1 <1>   0.0800 
 33 H       -9.2070    -4.9110    -0.0540 H     1 <1>   0.0800 
 34 H       -8.7210    -3.3920     0.6980 H     1 <1>   0.0800 
 35 H       -7.9470    -4.9080     1.1800 H     1 <1>   0.0800 
@<TRIPOS>BOND
  1   1   2  2   
  2   2   3  1   
  3   2   4  am  
  4   3   5  1   
  5   4   6  1   
  6   4  19  1   
  7   5  20  1   
  8   5  21  1   
  9   5  22  1   
 10   6   7  1   
 11   6  23  1   
 12   6  24  1   
 13   7   8  ar  
 14   7   9  ar  
 15   8  10  ar  
 16   8  25  1   
 17   9  11  ar  
 18   9  26  1   
 19  10  12  1   
 20  10  13  ar  
 21  11  13  ar  
 22  11  14  1   
 23  12  15  1   
 24  13  16  1   
 25  14  17  1   
 26  15  27  1   
 27  15  28  1   
 28  15  29  1   
 29  16  18  1   
 30  17  30  1   
 31  17  31  1   
 32  17  32  1   
 33  18  33  1   
 34  18  34  1   
 35  18  35  1   
@<TRIPOS>SUBSTRUCTURE
  1 ****   7 GROUP 4 **** **** 0

# MOE 2024.06 (io_trps.svl 2023.06)
