@<TRIPOS>MOLECULE
NONAME
47 49 1 0 0 
SMALL
USER_CHARGES


@<TRIPOS>ATOM
  1 CL      -0.9720     0.6830     1.6720 Cl    1 <1>  -0.1770 
  2 C       -0.5960     2.0150     0.5970 C.ar  1 <1>   0.1770 
  3 C       -1.6090     2.5610    -0.1900 C.ar  1 <1>   0.1170 
  4 C        0.7020     2.4890     0.5660 C.ar  1 <1>  -0.1500 
  5 N       -2.9100     2.0260    -0.1000 N.am  1 <1>  -0.5470 
  6 C       -1.2670     3.6290    -1.0170 C.ar  1 <1>  -0.1500 
  7 C        1.0180     3.5460    -0.2700 C.ar  1 <1>  -0.1500 
  8 C       -4.0270     2.1490    -0.8930 C.2   1 <1>   0.5440 
  9 C        0.0300     4.1130    -1.0580 C.ar  1 <1>  -0.1500 
 10 O       -3.9650     2.7490    -1.9460 O.2   1 <1>  -0.5700 
 11 C       -5.2730     1.5260    -0.4790 C.ar  1 <1>   0.0860 
 12 C       -6.2170     1.1160    -1.4200 C.ar  1 <1>  -0.1500 
 13 C       -5.5900     1.3080     0.8640 C.ar  1 <1>  -0.1500 
 14 C       -7.4010     0.5090    -1.0440 C.ar  1 <1>  -0.1500 
 15 C       -6.7740     0.6970     1.2370 C.ar  1 <1>  -0.1500 
 16 C       -7.7030     0.2800     0.2920 C.ar  1 <1>  -0.0090 
 17 S       -9.2600    -0.5290     0.7730 S.o2  1 <1>   1.4470 
 18 O       -9.1830    -0.9130     2.1670 O.2   1 <1>  -0.6500 
 19 O      -10.3240     0.3430     0.3290 O.2   1 <1>  -0.6500 
 20 N       -9.2690    -1.9740    -0.1270 N.am  1 <1>  -0.8490 
 21 C      -10.4730    -2.8110     0.0880 C.3   1 <1>   0.2760 
 22 C       -8.0630    -2.7610     0.1950 C.3   1 <1>   0.1960 
 23 C      -10.4080    -4.0670    -0.8030 C.3   1 <1>  -0.1600 
 24 C      -11.7780    -2.0850    -0.2570 C.3   1 <1>  -0.2400 
 25 C       -7.9270    -3.9770    -0.7200 C.3   1 <1>  -0.1600 
 26 C       -9.1400    -4.8910    -0.5760 C.3   1 <1>  -0.1600 
 27 H        1.4540     2.0370     1.1870 H     1 <1>   0.1500 
 28 H       -3.0040     1.3400     0.6500 H     1 <1>   0.3700 
 29 H       -2.0120     4.0940    -1.6370 H     1 <1>   0.1500 
 30 H        2.0240     3.9270    -0.3070 H     1 <1>   0.1500 
 31 H        0.2700     4.9370    -1.7090 H     1 <1>   0.1500 
 32 H       -6.0140     1.2820    -2.4660 H     1 <1>   0.1500 
 33 H       -4.9100     1.6280     1.6340 H     1 <1>   0.1500 
 34 H       -8.1100     0.2060    -1.7990 H     1 <1>   0.1500 
 35 H       -6.9870     0.5460     2.2840 H     1 <1>   0.1500 
 36 H      -10.5130    -3.1180     1.1210 H     1 <1>   0.0800 
 37 H       -8.0990    -3.0840     1.2230 H     1 <1>   0.0800 
 38 H       -7.1780    -2.1630     0.0670 H     1 <1>   0.0800 
 39 H      -10.4560    -3.7650    -1.8350 H     1 <1>   0.0800 
 40 H      -11.2620    -4.6910    -0.6080 H     1 <1>   0.0800 
 41 H      -11.6860    -1.5660    -1.1950 H     1 <1>   0.0800 
 42 H      -12.0480    -1.3910     0.5180 H     1 <1>   0.0800 
 43 H      -12.5900    -2.7850    -0.3330 H     1 <1>   0.0800 
 44 H       -7.0340    -4.5200    -0.4660 H     1 <1>   0.0800 
 45 H       -7.8340    -3.6430    -1.7390 H     1 <1>   0.0800 
 46 H       -9.0870    -5.6950    -1.2900 H     1 <1>   0.0800 
 47 H       -9.1590    -5.3180     0.4130 H     1 <1>   0.0800 
@<TRIPOS>BOND
  1   1   2  1   
  2   2   3  ar  
  3   2   4  ar  
  4   3   5  1   
  5   3   6  ar  
  6   4   7  ar  
  7   4  27  1   
  8   5   8  am  
  9   5  28  1   
 10   6   9  ar  
 11   6  29  1   
 12   7   9  ar  
 13   7  30  1   
 14   8  10  2   
 15   8  11  1   
 16   9  31  1   
 17  11  12  ar  
 18  11  13  ar  
 19  12  14  ar  
 20  12  32  1   
 21  13  15  ar  
 22  13  33  1   
 23  14  16  ar  
 24  14  34  1   
 25  15  16  ar  
 26  15  35  1   
 27  16  17  1   
 28  17  18  2   
 29  17  19  2   
 30  17  20  am  
 31  20  21  1   
 32  20  22  1   
 33  21  23  1   
 34  21  24  1   
 35  21  36  1   
 36  22  25  1   
 37  22  37  1   
 38  22  38  1   
 39  23  26  1   
 40  23  39  1   
 41  23  40  1   
 42  24  41  1   
 43  24  42  1   
 44  24  43  1   
 45  25  26  1   
 46  25  44  1   
 47  25  45  1   
 48  26  46  1   
 49  26  47  1   
@<TRIPOS>SUBSTRUCTURE
  1 ****  11 GROUP 4 **** **** 0

# MOE 2024.06 (io_trps.svl 2023.06)
