@<TRIPOS>MOLECULE
NONAME
39 40 1 0 0 
SMALL
USER_CHARGES


@<TRIPOS>ATOM
  1 BR      -1.2530    -1.7760     1.6950 Br    1 <1>  -0.1110 
  2 C        0.2060    -2.4050     0.6000 C.ar  1 <1>   0.1110 
  3 C       -0.0110    -2.9880    -0.6470 C.ar  1 <1>  -0.1440 
  4 C        1.4700    -2.2400     1.1350 C.ar  1 <1>  -0.1500 
  5 C        1.1080    -3.4240    -1.3470 C.ar  1 <1>  -0.1500 
  6 C       -1.3880    -3.1870    -1.2830 C.3   1 <1>   0.5020 
  7 C        2.5720    -2.6650     0.4170 C.ar  1 <1>   0.0830 
  8 C        2.3840    -3.2820    -0.8250 C.ar  1 <1>   0.0830 
  9 N       -1.9250    -1.8610    -1.6380 N.am  1 <1>  -0.7300 
 10 C       -2.3510    -4.0170    -0.4220 C.2   1 <1>  -0.1240 
 11 O        3.7940    -2.4620     0.9680 O.3   1 <1>  -0.3630 
 12 O        3.4140    -3.7700    -1.5580 O.3   1 <1>  -0.3630 
 13 C       -3.1310    -1.4150    -1.2580 C.2   1 <1>   0.6900 
 14 C       -3.5780    -3.5040    -0.1180 C.2   1 <1>  -0.0290 
 15 C       -1.7870    -5.2780    -0.0630 C.2   1 <1>   0.4950 
 16 C        4.6750    -1.6110     0.2660 C.3   1 <1>   0.0400 
 17 C        4.0250    -4.9350    -1.0500 C.3   1 <1>   0.0400 
 18 O       -3.5010    -0.3010    -1.5480 O.2   1 <1>  -0.5700 
 19 N       -3.9310    -2.2390    -0.5360 N.am  1 <1>  -0.5390 
 20 C       -4.6810    -4.2100     0.6530 C.3   1 <1>  -0.1020 
 21 O       -1.0630    -5.8970    -0.8040 O.2   1 <1>  -0.5700 
 22 C       -2.0240    -5.8930     1.3000 C.3   1 <1>  -0.1790 
 23 H        1.6010    -1.7820     2.0980 H     1 <1>   0.1500 
 24 H        1.0050    -3.8970    -2.3090 H     1 <1>   0.1500 
 25 H       -1.2570    -3.7240    -2.2080 H     1 <1>   0.0800 
 26 H       -1.2910    -1.1980    -2.0770 H     1 <1>   0.3700 
 27 H        5.5260    -1.4190     0.8930 H     1 <1>   0.0800 
 28 H        4.1660    -0.6910     0.0420 H     1 <1>   0.0800 
 29 H        4.9920    -2.0940    -0.6400 H     1 <1>   0.0800 
 30 H        4.7840    -5.2480    -1.7430 H     1 <1>   0.0800 
 31 H        3.2770    -5.7020    -0.9490 H     1 <1>   0.0800 
 32 H        4.4660    -4.7160    -0.0940 H     1 <1>   0.0800 
 33 H       -4.8270    -1.8190    -0.2950 H     1 <1>   0.3700 
 34 H       -4.7120    -3.8460     1.6650 H     1 <1>   0.0800 
 35 H       -4.5420    -5.2730     0.6640 H     1 <1>   0.0800 
 36 H       -5.6340    -4.0190     0.1910 H     1 <1>   0.0800 
 37 H       -2.3860    -5.1580     1.9940 H     1 <1>   0.0800 
 38 H       -1.0960    -6.2840     1.6750 H     1 <1>   0.0800 
 39 H       -2.7270    -6.7000     1.2180 H     1 <1>   0.0800 
@<TRIPOS>BOND
  1   1   2  1   
  2   2   3  ar  
  3   2   4  ar  
  4   3   5  ar  
  5   3   6  1   
  6   4   7  ar  
  7   4  23  1   
  8   5   8  ar  
  9   5  24  1   
 10   6   9  1   
 11   6  10  1   
 12   6  25  1   
 13   7   8  ar  
 14   7  11  1   
 15   8  12  1   
 16   9  13  am  
 17   9  26  1   
 18  10  14  2   
 19  10  15  1   
 20  11  16  1   
 21  12  17  1   
 22  13  18  2   
 23  13  19  am  
 24  14  19  1   
 25  14  20  1   
 26  15  21  2   
 27  15  22  1   
 28  16  27  1   
 29  16  28  1   
 30  16  29  1   
 31  17  30  1   
 32  17  31  1   
 33  17  32  1   
 34  19  33  1   
 35  20  34  1   
 36  20  35  1   
 37  20  36  1   
 38  22  37  1   
 39  22  38  1   
 40  22  39  1   
@<TRIPOS>SUBSTRUCTURE
  1 ****   3 GROUP 4 **** **** 0

# MOE 2024.06 (io_trps.svl 2023.06)
