@<TRIPOS>MOLECULE
NONAME
55 57 1 0 0 
SMALL
USER_CHARGES


@<TRIPOS>ATOM
  1 O        0.2310     0.7800    -0.9130 O.2   1 <1>  -0.5700 
  2 C        0.0580     1.9840    -0.9560 C.2   1 <1>   0.5440 
  3 N        1.0950     2.7970    -1.3740 N.am  1 <1>  -0.6600 
  4 C       -1.2300     2.5180    -0.5540 C.ar  1 <1>   0.0860 
  5 C        1.1420     4.2660    -1.1270 C.3   1 <1>   0.1400 
  6 C        2.3290     2.2290    -1.9850 C.3   1 <1>   0.1400 
  7 C       -1.7850     2.1770     0.6760 C.ar  1 <1>  -0.1500 
  8 C       -1.9530     3.3770    -1.3790 C.ar  1 <1>  -0.1500 
  9 C        2.3520     4.6040    -0.2510 C.3   1 <1>  -0.1600 
 10 C        3.5400     2.5530    -1.1060 C.3   1 <1>  -0.1600 
 11 C       -3.0120     2.6920     1.0800 C.ar  1 <1>   0.0820 
 12 C       -3.1710     3.9020    -0.9890 C.ar  1 <1>   0.0820 
 13 C        3.6650     4.0660    -0.8530 C.3   1 <1>  -0.0190 
 14 O       -3.5970     2.3950     2.2680 O.3   1 <1>  -0.3630 
 15 C       -3.7010     3.5570     0.2490 C.ar  1 <1>  -0.1500 
 16 O       -3.7810     4.7410    -1.8630 O.3   1 <1>  -0.3630 
 17 C        4.8790     4.3750     0.0250 C.2   1 <1>   0.5690 
 18 C       -3.0110     1.4740     3.1620 C.3   1 <1>   0.0400 
 19 C       -5.0520     5.2850    -1.5850 C.3   1 <1>   0.0400 
 20 O        4.7750     4.2940     1.2240 O.2   1 <1>  -0.5700 
 21 N        6.0420     4.7170    -0.6110 N.am  1 <1>  -0.5470 
 22 C        7.3050     5.0690    -0.1030 C.ar  1 <1>   0.1170 
 23 C        7.5020     5.5430     1.1910 C.ar  1 <1>  -0.1500 
 24 C        8.4110     4.9570    -0.9380 C.ar  1 <1>  -0.1500 
 25 C        8.7640     5.8890     1.6410 C.ar  1 <1>  -0.1500 
 26 C        9.6740     5.3030    -0.4940 C.ar  1 <1>  -0.1500 
 27 C        9.8630     5.7690     0.7960 C.ar  1 <1>   0.0820 
 28 O       11.1350     6.0850     1.1530 O.3   1 <1>  -0.3630 
 29 C       11.4280     6.5410     2.4550 C.3   1 <1>   0.0400 
 30 H        0.2510     4.6050    -0.6280 H     1 <1>   0.0800 
 31 H        1.2130     4.7790    -2.0710 H     1 <1>   0.0800 
 32 H        2.4590     2.6540    -2.9650 H     1 <1>   0.0800 
 33 H        2.2430     1.1610    -2.1000 H     1 <1>   0.0800 
 34 H       -1.2300     1.5010     1.2990 H     1 <1>   0.1500 
 35 H       -1.5590     3.6400    -2.3430 H     1 <1>   0.1500 
 36 H        2.1970     4.1780     0.7250 H     1 <1>   0.0800 
 37 H        2.4190     5.6710    -0.1320 H     1 <1>   0.0800 
 38 H        4.4300     2.1840    -1.5820 H     1 <1>   0.0800 
 39 H        3.4340     2.0350    -0.1680 H     1 <1>   0.0800 
 40 H        3.8090     4.5530    -1.8000 H     1 <1>   0.0800 
 41 H       -4.6420     3.9400     0.5900 H     1 <1>   0.1500 
 42 H       -3.6600     1.3750     4.0130 H     1 <1>   0.0800 
 43 H       -2.0530     1.8500     3.4740 H     1 <1>   0.0800 
 44 H       -2.9100     0.5230     2.6670 H     1 <1>   0.0800 
 45 H       -5.3450     5.8950    -2.4200 H     1 <1>   0.0800 
 46 H       -4.9890     5.8870    -0.6960 H     1 <1>   0.0800 
 47 H       -5.7550     4.4800    -1.4570 H     1 <1>   0.0800 
 48 H        6.0070     4.6660    -1.6250 H     1 <1>   0.3700 
 49 H        6.6660     5.6480     1.8580 H     1 <1>   0.1500 
 50 H        8.2900     4.5950    -1.9420 H     1 <1>   0.1500 
 51 H        8.8680     6.2470     2.6470 H     1 <1>   0.1500 
 52 H       10.5260     5.2130    -1.1440 H     1 <1>   0.1500 
 53 H       12.4870     6.7160     2.5170 H     1 <1>   0.0800 
 54 H       11.1420     5.7830     3.1630 H     1 <1>   0.0800 
 55 H       10.8950     7.4580     2.6330 H     1 <1>   0.0800 
@<TRIPOS>BOND
  1   1   2  2   
  2   2   3  am  
  3   2   4  1   
  4   3   5  1   
  5   3   6  1   
  6   4   7  ar  
  7   4   8  ar  
  8   5   9  1   
  9   5  30  1   
 10   5  31  1   
 11   6  10  1   
 12   6  32  1   
 13   6  33  1   
 14   7  11  ar  
 15   7  34  1   
 16   8  12  ar  
 17   8  35  1   
 18   9  13  1   
 19   9  36  1   
 20   9  37  1   
 21  10  13  1   
 22  10  38  1   
 23  10  39  1   
 24  11  14  1   
 25  11  15  ar  
 26  12  15  ar  
 27  12  16  1   
 28  13  17  1   
 29  13  40  1   
 30  14  18  1   
 31  15  41  1   
 32  16  19  1   
 33  17  20  2   
 34  17  21  am  
 35  18  42  1   
 36  18  43  1   
 37  18  44  1   
 38  19  45  1   
 39  19  46  1   
 40  19  47  1   
 41  21  22  1   
 42  21  48  1   
 43  22  23  ar  
 44  22  24  ar  
 45  23  25  ar  
 46  23  49  1   
 47  24  26  ar  
 48  24  50  1   
 49  25  27  ar  
 50  25  51  1   
 51  26  27  ar  
 52  26  52  1   
 53  27  28  1   
 54  28  29  1   
 55  29  53  1   
 56  29  54  1   
 57  29  55  1   
@<TRIPOS>SUBSTRUCTURE
  1 ****   9 GROUP 4 **** **** 0

# MOE 2024.06 (io_trps.svl 2023.06)
