@<TRIPOS>MOLECULE
NONAME
32 33 1 0 0 
SMALL
USER_CHARGES


@<TRIPOS>ATOM
  1 CL      -0.1480    -1.9220    -1.7470 Cl    1 <1>  -0.1770 
  2 C       -1.6040    -1.8420    -0.7800 C.ar  1 <1>   0.1770 
  3 C       -2.2720    -2.9880    -0.3760 C.ar  1 <1>  -0.1440 
  4 C       -2.0560    -0.5840    -0.4280 C.ar  1 <1>  -0.1500 
  5 C       -3.4130    -2.8310     0.4090 C.ar  1 <1>  -0.1500 
  6 C       -1.7670    -4.3690    -0.7930 C.3   1 <1>   1.1640 
  7 C       -3.1960    -0.4590     0.3430 C.ar  1 <1>  -0.1500 
  8 C       -3.8940    -1.5790     0.7770 C.ar  1 <1>  -0.0090 
  9 F       -2.5020    -5.3710    -0.3230 F     1 <1>  -0.3400 
 10 F       -1.7000    -4.5420    -2.1070 F     1 <1>  -0.3400 
 11 F       -0.5410    -4.5970    -0.3290 F     1 <1>  -0.3400 
 12 S       -5.4180    -1.3980     1.7530 S.o2  1 <1>   1.4470 
 13 O       -5.2180    -0.3280     2.7100 O.2   1 <1>  -0.6500 
 14 O       -5.8700    -2.6740     2.2690 O.2   1 <1>  -0.6500 
 15 N       -6.5900    -0.8390     0.6690 N.am  1 <1>  -0.8490 
 16 C       -7.0140    -1.8380    -0.3490 C.3   1 <1>   0.1700 
 17 C       -7.8130    -0.4060     1.3080 C.3   1 <1>   0.1960 
 18 C       -5.9860    -2.3130    -1.4120 C.2   1 <1>   0.9060 
 19 C       -8.2670    -1.1980    -0.9460 C.3   1 <1>  -0.1600 
 20 C       -8.8430    -0.3400     0.1830 C.3   1 <1>  -0.1600 
 21 O       -5.4840    -1.5100    -2.2100 O.co2 1 <1>  -0.9000 
 22 O       -5.6650    -3.5090    -1.4210 O.co2 1 <1>  -0.9000 
 23 H       -1.5260     0.2880    -0.7660 H     1 <1>   0.1500 
 24 H       -3.9750    -3.6980     0.7210 H     1 <1>   0.1500 
 25 H       -3.5650     0.5200     0.6020 H     1 <1>   0.1500 
 26 H       -7.3250    -2.7280     0.1700 H     1 <1>   0.0800 
 27 H       -7.6740     0.5490     1.7880 H     1 <1>   0.0800 
 28 H       -8.1170    -1.1360     2.0410 H     1 <1>   0.0800 
 29 H       -8.9530    -1.9490    -1.2940 H     1 <1>   0.0800 
 30 H       -7.9790    -0.5750    -1.7760 H     1 <1>   0.0800 
 31 H       -8.9610     0.6770    -0.1470 H     1 <1>   0.0800 
 32 H       -9.7920    -0.7130     0.5230 H     1 <1>   0.0800 
@<TRIPOS>BOND
  1   1   2  1   
  2   2   3  ar  
  3   2   4  ar  
  4   3   5  ar  
  5   3   6  1   
  6   4   7  ar  
  7   4  23  1   
  8   5   8  ar  
  9   5  24  1   
 10   6   9  1   
 11   6  10  1   
 12   6  11  1   
 13   7   8  ar  
 14   7  25  1   
 15   8  12  1   
 16  12  13  2   
 17  12  14  2   
 18  12  15  am  
 19  15  16  1   
 20  15  17  1   
 21  16  18  1   
 22  16  19  1   
 23  16  26  1   
 24  17  20  1   
 25  17  27  1   
 26  17  28  1   
 27  18  21  ar  
 28  18  22  ar  
 29  19  20  1   
 30  19  29  1   
 31  19  30  1   
 32  20  31  1   
 33  20  32  1   
@<TRIPOS>SUBSTRUCTURE
  1 ****   8 GROUP 4 **** **** 0

# MOE 2024.06 (io_trps.svl 2023.06)
