@<TRIPOS>MOLECULE
NONAME
56 57 1 0 0 
SMALL
USER_CHARGES


@<TRIPOS>ATOM
  1 O       -0.2370    -0.5200     1.4260 O.2   1 <1>  -0.5700 
  2 C       -0.3020    -1.5500     0.7830 C.2   1 <1>   0.5440 
  3 N        0.8470    -2.0070     0.1970 N.am  1 <1>  -0.7300 
  4 C       -1.5600    -2.2560     0.6150 C.ar  1 <1>   0.0860 
  5 C        2.1530    -1.3510     0.3550 C.3   1 <1>   0.2200 
  6 C       -1.6180    -3.6310     0.3930 C.ar  1 <1>  -0.1500 
  7 C       -2.7750    -1.5780     0.6670 C.ar  1 <1>  -0.1500 
  8 C        2.3010    -0.2710    -0.7120 C.3   1 <1>  -0.1600 
  9 C        3.2700    -2.3770     0.2040 C.3   1 <1>  -0.1600 
 10 C       -2.8210    -4.2890     0.2150 C.ar  1 <1>  -0.1500 
 11 C       -3.9790    -2.2340     0.4900 C.ar  1 <1>  -0.1500 
 12 C        3.6520     0.4460    -0.6150 C.3   1 <1>   0.5030 
 13 C        4.6560    -1.7280     0.3230 C.3   1 <1>   0.5030 
 14 C       -4.0310    -3.6030     0.2560 C.ar  1 <1>  -0.1430 
 15 N        4.7620    -0.5190    -0.5130 N.4   1 <1>  -0.9060 
 16 C        3.9060     1.2280    -1.9020 C.3   1 <1>  -0.2400 
 17 C        3.7010     1.4300     0.5570 C.3   1 <1>  -0.2400 
 18 C        5.0130    -1.3930     1.7740 C.3   1 <1>  -0.2400 
 19 C        5.7150    -2.6890    -0.2140 C.3   1 <1>  -0.2400 
 20 C       -5.4010    -4.2910     0.0620 C.3   1 <1>   0.1430 
 21 C       -6.2580    -4.0940     1.3210 C.3   1 <1>  -0.2400 
 22 C       -5.2890    -5.8040    -0.1910 C.3   1 <1>  -0.2400 
 23 C       -6.1190    -3.6710    -1.1460 C.3   1 <1>  -0.2400 
 24 H        0.7820    -2.7810    -0.4650 H     1 <1>   0.3700 
 25 H        2.1920    -0.9090     1.3370 H     1 <1>   0.0800 
 26 H       -0.7090    -4.2040     0.3670 H     1 <1>   0.1500 
 27 H       -2.7720    -0.5170     0.8500 H     1 <1>   0.1500 
 28 H        1.5100     0.4500    -0.5950 H     1 <1>   0.0800 
 29 H        2.1910    -0.7170    -1.6840 H     1 <1>   0.0800 
 30 H        3.1780    -2.8600    -0.7530 H     1 <1>   0.0800 
 31 H        3.1630    -3.1320     0.9630 H     1 <1>   0.0800 
 32 H       -2.7890    -5.3500     0.0470 H     1 <1>   0.1500 
 33 H       -4.8850    -1.6570     0.5380 H     1 <1>   0.1500 
 34 H        5.5950    -0.0050    -0.2210 H     1 <1>   0.4500 
 35 H        4.9450    -0.8410    -1.4640 H     1 <1>   0.4500 
 36 H        3.9090     0.5820    -2.7620 H     1 <1>   0.0800 
 37 H        4.8400     1.7610    -1.8580 H     1 <1>   0.0800 
 38 H        3.1250     1.9550    -2.0480 H     1 <1>   0.0800 
 39 H        3.3950     0.9850     1.4820 H     1 <1>   0.0800 
 40 H        3.0150     2.2400     0.3740 H     1 <1>   0.0800 
 41 H        4.6810     1.8550     0.6720 H     1 <1>   0.0800 
 42 H        4.2470    -0.8270     2.2660 H     1 <1>   0.0800 
 43 H        5.9440    -0.8570     1.8350 H     1 <1>   0.0800 
 44 H        5.1260    -2.3030     2.3370 H     1 <1>   0.0800 
 45 H        5.5330    -2.9420    -1.2430 H     1 <1>   0.0800 
 46 H        5.6980    -3.6060     0.3510 H     1 <1>   0.0800 
 47 H        6.7030    -2.2720    -0.1230 H     1 <1>   0.0800 
 48 H       -5.7470    -4.4940     2.1790 H     1 <1>   0.0800 
 49 H       -7.2030    -4.5960     1.2200 H     1 <1>   0.0800 
 50 H       -6.4510    -3.0530     1.5010 H     1 <1>   0.0800 
 51 H       -4.7160    -5.9970    -1.0810 H     1 <1>   0.0800 
 52 H       -6.2640    -6.2380    -0.3230 H     1 <1>   0.0800 
 53 H       -4.8180    -6.2930     0.6430 H     1 <1>   0.0800 
 54 H       -6.3130    -2.6260    -0.9900 H     1 <1>   0.0800 
 55 H       -7.0600    -4.1610    -1.3210 H     1 <1>   0.0800 
 56 H       -5.5110    -3.7730    -2.0280 H     1 <1>   0.0800 
@<TRIPOS>BOND
  1   1   2  2   
  2   2   3  am  
  3   2   4  1   
  4   3   5  1   
  5   3  24  1   
  6   4   6  ar  
  7   4   7  ar  
  8   5   8  1   
  9   5   9  1   
 10   5  25  1   
 11   6  10  ar  
 12   6  26  1   
 13   7  11  ar  
 14   7  27  1   
 15   8  12  1   
 16   8  28  1   
 17   8  29  1   
 18   9  13  1   
 19   9  30  1   
 20   9  31  1   
 21  10  14  ar  
 22  10  32  1   
 23  11  14  ar  
 24  11  33  1   
 25  12  15  1   
 26  12  16  1   
 27  12  17  1   
 28  13  15  1   
 29  13  18  1   
 30  13  19  1   
 31  14  20  1   
 32  15  34  1   
 33  15  35  1   
 34  16  36  1   
 35  16  37  1   
 36  16  38  1   
 37  17  39  1   
 38  17  40  1   
 39  17  41  1   
 40  18  42  1   
 41  18  43  1   
 42  18  44  1   
 43  19  45  1   
 44  19  46  1   
 45  19  47  1   
 46  20  21  1   
 47  20  22  1   
 48  20  23  1   
 49  21  48  1   
 50  21  49  1   
 51  21  50  1   
 52  22  51  1   
 53  22  52  1   
 54  22  53  1   
 55  23  54  1   
 56  23  55  1   
 57  23  56  1   
@<TRIPOS>SUBSTRUCTURE
  1 ****   2 GROUP 4 **** **** 0

# MOE 2024.06 (io_trps.svl 2023.06)
