@<TRIPOS>MOLECULE
NONAME
55 56 1 0 0 
SMALL
USER_CHARGES


@<TRIPOS>ATOM
  1 O       -0.4390    -0.0260     0.1080 O.2   1 <1>  -0.5700 
  2 C       -1.4260    -0.5290    -0.4020 C.2   1 <1>   0.6160 
  3 N       -1.1930    -1.7170    -1.0080 N.am  1 <1>  -0.8000 
  4 C       -2.7260     0.0830    -0.3940 C.2   1 <1>  -0.1240 
  5 C       -2.9410     1.4400    -0.4550 C.2   1 <1>   0.0720 
  6 C       -3.9050    -0.8870    -0.2110 C.3   1 <1>  -0.0220 
  7 N       -1.8570     2.2970    -0.3710 N.pl3 1 <1>  -0.8690 
  8 C       -4.2250     2.1240    -0.5170 C.ar  1 <1>   0.0280 
  9 C       -4.4580    -0.7850     1.2210 C.3   1 <1>  -0.1600 
 10 C       -1.9370     3.5890     0.3310 C.3   1 <1>   0.3690 
 11 C       -4.4280     3.2190     0.3240 C.ar  1 <1>  -0.1430 
 12 C       -5.2540     1.7890    -1.3950 C.ar  1 <1>  -0.1500 
 13 C       -5.6310    -1.7430     1.5000 C.3   1 <1>  -0.0800 
 14 C       -3.2390     3.6620     1.1660 C.3   1 <1>  -0.0170 
 15 C       -0.7100     3.6830     1.2330 C.3   1 <1>  -0.2400 
 16 C       -1.8910     4.6800    -0.7370 C.3   1 <1>  -0.2400 
 17 C       -5.6350     3.8950     0.3510 C.ar  1 <1>  -0.1500 
 18 C       -6.4710     2.4460    -1.3720 C.ar  1 <1>   0.0830 
 19 C       -6.8860    -1.3540     0.7060 C.3   1 <1>  -0.2400 
 20 C       -5.9580    -1.7320     2.9970 C.3   1 <1>  -0.2400 
 21 C       -6.6640     3.5200    -0.4960 C.ar  1 <1>   0.0830 
 22 O       -7.4320     2.0070    -2.2230 O.3   1 <1>  -0.3620 
 23 O       -7.8080     4.2410    -0.4460 O.3   1 <1>  -0.3620 
 24 C       -8.5870     1.4500    -1.6350 C.3   1 <1>   0.0400 
 25 C       -8.1310     4.9960    -1.5930 C.3   1 <1>   0.0400 
 26 H       -0.2200    -2.0160    -1.0660 H     1 <1>   0.3700 
 27 H       -1.8200    -2.0750    -1.7240 H     1 <1>   0.3700 
 28 H       -3.6070    -1.9060    -0.3740 H     1 <1>   0.0800 
 29 H       -4.6740    -0.6870    -0.9240 H     1 <1>   0.0800 
 30 H       -0.9520     1.8240    -0.2110 H     1 <1>   0.4000 
 31 H       -4.7720     0.2250     1.4180 H     1 <1>   0.0800 
 32 H       -3.6540    -1.0070     1.9020 H     1 <1>   0.0800 
 33 H       -5.1080     1.0130    -2.1200 H     1 <1>   0.1500 
 34 H       -5.3410    -2.7440     1.2280 H     1 <1>   0.0800 
 35 H       -3.3830     4.6620     1.5300 H     1 <1>   0.0800 
 36 H       -3.1570     3.0070     2.0140 H     1 <1>   0.0800 
 37 H       -0.7080     2.8760     1.9440 H     1 <1>   0.0800 
 38 H       -0.7150     4.6130     1.7710 H     1 <1>   0.0800 
 39 H        0.1900     3.6330     0.6470 H     1 <1>   0.0800 
 40 H       -2.7310     4.5840    -1.4020 H     1 <1>   0.0800 
 41 H       -0.9870     4.6000    -1.3120 H     1 <1>   0.0800 
 42 H       -1.9250     5.6520    -0.2820 H     1 <1>   0.0800 
 43 H       -5.7850     4.7290     1.0120 H     1 <1>   0.1500 
 44 H       -7.1630    -0.3370     0.9200 H     1 <1>   0.0800 
 45 H       -7.7070    -1.9950     0.9720 H     1 <1>   0.0800 
 46 H       -6.7210    -1.4520    -0.3510 H     1 <1>   0.0800 
 47 H       -6.2520    -0.7460     3.3130 H     1 <1>   0.0800 
 48 H       -5.0990    -2.0330     3.5710 H     1 <1>   0.0800 
 49 H       -6.7610    -2.4150     3.2110 H     1 <1>   0.0800 
 50 H       -9.1110     2.2090    -1.0840 H     1 <1>   0.0800 
 51 H       -9.2140     1.0710    -2.4220 H     1 <1>   0.0800 
 52 H       -8.2930     0.6500    -0.9810 H     1 <1>   0.0800 
 53 H       -8.3520     4.3320    -2.4080 H     1 <1>   0.0800 
 54 H       -8.9910     5.5990    -1.3680 H     1 <1>   0.0800 
 55 H       -7.2940     5.6250    -1.8410 H     1 <1>   0.0800 
@<TRIPOS>BOND
  1   1   2  2   
  2   2   3  am  
  3   2   4  1   
  4   3  26  1   
  5   3  27  1   
  6   4   5  2   
  7   4   6  1   
  8   5   7  1   
  9   5   8  1   
 10   6   9  1   
 11   6  28  1   
 12   6  29  1   
 13   7  10  1   
 14   7  30  1   
 15   8  11  ar  
 16   8  12  ar  
 17   9  13  1   
 18   9  31  1   
 19   9  32  1   
 20  10  14  1   
 21  10  15  1   
 22  10  16  1   
 23  11  14  1   
 24  11  17  ar  
 25  12  18  ar  
 26  12  33  1   
 27  13  19  1   
 28  13  20  1   
 29  13  34  1   
 30  14  35  1   
 31  14  36  1   
 32  15  37  1   
 33  15  38  1   
 34  15  39  1   
 35  16  40  1   
 36  16  41  1   
 37  16  42  1   
 38  17  21  ar  
 39  17  43  1   
 40  18  21  ar  
 41  18  22  1   
 42  19  44  1   
 43  19  45  1   
 44  19  46  1   
 45  20  47  1   
 46  20  48  1   
 47  20  49  1   
 48  21  23  1   
 49  22  24  1   
 50  23  25  1   
 51  24  50  1   
 52  24  51  1   
 53  24  52  1   
 54  25  53  1   
 55  25  54  1   
 56  25  55  1   
@<TRIPOS>SUBSTRUCTURE
  1 ****   8 GROUP 4 **** **** 0

# MOE 2024.06 (io_trps.svl 2023.06)
