@<TRIPOS>MOLECULE
NONAME
43 44 1 0 0 
SMALL
USER_CHARGES


@<TRIPOS>ATOM
  1 O        1.0750    -3.6000     3.3980 O.2   1 <1>  -0.5700 
  2 C        0.8760    -3.3250     2.2400 C.2   1 <1>   0.5690 
  3 N        1.7590    -2.5170     1.5550 N.am  1 <1>  -0.6600 
  4 C       -0.3780    -3.9110     1.5930 C.3   1 <1>   0.0440 
  5 C        2.8100    -1.7530     2.3020 C.3   1 <1>   0.1400 
  6 C        1.6730    -2.2030     0.0930 C.3   1 <1>   0.1400 
  7 C       -1.2340    -2.8830     0.8550 C.ar  1 <1>  -0.1440 
  8 C        4.1730    -1.8280     1.5950 C.3   1 <1>   0.3430 
  9 C        3.0590    -2.2300    -0.5840 C.3   1 <1>   0.3430 
 10 C       -1.5230    -1.6600     1.4420 C.ar  1 <1>  -0.1500 
 11 C       -1.7240    -3.1590    -0.4130 C.ar  1 <1>  -0.1500 
 12 N        4.0800    -1.4070     0.1550 N.4   1 <1>  -0.9590 
 13 C       -2.2700    -0.7180     0.7590 C.ar  1 <1>  -0.1500 
 14 C       -2.4750    -2.2190    -1.0970 C.ar  1 <1>  -0.1500 
 15 C        5.4050    -1.4320    -0.5000 C.3   1 <1>   0.4810 
 16 C       -2.7470    -0.9850    -0.5130 C.ar  1 <1>   0.0830 
 17 C        5.3000    -0.5870    -1.7480 C.2   1 <1>  -0.2880 
 18 O       -3.4640    -0.0060    -1.1150 O.3   1 <1>  -0.3630 
 19 C        5.7960     0.6470    -1.8860 C.2   1 <1>  -0.3000 
 20 C       -4.1030    -0.2190    -2.3550 C.3   1 <1>   0.0400 
 21 H       -0.9800    -4.3580     2.3630 H     1 <1>   0.0800 
 22 H       -0.0760    -4.6970     0.9280 H     1 <1>   0.0800 
 23 H        2.9220    -2.1380     3.3010 H     1 <1>   0.0800 
 24 H        2.5010    -0.7260     2.3880 H     1 <1>   0.0800 
 25 H        1.2230    -1.2330    -0.0350 H     1 <1>   0.0800 
 26 H        1.0490    -2.9200    -0.4090 H     1 <1>   0.0800 
 27 H        4.5320    -2.8430     1.6570 H     1 <1>   0.0800 
 28 H        4.8720    -1.1970     2.1190 H     1 <1>   0.0800 
 29 H        2.9570    -1.8690    -1.5940 H     1 <1>   0.0800 
 30 H        3.3910    -3.2540    -0.6330 H     1 <1>   0.0800 
 31 H       -1.1690    -1.4320     2.4340 H     1 <1>   0.1500 
 32 H       -1.5300    -4.1110    -0.8780 H     1 <1>   0.1500 
 33 H        3.7710    -0.4260     0.1240 H     1 <1>   0.4500 
 34 H       -2.4940     0.2320     1.2100 H     1 <1>   0.1500 
 35 H       -2.8400    -2.4610    -2.0770 H     1 <1>   0.1500 
 36 H        5.7070    -2.4400    -0.7380 H     1 <1>   0.0800 
 37 H        6.1430    -0.9960     0.1550 H     1 <1>   0.0800 
 38 H        4.7810    -1.0810    -2.5520 H     1 <1>   0.1500 
 39 H        5.7130     1.2280    -2.7920 H     1 <1>   0.1500 
 40 H        6.3310     1.1910    -1.1240 H     1 <1>   0.1500 
 41 H       -4.6470     0.6730    -2.6080 H     1 <1>   0.0800 
 42 H       -4.7830    -1.0470    -2.2590 H     1 <1>   0.0800 
 43 H       -3.3570    -0.4160    -3.1030 H     1 <1>   0.0800 
@<TRIPOS>BOND
  1   1   2  2   
  2   2   3  am  
  3   2   4  1   
  4   3   5  1   
  5   3   6  1   
  6   4   7  1   
  7   4  21  1   
  8   4  22  1   
  9   5   8  1   
 10   5  23  1   
 11   5  24  1   
 12   6   9  1   
 13   6  25  1   
 14   6  26  1   
 15   7  10  ar  
 16   7  11  ar  
 17   8  12  1   
 18   8  27  1   
 19   8  28  1   
 20   9  12  1   
 21   9  29  1   
 22   9  30  1   
 23  10  13  ar  
 24  10  31  1   
 25  11  14  ar  
 26  11  32  1   
 27  12  15  1   
 28  12  33  1   
 29  13  16  ar  
 30  13  34  1   
 31  14  16  ar  
 32  14  35  1   
 33  15  17  1   
 34  15  36  1   
 35  15  37  1   
 36  16  18  1   
 37  17  19  2   
 38  17  38  1   
 39  18  20  1   
 40  19  39  1   
 41  19  40  1   
 42  20  41  1   
 43  20  42  1   
 44  20  43  1   
@<TRIPOS>SUBSTRUCTURE
  1 ****   6 GROUP 4 **** **** 0

# MOE 2024.06 (io_trps.svl 2023.06)
