@<TRIPOS>MOLECULE
NONAME
46 48 1 0 0 
SMALL
USER_CHARGES


@<TRIPOS>ATOM
  1 S       -0.2540     0.1610    -0.2450 S.o2  1 <1>   1.0900 
  2 O       -0.3230     0.6920     1.1000 O.2   1 <1>  -0.6500 
  3 O       -0.1140     1.0420    -1.3830 O.2   1 <1>  -0.6500 
  4 C       -1.7050    -0.8700    -0.5080 C.3   1 <1>   0.0890 
  5 C        1.0650    -1.0600    -0.3050 C.3   1 <1>   0.0890 
  6 C       -3.0270    -0.1100    -0.5270 C.ar  1 <1>  -0.1440 
  7 C        2.4610    -0.4840    -0.1120 C.ar  1 <1>  -0.1440 
  8 C       -3.5060     0.4950     0.6240 C.ar  1 <1>  -0.1500 
  9 C       -3.7660    -0.0100    -1.6960 C.ar  1 <1>  -0.1500 
 10 C        3.3270    -0.3620    -1.1880 C.ar  1 <1>  -0.1500 
 11 C        2.8770    -0.0740     1.1460 C.ar  1 <1>  -0.1500 
 12 C       -4.7090     1.1780     0.6060 C.ar  1 <1>  -0.1500 
 13 C       -4.9690     0.6720    -1.7050 C.ar  1 <1>  -0.1500 
 14 C        4.5990     0.1530    -1.0060 C.ar  1 <1>  -0.1500 
 15 C        4.1490     0.4410     1.3280 C.ar  1 <1>  -0.1500 
 16 C       -5.4770     1.2730    -0.5540 C.ar  1 <1>   0.0860 
 17 C        5.0110     0.5530     0.2520 C.ar  1 <1>  -0.1500 
 18 C       -6.7490     1.9730    -0.5760 C.2   1 <1>   0.5440 
 19 O       -6.9890     2.7440    -1.4860 O.2   1 <1>  -0.5700 
 20 N       -7.7070     1.7800     0.3980 N.am  1 <1>  -0.6600 
 21 C       -7.8010     0.5520     1.2440 C.3   1 <1>   0.1400 
 22 C       -8.8950     2.6760     0.5320 C.3   1 <1>   0.1400 
 23 C       -9.1740    -0.1220     1.0720 C.3   1 <1>   0.1200 
 24 C      -10.1980     1.8740     0.3920 C.3   1 <1>   0.1200 
 25 O      -10.2100     0.7940     1.2840 O.3   1 <1>  -0.5600 
 26 H       -1.7620    -1.6070     0.2700 H     1 <1>   0.0800 
 27 H       -1.6010    -1.3940    -1.4380 H     1 <1>   0.0800 
 28 H        1.0360    -1.5690    -1.2490 H     1 <1>   0.0800 
 29 H        0.9050    -1.7950     0.4600 H     1 <1>   0.0800 
 30 H       -2.9410     0.4490     1.5400 H     1 <1>   0.1500 
 31 H       -3.4100    -0.4540    -2.6090 H     1 <1>   0.1500 
 32 H        3.0210    -0.6620    -2.1750 H     1 <1>   0.1500 
 33 H        2.2130    -0.1460     1.9920 H     1 <1>   0.1500 
 34 H       -5.0600     1.6570     1.5030 H     1 <1>   0.1500 
 35 H       -5.5340     0.7530    -2.6190 H     1 <1>   0.1500 
 36 H        5.2670     0.2450    -1.8440 H     1 <1>   0.1500 
 37 H        4.4650     0.7580     2.3070 H     1 <1>   0.1500 
 38 H        6.0000     0.9540     0.3940 H     1 <1>   0.1500 
 39 H       -7.6670     0.8220     2.2760 H     1 <1>   0.0800 
 40 H       -7.0360    -0.1540     0.9780 H     1 <1>   0.0800 
 41 H       -8.8750     3.4530    -0.2120 H     1 <1>   0.0800 
 42 H       -8.8740     3.1480     1.4980 H     1 <1>   0.0800 
 43 H       -9.2890    -0.9180     1.7850 H     1 <1>   0.0800 
 44 H       -9.2730    -0.5290     0.0800 H     1 <1>   0.0800 
 45 H      -10.3020     1.4980    -0.6110 H     1 <1>   0.0800 
 46 H      -11.0440     2.4970     0.6180 H     1 <1>   0.0800 
@<TRIPOS>BOND
  1   1   2  2   
  2   1   3  2   
  3   1   4  1   
  4   1   5  1   
  5   4   6  1   
  6   4  26  1   
  7   4  27  1   
  8   5   7  1   
  9   5  28  1   
 10   5  29  1   
 11   6   8  ar  
 12   6   9  ar  
 13   7  10  ar  
 14   7  11  ar  
 15   8  12  ar  
 16   8  30  1   
 17   9  13  ar  
 18   9  31  1   
 19  10  14  ar  
 20  10  32  1   
 21  11  15  ar  
 22  11  33  1   
 23  12  16  ar  
 24  12  34  1   
 25  13  16  ar  
 26  13  35  1   
 27  14  17  ar  
 28  14  36  1   
 29  15  17  ar  
 30  15  37  1   
 31  16  18  1   
 32  17  38  1   
 33  18  19  2   
 34  18  20  am  
 35  20  21  1   
 36  20  22  1   
 37  21  23  1   
 38  21  39  1   
 39  21  40  1   
 40  22  24  1   
 41  22  41  1   
 42  22  42  1   
 43  23  25  1   
 44  23  43  1   
 45  23  44  1   
 46  24  25  1   
 47  24  45  1   
 48  24  46  1   
@<TRIPOS>SUBSTRUCTURE
  1 ****   6 GROUP 4 **** **** 0

# MOE 2024.06 (io_trps.svl 2023.06)
