@<TRIPOS>MOLECULE
NONAME
38 38 1 0 0 
SMALL
USER_CHARGES


@<TRIPOS>ATOM
  1 O        0.4360     0.0270    -0.9500 O.2   1 <1>  -0.5700 
  2 C       -0.0160     1.0950    -0.6090 C.2   1 <1>   0.5690 
  3 N        0.7610     2.1660    -0.2890 N.am  1 <1>  -0.7300 
  4 C       -1.5320     1.2370    -0.5380 C.3   1 <1>   0.1810 
  5 C        2.2190     2.2950    -0.2740 C.3   1 <1>   0.3000 
  6 O       -1.9190     2.5410    -0.1180 O.3   1 <1>  -0.3620 
  7 C        2.5260     3.7250     0.1660 C.3   1 <1>  -0.2400 
  8 C        2.8130     1.3080     0.7300 C.3   1 <1>  -0.2400 
  9 C        2.7700     2.0590    -1.6810 C.3   1 <1>  -0.2400 
 10 C       -3.2270     2.8780     0.0020 C.ar  1 <1>   0.0820 
 11 C       -3.5030     4.1740     0.4050 C.ar  1 <1>  -0.1500 
 12 C       -4.2800     2.0050    -0.2560 C.ar  1 <1>  -0.1500 
 13 C       -4.8110     4.6000     0.5500 C.ar  1 <1>  -0.1500 
 14 C       -5.5880     2.4350    -0.1090 C.ar  1 <1>  -0.1500 
 15 C       -5.8620     3.7330     0.2950 C.ar  1 <1>  -0.1440 
 16 C       -7.2990     4.2010     0.4530 C.3   1 <1>  -0.0170 
 17 C       -7.8210     4.7820    -0.8630 C.3   1 <1>  -0.2400 
 18 H        0.2640     3.0150    -0.0150 H     1 <1>   0.3700 
 19 H       -1.9190     0.5250     0.1670 H     1 <1>   0.0800 
 20 H       -1.9480     1.0570    -1.5110 H     1 <1>   0.0800 
 21 H        2.1320     3.9100     1.1490 H     1 <1>   0.0800 
 22 H        2.1030     4.4320    -0.5250 H     1 <1>   0.0800 
 23 H        3.5890     3.8810     0.1960 H     1 <1>   0.0800 
 24 H        2.3830     1.4570     1.7040 H     1 <1>   0.0800 
 25 H        3.8760     1.4440     0.8000 H     1 <1>   0.0800 
 26 H        2.6280     0.2950     0.4190 H     1 <1>   0.0800 
 27 H        2.3110     2.7310    -2.3820 H     1 <1>   0.0800 
 28 H        2.5860     1.0480    -1.9940 H     1 <1>   0.0800 
 29 H        3.8320     2.2220    -1.6950 H     1 <1>   0.0800 
 30 H       -2.6900     4.8480     0.6030 H     1 <1>   0.1500 
 31 H       -4.1100     0.9930    -0.5700 H     1 <1>   0.1500 
 32 H       -5.0090     5.6110     0.8610 H     1 <1>   0.1500 
 33 H       -6.3970     1.7560    -0.3120 H     1 <1>   0.1500 
 34 H       -7.3550     4.9490     1.2250 H     1 <1>   0.0800 
 35 H       -7.9200     3.3760     0.7550 H     1 <1>   0.0800 
 36 H       -7.2170     5.6190    -1.1640 H     1 <1>   0.0800 
 37 H       -8.8380     5.1120    -0.7460 H     1 <1>   0.0800 
 38 H       -7.7860     4.0360    -1.6380 H     1 <1>   0.0800 
@<TRIPOS>BOND
  1   1   2  2   
  2   2   3  am  
  3   2   4  1   
  4   3   5  1   
  5   3  18  1   
  6   4   6  1   
  7   4  19  1   
  8   4  20  1   
  9   5   7  1   
 10   5   8  1   
 11   5   9  1   
 12   6  10  1   
 13   7  21  1   
 14   7  22  1   
 15   7  23  1   
 16   8  24  1   
 17   8  25  1   
 18   8  26  1   
 19   9  27  1   
 20   9  28  1   
 21   9  29  1   
 22  10  11  ar  
 23  10  12  ar  
 24  11  13  ar  
 25  11  30  1   
 26  12  14  ar  
 27  12  31  1   
 28  13  15  ar  
 29  13  32  1   
 30  14  15  ar  
 31  14  33  1   
 32  15  16  1   
 33  16  17  1   
 34  16  34  1   
 35  16  35  1   
 36  17  36  1   
 37  17  37  1   
 38  17  38  1   
@<TRIPOS>SUBSTRUCTURE
  1 ****   6 GROUP 4 **** **** 0

# MOE 2024.06 (io_trps.svl 2023.06)
