@<TRIPOS>MOLECULE
NONAME
42 42 1 0 0 
SMALL
USER_CHARGES


@<TRIPOS>ATOM
  1 O       -1.6960    -0.3200    -0.9830 O.2   1 <1>  -0.5700 
  2 C       -1.9950     0.8050    -0.6590 C.2   1 <1>   0.5690 
  3 N       -2.9650     1.1460     0.2180 N.am  1 <1>  -0.6600 
  4 C       -1.2860     2.0340    -1.1580 C.3   1 <1>   0.2010 
  5 C       -3.0580     2.6170     0.4040 C.3   1 <1>   0.5200 
  6 C       -3.6160     0.1880     1.1450 C.3   1 <1>   0.0600 
  7 N       -1.8560     3.1140    -0.3070 N.am  1 <1>  -0.6600 
  8 C       -4.3850     3.2360    -0.1710 C.3   1 <1>   0.0000 
  9 C       -1.0920     4.1000     0.2290 C.2   1 <1>   0.7800 
 10 C       -5.6120     2.7630     0.6340 C.3   1 <1>  -0.2400 
 11 C       -4.6180     2.8730    -1.6520 C.3   1 <1>  -0.2400 
 12 C       -4.3580     4.7750    -0.0660 C.3   1 <1>  -0.2400 
 13 O       -1.4340     4.7120     1.2210 O.2   1 <1>  -0.5700 
 14 O        0.0600     4.3640    -0.3890 O.3   1 <1>  -0.4300 
 15 C        1.0160     5.3400    -0.0350 C.3   1 <1>   0.2800 
 16 C        1.5930     5.0390     1.3540 C.3   1 <1>  -0.2400 
 17 C        2.1250     5.2090    -1.0800 C.3   1 <1>  -0.2400 
 18 C        0.4010     6.7410    -0.1230 C.3   1 <1>  -0.2400 
 19 H       -1.5160     2.2050    -2.1930 H     1 <1>   0.0800 
 20 H       -0.2250     1.9340    -1.0150 H     1 <1>   0.0800 
 21 H       -2.9770     2.8480     1.4540 H     1 <1>   0.0800 
 22 H       -3.7840     0.6480     2.1030 H     1 <1>   0.0800 
 23 H       -2.9850    -0.6750     1.2790 H     1 <1>   0.0800 
 24 H       -4.5540    -0.1390     0.7320 H     1 <1>   0.0800 
 25 H       -5.4670     2.9430     1.6850 H     1 <1>   0.0800 
 26 H       -5.7910     1.7160     0.4840 H     1 <1>   0.0800 
 27 H       -6.4970     3.2880     0.3210 H     1 <1>   0.0800 
 28 H       -5.5370     3.3040    -2.0080 H     1 <1>   0.0800 
 29 H       -4.6790     1.8060    -1.7800 H     1 <1>   0.0800 
 30 H       -3.8170     3.2440    -2.2650 H     1 <1>   0.0800 
 31 H       -5.2890     5.2010    -0.3940 H     1 <1>   0.0800 
 32 H       -3.5760     5.1890    -0.6770 H     1 <1>   0.0800 
 33 H       -4.1850     5.0810     0.9520 H     1 <1>   0.0800 
 34 H        2.4150     5.6990     1.5590 H     1 <1>   0.0800 
 35 H        1.9490     4.0260     1.4000 H     1 <1>   0.0800 
 36 H        0.8570     5.1900     2.1220 H     1 <1>   0.0800 
 37 H        2.5520     4.2230    -1.0500 H     1 <1>   0.0800 
 38 H        2.9060     5.9220    -0.8880 H     1 <1>   0.0800 
 39 H        1.7330     5.3920    -2.0640 H     1 <1>   0.0800 
 40 H        1.1650     7.4860     0.0090 H     1 <1>   0.0800 
 41 H       -0.3350     6.8920     0.6450 H     1 <1>   0.0800 
 42 H       -0.0560     6.8890    -1.0850 H     1 <1>   0.0800 
@<TRIPOS>BOND
  1   1   2  2   
  2   2   3  am  
  3   2   4  1   
  4   3   5  1   
  5   3   6  1   
  6   4   7  1   
  7   4  19  1   
  8   4  20  1   
  9   5   7  1   
 10   5   8  1   
 11   5  21  1   
 12   6  22  1   
 13   6  23  1   
 14   6  24  1   
 15   7   9  am  
 16   8  10  1   
 17   8  11  1   
 18   8  12  1   
 19   9  13  2   
 20   9  14  1   
 21  10  25  1   
 22  10  26  1   
 23  10  27  1   
 24  11  28  1   
 25  11  29  1   
 26  11  30  1   
 27  12  31  1   
 28  12  32  1   
 29  12  33  1   
 30  14  15  1   
 31  15  16  1   
 32  15  17  1   
 33  15  18  1   
 34  16  34  1   
 35  16  35  1   
 36  16  36  1   
 37  17  37  1   
 38  17  38  1   
 39  17  39  1   
 40  18  40  1   
 41  18  41  1   
 42  18  42  1   
@<TRIPOS>SUBSTRUCTURE
  1 ****   7 GROUP 4 **** **** 0

# MOE 2024.06 (io_trps.svl 2023.06)
