@<TRIPOS>MOLECULE
NONAME
48 50 1 0 0 
SMALL
USER_CHARGES


@<TRIPOS>ATOM
  1 S        0.7980    -0.8900     1.3680 S.o2  1 <1>   1.4470 
  2 O        0.3980     0.2880     2.1090 O.2   1 <1>  -0.6500 
  3 O        1.0600    -2.1090     2.1030 O.2   1 <1>  -0.6500 
  4 N       -0.4470    -1.2510     0.2750 N.am  1 <1>  -0.8490 
  5 C        2.2140    -0.4950     0.2880 C.ar  1 <1>  -0.0090 
  6 C       -0.1940    -2.5000    -0.4540 C.3   1 <1>   0.1960 
  7 C       -1.7460    -1.2940     0.9500 C.3   1 <1>   0.1960 
  8 C        2.2680     0.6400    -0.5270 C.ar  1 <1>  -0.1440 
  9 C        3.2910    -1.3720     0.2480 C.ar  1 <1>  -0.1500 
 10 C       -1.2570    -2.7040    -1.5370 C.3   1 <1>  -0.1600 
 11 C       -2.8730    -1.4650    -0.0750 C.3   1 <1>  -0.1600 
 12 C        3.3730     0.8640    -1.3360 C.ar  1 <1>  -0.1500 
 13 C        1.1330     1.6570    -0.5640 C.3   1 <1>  -0.0970 
 14 C        4.4090    -1.1650    -0.5520 C.ar  1 <1>   0.0860 
 15 C       -2.6670    -2.7170    -0.9360 C.3   1 <1>  -0.1600 
 16 C        4.4270    -0.0260    -1.3490 C.ar  1 <1>  -0.1500 
 17 C        5.5080    -2.1100    -0.5490 C.2   1 <1>   0.5440 
 18 O        5.2890    -3.2680    -0.8470 O.2   1 <1>  -0.5700 
 19 N        6.7870    -1.7320    -0.2020 N.am  1 <1>  -0.6600 
 20 C        7.1180    -0.4690     0.5250 C.3   1 <1>   0.1400 
 21 C        7.9460    -2.6710    -0.2940 C.3   1 <1>   0.1400 
 22 C        7.8200    -0.7830     1.8570 C.3   1 <1>   0.1200 
 23 C        8.5950    -2.8590     1.0860 C.3   1 <1>   0.1200 
 24 O        8.9220    -1.6200     1.6520 O.3   1 <1>  -0.5600 
 25 H       -0.2040    -3.3350     0.2290 H     1 <1>   0.0800 
 26 H        0.7750    -2.4610    -0.9230 H     1 <1>   0.0800 
 27 H       -1.9090    -0.3750     1.4890 H     1 <1>   0.0800 
 28 H       -1.7620    -2.1060     1.6600 H     1 <1>   0.0800 
 29 H        3.2730    -2.2600     0.8580 H     1 <1>   0.1500 
 30 H       -1.0720    -3.6320    -2.0470 H     1 <1>   0.0800 
 31 H       -1.1740    -1.9090    -2.2580 H     1 <1>   0.0800 
 32 H       -2.9000    -0.5920    -0.7030 H     1 <1>   0.0800 
 33 H       -3.8150    -1.5290     0.4390 H     1 <1>   0.0800 
 34 H        3.4160     1.7370    -1.9660 H     1 <1>   0.1500 
 35 H        1.0510     2.1560     0.3850 H     1 <1>   0.0800 
 36 H        0.1980     1.1730    -0.7840 H     1 <1>   0.0800 
 37 H        1.3020     2.4020    -1.3190 H     1 <1>   0.0800 
 38 H       -2.7870    -3.5950    -0.3240 H     1 <1>   0.0800 
 39 H       -3.4030    -2.7500    -1.7200 H     1 <1>   0.0800 
 40 H        5.2760     0.1540    -1.9860 H     1 <1>   0.1500 
 41 H        6.2320     0.1050     0.7270 H     1 <1>   0.0800 
 42 H        7.7710     0.1300    -0.0860 H     1 <1>   0.0800 
 43 H        8.6740    -2.2680    -0.9750 H     1 <1>   0.0800 
 44 H        7.6350    -3.6280    -0.6740 H     1 <1>   0.0800 
 45 H        7.1420    -1.2670     2.5380 H     1 <1>   0.0800 
 46 H        8.1770     0.1240     2.3120 H     1 <1>   0.0800 
 47 H        9.5020    -3.4290     0.9950 H     1 <1>   0.0800 
 48 H        7.9250    -3.3780     1.7500 H     1 <1>   0.0800 
@<TRIPOS>BOND
  1   1   2  2   
  2   1   3  2   
  3   1   4  am  
  4   1   5  1   
  5   4   6  1   
  6   4   7  1   
  7   5   8  ar  
  8   5   9  ar  
  9   6  10  1   
 10   6  25  1   
 11   6  26  1   
 12   7  11  1   
 13   7  27  1   
 14   7  28  1   
 15   8  12  ar  
 16   8  13  1   
 17   9  14  ar  
 18   9  29  1   
 19  10  15  1   
 20  10  30  1   
 21  10  31  1   
 22  11  15  1   
 23  11  32  1   
 24  11  33  1   
 25  12  16  ar  
 26  12  34  1   
 27  13  35  1   
 28  13  36  1   
 29  13  37  1   
 30  14  16  ar  
 31  14  17  1   
 32  15  38  1   
 33  15  39  1   
 34  16  40  1   
 35  17  18  2   
 36  17  19  am  
 37  19  20  1   
 38  19  21  1   
 39  20  22  1   
 40  20  41  1   
 41  20  42  1   
 42  21  23  1   
 43  21  43  1   
 44  21  44  1   
 45  22  24  1   
 46  22  45  1   
 47  22  46  1   
 48  23  24  1   
 49  23  47  1   
 50  23  48  1   
@<TRIPOS>SUBSTRUCTURE
  1 ****   9 GROUP 4 **** **** 0

# MOE 2024.06 (io_trps.svl 2023.06)
