@<TRIPOS>MOLECULE
NONAME
44 47 1 0 0 
SMALL
USER_CHARGES


@<TRIPOS>ATOM
  1 F        0.1280    -2.0580    -2.1870 F     1 <1>  -0.1900 
  2 C        1.1780    -1.7730    -1.4660 C.ar  1 <1>   0.1900 
  3 C        1.2360    -2.1500    -0.1280 C.ar  1 <1>  -0.1440 
  4 C        2.1980    -1.0810    -2.0920 C.ar  1 <1>  -0.1500 
  5 C        2.3770    -1.7940     0.5840 C.ar  1 <1>  -0.1500 
  6 C        0.1310    -2.9290     0.5980 C.3   1 <1>   0.3640 
  7 C        3.3230    -0.7420    -1.3630 C.ar  1 <1>  -0.1500 
  8 C        3.4090    -1.0990    -0.0280 C.ar  1 <1>  -0.1500 
  9 N       -0.4090    -4.0820    -0.1650 N.am  1 <1>  -0.2980 
 10 C       -1.1270    -2.1170     0.9340 C.3   1 <1>  -0.0190 
 11 N       -1.7580    -3.9160    -0.3990 N.2   1 <1>  -0.5120 
 12 C        0.3400    -5.1900    -0.5440 C.2   1 <1>   0.5690 
 13 C       -2.1780    -2.8400     0.1320 C.2   1 <1>   0.3030 
 14 C       -1.1760    -0.6100     0.6240 C.3   1 <1>  -0.1600 
 15 O       -0.1310    -6.1500    -1.1060 O.2   1 <1>  -0.5700 
 16 C        1.8240    -5.2550    -0.2420 C.3   1 <1>  -0.1790 
 17 C       -3.4880    -2.2470     0.0480 C.ar  1 <1>   0.0860 
 18 C       -2.5620    -0.0600     0.9950 C.3   1 <1>  -0.0170 
 19 C       -3.7040    -0.9210     0.4500 C.ar  1 <1>  -0.1430 
 20 C       -4.5740    -2.9670    -0.4510 C.ar  1 <1>  -0.1500 
 21 C       -4.9680    -0.3650     0.3610 C.ar  1 <1>  -0.1500 
 22 C       -5.8340    -2.4070    -0.5400 C.ar  1 <1>  -0.1500 
 23 C       -6.0390    -1.0940    -0.1300 C.ar  1 <1>   0.0830 
 24 O       -7.2370    -0.4650    -0.1780 O.3   1 <1>  -0.3620 
 25 C       -8.3860    -1.1120    -0.6780 C.3   1 <1>   0.0400 
 26 H        2.1060    -0.8150    -3.1290 H     1 <1>   0.1500 
 27 H        2.4770    -2.0560     1.6230 H     1 <1>   0.1500 
 28 H        0.5290    -3.3140     1.5190 H     1 <1>   0.0800 
 29 H        4.1290    -0.2040    -1.8330 H     1 <1>   0.1500 
 30 H        4.2860    -0.8330     0.5380 H     1 <1>   0.1500 
 31 H       -1.3460    -2.2620     1.9770 H     1 <1>   0.0800 
 32 H       -1.0160    -0.4460    -0.4270 H     1 <1>   0.0800 
 33 H       -0.4120    -0.0850     1.1700 H     1 <1>   0.0800 
 34 H        2.0110    -5.0360     0.7910 H     1 <1>   0.0800 
 35 H        2.3530    -4.5630    -0.8690 H     1 <1>   0.0800 
 36 H        2.1880    -6.2450    -0.4500 H     1 <1>   0.0800 
 37 H       -2.6540     0.9440     0.6180 H     1 <1>   0.0800 
 38 H       -2.6530    -0.0160     2.0670 H     1 <1>   0.0800 
 39 H       -4.4160    -3.9820    -0.7740 H     1 <1>   0.1500 
 40 H       -5.1440     0.6500     0.6700 H     1 <1>   0.1500 
 41 H       -6.6370    -3.0030    -0.9300 H     1 <1>   0.1500 
 42 H       -9.2080    -0.4210    -0.6250 H     1 <1>   0.0800 
 43 H       -8.5940    -1.9740    -0.0700 H     1 <1>   0.0800 
 44 H       -8.2110    -1.3930    -1.7020 H     1 <1>   0.0800 
@<TRIPOS>BOND
  1   1   2  1   
  2   2   3  ar  
  3   2   4  ar  
  4   3   5  ar  
  5   3   6  1   
  6   4   7  ar  
  7   4  26  1   
  8   5   8  ar  
  9   5  27  1   
 10   6   9  1   
 11   6  10  1   
 12   6  28  1   
 13   7   8  ar  
 14   7  29  1   
 15   8  30  1   
 16   9  11  1   
 17   9  12  am  
 18  10  13  1   
 19  10  14  1   
 20  10  31  1   
 21  11  13  2   
 22  12  15  2   
 23  12  16  1   
 24  13  17  1   
 25  14  18  1   
 26  14  32  1   
 27  14  33  1   
 28  16  34  1   
 29  16  35  1   
 30  16  36  1   
 31  17  19  ar  
 32  17  20  ar  
 33  18  19  1   
 34  18  37  1   
 35  18  38  1   
 36  19  21  ar  
 37  20  22  ar  
 38  20  39  1   
 39  21  23  ar  
 40  21  40  1   
 41  22  23  ar  
 42  22  41  1   
 43  23  24  1   
 44  24  25  1   
 45  25  42  1   
 46  25  43  1   
 47  25  44  1   
@<TRIPOS>SUBSTRUCTURE
  1 ****  13 GROUP 4 **** **** 0

# MOE 2024.06 (io_trps.svl 2023.06)
