@<TRIPOS>MOLECULE
NONAME
59 61 1 0 0 
SMALL
USER_CHARGES


@<TRIPOS>ATOM
  1 O       -4.0190     3.3380     2.4380 O.3   1 <1>  -0.6830 
  2 C       -4.3520     3.8440     1.1820 C.3   1 <1>   0.3380 
  3 C       -5.8170     3.5470     0.8830 C.ar  1 <1>  -0.1500 
  4 C       -3.4310     3.2380     0.0990 C.3   1 <1>   0.3490 
  5 C       -6.5340     4.4380     0.0980 C.ar  1 <1>  -0.1560 
  6 C       -6.4530     2.3990     1.3440 C.ar  1 <1>  -0.1560 
  7 N       -3.5970     1.7590    -0.0840 N.pl3 1 <1>  -0.7670 
  8 C       -7.8530     4.1820    -0.2310 C.ar  1 <1>  -0.1560 
  9 C       -7.7720     2.1450     1.0140 C.ar  1 <1>  -0.1560 
 10 C       -3.1730     0.7810     0.7060 C.cat 1 <1>   1.0690 
 11 C       -4.3050     1.1770    -1.1250 C.ar  1 <1>   0.3040 
 12 C       -8.4770     3.0330     0.2210 C.ar  1 <1>  -0.1500 
 13 N       -2.5900     0.9920     1.8600 N.pl3 1 <1>  -0.8390 
 14 N       -3.4500    -0.4220     0.1890 N.pl3 1 <1>  -0.7670 
 15 C       -4.2100    -0.1930    -0.9590 C.ar  1 <1>   0.3040 
 16 C       -5.0320     1.7150    -2.1820 C.ar  1 <1>  -0.1150 
 17 C       -9.9250     2.7540    -0.1410 C.3   1 <1>  -0.1030 
 18 C       -3.1380    -1.7770     0.7170 C.3   1 <1>   0.3490 
 19 C       -4.8320    -1.0610    -1.8530 C.ar  1 <1>  -0.1150 
 20 C       -5.6440     0.8550    -3.0720 C.ar  1 <1>  -0.1560 
 21 C       -2.1040    -2.4990    -0.1860 C.3   1 <1>   0.3380 
 22 C       -5.5440    -0.5270    -2.9090 C.ar  1 <1>  -0.1560 
 23 N       -1.9180    -3.9690     0.1040 N.4   1 <1>  -0.9610 
 24 C       -1.2320    -4.2190     1.4030 C.3   1 <1>   0.3380 
 25 C       -1.1630    -4.6330    -0.9990 C.3   1 <1>   0.3380 
 26 C       -1.5930    -5.6130     1.8970 C.3   1 <1>  -0.2460 
 27 C       -2.0740    -4.8040    -2.2090 C.3   1 <1>  -0.2460 
 28 H       -4.6980     3.6550     3.0740 H     1 <1>   0.3950 
 29 H       -4.2020     4.9100     1.2220 H     1 <1>   0.0730 
 30 H       -2.4080     3.4590     0.3480 H     1 <1>   0.0730 
 31 H       -3.6390     3.7320    -0.8340 H     1 <1>   0.0730 
 32 H       -6.0800     5.3430    -0.2680 H     1 <1>   0.1440 
 33 H       -5.9330     1.6890     1.9600 H     1 <1>   0.1440 
 34 H       -8.3970     4.8830    -0.8400 H     1 <1>   0.1440 
 35 H       -8.2530     1.2550     1.3790 H     1 <1>   0.1440 
 36 H       -2.3230     0.2820     2.5300 H     1 <1>   0.4460 
 37 H       -2.7040     1.9310     2.2680 H     1 <1>   0.4460 
 38 H       -5.1260     2.7790    -2.3020 H     1 <1>   0.1440 
 39 H      -10.5740     3.1920     0.5960 H     1 <1>   0.0730 
 40 H      -10.1080     1.6960    -0.1790 H     1 <1>   0.0730 
 41 H      -10.1600     3.1740    -1.1030 H     1 <1>   0.0730 
 42 H       -4.0510    -2.3490     0.7450 H     1 <1>   0.0730 
 43 H       -2.7550    -1.7020     1.7180 H     1 <1>   0.0730 
 44 H       -4.7750    -2.1260    -1.7290 H     1 <1>   0.1440 
 45 H       -6.2130     1.2500    -3.8990 H     1 <1>   0.1440 
 46 H       -1.1540    -1.9980    -0.1000 H     1 <1>   0.0730 
 47 H       -2.4370    -2.3900    -1.2040 H     1 <1>   0.0730 
 48 H       -6.0370    -1.1740    -3.6180 H     1 <1>   0.1440 
 49 H       -2.8290    -4.4490     0.1430 H     1 <1>   0.4460 
 50 H       -1.5550    -3.5020     2.1400 H     1 <1>   0.0730 
 51 H       -0.1630    -4.1280     1.2880 H     1 <1>   0.0730 
 52 H       -0.8290    -5.6080    -0.6820 H     1 <1>   0.0730 
 53 H       -0.2930    -4.0520    -1.2640 H     1 <1>   0.0730 
 54 H       -2.6560    -5.7150     2.0260 H     1 <1>   0.0730 
 55 H       -1.1290    -5.7780     2.8540 H     1 <1>   0.0730 
 56 H       -1.2350    -6.3760     1.2300 H     1 <1>   0.0730 
 57 H       -2.9520    -5.3700    -1.9520 H     1 <1>   0.0730 
 58 H       -1.5430    -5.3530    -2.9670 H     1 <1>   0.0730 
 59 H       -2.3570    -3.8600    -2.6370 H     1 <1>   0.0730 
@<TRIPOS>BOND
  1   1   2  1   
  2   1  28  1   
  3   2   3  1   
  4   2   4  1   
  5   2  29  1   
  6   3   5  ar  
  7   3   6  ar  
  8   4   7  1   
  9   4  30  1   
 10   4  31  1   
 11   5   8  ar  
 12   5  32  1   
 13   6   9  ar  
 14   6  33  1   
 15   7  10  ar  
 16   7  11  1   
 17   8  12  ar  
 18   8  34  1   
 19   9  12  ar  
 20   9  35  1   
 21  10  13  ar  
 22  10  14  ar  
 23  11  15  ar  
 24  11  16  ar  
 25  12  17  1   
 26  13  36  1   
 27  13  37  1   
 28  14  15  1   
 29  14  18  1   
 30  15  19  ar  
 31  16  20  ar  
 32  16  38  1   
 33  17  39  1   
 34  17  40  1   
 35  17  41  1   
 36  18  21  1   
 37  18  42  1   
 38  18  43  1   
 39  19  22  ar  
 40  19  44  1   
 41  20  22  ar  
 42  20  45  1   
 43  21  23  1   
 44  21  46  1   
 45  21  47  1   
 46  22  48  1   
 47  23  24  1   
 48  23  25  1   
 49  23  49  1   
 50  24  26  1   
 51  24  50  1   
 52  24  51  1   
 53  25  27  1   
 54  25  52  1   
 55  25  53  1   
 56  26  54  1   
 57  26  55  1   
 58  26  56  1   
 59  27  57  1   
 60  27  58  1   
 61  27  59  1   
@<TRIPOS>SUBSTRUCTURE
  1 ****  15 GROUP 4 **** **** 0

# MOE 2024.06 (io_trps.svl 2023.06)
