@<TRIPOS>MOLECULE
NONAME
43 43 1 0 0 
SMALL
USER_CHARGES


@<TRIPOS>ATOM
  1 CL      -0.9390     0.5600    -2.3120 Cl    1 <1>  -0.1770 
  2 C       -0.3980     1.7350    -1.1390 C.ar  1 <1>   0.1770 
  3 C       -1.0090     2.9730    -1.0910 C.ar  1 <1>  -0.1500 
  4 C        0.6230     1.4040    -0.2710 C.ar  1 <1>  -0.1500 
  5 C       -0.5840     3.9160    -0.1680 C.ar  1 <1>  -0.1440 
  6 C        1.0640     2.3330     0.6560 C.ar  1 <1>  -0.1440 
  7 C        0.4820     3.6030     0.6810 C.ar  1 <1>   0.0830 
  8 C       -1.3340     5.2410    -0.1060 C.3   1 <1>  -0.0960 
  9 C        2.1620     1.9280     1.6300 C.3   1 <1>  -0.0960 
 10 O        0.9620     4.5190     1.5590 O.3   1 <1>  -0.3630 
 11 C        1.6900     5.6160     1.0520 C.3   1 <1>   0.1200 
 12 C        3.1090     5.1620     0.7010 C.3   1 <1>  -0.1600 
 13 C        3.9360     6.3380     0.1880 C.3   1 <1>   0.3430 
 14 N        5.3390     5.9170    -0.0930 N.4   1 <1>  -0.9590 
 15 C        6.2120     7.1140    -0.2370 C.3   1 <1>   0.3430 
 16 C        5.4310     5.0180    -1.2780 C.3   1 <1>   0.3430 
 17 C        7.6750     6.7100    -0.0940 C.3   1 <1>  -0.2400 
 18 C        5.9280     3.6560    -0.8130 C.3   1 <1>  -0.2400 
 19 H       -1.8160     3.1830    -1.7690 H     1 <1>   0.1500 
 20 H        1.0560     0.4210    -0.3260 H     1 <1>   0.1500 
 21 H       -2.3730     5.0910    -0.3370 H     1 <1>   0.0800 
 22 H       -0.9240     5.9360    -0.8150 H     1 <1>   0.0800 
 23 H       -1.2780     5.6650     0.8810 H     1 <1>   0.0800 
 24 H        2.1260     0.8690     1.8150 H     1 <1>   0.0800 
 25 H        2.0370     2.4290     2.5730 H     1 <1>   0.0800 
 26 H        3.1260     2.1720     1.2270 H     1 <1>   0.0800 
 27 H        1.7050     6.3670     1.8230 H     1 <1>   0.0800 
 28 H        1.1820     6.0070     0.1890 H     1 <1>   0.0800 
 29 H        3.0410     4.4040    -0.0580 H     1 <1>   0.0800 
 30 H        3.5660     4.7550     1.5850 H     1 <1>   0.0800 
 31 H        3.9370     7.1120     0.9390 H     1 <1>   0.0800 
 32 H        3.4860     6.7410    -0.7070 H     1 <1>   0.0800 
 33 H        5.6790     5.3870     0.7210 H     1 <1>   0.4500 
 34 H        5.9760     7.8300     0.5350 H     1 <1>   0.0800 
 35 H        6.0470     7.5840    -1.1940 H     1 <1>   0.0800 
 36 H        6.1160     5.4220    -2.0060 H     1 <1>   0.0800 
 37 H        4.4660     4.9120    -1.7480 H     1 <1>   0.0800 
 38 H        7.8500     6.2290     0.8520 H     1 <1>   0.0800 
 39 H        8.2880     7.5930    -0.1340 H     1 <1>   0.0800 
 40 H        7.9860     6.0620    -0.8940 H     1 <1>   0.0800 
 41 H        6.9070     3.7320    -0.3740 H     1 <1>   0.0800 
 42 H        5.9970     2.9980    -1.6610 H     1 <1>   0.0800 
 43 H        5.2470     3.2140    -0.1080 H     1 <1>   0.0800 
@<TRIPOS>BOND
  1   1   2  1   
  2   2   3  ar  
  3   2   4  ar  
  4   3   5  ar  
  5   3  19  1   
  6   4   6  ar  
  7   4  20  1   
  8   5   7  ar  
  9   5   8  1   
 10   6   7  ar  
 11   6   9  1   
 12   7  10  1   
 13   8  21  1   
 14   8  22  1   
 15   8  23  1   
 16   9  24  1   
 17   9  25  1   
 18   9  26  1   
 19  10  11  1   
 20  11  12  1   
 21  11  27  1   
 22  11  28  1   
 23  12  13  1   
 24  12  29  1   
 25  12  30  1   
 26  13  14  1   
 27  13  31  1   
 28  13  32  1   
 29  14  15  1   
 30  14  16  1   
 31  14  33  1   
 32  15  17  1   
 33  15  34  1   
 34  15  35  1   
 35  16  18  1   
 36  16  36  1   
 37  16  37  1   
 38  17  38  1   
 39  17  39  1   
 40  17  40  1   
 41  18  41  1   
 42  18  42  1   
 43  18  43  1   
@<TRIPOS>SUBSTRUCTURE
  1 ****  12 GROUP 4 **** **** 0

# MOE 2024.06 (io_trps.svl 2023.06)
