@<TRIPOS>MOLECULE
NONAME
28 28 1 0 0 
SMALL
USER_CHARGES


@<TRIPOS>ATOM
  1 O        0.4620    -0.0710     0.0390 O.3   1 <1>  -0.3630 
  2 C        1.5730    -0.8220     0.0770 C.ar  1 <1>   0.7020 
  3 C       -0.8270    -0.6270    -0.1320 C.3   1 <1>   0.0400 
  4 N        1.4500    -2.1220    -0.0490 N.ar  1 <1>  -0.6200 
  5 N        2.6800    -0.1570     0.2390 N.ar  1 <1>  -0.6200 
  6 C        2.6010    -2.7500     0.0050 C.ar  1 <1>   0.7030 
  7 C        3.7420    -0.9100     0.2720 C.ar  1 <1>   0.7200 
  8 O        2.6030    -4.0870    -0.1110 O.3   1 <1>  -0.3630 
  9 N        3.7740    -2.2110     0.1630 N.ar  1 <1>  -0.6200 
 10 N        4.9020    -0.2420     0.4390 N.pl3 1 <1>  -0.8690 
 11 C        1.4170    -4.8370    -0.2900 C.3   1 <1>   0.0400 
 12 C        6.2610    -0.8120     0.5270 C.3   1 <1>   0.2090 
 13 C        7.2120     0.0580    -0.2920 C.3   1 <1>  -0.1600 
 14 C        8.6470    -0.4810    -0.2480 C.3   1 <1>  -0.2400 
 15 H       -1.5430     0.1750    -0.1280 H     1 <1>   0.0800 
 16 H       -1.0260    -1.3030     0.6820 H     1 <1>   0.0800 
 17 H       -0.8610    -1.1480    -1.0720 H     1 <1>   0.0800 
 18 H        4.8040     0.7650     0.5570 H     1 <1>   0.4000 
 19 H        1.6840    -5.8760    -0.3560 H     1 <1>   0.0800 
 20 H        0.9390    -4.5200    -1.2000 H     1 <1>   0.0800 
 21 H        0.7710    -4.6740     0.5540 H     1 <1>   0.0800 
 22 H        6.2700    -1.8200     0.1460 H     1 <1>   0.0800 
 23 H        6.5690    -0.8340     1.5580 H     1 <1>   0.0800 
 24 H        7.2010     1.0620     0.0940 H     1 <1>   0.0800 
 25 H        6.8750     0.0790    -1.3150 H     1 <1>   0.0800 
 26 H        9.0120    -0.4980     0.7640 H     1 <1>   0.0800 
 27 H        9.2940     0.1470    -0.8350 H     1 <1>   0.0800 
 28 H        8.6860    -1.4790    -0.6490 H     1 <1>   0.0800 
@<TRIPOS>BOND
  1   1   2  1   
  2   1   3  1   
  3   2   4  ar  
  4   2   5  ar  
  5   3  15  1   
  6   3  16  1   
  7   3  17  1   
  8   4   6  ar  
  9   5   7  ar  
 10   6   8  1   
 11   6   9  ar  
 12   7   9  ar  
 13   7  10  1   
 14   8  11  1   
 15  10  12  1   
 16  10  18  1   
 17  11  19  1   
 18  11  20  1   
 19  11  21  1   
 20  12  13  1   
 21  12  22  1   
 22  12  23  1   
 23  13  14  1   
 24  13  24  1   
 25  13  25  1   
 26  14  26  1   
 27  14  27  1   
 28  14  28  1   
@<TRIPOS>SUBSTRUCTURE
  1 ****   7 GROUP 4 **** **** 0

# MOE 2024.06 (io_trps.svl 2023.06)
