@<TRIPOS>MOLECULE
NONAME
25 25 1 0 0 
SMALL
USER_CHARGES


@<TRIPOS>ATOM
  1 CL       0.3530     0.3280    -0.4950 Cl    1 <1>  -0.1770 
  2 C       -1.2520     1.0140    -0.3820 C.ar  1 <1>   0.1770 
  3 C       -1.4570     2.3090     0.0750 C.ar  1 <1>  -0.1440 
  4 C       -2.3090     0.2110    -0.7660 C.ar  1 <1>  -0.1500 
  5 C       -2.7680     2.7790     0.1340 C.ar  1 <1>  -0.1500 
  6 C       -0.2670     3.1750     0.4940 C.3   1 <1>   1.1640 
  7 C       -3.6010     0.6980    -0.6980 C.ar  1 <1>  -0.1500 
  8 C       -3.8480     1.9920    -0.2510 C.ar  1 <1>   0.1170 
  9 F        0.5910     3.3810    -0.4960 F     1 <1>  -0.3400 
 10 F        0.4220     2.6470     1.4970 F     1 <1>  -0.3400 
 11 F       -0.6370     4.3820     0.9080 F     1 <1>  -0.3400 
 12 N       -5.1410     2.5280    -0.1570 N.am  1 <1>  -0.5470 
 13 C       -6.2920     2.2020    -0.8210 C.2   1 <1>   0.5690 
 14 O       -6.3590     1.3500    -1.6700 O.2   1 <1>  -0.5700 
 15 C       -7.5490     2.9800    -0.4720 C.3   1 <1>  -0.0990 
 16 C       -8.0700     2.6740     0.9420 C.3   1 <1>  -0.2400 
 17 H       -2.1220    -0.7890    -1.1160 H     1 <1>   0.1500 
 18 H       -2.9680     3.7790     0.4790 H     1 <1>   0.1500 
 19 H       -4.4170     0.0630    -0.9950 H     1 <1>   0.1500 
 20 H       -5.2400     3.3060     0.4920 H     1 <1>   0.3700 
 21 H       -8.3120     2.7290    -1.1880 H     1 <1>   0.0800 
 22 H       -7.3480     4.0310    -0.5690 H     1 <1>   0.0800 
 23 H       -8.2810     1.6220     1.0370 H     1 <1>   0.0800 
 24 H       -8.9780     3.2210     1.1270 H     1 <1>   0.0800 
 25 H       -7.3450     2.9480     1.6870 H     1 <1>   0.0800 
@<TRIPOS>BOND
  1   1   2  1   
  2   2   3  ar  
  3   2   4  ar  
  4   3   5  ar  
  5   3   6  1   
  6   4   7  ar  
  7   4  17  1   
  8   5   8  ar  
  9   5  18  1   
 10   6   9  1   
 11   6  10  1   
 12   6  11  1   
 13   7   8  ar  
 14   7  19  1   
 15   8  12  1   
 16  12  13  am  
 17  12  20  1   
 18  13  14  2   
 19  13  15  1   
 20  15  16  1   
 21  15  21  1   
 22  15  22  1   
 23  16  23  1   
 24  16  24  1   
 25  16  25  1   
@<TRIPOS>SUBSTRUCTURE
  1 ****   5 GROUP 4 **** **** 0

# MOE 2024.06 (io_trps.svl 2023.06)
