@<TRIPOS>MOLECULE
NONAME
55 57 1 0 0 
SMALL
USER_CHARGES


@<TRIPOS>ATOM
  1 S        0.2230    -1.2290    -1.5520 S.o2  1 <1>   1.4470 
  2 O        0.5740    -2.2900    -2.4720 O.2   1 <1>  -0.6500 
  3 O        0.1740     0.1290    -2.0510 O.2   1 <1>  -0.6500 
  4 N        1.4090    -1.2550    -0.3410 N.am  1 <1>  -0.8490 
  5 C       -1.3160    -1.6450    -0.6650 C.ar  1 <1>  -0.0090 
  6 C        1.6210    -2.6090     0.2070 C.3   1 <1>   0.1960 
  7 C        2.6850    -0.7180    -0.8440 C.3   1 <1>   0.1960 
  8 C       -1.8840    -0.8260     0.3150 C.ar  1 <1>  -0.1440 
  9 C       -1.9550    -2.8470    -0.9570 C.ar  1 <1>  -0.1500 
 10 C        2.6410    -2.5950     1.3560 C.3   1 <1>   0.1400 
 11 C        3.7600    -0.6590     0.2580 C.3   1 <1>   0.1400 
 12 C       -3.0450    -1.2190     0.9650 C.ar  1 <1>  -0.1500 
 13 C       -1.2650     0.5120     0.7020 C.3   1 <1>  -0.0960 
 14 C       -3.1130    -3.2410    -0.3110 C.ar  1 <1>  -0.1430 
 15 N        3.9320    -1.9940     0.9060 N.am  1 <1>  -0.6600 
 16 C       -3.6560    -2.4190     0.6570 C.ar  1 <1>  -0.1500 
 17 C       -3.7790    -4.5610    -0.6570 C.3   1 <1>  -0.0970 
 18 C        5.0380    -2.7750     0.7170 C.2   1 <1>   0.6900 
 19 O        4.9480    -3.9890     0.7070 O.2   1 <1>  -0.5700 
 20 N        6.2420    -2.1780     0.5550 N.am  1 <1>  -0.7300 
 21 C        7.5180    -2.8820     0.3630 C.3   1 <1>   0.2200 
 22 C        8.3140    -2.8370     1.6710 C.3   1 <1>  -0.1600 
 23 C        8.2860    -2.2090    -0.7800 C.3   1 <1>  -0.1600 
 24 C        9.7050    -3.4660     1.4960 C.3   1 <1>  -0.1600 
 25 C        9.6760    -2.8370    -0.9590 C.3   1 <1>  -0.1600 
 26 C       10.4760    -2.7970     0.3500 C.3   1 <1>  -0.1600 
 27 H        1.9750    -3.2750    -0.5640 H     1 <1>   0.0800 
 28 H        0.6900    -2.9990     0.5820 H     1 <1>   0.0800 
 29 H        2.5330     0.2780    -1.2230 H     1 <1>   0.0800 
 30 H        3.0440    -1.3290    -1.6570 H     1 <1>   0.0800 
 31 H       -1.5340    -3.4910    -1.7100 H     1 <1>   0.1500 
 32 H        2.7950    -3.5990     1.7100 H     1 <1>   0.0800 
 33 H        2.2480    -2.0160     2.1730 H     1 <1>   0.0800 
 34 H        3.4640     0.0590     1.0020 H     1 <1>   0.0800 
 35 H        4.6830    -0.3260    -0.1800 H     1 <1>   0.0800 
 36 H       -3.4860    -0.5910     1.7190 H     1 <1>   0.1500 
 37 H       -1.2720     1.1820    -0.1400 H     1 <1>   0.0800 
 38 H       -0.2520     0.3780     1.0330 H     1 <1>   0.0800 
 39 H       -1.8150     0.9780     1.5000 H     1 <1>   0.0800 
 40 H       -4.5550    -2.7070     1.1730 H     1 <1>   0.1500 
 41 H       -3.4400    -5.3280     0.0150 H     1 <1>   0.0800 
 42 H       -3.5420    -4.8520    -1.6650 H     1 <1>   0.0800 
 43 H       -4.8480    -4.4740    -0.5740 H     1 <1>   0.0800 
 44 H        6.3150    -1.2060     0.8370 H     1 <1>   0.3700 
 45 H        7.3300    -3.9100     0.0990 H     1 <1>   0.0800 
 46 H        7.7740    -3.3750     2.4300 H     1 <1>   0.0800 
 47 H        8.4290    -1.8160     1.9900 H     1 <1>   0.0800 
 48 H        8.4010    -1.1600    -0.5690 H     1 <1>   0.0800 
 49 H        7.7280    -2.3160    -1.6930 H     1 <1>   0.0800 
 50 H        9.5950    -4.5160     1.2860 H     1 <1>   0.0800 
 51 H       10.2620    -3.3700     2.4120 H     1 <1>   0.0800 
 52 H       10.2150    -2.3100    -1.7280 H     1 <1>   0.0800 
 53 H        9.5650    -3.8600    -1.2770 H     1 <1>   0.0800 
 54 H       11.4190    -3.2980     0.2110 H     1 <1>   0.0800 
 55 H       10.6840    -1.7730     0.6100 H     1 <1>   0.0800 
@<TRIPOS>BOND
  1   1   2  2   
  2   1   3  2   
  3   1   4  am  
  4   1   5  1   
  5   4   6  1   
  6   4   7  1   
  7   5   8  ar  
  8   5   9  ar  
  9   6  10  1   
 10   6  27  1   
 11   6  28  1   
 12   7  11  1   
 13   7  29  1   
 14   7  30  1   
 15   8  12  ar  
 16   8  13  1   
 17   9  14  ar  
 18   9  31  1   
 19  10  15  1   
 20  10  32  1   
 21  10  33  1   
 22  11  15  1   
 23  11  34  1   
 24  11  35  1   
 25  12  16  ar  
 26  12  36  1   
 27  13  37  1   
 28  13  38  1   
 29  13  39  1   
 30  14  16  ar  
 31  14  17  1   
 32  15  18  am  
 33  16  40  1   
 34  17  41  1   
 35  17  42  1   
 36  17  43  1   
 37  18  19  2   
 38  18  20  am  
 39  20  21  1   
 40  20  44  1   
 41  21  22  1   
 42  21  23  1   
 43  21  45  1   
 44  22  24  1   
 45  22  46  1   
 46  22  47  1   
 47  23  25  1   
 48  23  48  1   
 49  23  49  1   
 50  24  26  1   
 51  24  50  1   
 52  24  51  1   
 53  25  26  1   
 54  25  52  1   
 55  25  53  1   
 56  26  54  1   
 57  26  55  1   
@<TRIPOS>SUBSTRUCTURE
  1 ****   6 GROUP 4 **** **** 0

# MOE 2024.06 (io_trps.svl 2023.06)
