@<TRIPOS>MOLECULE
NONAME
48 50 1 0 0 
SMALL
USER_CHARGES


@<TRIPOS>ATOM
  1 S       -0.2050     0.3880    -1.3690 S.o2  1 <1>   1.4470 
  2 O       -0.7710     1.7160    -1.4710 O.2   1 <1>  -0.6500 
  3 O        0.2140    -0.3000    -2.5690 O.2   1 <1>  -0.6500 
  4 N       -1.3790    -0.5830    -0.6310 N.am  1 <1>  -0.8490 
  5 C        1.1540     0.3760    -0.1650 C.ar  1 <1>  -0.0090 
  6 C       -1.9950     0.0750     0.5400 C.3   1 <1>   0.1960 
  7 C       -2.4330    -0.9600    -1.5930 C.3   1 <1>   0.1960 
  8 C        1.6730    -0.8300     0.3030 C.ar  1 <1>  -0.1500 
  9 C        1.7030     1.5630     0.3140 C.ar  1 <1>  -0.1500 
 10 C       -3.0340    -0.8190     1.2450 C.3   1 <1>   0.2090 
 11 C       -3.5120    -1.8760    -0.9780 C.3   1 <1>   0.2090 
 12 C        2.7060    -0.8700     1.2280 C.ar  1 <1>  -0.1440 
 13 C        2.7350     1.5520     1.2370 C.ar  1 <1>  -0.1500 
 14 N       -4.0660    -1.3350     0.3000 N.pl3 1 <1>  -0.8380 
 15 C        3.2180     0.3360     1.6780 C.ar  1 <1>   0.1900 
 16 C        3.2560    -2.2000     1.7250 C.3   1 <1>  -0.0970 
 17 C       -5.3000    -0.6860     0.2640 C.ar  1 <1>   0.1000 
 18 F        4.1900     0.3390     2.5510 F     1 <1>  -0.1900 
 19 C       -6.4270    -1.2620     0.8510 C.ar  1 <1>  -0.1430 
 20 C       -5.4290     0.5520    -0.3560 C.ar  1 <1>  -0.1500 
 21 C       -7.6440    -0.6000     0.8090 C.ar  1 <1>  -0.1500 
 22 C       -6.3300    -2.6160     1.5390 C.3   1 <1>  -0.0970 
 23 C       -6.6450     1.2070    -0.3950 C.ar  1 <1>  -0.1500 
 24 C       -7.7620     0.6330     0.1880 C.ar  1 <1>  -0.1430 
 25 C       -9.1000     1.3490     0.1500 C.3   1 <1>  -0.0970 
 26 H       -2.4800     0.9880     0.2390 H     1 <1>   0.0800 
 27 H       -1.2310     0.3310     1.2530 H     1 <1>   0.0800 
 28 H       -1.9900    -1.4810    -2.4250 H     1 <1>   0.0800 
 29 H       -2.9060    -0.0740    -1.9810 H     1 <1>   0.0800 
 30 H        1.2530    -1.7490    -0.0710 H     1 <1>   0.1500 
 31 H        1.3190     2.5060    -0.0400 H     1 <1>   0.1500 
 32 H       -3.5170    -0.2590     2.0260 H     1 <1>   0.0800 
 33 H       -2.5310    -1.6540     1.7000 H     1 <1>   0.0800 
 34 H       -3.0810    -2.8420    -0.7850 H     1 <1>   0.0800 
 35 H       -4.3120    -2.0090    -1.6850 H     1 <1>   0.0800 
 36 H        3.1610     2.4670     1.6090 H     1 <1>   0.1500 
 37 H        3.1530    -2.2630     2.7930 H     1 <1>   0.0800 
 38 H        4.2990    -2.2790     1.4740 H     1 <1>   0.0800 
 39 H        2.7330    -3.0270     1.2790 H     1 <1>   0.0800 
 40 H       -4.5720     1.0080    -0.8100 H     1 <1>   0.1500 
 41 H       -8.5090    -1.0460     1.2640 H     1 <1>   0.1500 
 42 H       -5.6290    -2.5580     2.3510 H     1 <1>   0.0800 
 43 H       -5.9840    -3.3520     0.8370 H     1 <1>   0.0800 
 44 H       -7.2830    -2.9280     1.9250 H     1 <1>   0.0800 
 45 H       -6.7190     2.1640    -0.8780 H     1 <1>   0.1500 
 46 H       -9.9060     0.6380     0.1450 H     1 <1>   0.0800 
 47 H       -9.1760     1.9560    -0.7340 H     1 <1>   0.0800 
 48 H       -9.1970     1.9800     1.0150 H     1 <1>   0.0800 
@<TRIPOS>BOND
  1   1   2  2   
  2   1   3  2   
  3   1   4  am  
  4   1   5  1   
  5   4   6  1   
  6   4   7  1   
  7   5   8  ar  
  8   5   9  ar  
  9   6  10  1   
 10   6  26  1   
 11   6  27  1   
 12   7  11  1   
 13   7  28  1   
 14   7  29  1   
 15   8  12  ar  
 16   8  30  1   
 17   9  13  ar  
 18   9  31  1   
 19  10  14  1   
 20  10  32  1   
 21  10  33  1   
 22  11  14  1   
 23  11  34  1   
 24  11  35  1   
 25  12  15  ar  
 26  12  16  1   
 27  13  15  ar  
 28  13  36  1   
 29  14  17  1   
 30  15  18  1   
 31  16  37  1   
 32  16  38  1   
 33  16  39  1   
 34  17  19  ar  
 35  17  20  ar  
 36  19  21  ar  
 37  19  22  1   
 38  20  23  ar  
 39  20  40  1   
 40  21  24  ar  
 41  21  41  1   
 42  22  42  1   
 43  22  43  1   
 44  22  44  1   
 45  23  24  ar  
 46  23  45  1   
 47  24  25  1   
 48  25  46  1   
 49  25  47  1   
 50  25  48  1   
@<TRIPOS>SUBSTRUCTURE
  1 ****   6 GROUP 4 **** **** 0

# MOE 2024.06 (io_trps.svl 2023.06)
