@<TRIPOS>MOLECULE
NONAME
41 43 1 0 0 
SMALL
USER_CHARGES


@<TRIPOS>ATOM
  1 O       -0.2610     0.5670     0.2840 O.3   1 <1>  -0.3630 
  2 C       -0.2630     1.9110     0.0880 C.ar  1 <1>   0.0820 
  3 C       -0.6530     0.0750     1.5480 C.3   1 <1>   0.0400 
  4 C       -1.3590     2.7360     0.3570 C.ar  1 <1>   0.0820 
  5 C        0.9020     2.4680    -0.4080 C.ar  1 <1>  -0.1500 
  6 O       -2.5440     2.2570     0.8020 O.3   1 <1>  -0.3630 
  7 C       -1.2610     4.1020     0.1600 C.ar  1 <1>  -0.1500 
  8 C        0.9960     3.8410    -0.6120 C.ar  1 <1>   0.0820 
  9 C       -3.3440     1.6330    -0.1770 C.3   1 <1>   0.0400 
 10 C       -0.0880     4.6650    -0.3300 C.ar  1 <1>  -0.1440 
 11 O        2.1310     4.4440    -1.0660 O.3   1 <1>  -0.3630 
 12 C        0.0840     6.1590    -0.5620 C.3   1 <1>   0.7470 
 13 C        3.1630     3.6750    -1.6540 C.3   1 <1>   0.0400 
 14 N        0.9600     6.6110     0.5500 N.4   1 <1>  -0.9060 
 15 C       -1.1970     7.0090    -0.5710 C.2   1 <1>   0.0460 
 16 C        1.0840     8.0960     0.6980 C.3   1 <1>   0.3430 
 17 N       -2.3030     6.7530    -1.2950 N.2   1 <1>  -0.5650 
 18 C       -1.3480     8.1450     0.1420 C.2   1 <1>  -0.3320 
 19 C       -0.2760     8.7490     1.0290 C.3   1 <1>   0.0200 
 20 C       -3.1070     7.7230    -0.9910 C.2   1 <1>   0.0360 
 21 N       -2.5870     8.6090    -0.1130 N.pl3 1 <1>   0.0330 
 22 H       -0.2750    -0.9260     1.6500 H     1 <1>   0.0800 
 23 H       -1.7260     0.0620     1.6070 H     1 <1>   0.0800 
 24 H       -0.2410     0.7050     2.3160 H     1 <1>   0.0800 
 25 H        1.7190     1.8030    -0.6130 H     1 <1>   0.1500 
 26 H       -2.1260     4.7030     0.3870 H     1 <1>   0.1500 
 27 H       -4.2540     1.3010     0.2910 H     1 <1>   0.0800 
 28 H       -2.8110     0.7920    -0.5850 H     1 <1>   0.0800 
 29 H       -3.5660     2.3460    -0.9520 H     1 <1>   0.0800 
 30 H        0.5830     6.3050    -1.5060 H     1 <1>   0.0800 
 31 H        3.9010     4.3460    -2.0560 H     1 <1>   0.0800 
 32 H        2.7480     3.0760    -2.4470 H     1 <1>   0.0800 
 33 H        3.6130     3.0510    -0.9010 H     1 <1>   0.0800 
 34 H        1.8570     6.1350     0.3910 H     1 <1>   0.4500 
 35 H        0.5390     6.1980     1.3860 H     1 <1>   0.4500 
 36 H        1.4500     8.5120    -0.2270 H     1 <1>   0.0800 
 37 H        1.7930     8.3350     1.4740 H     1 <1>   0.0800 
 38 H       -0.2070     9.8100     0.8630 H     1 <1>   0.0800 
 39 H       -0.5220     8.5880     2.0650 H     1 <1>   0.0800 
 40 H       -4.1010     7.8320    -1.3930 H     1 <1>   0.1500 
 41 H       -3.0520     9.4470     0.2540 H     1 <1>   0.2700 
@<TRIPOS>BOND
  1   1   2  1   
  2   1   3  1   
  3   2   4  ar  
  4   2   5  ar  
  5   3  22  1   
  6   3  23  1   
  7   3  24  1   
  8   4   6  1   
  9   4   7  ar  
 10   5   8  ar  
 11   5  25  1   
 12   6   9  1   
 13   7  10  ar  
 14   7  26  1   
 15   8  10  ar  
 16   8  11  1   
 17   9  27  1   
 18   9  28  1   
 19   9  29  1   
 20  10  12  1   
 21  11  13  1   
 22  12  14  1   
 23  12  15  1   
 24  12  30  1   
 25  13  31  1   
 26  13  32  1   
 27  13  33  1   
 28  14  16  1   
 29  14  34  1   
 30  14  35  1   
 31  15  17  1   
 32  15  18  2   
 33  16  19  1   
 34  16  36  1   
 35  16  37  1   
 36  17  20  2   
 37  18  19  1   
 38  18  21  1   
 39  19  38  1   
 40  19  39  1   
 41  20  21  1   
 42  20  40  1   
 43  21  41  1   
@<TRIPOS>SUBSTRUCTURE
  1 ****  10 GROUP 4 **** **** 0

# MOE 2024.06 (io_trps.svl 2023.06)
