@<TRIPOS>MOLECULE
NONAME
51 53 1 0 0 
SMALL
USER_CHARGES


@<TRIPOS>ATOM
  1 S        0.2980     0.4920     2.4900 S.o2  1 <1>   1.4470 
  2 O       -0.6260     1.5980     2.4170 O.2   1 <1>  -0.6500 
  3 O        1.1770     0.3520     3.6250 O.2   1 <1>  -0.6500 
  4 N        1.3680     0.6680     1.1590 N.am  1 <1>  -0.7570 
  5 C       -0.5560    -1.0720     2.1470 C.ar  1 <1>  -0.0090 
  6 C        0.9450     0.9240    -0.1370 C.ar  1 <1>   0.1990 
  7 C       -1.2590    -1.2440     0.9650 C.ar  1 <1>  -0.1500 
  8 C       -0.5410    -2.1320     3.0420 C.ar  1 <1>  -0.1500 
  9 C        1.0410    -0.0450    -1.1410 C.ar  1 <1>  -0.1440 
 10 C        0.3880     2.1600    -0.4440 C.ar  1 <1>  -0.1500 
 11 C       -1.9240    -2.4200     0.6340 C.ar  1 <1>   0.0860 
 12 C       -1.2030    -3.3130     2.7550 C.ar  1 <1>  -0.1500 
 13 C        0.5660     0.2390    -2.4120 C.ar  1 <1>  -0.1500 
 14 C        1.6500    -1.4220    -0.8880 C.3   1 <1>  -0.0170 
 15 C       -0.0820     2.4340    -1.7130 C.ar  1 <1>  -0.1500 
 16 C       -1.8920    -3.4650     1.5640 C.ar  1 <1>  -0.1430 
 17 C       -2.5850    -2.5050    -0.6580 C.2   1 <1>   0.5440 
 18 C        0.0060     1.4710    -2.7000 C.ar  1 <1>  -0.1500 
 19 C        3.1510    -1.4090    -1.1830 C.3   1 <1>  -0.2400 
 20 C       -2.6050    -4.7810     1.2810 C.3   1 <1>  -0.0970 
 21 O       -2.2560    -3.3760    -1.4410 O.2   1 <1>  -0.5700 
 22 N       -3.5440    -1.5920    -1.0470 N.am  1 <1>  -0.6600 
 23 C       -3.9330    -1.4190    -2.4770 C.3   1 <1>   0.1400 
 24 C       -4.1860    -0.5770    -0.1590 C.3   1 <1>   0.1400 
 25 C       -3.7080     0.0390    -2.9100 C.3   1 <1>   0.1200 
 26 C       -3.9420     0.8390    -0.7110 C.3   1 <1>   0.1200 
 27 O       -4.3640     0.9250    -2.0440 O.3   1 <1>  -0.5600 
 28 H        2.1790     1.1890     1.4760 H     1 <1>   0.4200 
 29 H       -1.2920    -0.4360     0.2570 H     1 <1>   0.1500 
 30 H       -0.0050    -2.0350     3.9720 H     1 <1>   0.1500 
 31 H        0.3140     2.9120     0.3220 H     1 <1>   0.1500 
 32 H       -1.1730    -4.1170     3.4710 H     1 <1>   0.1500 
 33 H        0.6330    -0.5040    -3.1890 H     1 <1>   0.1500 
 34 H        1.1680    -2.1510    -1.5170 H     1 <1>   0.0800 
 35 H        1.4900    -1.7320     0.1290 H     1 <1>   0.0800 
 36 H       -0.5160     3.3950    -1.9340 H     1 <1>   0.1500 
 37 H       -0.3580     1.6790    -3.6920 H     1 <1>   0.1500 
 38 H        3.3270    -1.1290    -2.2070 H     1 <1>   0.0800 
 39 H        3.5700    -2.3850    -1.0130 H     1 <1>   0.0800 
 40 H        3.6480    -0.7020    -0.5420 H     1 <1>   0.0800 
 41 H       -3.6190    -4.5980     0.9720 H     1 <1>   0.0800 
 42 H       -2.6250    -5.4100     2.1520 H     1 <1>   0.0800 
 43 H       -2.0980    -5.3080     0.4910 H     1 <1>   0.0800 
 44 H       -4.9710    -1.6740    -2.5980 H     1 <1>   0.0800 
 45 H       -3.3570    -2.0690    -3.1120 H     1 <1>   0.0800 
 46 H       -3.8170    -0.6470     0.8480 H     1 <1>   0.0800 
 47 H       -5.2460    -0.7610    -0.1280 H     1 <1>   0.0800 
 48 H       -4.0990     0.1970    -3.8990 H     1 <1>   0.0800 
 49 H       -2.6570     0.2720    -2.9100 H     1 <1>   0.0800 
 50 H       -2.8980     1.0960    -0.6620 H     1 <1>   0.0800 
 51 H       -4.5010     1.5600    -0.1420 H     1 <1>   0.0800 
@<TRIPOS>BOND
  1   1   2  2   
  2   1   3  2   
  3   1   4  am  
  4   1   5  1   
  5   4   6  1   
  6   4  28  1   
  7   5   7  ar  
  8   5   8  ar  
  9   6   9  ar  
 10   6  10  ar  
 11   7  11  ar  
 12   7  29  1   
 13   8  12  ar  
 14   8  30  1   
 15   9  13  ar  
 16   9  14  1   
 17  10  15  ar  
 18  10  31  1   
 19  11  16  ar  
 20  11  17  1   
 21  12  16  ar  
 22  12  32  1   
 23  13  18  ar  
 24  13  33  1   
 25  14  19  1   
 26  14  34  1   
 27  14  35  1   
 28  15  18  ar  
 29  15  36  1   
 30  16  20  1   
 31  17  21  2   
 32  17  22  am  
 33  18  37  1   
 34  19  38  1   
 35  19  39  1   
 36  19  40  1   
 37  20  41  1   
 38  20  42  1   
 39  20  43  1   
 40  22  23  1   
 41  22  24  1   
 42  23  25  1   
 43  23  44  1   
 44  23  45  1   
 45  24  26  1   
 46  24  46  1   
 47  24  47  1   
 48  25  27  1   
 49  25  48  1   
 50  25  49  1   
 51  26  27  1   
 52  26  50  1   
 53  26  51  1   
@<TRIPOS>SUBSTRUCTURE
  1 ****   7 GROUP 4 **** **** 0

# MOE 2024.06 (io_trps.svl 2023.06)
