@<TRIPOS>MOLECULE
NONAME
51 53 1 0 0 
SMALL
USER_CHARGES


@<TRIPOS>ATOM
  1 O       -1.8350     0.5180     0.1370 O.3   1 <1>  -0.3630 
  2 C       -0.9680     1.5670     0.1420 C.ar  1 <1>   0.0830 
  3 C       -1.7020    -0.5900    -0.7320 C.3   1 <1>   0.1200 
  4 C       -1.1990     2.5700     1.0770 C.ar  1 <1>  -0.1440 
  5 C        0.1100     1.6810    -0.7330 C.ar  1 <1>  -0.1500 
  6 C       -2.3300    -0.2480    -2.0840 C.3   1 <1>  -0.2400 
  7 C       -0.3570     3.6700     1.1390 C.ar  1 <1>  -0.1500 
  8 C       -2.3750     2.4540     2.0250 C.3   1 <1>   0.4860 
  9 C        0.9420     2.7840    -0.6680 C.ar  1 <1>  -0.1500 
 10 C        0.7110     3.7760     0.2660 C.ar  1 <1>  -0.1500 
 11 N       -3.5030     3.2550     1.4820 N.4   1 <1>  -0.9590 
 12 C       -4.6090     3.4350     2.4870 C.3   1 <1>   0.3430 
 13 C       -4.0380     2.6390     0.2120 C.3   1 <1>   0.3430 
 14 C       -5.7860     4.2530     1.9200 C.3   1 <1>   0.2090 
 15 C       -5.2150     3.4370    -0.3800 C.3   1 <1>   0.2090 
 16 N       -6.2840     3.6690     0.6390 N.pl3 1 <1>  -0.8380 
 17 C       -7.4380     4.2850     0.1350 C.ar  1 <1>   0.1000 
 18 C       -7.4790     5.6080    -0.3450 C.ar  1 <1>   0.0830 
 19 C       -8.6030     3.5310     0.1150 C.ar  1 <1>  -0.1500 
 20 O       -6.3230     6.3450    -0.3230 O.3   1 <1>  -0.3630 
 21 C       -8.6790     6.1280    -0.8230 C.ar  1 <1>  -0.1500 
 22 C       -9.7890     4.0560    -0.3630 C.ar  1 <1>  -0.1500 
 23 C       -6.2820     7.6550    -0.8480 C.3   1 <1>   0.0400 
 24 C       -9.8270     5.3550    -0.8320 C.ar  1 <1>  -0.1500 
 25 H       -2.2300    -1.4140    -0.2840 H     1 <1>   0.0800 
 26 H       -0.6650    -0.8620    -0.8160 H     1 <1>   0.0800 
 27 H        0.3210     0.9300    -1.4700 H     1 <1>   0.1500 
 28 H       -3.3750    -0.0260    -1.9640 H     1 <1>   0.0800 
 29 H       -2.2410    -1.0930    -2.7430 H     1 <1>   0.0800 
 30 H       -1.8340     0.5880    -2.5410 H     1 <1>   0.0800 
 31 H       -0.5130     4.4510     1.8630 H     1 <1>   0.1500 
 32 H       -2.0850     2.8290     2.9930 H     1 <1>   0.0800 
 33 H       -2.6650     1.4220     2.1320 H     1 <1>   0.0800 
 34 H        1.7750     2.8690    -1.3460 H     1 <1>   0.1500 
 35 H        1.3680     4.6290     0.3130 H     1 <1>   0.1500 
 36 H       -3.1310     4.1780     1.2280 H     1 <1>   0.4500 
 37 H       -4.2310     3.9300     3.3660 H     1 <1>   0.0800 
 38 H       -4.9870     2.4710     2.7830 H     1 <1>   0.0800 
 39 H       -4.3750     1.6360     0.4110 H     1 <1>   0.0800 
 40 H       -3.2540     2.5780    -0.5260 H     1 <1>   0.0800 
 41 H       -5.4750     5.2710     1.7630 H     1 <1>   0.0800 
 42 H       -6.5910     4.2630     2.6340 H     1 <1>   0.0800 
 43 H       -5.6340     2.8910    -1.2090 H     1 <1>   0.0800 
 44 H       -4.8550     4.3780    -0.7580 H     1 <1>   0.0800 
 45 H       -8.5730     2.5210     0.4800 H     1 <1>   0.1500 
 46 H       -8.7510     7.1320    -1.1950 H     1 <1>   0.1500 
 47 H      -10.6820     3.4540    -0.3690 H     1 <1>   0.1500 
 48 H       -5.2780     8.0260    -0.7500 H     1 <1>   0.0800 
 49 H       -6.9560     8.2790    -0.2870 H     1 <1>   0.0800 
 50 H       -6.5590     7.6250    -1.8870 H     1 <1>   0.0800 
 51 H      -10.7500     5.7650    -1.2040 H     1 <1>   0.1500 
@<TRIPOS>BOND
  1   1   2  1   
  2   1   3  1   
  3   2   4  ar  
  4   2   5  ar  
  5   3   6  1   
  6   3  25  1   
  7   3  26  1   
  8   4   7  ar  
  9   4   8  1   
 10   5   9  ar  
 11   5  27  1   
 12   6  28  1   
 13   6  29  1   
 14   6  30  1   
 15   7  10  ar  
 16   7  31  1   
 17   8  11  1   
 18   8  32  1   
 19   8  33  1   
 20   9  10  ar  
 21   9  34  1   
 22  10  35  1   
 23  11  12  1   
 24  11  13  1   
 25  11  36  1   
 26  12  14  1   
 27  12  37  1   
 28  12  38  1   
 29  13  15  1   
 30  13  39  1   
 31  13  40  1   
 32  14  16  1   
 33  14  41  1   
 34  14  42  1   
 35  15  16  1   
 36  15  43  1   
 37  15  44  1   
 38  16  17  1   
 39  17  18  ar  
 40  17  19  ar  
 41  18  20  1   
 42  18  21  ar  
 43  19  22  ar  
 44  19  45  1   
 45  20  23  1   
 46  21  24  ar  
 47  21  46  1   
 48  22  24  ar  
 49  22  47  1   
 50  23  48  1   
 51  23  49  1   
 52  23  50  1   
 53  24  51  1   
@<TRIPOS>SUBSTRUCTURE
  1 ****  13 GROUP 4 **** **** 0

# MOE 2024.06 (io_trps.svl 2023.06)
