@<TRIPOS>MOLECULE
NONAME
46 48 1 0 0 
SMALL
USER_CHARGES


@<TRIPOS>ATOM
  1 O        0.5730     0.1370     0.5930 O.3   1 <1>  -0.3630 
  2 C        1.6430     0.9580     0.3840 C.ar  1 <1>   0.0830 
  3 C       -0.7220     0.6010     0.9040 C.3   1 <1>   0.0400 
  4 C        1.6760     2.3600     0.4950 C.ar  1 <1>   0.0830 
  5 C        2.7950     0.2810     0.0260 C.ar  1 <1>  -0.1500 
  6 O        0.5550     3.0520     0.8510 O.3   1 <1>  -0.3630 
  7 C        2.8750     3.0220     0.2390 C.ar  1 <1>  -0.1500 
  8 C        3.9830     0.9460    -0.2280 C.ar  1 <1>  -0.1430 
  9 C        0.5230     4.4580     0.9670 C.3   1 <1>   0.0400 
 10 C        4.0210     2.3300    -0.1190 C.ar  1 <1>  -0.1430 
 11 C        5.2030     0.1330    -0.6260 C.3   1 <1>   0.4860 
 12 C        5.3100     3.1030    -0.3700 C.3   1 <1>  -0.0160 
 13 N        6.4420     0.9000    -0.3340 N.4   1 <1>  -0.9590 
 14 C        6.4040     2.2360    -1.0000 C.3   1 <1>   0.3430 
 15 C        7.6680     0.1270    -0.6620 C.3   1 <1>   0.4860 
 16 C        8.8710     0.9030    -0.1650 C.ar  1 <1>  -0.1430 
 17 C        9.7120     1.5380    -1.0670 C.ar  1 <1>  -0.1500 
 18 C        9.1370     0.9940     1.1940 C.ar  1 <1>  -0.1500 
 19 C       10.7970     2.2670    -0.6130 C.ar  1 <1>  -0.1500 
 20 C       10.2230     1.7230     1.6430 C.ar  1 <1>  -0.1500 
 21 C       11.0570     2.3640     0.7430 C.ar  1 <1>  -0.1430 
 22 C       12.2490     3.1630     1.2400 C.3   1 <1>  -0.0970 
 23 H       -1.3740    -0.2500     0.9770 H     1 <1>   0.0800 
 24 H       -1.0580     1.2520     0.1170 H     1 <1>   0.0800 
 25 H       -0.6900     1.1190     1.8450 H     1 <1>   0.0800 
 26 H        2.7360    -0.7910    -0.0520 H     1 <1>   0.1500 
 27 H        2.9350     4.0910     0.3180 H     1 <1>   0.1500 
 28 H       -0.4730     4.7460     1.2500 H     1 <1>   0.0800 
 29 H        0.7700     4.8940     0.0150 H     1 <1>   0.0800 
 30 H        1.2200     4.7630     1.7270 H     1 <1>   0.0800 
 31 H        5.1460    -0.0920    -1.6790 H     1 <1>   0.0800 
 32 H        5.2040    -0.7950    -0.0780 H     1 <1>   0.0800 
 33 H        5.6690     3.4970     0.5640 H     1 <1>   0.0800 
 34 H        5.1130     3.9380    -1.0190 H     1 <1>   0.0800 
 35 H        6.4530     1.0790     0.6770 H     1 <1>   0.4500 
 36 H        7.3520     2.7400    -0.8960 H     1 <1>   0.0800 
 37 H        6.1990     2.1110    -2.0510 H     1 <1>   0.0800 
 38 H        7.7430    -0.0260    -1.7260 H     1 <1>   0.0800 
 39 H        7.6440    -0.8360    -0.1770 H     1 <1>   0.0800 
 40 H        9.5410     1.4770    -2.1290 H     1 <1>   0.1500 
 41 H        8.5130     0.5000     1.9190 H     1 <1>   0.1500 
 42 H       11.4450     2.7580    -1.3190 H     1 <1>   0.1500 
 43 H       10.4220     1.7900     2.7000 H     1 <1>   0.1500 
 44 H       11.9560     4.1810     1.4230 H     1 <1>   0.0800 
 45 H       13.0390     3.1560     0.5100 H     1 <1>   0.0800 
 46 H       12.6310     2.7430     2.1530 H     1 <1>   0.0800 
@<TRIPOS>BOND
  1   1   2  1   
  2   1   3  1   
  3   2   4  ar  
  4   2   5  ar  
  5   3  23  1   
  6   3  24  1   
  7   3  25  1   
  8   4   6  1   
  9   4   7  ar  
 10   5   8  ar  
 11   5  26  1   
 12   6   9  1   
 13   7  10  ar  
 14   7  27  1   
 15   8  10  ar  
 16   8  11  1   
 17   9  28  1   
 18   9  29  1   
 19   9  30  1   
 20  10  12  1   
 21  11  13  1   
 22  11  31  1   
 23  11  32  1   
 24  12  14  1   
 25  12  33  1   
 26  12  34  1   
 27  13  14  1   
 28  13  15  1   
 29  13  35  1   
 30  14  36  1   
 31  14  37  1   
 32  15  16  1   
 33  15  38  1   
 34  15  39  1   
 35  16  17  ar  
 36  16  18  ar  
 37  17  19  ar  
 38  17  40  1   
 39  18  20  ar  
 40  18  41  1   
 41  19  21  ar  
 42  19  42  1   
 43  20  21  ar  
 44  20  43  1   
 45  21  22  1   
 46  22  44  1   
 47  22  45  1   
 48  22  46  1   
@<TRIPOS>SUBSTRUCTURE
  1 ****  13 GROUP 4 **** **** 0

# MOE 2024.06 (io_trps.svl 2023.06)
