@<TRIPOS>MOLECULE
NONAME
54 55 1 0 0 
SMALL
USER_CHARGES


@<TRIPOS>ATOM
  1 O       -0.3750     1.1120     0.9450 O.3   1 <1>  -0.5600 
  2 C       -0.5950     1.7480    -0.2800 C.3   1 <1>   0.1200 
  3 C       -1.3950     1.2770     1.8870 C.3   1 <1>   0.1200 
  4 C       -1.8870     1.2160    -0.9320 C.3   1 <1>   0.3430 
  5 C       -2.7250     0.7260     1.3370 C.3   1 <1>   0.3430 
  6 N       -3.0650     1.3300    -0.0020 N.4   1 <1>  -0.9590 
  7 C       -4.2790     0.7200    -0.6110 C.3   1 <1>   0.3430 
  8 C       -5.5340     1.1330     0.1610 C.3   1 <1>  -0.1600 
  9 C       -6.7970     0.5980    -0.5290 C.3   1 <1>  -0.1600 
 10 C       -8.0650     1.0110     0.2320 C.3   1 <1>  -0.1600 
 11 C       -9.3230     0.4740    -0.4630 C.3   1 <1>  -0.1600 
 12 C      -10.5940     0.8780     0.2860 C.3   1 <1>   0.1200 
 13 O      -11.6980     0.3480    -0.4100 O.3   1 <1>  -0.3630 
 14 C      -12.9780     0.5240     0.0200 C.ar  1 <1>   0.0830 
 15 C      -14.0030    -0.0660    -0.7220 C.ar  1 <1>  -0.1430 
 16 C      -13.2820     1.2590     1.1630 C.ar  1 <1>  -0.1500 
 17 C      -15.3220     0.0720    -0.2970 C.ar  1 <1>  -0.1430 
 18 C      -13.6510    -0.8610    -1.9810 C.3   1 <1>  -0.0970 
 19 C      -14.5930     1.4030     1.5770 C.ar  1 <1>  -0.1430 
 20 C      -15.6030     0.8080     0.8440 C.ar  1 <1>  -0.1500 
 21 C      -16.4870    -0.5650    -1.0440 C.3   1 <1>  -0.0970 
 22 C      -14.9290     2.2060     2.8210 C.3   1 <1>  -0.0970 
 23 H        0.2510     1.5400    -0.9120 H     1 <1>   0.0800 
 24 H       -0.6480     2.8100    -0.1160 H     1 <1>   0.0800 
 25 H       -1.4760     2.3220     2.1330 H     1 <1>   0.0800 
 26 H       -1.1100     0.7380     2.7740 H     1 <1>   0.0800 
 27 H       -1.7300     0.1830    -1.1960 H     1 <1>   0.0800 
 28 H       -2.0780     1.7650    -1.8390 H     1 <1>   0.0800 
 29 H       -3.5100     0.9280     2.0460 H     1 <1>   0.0800 
 30 H       -2.6330    -0.3440     1.2410 H     1 <1>   0.0800 
 31 H       -3.2480     2.3320     0.1440 H     1 <1>   0.4500 
 32 H       -4.1900    -0.3550    -0.6200 H     1 <1>   0.0800 
 33 H       -4.3770     1.0560    -1.6320 H     1 <1>   0.0800 
 34 H       -5.5940     2.2070     0.2060 H     1 <1>   0.0800 
 35 H       -5.5010     0.7420     1.1620 H     1 <1>   0.0800 
 36 H       -6.7550    -0.4770    -0.5830 H     1 <1>   0.0800 
 37 H       -6.8530     0.9810    -1.5350 H     1 <1>   0.0800 
 38 H       -8.1220     2.0850     0.2860 H     1 <1>   0.0800 
 39 H       -8.0250     0.6260     1.2380 H     1 <1>   0.0800 
 40 H       -9.2800    -0.6010    -0.5120 H     1 <1>   0.0800 
 41 H       -9.3760     0.8620    -1.4660 H     1 <1>   0.0800 
 42 H      -10.6970     1.9490     0.3160 H     1 <1>   0.0800 
 43 H      -10.5970     0.4720     1.2820 H     1 <1>   0.0800 
 44 H      -12.5110     1.7260     1.7420 H     1 <1>   0.1500 
 45 H      -12.8170    -0.4140    -2.4900 H     1 <1>   0.0800 
 46 H      -14.4650    -0.8910    -2.6790 H     1 <1>   0.0800 
 47 H      -13.3860    -1.8660    -1.7070 H     1 <1>   0.0800 
 48 H      -16.6220     0.9210     1.1690 H     1 <1>   0.1500 
 49 H      -16.2940    -1.6100    -1.2070 H     1 <1>   0.0800 
 50 H      -16.6240    -0.0770    -1.9910 H     1 <1>   0.0800 
 51 H      -17.4000    -0.4800    -0.4830 H     1 <1>   0.0800 
 52 H      -14.0770     2.2720     3.4730 H     1 <1>   0.0800 
 53 H      -15.7320     1.7370     3.3600 H     1 <1>   0.0800 
 54 H      -15.2300     3.1990     2.5410 H     1 <1>   0.0800 
@<TRIPOS>BOND
  1   1   2  1   
  2   1   3  1   
  3   2   4  1   
  4   2  23  1   
  5   2  24  1   
  6   3   5  1   
  7   3  25  1   
  8   3  26  1   
  9   4   6  1   
 10   4  27  1   
 11   4  28  1   
 12   5   6  1   
 13   5  29  1   
 14   5  30  1   
 15   6   7  1   
 16   6  31  1   
 17   7   8  1   
 18   7  32  1   
 19   7  33  1   
 20   8   9  1   
 21   8  34  1   
 22   8  35  1   
 23   9  10  1   
 24   9  36  1   
 25   9  37  1   
 26  10  11  1   
 27  10  38  1   
 28  10  39  1   
 29  11  12  1   
 30  11  40  1   
 31  11  41  1   
 32  12  13  1   
 33  12  42  1   
 34  12  43  1   
 35  13  14  1   
 36  14  15  ar  
 37  14  16  ar  
 38  15  17  ar  
 39  15  18  1   
 40  16  19  ar  
 41  16  44  1   
 42  17  20  ar  
 43  17  21  1   
 44  18  45  1   
 45  18  46  1   
 46  18  47  1   
 47  19  20  ar  
 48  19  22  1   
 49  20  48  1   
 50  21  49  1   
 51  21  50  1   
 52  21  51  1   
 53  22  52  1   
 54  22  53  1   
 55  22  54  1   
@<TRIPOS>SUBSTRUCTURE
  1 ****  11 GROUP 4 **** **** 0

# MOE 2024.06 (io_trps.svl 2023.06)
