@<TRIPOS>MOLECULE
Structure2421
29 30 1 0 0 
SMALL
USER_CHARGES


@<TRIPOS>ATOM
  1 O       -0.1930    -0.6940    -0.2900 O.3   1 <1>  -0.3630 
  2 C        1.1010    -1.1010    -0.1770 C.ar  1 <1>   0.0830 
  3 C       -1.1990    -1.4970    -0.8710 C.3   1 <1>   0.2000 
  4 C        1.9850    -0.2490     0.4820 C.ar  1 <1>  -0.1440 
  5 C        1.5640    -2.3150    -0.6820 C.ar  1 <1>  -0.1500 
  6 C       -2.4290    -0.6120    -1.0260 C.3   1 <1>   0.3430 
  7 C       -1.6650    -2.5170     0.1610 C.3   1 <1>  -0.1600 
  8 C        3.3110    -0.6210     0.6330 C.ar  1 <1>  -0.1500 
  9 C        1.5210     1.0900     1.0380 C.3   1 <1>  -0.0960 
 10 C        2.8900    -2.6750    -0.5260 C.ar  1 <1>  -0.1500 
 11 N       -2.9980    -0.5110     0.3520 N.4   1 <1>  -0.9060 
 12 C       -2.5710    -1.7280     1.1040 C.3   1 <1>   0.3430 
 13 C        3.7630    -1.8290     0.1320 C.ar  1 <1>  -0.1500 
 14 H       -0.8570    -1.9010    -1.8080 H     1 <1>   0.0800 
 15 H        0.9220    -2.9980    -1.2010 H     1 <1>   0.1500 
 16 H       -3.1360    -1.0990    -1.6780 H     1 <1>   0.0800 
 17 H       -2.1690     0.3520    -1.4330 H     1 <1>   0.0800 
 18 H       -0.8510    -2.9840     0.6870 H     1 <1>   0.0800 
 19 H       -2.2430    -3.2860    -0.3200 H     1 <1>   0.0800 
 20 H        4.0050     0.0260     1.1400 H     1 <1>   0.1500 
 21 H        0.7790     0.9330     1.7990 H     1 <1>   0.0800 
 22 H        1.0980     1.6870     0.2500 H     1 <1>   0.0800 
 23 H        2.3420     1.6350     1.4700 H     1 <1>   0.0800 
 24 H        3.2480    -3.6120    -0.9160 H     1 <1>   0.1500 
 25 H       -4.0170    -0.3830     0.3490 H     1 <1>   0.4500 
 26 H       -2.5700     0.3070     0.8070 H     1 <1>   0.4500 
 27 H       -2.0150    -1.4360     1.9820 H     1 <1>   0.0800 
 28 H       -3.4200    -2.3230     1.4050 H     1 <1>   0.0800 
 29 H        4.7960    -2.1090     0.2550 H     1 <1>   0.1500 
@<TRIPOS>BOND
  1   1   2  1   
  2   1   3  1   
  3   2   4  ar  
  4   2   5  ar  
  5   3   6  1   
  6   3   7  1   
  7   3  14  1   
  8   4   8  ar  
  9   4   9  1   
 10   5  10  ar  
 11   5  15  1   
 12   6  11  1   
 13   6  16  1   
 14   6  17  1   
 15   7  12  1   
 16   7  18  1   
 17   7  19  1   
 18   8  13  ar  
 19   8  20  1   
 20   9  21  1   
 21   9  22  1   
 22   9  23  1   
 23  10  13  ar  
 24  10  24  1   
 25  11  12  1   
 26  11  25  1   
 27  11  26  1   
 28  12  27  1   
 29  12  28  1   
 30  13  29  1   
@<TRIPOS>SUBSTRUCTURE
  1 ****   2 GROUP 4 **** **** 0

# MOE 2024.06 (io_trps.svl 2023.06)
