@<TRIPOS>MOLECULE
NONAME
62 64 1 0 0 
SMALL
USER_CHARGES


@<TRIPOS>ATOM
  1 S       -0.5010    -0.0040     0.8650 S.o2  1 <1>   1.4470 
  2 O       -0.0280    -1.1190     0.0740 O.2   1 <1>  -0.6500 
  3 O       -0.5950    -0.2140     2.2930 O.2   1 <1>  -0.6500 
  4 N       -2.0980     0.2420     0.3180 N.am  1 <1>  -0.8490 
  5 C        0.2420     1.6400     0.4660 C.ar  1 <1>  -0.0090 
  6 C       -3.0460    -0.7090     0.8840 C.3   1 <1>   0.1960 
  7 C       -2.1770     0.3230    -1.1490 C.3   1 <1>   0.1960 
  8 C       -0.0610     2.7650     1.2610 C.ar  1 <1>  -0.1440 
  9 C        1.0640     1.8310    -0.6620 C.ar  1 <1>  -0.1430 
 10 C       -4.4760    -0.1860     0.6720 C.3   1 <1>  -0.1600 
 11 C       -3.6120     0.1760    -1.6680 C.3   1 <1>  -0.1600 
 12 C        0.4040     4.0300     0.9120 C.ar  1 <1>  -0.1430 
 13 C       -0.8780     2.6280     2.5540 C.3   1 <1>  -0.0970 
 14 C        1.5000     3.1060    -1.0160 C.ar  1 <1>  -0.1430 
 15 C        1.5200     0.6410    -1.5170 C.3   1 <1>  -0.0970 
 16 C       -4.7090     0.5820    -0.6560 C.3   1 <1>   0.5640 
 17 C        1.1620     4.1840    -0.2280 C.ar  1 <1>  -0.1500 
 18 C        0.1460     5.2890     1.7370 C.3   1 <1>  -0.0970 
 19 C        2.3610     3.4000    -2.2430 C.3   1 <1>  -0.0970 
 20 N       -4.7170     2.0970    -0.4260 N.4   1 <1>  -0.9590 
 21 C       -6.1280     0.1620    -1.1840 C.2   1 <1>   0.5690 
 22 C       -4.8820     2.8900    -1.6840 C.3   1 <1>   0.3430 
 23 C       -3.6490     2.6780     0.4430 C.3   1 <1>   0.3430 
 24 O       -7.0610     0.8840    -0.9250 O.2   1 <1>  -0.5700 
 25 N       -6.3700    -0.9610    -1.9040 N.am  1 <1>  -0.8000 
 26 C       -5.2560     4.3340    -1.3470 C.3   1 <1>  -0.1600 
 27 C       -4.0030     4.1160     0.8220 C.3   1 <1>  -0.1600 
 28 C       -4.2250     4.9870    -0.4190 C.3   1 <1>  -0.1600 
 29 H       -2.8810    -0.8360     1.9420 H     1 <1>   0.0800 
 30 H       -2.9100    -1.6720     0.4150 H     1 <1>   0.0800 
 31 H       -1.5800    -0.4500    -1.6060 H     1 <1>   0.0800 
 32 H       -1.7730     1.2710    -1.4640 H     1 <1>   0.0800 
 33 H       -4.7760     0.4120     1.5130 H     1 <1>   0.0800 
 34 H       -5.1110    -1.0550     0.6990 H     1 <1>   0.0800 
 35 H       -3.7340    -0.8680    -1.8940 H     1 <1>   0.0800 
 36 H       -3.7210     0.6880    -2.6060 H     1 <1>   0.0800 
 37 H       -1.7340     1.9980     2.4220 H     1 <1>   0.0800 
 38 H       -1.2530     3.5600     2.9260 H     1 <1>   0.0800 
 39 H       -0.2570     2.1990     3.3210 H     1 <1>   0.0800 
 40 H        2.0020    -0.0910    -0.8930 H     1 <1>   0.0800 
 41 H        2.2380     0.8960    -2.2700 H     1 <1>   0.0800 
 42 H        0.6850     0.1890    -2.0170 H     1 <1>   0.0800 
 43 H        1.5110     5.1650    -0.5010 H     1 <1>   0.1500 
 44 H       -0.8990     5.5380     1.7250 H     1 <1>   0.0800 
 45 H        0.6910     6.1310     1.3480 H     1 <1>   0.0800 
 46 H        0.4660     5.1390     2.7520 H     1 <1>   0.0800 
 47 H        3.3290     2.9450    -2.1290 H     1 <1>   0.0800 
 48 H        2.5080     4.4560    -2.3770 H     1 <1>   0.0800 
 49 H        1.8910     3.0190    -3.1310 H     1 <1>   0.0800 
 50 H       -5.6120     2.2400     0.0680 H     1 <1>   0.4500 
 51 H       -5.6620     2.4610    -2.2940 H     1 <1>   0.0800 
 52 H       -3.9620     2.8810    -2.2450 H     1 <1>   0.0800 
 53 H       -2.7050     2.6680    -0.0760 H     1 <1>   0.0800 
 54 H       -3.5400     2.0940     1.3410 H     1 <1>   0.0800 
 55 H       -7.3350    -1.1610    -2.1890 H     1 <1>   0.3700 
 56 H       -5.6930    -1.6780    -2.1710 H     1 <1>   0.3700 
 57 H       -6.2290     4.3510    -0.8880 H     1 <1>   0.0800 
 58 H       -5.3220     4.9010    -2.2590 H     1 <1>   0.0800 
 59 H       -3.2010     4.5300     1.4080 H     1 <1>   0.0800 
 60 H       -4.8860     4.1170     1.4380 H     1 <1>   0.0800 
 61 H       -4.5650     5.9660    -0.1240 H     1 <1>   0.0800 
 62 H       -3.2910     5.1070    -0.9440 H     1 <1>   0.0800 
@<TRIPOS>BOND
  1   1   2  2   
  2   1   3  2   
  3   1   4  am  
  4   1   5  1   
  5   4   6  1   
  6   4   7  1   
  7   5   8  ar  
  8   5   9  ar  
  9   6  10  1   
 10   6  29  1   
 11   6  30  1   
 12   7  11  1   
 13   7  31  1   
 14   7  32  1   
 15   8  12  ar  
 16   8  13  1   
 17   9  14  ar  
 18   9  15  1   
 19  10  16  1   
 20  10  33  1   
 21  10  34  1   
 22  11  16  1   
 23  11  35  1   
 24  11  36  1   
 25  12  17  ar  
 26  12  18  1   
 27  13  37  1   
 28  13  38  1   
 29  13  39  1   
 30  14  17  ar  
 31  14  19  1   
 32  15  40  1   
 33  15  41  1   
 34  15  42  1   
 35  16  20  1   
 36  16  21  1   
 37  17  43  1   
 38  18  44  1   
 39  18  45  1   
 40  18  46  1   
 41  19  47  1   
 42  19  48  1   
 43  19  49  1   
 44  20  22  1   
 45  20  23  1   
 46  20  50  1   
 47  21  24  2   
 48  21  25  am  
 49  22  26  1   
 50  22  51  1   
 51  22  52  1   
 52  23  27  1   
 53  23  53  1   
 54  23  54  1   
 55  25  55  1   
 56  25  56  1   
 57  26  28  1   
 58  26  57  1   
 59  26  58  1   
 60  27  28  1   
 61  27  59  1   
 62  27  60  1   
 63  28  61  1   
 64  28  62  1   
@<TRIPOS>SUBSTRUCTURE
  1 ****   4 GROUP 4 **** **** 0

# MOE 2024.06 (io_trps.svl 2023.06)
