@<TRIPOS>MOLECULE
NONAME
42 44 1 0 0 
SMALL
USER_CHARGES


@<TRIPOS>ATOM
  1 S        0.0110     0.4510    -0.6970 S.3   1 <1>  -0.0800 
  2 C       -0.6440    -1.1310    -0.3290 C.2   1 <1>   0.1040 
  3 C       -1.5620     1.2090    -0.5830 C.2   1 <1>  -0.1400 
  4 N        0.1940    -2.2380    -0.2900 N.am  1 <1>  -0.4940 
  5 C       -2.0000    -1.0640    -0.1370 C.2   1 <1>  -0.0860 
  6 C       -2.5060     0.2920    -0.2910 C.2   1 <1>  -0.1810 
  7 C       -1.5650     2.7060    -0.8320 C.3   1 <1>  -0.0600 
  8 C        1.5410    -2.4550    -0.2810 C.2   1 <1>   0.6300 
  9 C       -2.7820    -2.2390     0.1740 C.2   1 <1>   0.8060 
 10 C       -3.9830     0.6390    -0.1430 C.3   1 <1>  -0.0590 
 11 O        1.9510    -3.5850    -0.3580 O.2   1 <1>  -0.5700 
 12 C        2.5510    -1.3240    -0.1530 C.3   1 <1>  -0.1000 
 13 O       -2.3440    -3.3700     0.0550 O.2   1 <1>  -0.5700 
 14 O       -4.0350    -2.1070     0.6270 O.3   1 <1>  -0.4300 
 15 C        3.7780    -1.5070     0.6920 C.3   1 <1>  -0.0680 
 16 C        2.7110    -0.5510     1.1240 C.3   1 <1>  -0.2000 
 17 C       -4.8370    -3.2240     0.9610 C.3   1 <1>   0.0400 
 18 C        5.1110    -1.0030     0.1690 C.ar  1 <1>  -0.0320 
 19 C        5.6260    -1.5180    -1.0090 C.ar  1 <1>  -0.1500 
 20 C        5.8230    -0.0360     0.8590 C.ar  1 <1>  -0.1500 
 21 C        6.8390    -1.0660    -1.4990 C.ar  1 <1>  -0.1500 
 22 C        7.0370     0.4190     0.3720 C.ar  1 <1>  -0.1500 
 23 C        7.5450    -0.0960    -0.8080 C.ar  1 <1>  -0.1500 
 24 H       -0.3080    -3.1330    -0.2550 H     1 <1>   0.3700 
 25 H       -1.2090     2.9090    -1.8260 H     1 <1>   0.0800 
 26 H       -0.9130     3.1910    -0.1270 H     1 <1>   0.0800 
 27 H       -2.5480     3.1240    -0.7280 H     1 <1>   0.0800 
 28 H       -4.1740     1.6680    -0.3760 H     1 <1>   0.0800 
 29 H       -4.3050     0.4630     0.8680 H     1 <1>   0.0800 
 30 H       -4.5730     0.0370    -0.8110 H     1 <1>   0.0800 
 31 H        2.6800    -0.8000    -1.0820 H     1 <1>   0.1000 
 32 H        3.8730    -2.4310     1.2380 H     1 <1>   0.1000 
 33 H        2.0930    -0.8120     1.9660 H     1 <1>   0.1000 
 34 H        2.8880     0.5070     1.0530 H     1 <1>   0.1000 
 35 H       -5.7940    -2.8690     1.2980 H     1 <1>   0.0800 
 36 H       -4.3520    -3.7800     1.7450 H     1 <1>   0.0800 
 37 H       -4.9580    -3.8410     0.0880 H     1 <1>   0.0800 
 38 H        5.0790    -2.2750    -1.5440 H     1 <1>   0.1500 
 39 H        5.4320     0.3630     1.7780 H     1 <1>   0.1500 
 40 H        7.2330    -1.4700    -2.4150 H     1 <1>   0.1500 
 41 H        7.5860     1.1710     0.9120 H     1 <1>   0.1500 
 42 H        8.4880     0.2560    -1.1870 H     1 <1>   0.1500 
@<TRIPOS>BOND
  1   1   2  1   
  2   1   3  1   
  3   2   4  1   
  4   2   5  2   
  5   3   6  2   
  6   3   7  1   
  7   4   8  am  
  8   4  24  1   
  9   5   6  1   
 10   5   9  1   
 11   6  10  1   
 12   7  25  1   
 13   7  26  1   
 14   7  27  1   
 15   8  11  2   
 16   8  12  1   
 17   9  13  2   
 18   9  14  1   
 19  10  28  1   
 20  10  29  1   
 21  10  30  1   
 22  12  15  1   
 23  12  16  1   
 24  12  31  1   
 25  14  17  1   
 26  15  16  1   
 27  15  18  1   
 28  15  32  1   
 29  16  33  1   
 30  16  34  1   
 31  17  35  1   
 32  17  36  1   
 33  17  37  1   
 34  18  19  ar  
 35  18  20  ar  
 36  19  21  ar  
 37  19  38  1   
 38  20  22  ar  
 39  20  39  1   
 40  21  23  ar  
 41  21  40  1   
 42  22  23  ar  
 43  22  41  1   
 44  23  42  1   
@<TRIPOS>SUBSTRUCTURE
  1 ****  12 GROUP 4 **** **** 0

# MOE 2024.06 (io_trps.svl 2023.06)
