@<TRIPOS>MOLECULE
NONAME
51 52 1 0 0 
SMALL
USER_CHARGES


@<TRIPOS>ATOM
  1 O       -0.4220     0.0580     0.9030 O.2   1 <1>  -0.5700 
  2 C       -0.8900     0.9900     0.2790 C.2   1 <1>   0.5440 
  3 N       -0.0640     1.9340    -0.2860 N.am  1 <1>  -0.5470 
  4 C       -2.3240     1.0990     0.1020 C.ar  1 <1>   0.0860 
  5 C        1.3250     2.1810    -0.1840 C.ar  1 <1>   0.1170 
  6 C       -2.9720     2.3350     0.1280 C.ar  1 <1>  -0.1500 
  7 C       -3.0990    -0.0410    -0.1020 C.ar  1 <1>  -0.1500 
  8 C        2.3260     1.1940    -0.2680 C.ar  1 <1>   0.1170 
  9 C        1.7090     3.5090    -0.0380 C.ar  1 <1>  -0.1500 
 10 C       -4.3440     2.4380    -0.0690 C.ar  1 <1>   0.0830 
 11 C       -4.4710     0.0350    -0.3020 C.ar  1 <1>   0.0830 
 12 N        1.9780    -0.1600    -0.3970 N.am  1 <1>  -0.5470 
 13 C        3.6610     1.5750    -0.2050 C.ar  1 <1>  -0.1500 
 14 C        3.0420     3.8730     0.0240 C.ar  1 <1>  -0.1500 
 15 O       -5.0020     3.6330    -0.0420 O.3   1 <1>  -0.3620 
 16 C       -5.0930     1.2840    -0.2950 C.ar  1 <1>   0.0830 
 17 O       -5.2460    -1.0700    -0.5070 O.3   1 <1>  -0.3620 
 18 C        2.6090    -1.2260    -0.9630 C.2   1 <1>   0.5690 
 19 C        4.0210     2.9020    -0.0610 C.ar  1 <1>  -0.1500 
 20 C       -4.3490     4.8490     0.2470 C.3   1 <1>   0.0400 
 21 O       -6.4250     1.3850    -0.5260 O.3   1 <1>  -0.3620 
 22 C       -4.6940    -2.3670    -0.5670 C.3   1 <1>   0.0400 
 23 O        3.6710    -1.1560    -1.5310 O.2   1 <1>  -0.5700 
 24 C        1.9080    -2.5700    -0.8870 C.3   1 <1>  -0.0990 
 25 C       -7.2610     1.1810     0.5870 C.3   1 <1>   0.0400 
 26 C        1.7180    -3.0620     0.5590 C.3   1 <1>  -0.1600 
 27 C        1.0250    -4.4270     0.5950 C.3   1 <1>  -0.2400 
 28 H       -0.5520     2.6220    -0.8570 H     1 <1>   0.3700 
 29 H       -2.3860     3.2130     0.3160 H     1 <1>   0.1500 
 30 H       -2.5950    -0.9890    -0.0990 H     1 <1>   0.1500 
 31 H        0.9600     4.2750     0.0310 H     1 <1>   0.1500 
 32 H        1.0740    -0.3690     0.0440 H     1 <1>   0.3700 
 33 H        4.4320     0.8280    -0.2660 H     1 <1>   0.1500 
 34 H        3.3190     4.9070     0.1380 H     1 <1>   0.1500 
 35 H        5.0620     3.1740    -0.0160 H     1 <1>   0.1500 
 36 H       -5.0870     5.6310     0.2360 H     1 <1>   0.0800 
 37 H       -3.6100     5.0380    -0.5110 H     1 <1>   0.0800 
 38 H       -3.9020     4.7840     1.2220 H     1 <1>   0.0800 
 39 H       -5.4960    -3.0600    -0.7480 H     1 <1>   0.0800 
 40 H       -4.2230    -2.5910     0.3730 H     1 <1>   0.0800 
 41 H       -3.9870    -2.4090    -1.3770 H     1 <1>   0.0800 
 42 H        2.4910    -3.2880    -1.4350 H     1 <1>   0.0800 
 43 H        0.9530    -2.4820    -1.3710 H     1 <1>   0.0800 
 44 H       -8.2800     1.2990     0.2670 H     1 <1>   0.0800 
 45 H       -7.0210     1.9130     1.3380 H     1 <1>   0.0800 
 46 H       -7.1050     0.1860     0.9630 H     1 <1>   0.0800 
 47 H        1.1280    -2.3530     1.1150 H     1 <1>   0.0800 
 48 H        2.6810    -3.1370     1.0370 H     1 <1>   0.0800 
 49 H        0.0510    -4.3680     0.1420 H     1 <1>   0.0800 
 50 H        0.9080    -4.7510     1.6140 H     1 <1>   0.0800 
 51 H        1.6100    -5.1610     0.0690 H     1 <1>   0.0800 
@<TRIPOS>BOND
  1   1   2  2   
  2   2   3  am  
  3   2   4  1   
  4   3   5  1   
  5   3  28  1   
  6   4   6  ar  
  7   4   7  ar  
  8   5   8  ar  
  9   5   9  ar  
 10   6  10  ar  
 11   6  29  1   
 12   7  11  ar  
 13   7  30  1   
 14   8  12  1   
 15   8  13  ar  
 16   9  14  ar  
 17   9  31  1   
 18  10  15  1   
 19  10  16  ar  
 20  11  16  ar  
 21  11  17  1   
 22  12  18  am  
 23  12  32  1   
 24  13  19  ar  
 25  13  33  1   
 26  14  19  ar  
 27  14  34  1   
 28  15  20  1   
 29  16  21  1   
 30  17  22  1   
 31  18  23  2   
 32  18  24  1   
 33  19  35  1   
 34  20  36  1   
 35  20  37  1   
 36  20  38  1   
 37  21  25  1   
 38  22  39  1   
 39  22  40  1   
 40  22  41  1   
 41  24  26  1   
 42  24  42  1   
 43  24  43  1   
 44  25  44  1   
 45  25  45  1   
 46  25  46  1   
 47  26  27  1   
 48  26  47  1   
 49  26  48  1   
 50  27  49  1   
 51  27  50  1   
 52  27  51  1   
@<TRIPOS>SUBSTRUCTURE
  1 ****   2 GROUP 4 **** **** 0

# MOE 2024.06 (io_trps.svl 2023.06)
