@<TRIPOS>MOLECULE
NONAME
43 45 1 0 0 
SMALL
USER_CHARGES


@<TRIPOS>ATOM
  1 O       -1.2600     0.9100     0.1820 O.3   1 <1>  -0.2800 
  2 C       -2.0770     0.3260     1.0400 C.2   1 <1>  -0.0400 
  3 C       -0.3920     1.6190     0.8730 C.2   1 <1>  -0.0400 
  4 C       -1.7410     0.6550     2.3060 C.2   1 <1>  -0.1500 
  5 C       -3.1850    -0.5770     0.5190 C.3   1 <1>   0.2900 
  6 C       -0.6340     1.5060     2.1960 C.2   1 <1>  -0.1500 
  7 C        0.6730     2.3920     0.1280 C.3   1 <1>  -0.0600 
  8 N       -4.3950     0.1870     0.1300 N.3   1 <1>  -0.8100 
  9 C       -4.1020     1.2170    -0.9030 C.3   1 <1>   0.1100 
 10 C       -5.4810    -0.7140    -0.3180 C.3   1 <1>   0.1100 
 11 C       -5.3720     1.9420    -1.4060 C.3   1 <1>   0.3430 
 12 C       -6.7810     0.0580    -0.6540 C.3   1 <1>   0.3430 
 13 N       -6.5640     1.5430    -0.5960 N.4   1 <1>  -0.9590 
 14 C       -7.7830     2.3490    -0.8580 C.3   1 <1>   0.4860 
 15 C       -8.8710     1.9210     0.1080 C.ar  1 <1>  -0.1430 
 16 C       -8.7790     2.2410     1.4560 C.ar  1 <1>  -0.1500 
 17 C       -9.9630     1.1970    -0.3490 C.ar  1 <1>  -0.1500 
 18 C       -9.7640     1.8320     2.3370 C.ar  1 <1>  -0.1500 
 19 C      -10.9470     0.7890     0.5340 C.ar  1 <1>  -0.1500 
 20 C      -10.8470     1.1050     1.8770 C.ar  1 <1>  -0.1500 
 21 H       -2.2000     0.3480     3.2290 H     1 <1>   0.1500 
 22 H       -3.4470    -1.2690     1.3000 H     1 <1>   0.0800 
 23 H       -2.8110    -1.1420    -0.3180 H     1 <1>   0.0800 
 24 H       -0.1090     1.9560     3.0190 H     1 <1>   0.1500 
 25 H        1.2740     1.7160    -0.4510 H     1 <1>   0.0800 
 26 H        1.3060     2.9150     0.8220 H     1 <1>   0.0800 
 27 H        0.2130     3.1040    -0.5320 H     1 <1>   0.0800 
 28 H       -3.5900     0.7700    -1.7380 H     1 <1>   0.0800 
 29 H       -3.4440     1.9600    -0.4850 H     1 <1>   0.0800 
 30 H       -5.6980    -1.4320     0.4550 H     1 <1>   0.0800 
 31 H       -5.1630    -1.2630    -1.1890 H     1 <1>   0.0800 
 32 H       -5.5320     1.6960    -2.4430 H     1 <1>   0.0800 
 33 H       -5.2130     3.0060    -1.3400 H     1 <1>   0.0800 
 34 H       -7.5420    -0.2240     0.0570 H     1 <1>   0.0800 
 35 H       -7.1250    -0.2310    -1.6320 H     1 <1>   0.0800 
 36 H       -6.2710     1.6950     0.3810 H     1 <1>   0.4500 
 37 H       -8.1160     2.1990    -1.8720 H     1 <1>   0.0800 
 38 H       -7.5730     3.3960    -0.7170 H     1 <1>   0.0800 
 39 H       -7.9490     2.8110     1.8370 H     1 <1>   0.1500 
 40 H      -10.0660     0.9440    -1.3900 H     1 <1>   0.1500 
 41 H       -9.6930     2.0800     3.3830 H     1 <1>   0.1500 
 42 H      -11.7960     0.2280     0.1800 H     1 <1>   0.1500 
 43 H      -11.6140     0.7880     2.5640 H     1 <1>   0.1500 
@<TRIPOS>BOND
  1   1   2  1   
  2   1   3  1   
  3   2   4  2   
  4   2   5  1   
  5   3   6  2   
  6   3   7  1   
  7   4   6  1   
  8   4  21  1   
  9   5   8  1   
 10   5  22  1   
 11   5  23  1   
 12   6  24  1   
 13   7  25  1   
 14   7  26  1   
 15   7  27  1   
 16   8   9  1   
 17   8  10  1   
 18   9  11  1   
 19   9  28  1   
 20   9  29  1   
 21  10  12  1   
 22  10  30  1   
 23  10  31  1   
 24  11  13  1   
 25  11  32  1   
 26  11  33  1   
 27  12  13  1   
 28  12  34  1   
 29  12  35  1   
 30  13  14  1   
 31  13  36  1   
 32  14  15  1   
 33  14  37  1   
 34  14  38  1   
 35  15  16  ar  
 36  15  17  ar  
 37  16  18  ar  
 38  16  39  1   
 39  17  19  ar  
 40  17  40  1   
 41  18  20  ar  
 42  18  41  1   
 43  19  20  ar  
 44  19  42  1   
 45  20  43  1   
@<TRIPOS>SUBSTRUCTURE
  1 ****   8 GROUP 4 **** **** 0

# MOE 2024.06 (io_trps.svl 2023.06)
