@<TRIPOS>MOLECULE
Structure595
42 43 1 0 0 
SMALL
USER_CHARGES


@<TRIPOS>ATOM
  1 CL      -0.5590    -0.2690     1.6430 Cl    1 <1>  -0.1770 
  2 C       -1.7890     0.2820     0.5430 C.ar  1 <1>   0.4870 
  3 N       -1.4120     0.5280    -0.6920 N.ar  1 <1>  -0.6200 
  4 C       -3.0660     0.4320     0.9970 C.ar  1 <1>  -0.1500 
  5 C       -2.3930     0.9410    -1.4710 C.ar  1 <1>   0.4700 
  6 C       -4.0010     0.8710     0.0880 C.ar  1 <1>   0.4100 
  7 N       -3.6630     1.1290    -1.1600 N.ar  1 <1>  -0.6200 
  8 N       -5.3050     1.0510     0.4670 N.pl3 1 <1>  -0.8690 
  9 C       -6.3810     1.5740    -0.3950 C.3   1 <1>   0.2890 
 10 C       -6.5980     3.0520    -0.0730 C.3   1 <1>  -0.1600 
 11 C       -7.6500     0.7630    -0.1420 C.3   1 <1>  -0.1600 
 12 C       -7.7750     3.6130    -0.8720 C.3   1 <1>   0.1400 
 13 C       -8.8230     1.3310    -0.9440 C.3   1 <1>   0.1400 
 14 N       -8.9830     2.7770    -0.6320 N.am  1 <1>  -0.6600 
 15 C      -10.1560     3.3250    -0.1720 C.2   1 <1>   0.7800 
 16 O      -10.2610     4.5110     0.0700 O.2   1 <1>  -0.5700 
 17 O      -11.1900     2.4970     0.0020 O.3   1 <1>  -0.4300 
 18 C      -12.4830     2.8240     0.4650 C.3   1 <1>   0.2800 
 19 C      -13.2500     1.5010     0.4680 C.3   1 <1>  -0.2400 
 20 C      -13.1640     3.7990    -0.5030 C.3   1 <1>  -0.2400 
 21 C      -12.4130     3.3700     1.8960 C.3   1 <1>  -0.2400 
 22 H       -3.3280     0.2180     2.0120 H     1 <1>   0.1500 
 23 H       -2.1240     1.1520    -2.4930 H     1 <1>   0.1500 
 24 H       -5.5430     1.0030     1.4580 H     1 <1>   0.4000 
 25 H       -6.1080     1.4740    -1.4330 H     1 <1>   0.0800 
 26 H       -5.7090     3.6040    -0.3210 H     1 <1>   0.0800 
 27 H       -6.7990     3.1790     0.9750 H     1 <1>   0.0800 
 28 H       -7.9040     0.7860     0.9030 H     1 <1>   0.0800 
 29 H       -7.4850    -0.2580    -0.4330 H     1 <1>   0.0800 
 30 H       -7.5460     3.6020    -1.9240 H     1 <1>   0.0800 
 31 H       -7.9530     4.6350    -0.5810 H     1 <1>   0.0800 
 32 H       -9.7180     0.7800    -0.7070 H     1 <1>   0.0800 
 33 H       -8.6350     1.2210    -1.9980 H     1 <1>   0.0800 
 34 H      -12.7730     0.7950     1.1240 H     1 <1>   0.0800 
 35 H      -13.2870     1.0890    -0.5240 H     1 <1>   0.0800 
 36 H      -14.2580     1.6540     0.8100 H     1 <1>   0.0800 
 37 H      -13.1290     3.4160    -1.5060 H     1 <1>   0.0800 
 38 H      -12.6920     4.7640    -0.4770 H     1 <1>   0.0800 
 39 H      -14.1930     3.9340    -0.2240 H     1 <1>   0.0800 
 40 H      -11.8660     2.6940     2.5270 H     1 <1>   0.0800 
 41 H      -13.4040     3.4830     2.2940 H     1 <1>   0.0800 
 42 H      -11.9420     4.3350     1.9200 H     1 <1>   0.0800 
@<TRIPOS>BOND
  1   1   2  1   
  2   2   3  ar  
  3   2   4  ar  
  4   3   5  ar  
  5   4   6  ar  
  6   4  22  1   
  7   5   7  ar  
  8   5  23  1   
  9   6   7  ar  
 10   6   8  1   
 11   8   9  1   
 12   8  24  1   
 13   9  10  1   
 14   9  11  1   
 15   9  25  1   
 16  10  12  1   
 17  10  26  1   
 18  10  27  1   
 19  11  13  1   
 20  11  28  1   
 21  11  29  1   
 22  12  14  1   
 23  12  30  1   
 24  12  31  1   
 25  13  14  1   
 26  13  32  1   
 27  13  33  1   
 28  14  15  am  
 29  15  16  2   
 30  15  17  1   
 31  17  18  1   
 32  18  19  1   
 33  18  20  1   
 34  18  21  1   
 35  19  34  1   
 36  19  35  1   
 37  19  36  1   
 38  20  37  1   
 39  20  38  1   
 40  20  39  1   
 41  21  40  1   
 42  21  41  1   
 43  21  42  1   
@<TRIPOS>SUBSTRUCTURE
  1 ****   9 GROUP 4 **** **** 0

# MOE 2024.06 (io_trps.svl 2023.06)
