@<TRIPOS>MOLECULE
NONAME
39 40 1 0 0 
SMALL
USER_CHARGES


@<TRIPOS>ATOM
  1 O       -1.7070     0.8590     0.3780 O.3   1 <1>  -0.3630 
  2 C       -0.9550     1.8590    -0.1570 C.ar  1 <1>   0.0830 
  3 C       -1.1440    -0.0690     1.2860 C.3   1 <1>   0.0400 
  4 C       -1.5080     2.5950    -1.2020 C.ar  1 <1>  -0.1440 
  5 C        0.3220     2.1730     0.3030 C.ar  1 <1>  -0.1500 
  6 C       -0.7850     3.6290    -1.7780 C.ar  1 <1>  -0.1500 
  7 C       -2.8970     2.2690    -1.7130 C.3   1 <1>   0.4870 
  8 C        1.0330     3.2080    -0.2760 C.ar  1 <1>  -0.1500 
  9 C        0.4820     3.9350    -1.3150 C.ar  1 <1>  -0.1500 
 10 N       -3.8580     2.4330    -0.5940 N.4   1 <1>  -0.9590 
 11 C       -5.1920     1.8260    -0.8850 C.3   1 <1>   0.3430 
 12 C       -3.9420     3.8330    -0.1020 C.3   1 <1>   0.3430 
 13 C       -6.2780     2.2860     0.1080 C.3   1 <1>  -0.0800 
 14 C       -4.6340     3.8410     1.2670 C.3   1 <1>  -0.1600 
 15 C       -5.6730     2.7180     1.4590 C.3   1 <1>  -0.1600 
 16 C       -7.3280     1.1770     0.2610 C.3   1 <1>   0.1200 
 17 O       -8.4110     1.6700     0.9610 O.3   1 <1>  -0.6800 
 18 H       -0.8680     0.4440     2.1900 H     1 <1>   0.0800 
 19 H       -0.2840    -0.5280     0.8300 H     1 <1>   0.0800 
 20 H       -1.8810    -0.8210     1.5050 H     1 <1>   0.0800 
 21 H        0.7820     1.6310     1.1080 H     1 <1>   0.1500 
 22 H       -1.1920     4.2060    -2.5920 H     1 <1>   0.1500 
 23 H       -2.9070     1.2490    -2.0610 H     1 <1>   0.0800 
 24 H       -3.1580     2.9180    -2.5320 H     1 <1>   0.0800 
 25 H        2.0210     3.4480     0.0800 H     1 <1>   0.1500 
 26 H        1.0440     4.7380    -1.7630 H     1 <1>   0.1500 
 27 H       -3.4160     1.8930     0.1710 H     1 <1>   0.4500 
 28 H       -5.1000     0.7530    -0.8380 H     1 <1>   0.0800 
 29 H       -5.5070     2.0870    -1.8830 H     1 <1>   0.0800 
 30 H       -4.5130     4.4240    -0.8000 H     1 <1>   0.0800 
 31 H       -2.9590     4.2670    -0.0100 H     1 <1>   0.0800 
 32 H       -6.7740     3.1330    -0.3350 H     1 <1>   0.0800 
 33 H       -5.1140     4.7970     1.3850 H     1 <1>   0.0800 
 34 H       -3.8890     3.7710     2.0410 H     1 <1>   0.0800 
 35 H       -5.1970     1.8690     1.9220 H     1 <1>   0.0800 
 36 H       -6.4430     3.0640     2.1290 H     1 <1>   0.0800 
 37 H       -6.9400     0.3230     0.7900 H     1 <1>   0.0800 
 38 H       -7.6930     0.8600    -0.7020 H     1 <1>   0.0800 
 39 H       -8.2040     1.7950     1.9080 H     1 <1>   0.4000 
@<TRIPOS>BOND
  1   1   2  1   
  2   1   3  1   
  3   2   4  ar  
  4   2   5  ar  
  5   3  18  1   
  6   3  19  1   
  7   3  20  1   
  8   4   6  ar  
  9   4   7  1   
 10   5   8  ar  
 11   5  21  1   
 12   6   9  ar  
 13   6  22  1   
 14   7  10  1   
 15   7  23  1   
 16   7  24  1   
 17   8   9  ar  
 18   8  25  1   
 19   9  26  1   
 20  10  11  1   
 21  10  12  1   
 22  10  27  1   
 23  11  13  1   
 24  11  28  1   
 25  11  29  1   
 26  12  14  1   
 27  12  30  1   
 28  12  31  1   
 29  13  15  1   
 30  13  16  1   
 31  13  32  1   
 32  14  15  1   
 33  14  33  1   
 34  14  34  1   
 35  15  35  1   
 36  15  36  1   
 37  16  17  1   
 38  16  37  1   
 39  16  38  1   
 40  17  39  1   
@<TRIPOS>SUBSTRUCTURE
  1 ****  10 GROUP 4 **** **** 0

# MOE 2024.06 (io_trps.svl 2023.06)
