@<TRIPOS>MOLECULE
NONAME
34 36 1 0 0 
SMALL
USER_CHARGES


@<TRIPOS>ATOM
  1 O       -0.2630     0.3100     1.3170 O.2   1 <1>  -0.5700 
  2 C       -0.1580     1.0000     0.3230 C.2   1 <1>   0.6900 
  3 N       -1.2400     1.4280    -0.3840 N.am  1 <1>  -0.5470 
  4 N        1.0620     1.3850    -0.1190 N.am  1 <1>  -0.7300 
  5 C       -2.6060     1.1360    -0.2430 C.ar  1 <1>   0.1170 
  6 C        2.3420     1.0270     0.5140 C.3   1 <1>   0.2200 
  7 C       -3.5330     2.0640    -0.7120 C.ar  1 <1>  -0.1500 
  8 C       -3.0660    -0.0570     0.3290 C.ar  1 <1>  -0.1500 
  9 C        3.1980     2.2820     0.6300 C.3   1 <1>  -0.1600 
 10 C        3.1350     0.1500    -0.4470 C.3   1 <1>  -0.1600 
 11 C       -4.8770     1.7770    -0.5910 C.ar  1 <1>   0.0830 
 12 C       -4.4230    -0.3300     0.4450 C.ar  1 <1>  -0.1500 
 13 C        3.8400     2.4800    -0.7480 C.3   1 <1>  -0.1600 
 14 C        3.8010     1.1110    -1.4390 C.3   1 <1>  -0.1600 
 15 O       -5.9200     2.5230    -0.9710 O.3   1 <1>  -0.3620 
 16 C       -5.3120     0.6140    -0.0280 C.ar  1 <1>   0.0830 
 17 C       -7.0930     1.7910    -0.6230 C.3   1 <1>   0.4000 
 18 O       -6.6510     0.5720    -0.0270 O.3   1 <1>  -0.3620 
 19 H       -1.0250     2.1620    -1.0480 H     1 <1>   0.3700 
 20 H        1.1610     1.8280    -1.0270 H     1 <1>   0.3700 
 21 H        2.1820     0.5510     1.4680 H     1 <1>   0.0800 
 22 H       -3.2250     2.9900    -1.1570 H     1 <1>   0.1500 
 23 H       -2.3590    -0.7820     0.6880 H     1 <1>   0.1500 
 24 H        3.9730     2.0960     1.3530 H     1 <1>   0.0800 
 25 H        2.6270     3.1350     0.9530 H     1 <1>   0.0800 
 26 H        2.5170    -0.5880    -0.9280 H     1 <1>   0.0800 
 27 H        3.9000    -0.3580     0.1140 H     1 <1>   0.0800 
 28 H       -4.7800    -1.2420     0.8870 H     1 <1>   0.1500 
 29 H        4.8500     2.8420    -0.6500 H     1 <1>   0.0800 
 30 H        3.2710     3.1920    -1.3200 H     1 <1>   0.0800 
 31 H        3.2140     1.1740    -2.3390 H     1 <1>   0.0800 
 32 H        4.7900     0.7710    -1.6950 H     1 <1>   0.0800 
 33 H       -7.6600     1.5730    -1.5100 H     1 <1>   0.0800 
 34 H       -7.6690     2.3520     0.0910 H     1 <1>   0.0800 
@<TRIPOS>BOND
  1   1   2  2   
  2   2   3  am  
  3   2   4  am  
  4   3   5  1   
  5   3  19  1   
  6   4   6  1   
  7   4  20  1   
  8   5   7  ar  
  9   5   8  ar  
 10   6   9  1   
 11   6  10  1   
 12   6  21  1   
 13   7  11  ar  
 14   7  22  1   
 15   8  12  ar  
 16   8  23  1   
 17   9  13  1   
 18   9  24  1   
 19   9  25  1   
 20  10  14  1   
 21  10  26  1   
 22  10  27  1   
 23  11  15  1   
 24  11  16  ar  
 25  12  16  ar  
 26  12  28  1   
 27  13  14  1   
 28  13  29  1   
 29  13  30  1   
 30  14  31  1   
 31  14  32  1   
 32  15  17  1   
 33  16  18  1   
 34  17  18  1   
 35  17  33  1   
 36  17  34  1   
@<TRIPOS>SUBSTRUCTURE
  1 ****   3 GROUP 4 **** **** 0

# MOE 2024.06 (io_trps.svl 2023.06)
