@<TRIPOS>MOLECULE
NONAME
46 47 1 0 0 
SMALL
USER_CHARGES


@<TRIPOS>ATOM
  1 O       -0.1370    -0.3460     1.4450 O.2   1 <1>  -0.5700 
  2 C       -0.3330     0.8000     1.1150 C.2   1 <1>   0.5690 
  3 N        0.6150     1.5320     0.4700 N.am  1 <1>  -0.7300 
  4 C       -1.6900     1.4420     1.4370 C.3   1 <1>   0.2610 
  5 C        1.9580     1.0720     0.0860 C.3   1 <1>   0.2200 
  6 O       -1.9010     2.5890     0.6170 O.3   1 <1>  -0.3630 
  7 C       -1.7870     1.8860     2.9020 C.3   1 <1>  -0.2400 
  8 C        2.9830     2.0020     0.7490 C.3   1 <1>  -0.1600 
  9 C        2.0140     1.0350    -1.4460 C.3   1 <1>  -0.1600 
 10 C       -3.1720     2.9880     0.3820 C.ar  1 <1>   0.0820 
 11 C        4.4110     1.4370     0.6920 C.3   1 <1>  -0.1600 
 12 C        3.3820     0.6570    -2.0390 C.3   1 <1>  -0.1600 
 13 C       -3.5320     4.2780     0.7340 C.ar  1 <1>  -0.1500 
 14 C       -4.1000     2.1430    -0.2120 C.ar  1 <1>  -0.1500 
 15 C        5.1970     1.7910    -0.5800 C.3   1 <1>  -0.1600 
 16 C        4.4130     1.7860    -1.9020 C.3   1 <1>  -0.1600 
 17 C       -4.8250     4.7180     0.5110 C.ar  1 <1>  -0.1500 
 18 C       -5.3940     2.5840    -0.4350 C.ar  1 <1>  -0.1500 
 19 C       -5.7630     3.8770    -0.0700 C.ar  1 <1>   0.0820 
 20 O       -7.0090     4.3880    -0.2500 O.3   1 <1>  -0.3620 
 21 C       -8.0300     3.6230    -0.8510 C.3   1 <1>   0.0400 
 22 H        0.3630     2.4760     0.1680 H     1 <1>   0.3700 
 23 H       -2.4540     0.7160     1.2250 H     1 <1>   0.0800 
 24 H        2.1040     0.0720     0.4620 H     1 <1>   0.0800 
 25 H       -1.0370     2.6270     3.1150 H     1 <1>   0.0800 
 26 H       -1.6230     1.0400     3.5450 H     1 <1>   0.0800 
 27 H       -2.7620     2.2870     3.1100 H     1 <1>   0.0800 
 28 H        2.7160     2.0900     1.7880 H     1 <1>   0.0800 
 29 H        2.9470     2.9850     0.3140 H     1 <1>   0.0800 
 30 H        1.7120     1.9890    -1.8400 H     1 <1>   0.0800 
 31 H        1.2970     0.3040    -1.7770 H     1 <1>   0.0800 
 32 H        4.3740     0.3670     0.8040 H     1 <1>   0.0800 
 33 H        4.9640     1.8150     1.5340 H     1 <1>   0.0800 
 34 H        3.2370     0.4690    -3.0890 H     1 <1>   0.0800 
 35 H        3.7510    -0.2540    -1.6010 H     1 <1>   0.0800 
 36 H       -2.8040     4.9300     1.1810 H     1 <1>   0.1500 
 37 H       -3.8150     1.1510    -0.5090 H     1 <1>   0.1500 
 38 H        6.0160     1.0970    -0.6630 H     1 <1>   0.0800 
 39 H        5.6300     2.7690    -0.4580 H     1 <1>   0.0800 
 40 H        3.9230     2.7360    -2.0310 H     1 <1>   0.0800 
 41 H        5.1260     1.6990    -2.7040 H     1 <1>   0.0800 
 42 H       -5.1170     5.7160     0.7840 H     1 <1>   0.1500 
 43 H       -6.0950     1.9130    -0.8930 H     1 <1>   0.1500 
 44 H       -8.9180     4.2280    -0.8930 H     1 <1>   0.0800 
 45 H       -8.2120     2.7490    -0.2510 H     1 <1>   0.0800 
 46 H       -7.7250     3.3540    -1.8470 H     1 <1>   0.0800 
@<TRIPOS>BOND
  1   1   2  2   
  2   2   3  am  
  3   2   4  1   
  4   3   5  1   
  5   3  22  1   
  6   4   6  1   
  7   4   7  1   
  8   4  23  1   
  9   5   8  1   
 10   5   9  1   
 11   5  24  1   
 12   6  10  1   
 13   7  25  1   
 14   7  26  1   
 15   7  27  1   
 16   8  11  1   
 17   8  28  1   
 18   8  29  1   
 19   9  12  1   
 20   9  30  1   
 21   9  31  1   
 22  10  13  ar  
 23  10  14  ar  
 24  11  15  1   
 25  11  32  1   
 26  11  33  1   
 27  12  16  1   
 28  12  34  1   
 29  12  35  1   
 30  13  17  ar  
 31  13  36  1   
 32  14  18  ar  
 33  14  37  1   
 34  15  16  1   
 35  15  38  1   
 36  15  39  1   
 37  16  40  1   
 38  16  41  1   
 39  17  19  ar  
 40  17  42  1   
 41  18  19  ar  
 42  18  43  1   
 43  19  20  1   
 44  20  21  1   
 45  21  44  1   
 46  21  45  1   
 47  21  46  1   
@<TRIPOS>SUBSTRUCTURE
  1 ****   6 GROUP 4 **** **** 0

# MOE 2024.06 (io_trps.svl 2023.06)
