@<TRIPOS>MOLECULE
NONAME
35 36 1 0 0 
SMALL
USER_CHARGES


@<TRIPOS>ATOM
  1 CL       0.0640    -0.8820     0.9270 Cl    1 <1>  -0.1770 
  2 C       -1.6000    -1.1870     0.4940 C.ar  1 <1>   0.1770 
  3 C       -2.3980    -1.9280     1.3450 C.ar  1 <1>  -0.1500 
  4 C       -2.0960    -0.6860    -0.6920 C.ar  1 <1>  -0.1500 
  5 C       -3.7210    -2.1750     1.0100 C.ar  1 <1>  -0.1440 
  6 C       -3.4150    -0.9320    -1.0280 C.ar  1 <1>  -0.1500 
  7 C       -4.2440    -1.6740    -0.1870 C.ar  1 <1>   0.1170 
  8 C       -4.5800    -2.9960     1.9660 C.3   1 <1>  -0.0960 
  9 N       -5.5840    -1.9370    -0.5080 N.am  1 <1>  -0.5470 
 10 C       -6.4460    -1.4670    -1.4570 C.2   1 <1>   0.5690 
 11 O       -6.1680    -0.6410    -2.2930 O.2   1 <1>  -0.5700 
 12 C       -7.8600    -2.0500    -1.4250 C.3   1 <1>   0.1710 
 13 N       -8.2900    -2.5130    -0.0680 N.3   1 <1>  -0.8100 
 14 C       -9.4890    -3.3860    -0.1360 C.3   1 <1>   0.1100 
 15 C       -8.4980    -1.3520     0.8410 C.3   1 <1>   0.1100 
 16 C      -10.8010    -2.6180     0.1270 C.3   1 <1>   0.1200 
 17 C       -9.5510    -1.6380     1.9270 C.3   1 <1>   0.1200 
 18 O      -10.8000    -1.9620     1.3700 O.3   1 <1>  -0.5600 
 19 H       -1.9730    -2.3020     2.2580 H     1 <1>   0.1500 
 20 H       -1.4590    -0.1130    -1.3420 H     1 <1>   0.1500 
 21 H       -3.7940    -0.5430    -1.9540 H     1 <1>   0.1500 
 22 H       -4.0200    -3.2830     2.8390 H     1 <1>   0.0800 
 23 H       -4.9230    -3.8910     1.4790 H     1 <1>   0.0800 
 24 H       -5.4300    -2.4210     2.2870 H     1 <1>   0.0800 
 25 H       -6.0710    -2.5680     0.1350 H     1 <1>   0.3700 
 26 H       -7.8650    -2.8840    -2.1040 H     1 <1>   0.0800 
 27 H       -8.5500    -1.3160    -1.8020 H     1 <1>   0.0800 
 28 H       -9.3990    -4.1540     0.6130 H     1 <1>   0.0800 
 29 H       -9.5440    -3.8810    -1.0890 H     1 <1>   0.0800 
 30 H       -8.8300    -0.4920     0.2830 H     1 <1>   0.0800 
 31 H       -7.5640    -1.0950     1.3090 H     1 <1>   0.0800 
 32 H      -11.6380    -3.2930     0.1180 H     1 <1>   0.0800 
 33 H      -10.9520    -1.8770    -0.6370 H     1 <1>   0.0800 
 34 H       -9.6890    -0.7760     2.5540 H     1 <1>   0.0800 
 35 H       -9.2340    -2.4630     2.5400 H     1 <1>   0.0800 
@<TRIPOS>BOND
  1   1   2  1   
  2   2   3  ar  
  3   2   4  ar  
  4   3   5  ar  
  5   3  19  1   
  6   4   6  ar  
  7   4  20  1   
  8   5   7  ar  
  9   5   8  1   
 10   6   7  ar  
 11   6  21  1   
 12   7   9  1   
 13   8  22  1   
 14   8  23  1   
 15   8  24  1   
 16   9  10  am  
 17   9  25  1   
 18  10  11  2   
 19  10  12  1   
 20  12  13  1   
 21  12  26  1   
 22  12  27  1   
 23  13  14  1   
 24  13  15  1   
 25  14  16  1   
 26  14  28  1   
 27  14  29  1   
 28  15  17  1   
 29  15  30  1   
 30  15  31  1   
 31  16  18  1   
 32  16  32  1   
 33  16  33  1   
 34  17  18  1   
 35  17  34  1   
 36  17  35  1   
@<TRIPOS>SUBSTRUCTURE
  1 ****   9 GROUP 4 **** **** 0

# MOE 2024.06 (io_trps.svl 2023.06)
