@<TRIPOS>MOLECULE
NONAME
42 44 1 0 0 
SMALL
USER_CHARGES


@<TRIPOS>ATOM
  1 CL       1.4160    -0.7790     2.5490 Cl    1 <1>  -0.1770 
  2 C        2.7070     0.1150     1.7840 C.ar  1 <1>   0.1770 
  3 C        4.0090    -0.0180     2.2340 C.ar  1 <1>   0.1600 
  4 C        2.4240     0.9550     0.7300 C.ar  1 <1>  -0.1500 
  5 N        5.0490     0.6210     1.7120 N.ar  1 <1>  -0.6200 
  6 C        3.4980     1.6230     0.1820 C.ar  1 <1>  -0.1500 
  7 C        4.7830     1.4290     0.6940 C.ar  1 <1>   0.4270 
  8 N        5.9020     2.0610     0.2020 N.am  1 <1>  -0.5470 
  9 C        6.1570     2.7940    -0.9170 C.2   1 <1>   0.5690 
 10 O        5.3260     3.0660    -1.7490 O.2   1 <1>  -0.5700 
 11 C        7.5940     3.2850    -1.1080 C.3   1 <1>   0.1710 
 12 N        8.6080     2.4820    -0.3630 N.3   1 <1>  -0.8100 
 13 C        8.8250     1.1600    -1.0070 C.3   1 <1>   0.1100 
 14 C        9.8990     3.2060    -0.2830 C.3   1 <1>   0.1100 
 15 C        9.8830     0.3190    -0.2670 C.3   1 <1>   0.2090 
 16 C       10.9740     2.3970     0.4680 C.3   1 <1>   0.2090 
 17 N       11.1730     1.0610    -0.1660 N.pl3 1 <1>  -0.8380 
 18 C       12.2700     0.3210     0.2960 C.ar  1 <1>   0.1000 
 19 C       12.4000    -0.2050     1.5880 C.ar  1 <1>   0.1900 
 20 C       13.3170     0.0820    -0.5850 C.ar  1 <1>  -0.1500 
 21 F       11.4470    -0.0150     2.4700 F     1 <1>  -0.1900 
 22 C       13.5040    -0.9290     1.9930 C.ar  1 <1>  -0.1500 
 23 C       14.4330    -0.6430    -0.1980 C.ar  1 <1>  -0.1500 
 24 C       14.5300    -1.1500     1.0890 C.ar  1 <1>  -0.1500 
 25 H        4.1970    -0.6800     3.0600 H     1 <1>   0.1500 
 26 H        1.4200     1.0750     0.3630 H     1 <1>   0.1500 
 27 H        3.3390     2.2950    -0.6400 H     1 <1>   0.1500 
 28 H        6.7450     1.8660     0.7480 H     1 <1>   0.3700 
 29 H        7.6250     4.3020    -0.7610 H     1 <1>   0.0800 
 30 H        7.8260     3.2880    -2.1580 H     1 <1>   0.0800 
 31 H        9.1520     1.2960    -2.0240 H     1 <1>   0.0800 
 32 H        7.9030     0.6060    -1.0260 H     1 <1>   0.0800 
 33 H        9.7530     4.1400     0.2300 H     1 <1>   0.0800 
 34 H       10.2620     3.4200    -1.2740 H     1 <1>   0.0800 
 35 H       10.0450    -0.6030    -0.7970 H     1 <1>   0.0800 
 36 H        9.5190     0.0810     0.7180 H     1 <1>   0.0800 
 37 H       10.6700     2.2720     1.4930 H     1 <1>   0.0800 
 38 H       11.9040     2.9370     0.4560 H     1 <1>   0.0800 
 39 H       13.2430     0.4730    -1.5830 H     1 <1>   0.1500 
 40 H       13.5570    -1.3130     2.9950 H     1 <1>   0.1500 
 41 H       15.2290    -0.8130    -0.9020 H     1 <1>   0.1500 
 42 H       15.3990    -1.7120     1.3840 H     1 <1>   0.1500 
@<TRIPOS>BOND
  1   1   2  1   
  2   2   3  ar  
  3   2   4  ar  
  4   3   5  ar  
  5   3  25  1   
  6   4   6  ar  
  7   4  26  1   
  8   5   7  ar  
  9   6   7  ar  
 10   6  27  1   
 11   7   8  1   
 12   8   9  am  
 13   8  28  1   
 14   9  10  2   
 15   9  11  1   
 16  11  12  1   
 17  11  29  1   
 18  11  30  1   
 19  12  13  1   
 20  12  14  1   
 21  13  15  1   
 22  13  31  1   
 23  13  32  1   
 24  14  16  1   
 25  14  33  1   
 26  14  34  1   
 27  15  17  1   
 28  15  35  1   
 29  15  36  1   
 30  16  17  1   
 31  16  37  1   
 32  16  38  1   
 33  17  18  1   
 34  18  19  ar  
 35  18  20  ar  
 36  19  21  1   
 37  19  22  ar  
 38  20  23  ar  
 39  20  39  1   
 40  22  24  ar  
 41  22  40  1   
 42  23  24  ar  
 43  23  41  1   
 44  24  42  1   
@<TRIPOS>SUBSTRUCTURE
  1 ****  13 GROUP 4 **** **** 0

# MOE 2024.06 (io_trps.svl 2023.06)
