@<TRIPOS>MOLECULE
NONAME
36 37 1 0 0 
SMALL
USER_CHARGES


@<TRIPOS>ATOM
  1 S       -0.2760    -0.3430     1.5620 S.3   1 <1>  -0.0800 
  2 C        0.1390    -1.4380     0.2580 C.2   1 <1>  -0.1400 
  3 C       -1.9800    -0.6640     1.3430 C.2   1 <1>  -0.1100 
  4 C       -0.9730    -1.9810    -0.2670 C.2   1 <1>  -0.1500 
  5 C        1.6080    -1.6210    -0.0770 C.3   1 <1>   0.0200 
  6 C       -2.2080    -1.5490     0.3400 C.2   1 <1>  -0.0860 
  7 C        2.1890    -0.3570    -0.7160 C.3   1 <1>  -0.2400 
  8 C       -3.4960    -2.0360    -0.1120 C.2   1 <1>   0.7160 
  9 O       -3.5840    -2.8540    -1.0070 O.2   1 <1>  -0.5700 
 10 N       -4.6350    -1.5640     0.4610 N.am  1 <1>  -0.7300 
 11 C       -6.0170    -1.8550     0.0410 C.3   1 <1>   0.2200 
 12 C       -6.6910    -0.5170    -0.3500 C.3   1 <1>   0.2000 
 13 C       -6.6880    -2.5890     1.2060 C.3   1 <1>  -0.2400 
 14 O       -6.6190     0.4050     0.6980 O.3   1 <1>  -0.5600 
 15 C       -8.1690    -0.5650    -0.7210 C.3   1 <1>  -0.1600 
 16 C       -7.6290     1.3630     0.5920 C.3   1 <1>   0.1200 
 17 C       -8.5990     0.8690    -0.4790 C.3   1 <1>  -0.1600 
 18 H       -2.6580    -0.1490     2.0000 H     1 <1>   0.1500 
 19 H       -0.9940    -2.6880    -1.0790 H     1 <1>   0.1500 
 20 H        1.7110    -2.4430    -0.7620 H     1 <1>   0.0800 
 21 H        2.1510    -1.8630     0.8200 H     1 <1>   0.0800 
 22 H        1.6370    -0.1060    -1.6040 H     1 <1>   0.0800 
 23 H        3.2190    -0.5160    -0.9800 H     1 <1>   0.0800 
 24 H        2.1320     0.4700    -0.0300 H     1 <1>   0.0800 
 25 H       -4.5830    -0.7700     1.1010 H     1 <1>   0.3700 
 26 H       -6.0060    -2.5030    -0.8190 H     1 <1>   0.0800 
 27 H       -6.1460    -0.0920    -1.1760 H     1 <1>   0.0800 
 28 H       -6.7920    -1.9360     2.0530 H     1 <1>   0.0800 
 29 H       -6.0980    -3.4440     1.4860 H     1 <1>   0.0800 
 30 H       -7.6600    -2.9430     0.9190 H     1 <1>   0.0800 
 31 H       -8.7100    -1.2190    -0.0630 H     1 <1>   0.0800 
 32 H       -8.3190    -0.8770    -1.7390 H     1 <1>   0.0800 
 33 H       -7.1840     2.3050     0.3240 H     1 <1>   0.0800 
 34 H       -8.1080     1.4420     1.5530 H     1 <1>   0.0800 
 35 H       -9.6220     0.9420    -0.1550 H     1 <1>   0.0800 
 36 H       -8.4710     1.4570    -1.3710 H     1 <1>   0.0800 
@<TRIPOS>BOND
  1   1   2  1   
  2   1   3  1   
  3   2   4  2   
  4   2   5  1   
  5   3   6  2   
  6   3  18  1   
  7   4   6  1   
  8   4  19  1   
  9   5   7  1   
 10   5  20  1   
 11   5  21  1   
 12   6   8  1   
 13   7  22  1   
 14   7  23  1   
 15   7  24  1   
 16   8   9  2   
 17   8  10  am  
 18  10  11  1   
 19  10  25  1   
 20  11  12  1   
 21  11  13  1   
 22  11  26  1   
 23  12  14  1   
 24  12  15  1   
 25  12  27  1   
 26  13  28  1   
 27  13  29  1   
 28  13  30  1   
 29  14  16  1   
 30  15  17  1   
 31  15  31  1   
 32  15  32  1   
 33  16  17  1   
 34  16  33  1   
 35  16  34  1   
 36  17  35  1   
 37  17  36  1   
@<TRIPOS>SUBSTRUCTURE
  1 ****   8 GROUP 4 **** **** 0

# MOE 2024.06 (io_trps.svl 2023.06)
