@<TRIPOS>MOLECULE
NONAME
46 48 1 0 0 
SMALL
USER_CHARGES


@<TRIPOS>ATOM
  1 O        0.9880    -0.8910    -1.9420 O.2   1 <1>  -0.5700 
  2 C        1.0690    -0.7630    -0.7340 C.2   1 <1>   0.6900 
  3 N        2.2060    -0.2540    -0.1690 N.am  1 <1>  -0.6600 
  4 N        0.0360    -1.0970     0.0920 N.am  1 <1>  -0.5470 
  5 C        3.2310     0.4330    -1.0170 C.3   1 <1>   0.1400 
  6 C        2.7820    -0.7970     1.1020 C.3   1 <1>   0.1400 
  7 C       -1.1690    -1.7760    -0.1400 C.ar  1 <1>   0.1170 
  8 C        4.4260    -0.4930    -1.2980 C.3   1 <1>   0.2090 
  9 C        3.9890    -1.7110     0.8190 C.3   1 <1>   0.2090 
 10 C       -2.2590    -1.5640     0.7080 C.ar  1 <1>  -0.1440 
 11 C       -1.3040    -2.6840    -1.1850 C.ar  1 <1>  -0.1500 
 12 N        5.0070    -1.0160    -0.0230 N.pl3 1 <1>  -0.8380 
 13 C       -3.4430    -2.2540     0.4960 C.ar  1 <1>  -0.1500 
 14 C       -2.1810    -0.5780     1.8670 C.3   1 <1>  -0.0970 
 15 C       -2.4880    -3.3660    -1.3900 C.ar  1 <1>  -0.1500 
 16 C        6.2380    -1.6520    -0.1290 C.ar  1 <1>   0.1000 
 17 C       -3.5660    -3.1570    -0.5470 C.ar  1 <1>  -0.1440 
 18 C        7.3520    -1.0950     0.4840 C.ar  1 <1>  -0.1500 
 19 C        6.3870    -2.8410    -0.8360 C.ar  1 <1>  -0.1500 
 20 C       -4.8700    -3.9010    -0.7680 C.3   1 <1>  -0.0970 
 21 C        8.5890    -1.7080     0.3970 C.ar  1 <1>  -0.1500 
 22 C        7.6220    -3.4580    -0.9260 C.ar  1 <1>  -0.1500 
 23 C        8.7250    -2.8920    -0.3090 C.ar  1 <1>  -0.1500 
 24 H        0.1070    -0.6470     0.9950 H     1 <1>   0.3700 
 25 H        3.5820     1.3120    -0.5060 H     1 <1>   0.0800 
 26 H        2.7960     0.7480    -1.9500 H     1 <1>   0.0800 
 27 H        2.0440    -1.3590     1.6460 H     1 <1>   0.0800 
 28 H        3.1030     0.0220     1.7220 H     1 <1>   0.0800 
 29 H        5.1830     0.0510    -1.8370 H     1 <1>   0.0800 
 30 H        4.0980    -1.3120    -1.9140 H     1 <1>   0.0800 
 31 H        3.6500    -2.5990     0.3140 H     1 <1>   0.0800 
 32 H        4.4420    -2.0060     1.7490 H     1 <1>   0.0800 
 33 H       -0.4780    -2.8630    -1.8470 H     1 <1>   0.1500 
 34 H       -4.2840    -2.0900     1.1460 H     1 <1>   0.1500 
 35 H       -1.4560    -0.9120     2.5870 H     1 <1>   0.0800 
 36 H       -3.1310    -0.4890     2.3610 H     1 <1>   0.0800 
 37 H       -1.9010     0.3950     1.5040 H     1 <1>   0.0800 
 38 H       -2.5650    -4.0580    -2.2090 H     1 <1>   0.1500 
 39 H        7.2340    -0.1770     1.0270 H     1 <1>   0.1500 
 40 H        5.5310    -3.2780    -1.3130 H     1 <1>   0.1500 
 41 H       -5.5290    -3.3050    -1.3730 H     1 <1>   0.0800 
 42 H       -5.3480    -4.1060     0.1720 H     1 <1>   0.0800 
 43 H       -4.6900    -4.8360    -1.2680 H     1 <1>   0.0800 
 44 H        9.4440    -1.2660     0.8770 H     1 <1>   0.1500 
 45 H        7.7260    -4.3770    -1.4750 H     1 <1>   0.1500 
 46 H        9.6870    -3.3710    -0.3770 H     1 <1>   0.1500 
@<TRIPOS>BOND
  1   1   2  2   
  2   2   3  am  
  3   2   4  am  
  4   3   5  1   
  5   3   6  1   
  6   4   7  1   
  7   4  24  1   
  8   5   8  1   
  9   5  25  1   
 10   5  26  1   
 11   6   9  1   
 12   6  27  1   
 13   6  28  1   
 14   7  10  ar  
 15   7  11  ar  
 16   8  12  1   
 17   8  29  1   
 18   8  30  1   
 19   9  12  1   
 20   9  31  1   
 21   9  32  1   
 22  10  13  ar  
 23  10  14  1   
 24  11  15  ar  
 25  11  33  1   
 26  12  16  1   
 27  13  17  ar  
 28  13  34  1   
 29  14  35  1   
 30  14  36  1   
 31  14  37  1   
 32  15  17  ar  
 33  15  38  1   
 34  16  18  ar  
 35  16  19  ar  
 36  17  20  1   
 37  18  21  ar  
 38  18  39  1   
 39  19  22  ar  
 40  19  40  1   
 41  20  41  1   
 42  20  42  1   
 43  20  43  1   
 44  21  23  ar  
 45  21  44  1   
 46  22  23  ar  
 47  22  45  1   
 48  23  46  1   
@<TRIPOS>SUBSTRUCTURE
  1 ****   2 GROUP 4 **** **** 0

# MOE 2024.06 (io_trps.svl 2023.06)
