@<TRIPOS>MOLECULE
NONAME
40 42 1 0 0 
SMALL
USER_CHARGES


@<TRIPOS>ATOM
  1 O        1.6530    -0.1560    -1.3130 O.2   1 <1>  -0.5700 
  2 C        1.8370    -0.8210    -0.3120 C.2   1 <1>   0.5440 
  3 N        2.5670    -0.2350     0.6950 N.am  1 <1>  -0.6600 
  4 C        1.3650    -2.1920    -0.2220 C.ar  1 <1>   0.0860 
  5 C        3.9470    -0.7360     0.9440 C.3   1 <1>   0.1400 
  6 C        2.4320     1.2370     0.9000 C.3   1 <1>   0.1400 
  7 C        1.2510    -2.8790     0.9810 C.ar  1 <1>  -0.1500 
  8 C        0.9910    -2.9210    -1.3430 C.ar  1 <1>  -0.1500 
  9 C        4.9470     0.0150     0.0390 C.3   1 <1>   0.3430 
 10 C        3.4160     1.9890    -0.0170 C.3   1 <1>   0.3430 
 11 C        0.8120    -4.1890     1.0000 C.ar  1 <1>   0.1600 
 12 C        0.5640    -4.2290    -1.2190 C.ar  1 <1>   0.1600 
 13 N        4.8370     1.5180     0.1710 N.4   1 <1>  -0.9590 
 14 N        0.4740    -4.8810    -0.0730 N.ar  1 <1>  -0.6200 
 15 C        5.7520     2.2160    -0.7780 C.3   1 <1>   0.4860 
 16 C        7.1790     1.7970    -0.4940 C.ar  1 <1>  -0.1430 
 17 C        7.8450     2.3000     0.6140 C.ar  1 <1>   0.1600 
 18 C        7.8390     0.9080    -1.3220 C.ar  1 <1>  -0.1500 
 19 N        9.0720     1.9700     0.9670 N.ar  1 <1>  -0.6200 
 20 C        9.1280     0.5670    -0.9720 C.ar  1 <1>  -0.1500 
 21 C        9.6900     1.1160     0.1680 C.ar  1 <1>   0.1600 
 22 H        4.0000    -1.7910     0.7310 H     1 <1>   0.0800 
 23 H        4.2030    -0.5950     1.9800 H     1 <1>   0.0800 
 24 H        2.6170     1.4800     1.9310 H     1 <1>   0.0800 
 25 H        1.4250     1.5410     0.6650 H     1 <1>   0.0800 
 26 H        1.4970    -2.3930     1.9070 H     1 <1>   0.1500 
 27 H        1.0310    -2.4650    -2.3160 H     1 <1>   0.1500 
 28 H        4.7530    -0.2690    -0.9820 H     1 <1>   0.0800 
 29 H        5.9480    -0.3030     0.2840 H     1 <1>   0.0800 
 30 H        3.3450     3.0460     0.1810 H     1 <1>   0.0800 
 31 H        3.1090     1.8220    -1.0380 H     1 <1>   0.0800 
 32 H        0.7330    -4.6980     1.9470 H     1 <1>   0.1500 
 33 H        0.2820    -4.7690    -2.1080 H     1 <1>   0.1500 
 34 H        5.1340     1.7590     1.1240 H     1 <1>   0.4500 
 35 H        5.6640     3.2840    -0.6630 H     1 <1>   0.0800 
 36 H        5.4940     1.9630    -1.7940 H     1 <1>   0.0800 
 37 H        7.3510     3.0110     1.2560 H     1 <1>   0.1500 
 38 H        7.3880     0.4930    -2.2090 H     1 <1>   0.1500 
 39 H        9.7010    -0.1170    -1.5740 H     1 <1>   0.1500 
 40 H       10.6980     0.8410     0.4340 H     1 <1>   0.1500 
@<TRIPOS>BOND
  1   1   2  2   
  2   2   3  am  
  3   2   4  1   
  4   3   5  1   
  5   3   6  1   
  6   4   7  ar  
  7   4   8  ar  
  8   5   9  1   
  9   5  22  1   
 10   5  23  1   
 11   6  10  1   
 12   6  24  1   
 13   6  25  1   
 14   7  11  ar  
 15   7  26  1   
 16   8  12  ar  
 17   8  27  1   
 18   9  13  1   
 19   9  28  1   
 20   9  29  1   
 21  10  13  1   
 22  10  30  1   
 23  10  31  1   
 24  11  14  ar  
 25  11  32  1   
 26  12  14  ar  
 27  12  33  1   
 28  13  15  1   
 29  13  34  1   
 30  15  16  1   
 31  15  35  1   
 32  15  36  1   
 33  16  17  ar  
 34  16  18  ar  
 35  17  19  ar  
 36  17  37  1   
 37  18  20  ar  
 38  18  38  1   
 39  19  21  ar  
 40  20  21  ar  
 41  20  39  1   
 42  21  40  1   
@<TRIPOS>SUBSTRUCTURE
  1 ****   9 GROUP 4 **** **** 0

# MOE 2024.06 (io_trps.svl 2023.06)
