@<TRIPOS>MOLECULE
NONAME
28 28 1 0 0 
SMALL
USER_CHARGES


@<TRIPOS>ATOM
  1 I       -0.4090    -0.1760     1.2350 I     1 <1>  -0.0810 
  2 C        1.4180    -1.0170     0.5060 C.ar  1 <1>   0.0810 
  3 C        1.4730    -2.3570     0.1350 C.ar  1 <1>   0.0830 
  4 C        2.5120    -0.1750     0.4270 C.ar  1 <1>  -0.1500 
  5 O        0.3490    -3.1170     0.2450 O.3   1 <1>  -0.3630 
  6 C        2.6880    -2.8520    -0.3330 C.ar  1 <1>  -0.1500 
  7 C        3.7100    -0.6880    -0.0400 C.ar  1 <1>  -0.1500 
  8 C        0.3460    -4.4910    -0.0490 C.3   1 <1>   0.1200 
  9 C        3.7940    -2.0200    -0.4170 C.ar  1 <1>  -0.1500 
 10 C       -1.0740    -4.9980     0.2220 C.3   1 <1>   0.3430 
 11 N       -1.2450    -6.4630    -0.0720 N.4   1 <1>  -0.9590 
 12 C       -2.6960    -6.8250    -0.0170 C.3   1 <1>   0.2630 
 13 C       -0.4640    -7.3260     0.8730 C.3   1 <1>   0.2630 
 14 H        2.4340     0.8560     0.7220 H     1 <1>   0.1500 
 15 H        2.8030    -3.8740    -0.6390 H     1 <1>   0.1500 
 16 H        4.5760    -0.0520    -0.1100 H     1 <1>   0.1500 
 17 H        1.0640    -4.9680     0.5930 H     1 <1>   0.0800 
 18 H        0.6080    -4.6110    -1.0850 H     1 <1>   0.0800 
 19 H        4.7310    -2.4080    -0.7800 H     1 <1>   0.1500 
 20 H       -1.7520    -4.4300    -0.3950 H     1 <1>   0.0800 
 21 H       -1.3200    -4.8060     1.2540 H     1 <1>   0.0800 
 22 H       -0.9150    -6.6410    -1.0340 H     1 <1>   0.4500 
 23 H       -3.0900    -6.6500     0.9720 H     1 <1>   0.0800 
 24 H       -2.8330    -7.8660    -0.2630 H     1 <1>   0.0800 
 25 H       -3.2580    -6.2310    -0.7210 H     1 <1>   0.0800 
 26 H       -0.7800    -7.1500     1.8890 H     1 <1>   0.0800 
 27 H        0.5900    -7.1130     0.7970 H     1 <1>   0.0800 
 28 H       -0.6180    -8.3680     0.6410 H     1 <1>   0.0800 
@<TRIPOS>BOND
  1   1   2  1   
  2   2   3  ar  
  3   2   4  ar  
  4   3   5  1   
  5   3   6  ar  
  6   4   7  ar  
  7   4  14  1   
  8   5   8  1   
  9   6   9  ar  
 10   6  15  1   
 11   7   9  ar  
 12   7  16  1   
 13   8  10  1   
 14   8  17  1   
 15   8  18  1   
 16   9  19  1   
 17  10  11  1   
 18  10  20  1   
 19  10  21  1   
 20  11  12  1   
 21  11  13  1   
 22  11  22  1   
 23  12  23  1   
 24  12  24  1   
 25  12  25  1   
 26  13  26  1   
 27  13  27  1   
 28  13  28  1   
@<TRIPOS>SUBSTRUCTURE
  1 ****   5 GROUP 4 **** **** 0

# MOE 2024.06 (io_trps.svl 2023.06)
