@<TRIPOS>MOLECULE
NONAME
38 38 1 0 0 
SMALL
USER_CHARGES


@<TRIPOS>ATOM
  1 CL       2.0500     0.1410    -0.8390 Cl    1 <1>  -0.1770 
  2 C        1.1370     1.6330    -0.7480 C.ar  1 <1>   0.1770 
  3 C        1.6030     2.7040     0.0140 C.ar  1 <1>   0.0820 
  4 C       -0.0510     1.7160    -1.4460 C.ar  1 <1>  -0.1500 
  5 O        2.7680     2.6070     0.6950 O.3   1 <1>  -0.3630 
  6 C        0.8540     3.8760     0.0950 C.ar  1 <1>  -0.1440 
  7 C       -0.7770     2.8890    -1.3660 C.ar  1 <1>   0.1770 
  8 C        3.9510     2.7710    -0.0560 C.3   1 <1>   0.1200 
  9 C       -0.3410     3.9610    -0.6070 C.ar  1 <1>  -0.1500 
 10 C        1.3270     5.0510     0.9390 C.3   1 <1>  -0.0960 
 11 CL      -2.2820     3.0200    -2.2410 Cl    1 <1>  -0.1770 
 12 C        5.1010     2.1590     0.7370 C.3   1 <1>   0.1200 
 13 O        6.2790     2.3020    -0.0010 O.3   1 <1>  -0.5600 
 14 C        7.3910     1.7090     0.5800 C.3   1 <1>   0.1200 
 15 C        8.5780     1.9520    -0.3600 C.3   1 <1>   0.3430 
 16 N        9.8670     1.3810     0.1610 N.4   1 <1>  -0.9590 
 17 C       11.0110     1.8660    -0.6730 C.3   1 <1>   0.2630 
 18 C        9.8500    -0.1170     0.1920 C.3   1 <1>   0.2630 
 19 H       -0.4040     0.8900    -2.0340 H     1 <1>   0.1500 
 20 H        4.1060     3.8230    -0.2110 H     1 <1>   0.0800 
 21 H        3.8420     2.2670    -1.0000 H     1 <1>   0.0800 
 22 H       -0.9410     4.8530    -0.5700 H     1 <1>   0.1500 
 23 H        2.2140     5.4790     0.5070 H     1 <1>   0.0800 
 24 H        1.5530     4.7180     1.9360 H     1 <1>   0.0800 
 25 H        0.5720     5.8140     0.9990 H     1 <1>   0.0800 
 26 H        4.9130     1.1100     0.8960 H     1 <1>   0.0800 
 27 H        5.2150     2.6690     1.6780 H     1 <1>   0.0800 
 28 H        7.1920     0.6580     0.6920 H     1 <1>   0.0800 
 29 H        7.5590     2.1700     1.5380 H     1 <1>   0.0800 
 30 H        8.6850     3.0160    -0.4880 H     1 <1>   0.0800 
 31 H        8.3520     1.5190    -1.3210 H     1 <1>   0.0800 
 32 H       10.0080     1.7310     1.1220 H     1 <1>   0.4500 
 33 H       10.9020     1.5290    -1.6920 H     1 <1>   0.0800 
 34 H       11.9440     1.4910    -0.2850 H     1 <1>   0.0800 
 35 H       11.0470     2.9440    -0.6700 H     1 <1>   0.0800 
 36 H        9.6870    -0.5110    -0.7990 H     1 <1>   0.0800 
 37 H        9.0640    -0.4740     0.8380 H     1 <1>   0.0800 
 38 H       10.7910    -0.4940     0.5600 H     1 <1>   0.0800 
@<TRIPOS>BOND
  1   1   2  1   
  2   2   3  ar  
  3   2   4  ar  
  4   3   5  1   
  5   3   6  ar  
  6   4   7  ar  
  7   4  19  1   
  8   5   8  1   
  9   6   9  ar  
 10   6  10  1   
 11   7   9  ar  
 12   7  11  1   
 13   8  12  1   
 14   8  20  1   
 15   8  21  1   
 16   9  22  1   
 17  10  23  1   
 18  10  24  1   
 19  10  25  1   
 20  12  13  1   
 21  12  26  1   
 22  12  27  1   
 23  13  14  1   
 24  14  15  1   
 25  14  28  1   
 26  14  29  1   
 27  15  16  1   
 28  15  30  1   
 29  15  31  1   
 30  16  17  1   
 31  16  18  1   
 32  16  32  1   
 33  17  33  1   
 34  17  34  1   
 35  17  35  1   
 36  18  36  1   
 37  18  37  1   
 38  18  38  1   
@<TRIPOS>SUBSTRUCTURE
  1 ****   8 GROUP 4 **** **** 0

# MOE 2024.06 (io_trps.svl 2023.06)
