@<TRIPOS>MOLECULE
NONAME
50 52 1 0 0 
SMALL
USER_CHARGES


@<TRIPOS>ATOM
  1 O        0.4540     0.3890     1.6760 O.2   1 <1>  -0.5700 
  2 C       -0.2320     1.2300     1.1190 C.2   1 <1>   0.5440 
  3 N       -1.5670     0.9740     0.9910 N.am  1 <1>  -0.7300 
  4 C        0.3380     2.4610     0.5940 C.ar  1 <1>   0.0860 
  5 C       -2.2870    -0.2380     1.4470 C.3   1 <1>   0.1400 
  6 C        1.6630     2.5350     0.1190 C.ar  1 <1>   0.1170 
  7 C       -0.4430     3.6210     0.5450 C.ar  1 <1>  -0.1500 
  8 C       -3.3200    -0.6610     0.3910 C.3   1 <1>   0.2000 
  9 N        2.4860     1.3980     0.1770 N.am  1 <1>  -0.5470 
 10 C        2.1390     3.7440    -0.3850 C.ar  1 <1>  -0.1500 
 11 C        0.0450     4.8080     0.0390 C.ar  1 <1>  -0.1500 
 12 O       -4.0730     0.4410    -0.0170 O.3   1 <1>  -0.5600 
 13 C       -4.3500    -1.6650     0.8850 C.3   1 <1>  -0.1600 
 14 C        3.6570     1.0450    -0.4360 C.2   1 <1>   0.5690 
 15 C        1.3430     4.8690    -0.4310 C.ar  1 <1>  -0.1500 
 16 C       -5.3130     0.0350    -0.5100 C.3   1 <1>   0.1200 
 17 C       -5.5300    -1.4000    -0.0320 C.3   1 <1>  -0.1600 
 18 O        4.2240     1.7420    -1.2430 O.2   1 <1>  -0.5700 
 19 C        4.2540    -0.3160    -0.0730 C.3   1 <1>  -0.0190 
 20 C        5.6800    -0.1760     0.4950 C.3   1 <1>  -0.1600 
 21 C        4.2440    -1.2700    -1.2820 C.3   1 <1>  -0.1600 
 22 C        6.2840    -1.5420     0.8490 C.3   1 <1>  -0.1600 
 23 C        4.8480    -2.6370    -0.9280 C.3   1 <1>  -0.1600 
 24 C        6.2650    -2.4860    -0.3610 C.3   1 <1>  -0.1600 
 25 H       -2.1650     1.5830     0.4220 H     1 <1>   0.3700 
 26 H       -2.7870    -0.0160     2.3730 H     1 <1>   0.0800 
 27 H       -1.5930    -1.0430     1.6230 H     1 <1>   0.0800 
 28 H       -1.4520     3.5970     0.9170 H     1 <1>   0.1500 
 29 H       -2.8170    -1.0470    -0.4790 H     1 <1>   0.0800 
 30 H        2.0880     0.6690     0.7850 H     1 <1>   0.3700 
 31 H        3.1490     3.8160    -0.7460 H     1 <1>   0.1500 
 32 H       -0.5790     5.6860     0.0100 H     1 <1>   0.1500 
 33 H       -4.6180    -1.4450     1.9040 H     1 <1>   0.0800 
 34 H       -3.9910    -2.6770     0.8200 H     1 <1>   0.0800 
 35 H        1.7330     5.7910    -0.8280 H     1 <1>   0.1500 
 36 H       -5.2890     0.0940    -1.5850 H     1 <1>   0.0800 
 37 H       -6.0610     0.7030    -0.1210 H     1 <1>   0.0800 
 38 H       -6.4720    -1.5090     0.4770 H     1 <1>   0.0800 
 39 H       -5.5110    -2.0640    -0.8780 H     1 <1>   0.0800 
 40 H        3.6410    -0.7550     0.6950 H     1 <1>   0.0800 
 41 H        5.6590     0.4470     1.3720 H     1 <1>   0.0800 
 42 H        6.3060     0.3090    -0.2360 H     1 <1>   0.0800 
 43 H        4.8110    -0.8290    -2.0850 H     1 <1>   0.0800 
 44 H        3.2340    -1.4020    -1.6300 H     1 <1>   0.0800 
 45 H        5.7230    -1.9840     1.6550 H     1 <1>   0.0800 
 46 H        7.2980    -1.4100     1.1860 H     1 <1>   0.0800 
 47 H        4.8770    -3.2560    -1.8080 H     1 <1>   0.0800 
 48 H        4.2230    -3.1270    -0.2010 H     1 <1>   0.0800 
 49 H        6.6430    -3.4510    -0.0710 H     1 <1>   0.0800 
 50 H        6.9140    -2.0940    -1.1260 H     1 <1>   0.0800 
@<TRIPOS>BOND
  1   1   2  2   
  2   2   3  am  
  3   2   4  1   
  4   3   5  1   
  5   3  25  1   
  6   4   6  ar  
  7   4   7  ar  
  8   5   8  1   
  9   5  26  1   
 10   5  27  1   
 11   6   9  1   
 12   6  10  ar  
 13   7  11  ar  
 14   7  28  1   
 15   8  12  1   
 16   8  13  1   
 17   8  29  1   
 18   9  14  am  
 19   9  30  1   
 20  10  15  ar  
 21  10  31  1   
 22  11  15  ar  
 23  11  32  1   
 24  12  16  1   
 25  13  17  1   
 26  13  33  1   
 27  13  34  1   
 28  14  18  2   
 29  14  19  1   
 30  15  35  1   
 31  16  17  1   
 32  16  36  1   
 33  16  37  1   
 34  17  38  1   
 35  17  39  1   
 36  19  20  1   
 37  19  21  1   
 38  19  40  1   
 39  20  22  1   
 40  20  41  1   
 41  20  42  1   
 42  21  23  1   
 43  21  43  1   
 44  21  44  1   
 45  22  24  1   
 46  22  45  1   
 47  22  46  1   
 48  23  24  1   
 49  23  47  1   
 50  23  48  1   
 51  24  49  1   
 52  24  50  1   
@<TRIPOS>SUBSTRUCTURE
  1 ****   2 GROUP 4 **** **** 0

# MOE 2024.06 (io_trps.svl 2023.06)
