@<TRIPOS>MOLECULE
NONAME
49 52 1 0 0 
SMALL
USER_CHARGES


@<TRIPOS>ATOM
  1 O       -0.0450     0.5170     1.3220 O.2   1 <1>  -0.5700 
  2 C       -0.0130     1.7110     1.0930 C.2   1 <1>   0.5440 
  3 N        1.1180     2.4340     1.4210 N.am  1 <1>  -0.6600 
  4 C       -1.1650     2.3470     0.4830 C.ar  1 <1>   0.0860 
  5 C        2.3470     1.7710     1.9370 C.3   1 <1>   0.1400 
  6 C        1.2270     3.9100     1.2570 C.3   1 <1>   0.1400 
  7 C       -1.3150     2.4410    -0.9060 C.ar  1 <1>  -0.1440 
  8 C       -2.1560     2.9020     1.2910 C.ar  1 <1>  -0.1500 
  9 C        3.5220     2.0810     1.0050 C.3   1 <1>  -0.1600 
 10 C        2.4000     4.2420     0.3310 C.3   1 <1>  -0.1600 
 11 C       -2.4150     3.0870    -1.4470 C.ar  1 <1>  -0.1500 
 12 C       -0.2750     1.8270    -1.8340 C.3   1 <1>  -0.0970 
 13 C       -3.2520     3.5450     0.7480 C.ar  1 <1>  -0.1500 
 14 C        3.7140     3.5970     0.8130 C.3   1 <1>  -0.0190 
 15 C       -3.3810     3.6400    -0.6250 C.ar  1 <1>  -0.1500 
 16 C        4.8710     3.8840    -0.1440 C.2   1 <1>   0.5690 
 17 O        4.7180     3.6800    -1.3230 O.2   1 <1>  -0.5700 
 18 N        6.0410     4.3450     0.3970 N.am  1 <1>  -0.5470 
 19 C        7.2570     4.7080    -0.2090 C.ar  1 <1>   0.1170 
 20 C        8.4100     4.6950     0.5740 C.ar  1 <1>  -0.1500 
 21 C        7.3510     5.0950    -1.5510 C.ar  1 <1>  -0.1500 
 22 C        9.6080     5.0610    -0.0040 C.ar  1 <1>   0.0820 
 23 C        8.5650     5.4600    -2.1180 C.ar  1 <1>  -0.1500 
 24 O       10.8180     5.1160     0.5630 O.3   1 <1>  -0.3630 
 25 C        9.6860     5.4330    -1.3140 C.ar  1 <1>   0.0820 
 26 C       11.7250     5.5460    -0.4520 C.3   1 <1>   0.4000 
 27 O       10.9500     5.7400    -1.6330 O.3   1 <1>  -0.3620 
 28 H        2.2120     0.7050     1.9980 H     1 <1>   0.0800 
 29 H        2.5510     2.1360     2.9290 H     1 <1>   0.0800 
 30 H        1.3850     4.3550     2.2240 H     1 <1>   0.0800 
 31 H        0.3220     4.3250     0.8470 H     1 <1>   0.0800 
 32 H       -2.0560     2.8220     2.3590 H     1 <1>   0.1500 
 33 H        3.3360     1.6150     0.0520 H     1 <1>   0.0800 
 34 H        4.4180     1.6460     1.4100 H     1 <1>   0.0800 
 35 H        2.5190     5.3100     0.2780 H     1 <1>   0.0800 
 36 H        2.1660     3.8950    -0.6600 H     1 <1>   0.0800 
 37 H       -2.5300     3.1620    -2.5140 H     1 <1>   0.1500 
 38 H        0.6860     2.2780    -1.6680 H     1 <1>   0.0800 
 39 H       -0.5420     1.9650    -2.8650 H     1 <1>   0.0800 
 40 H       -0.1940     0.7710    -1.6430 H     1 <1>   0.0800 
 41 H       -4.0050     3.9670     1.3910 H     1 <1>   0.1500 
 42 H        3.9530     4.0240     1.7710 H     1 <1>   0.0800 
 43 H       -4.2330     4.1390    -1.0540 H     1 <1>   0.1500 
 44 H        6.0570     4.3910     1.4130 H     1 <1>   0.3700 
 45 H        8.3880     4.4050     1.6070 H     1 <1>   0.1500 
 46 H        6.4700     5.1180    -2.1660 H     1 <1>   0.1500 
 47 H        8.6420     5.7550    -3.1490 H     1 <1>   0.1500 
 48 H       12.4610     4.7820    -0.6250 H     1 <1>   0.0800 
 49 H       12.1770     6.4770    -0.1600 H     1 <1>   0.0800 
@<TRIPOS>BOND
  1   1   2  2   
  2   2   3  am  
  3   2   4  1   
  4   3   5  1   
  5   3   6  1   
  6   4   7  ar  
  7   4   8  ar  
  8   5   9  1   
  9   5  28  1   
 10   5  29  1   
 11   6  10  1   
 12   6  30  1   
 13   6  31  1   
 14   7  11  ar  
 15   7  12  1   
 16   8  13  ar  
 17   8  32  1   
 18   9  14  1   
 19   9  33  1   
 20   9  34  1   
 21  10  14  1   
 22  10  35  1   
 23  10  36  1   
 24  11  15  ar  
 25  11  37  1   
 26  12  38  1   
 27  12  39  1   
 28  12  40  1   
 29  13  15  ar  
 30  13  41  1   
 31  14  16  1   
 32  14  42  1   
 33  15  43  1   
 34  16  17  2   
 35  16  18  am  
 36  18  19  1   
 37  18  44  1   
 38  19  20  ar  
 39  19  21  ar  
 40  20  22  ar  
 41  20  45  1   
 42  21  23  ar  
 43  21  46  1   
 44  22  24  1   
 45  22  25  ar  
 46  23  25  ar  
 47  23  47  1   
 48  24  26  1   
 49  25  27  1   
 50  26  27  1   
 51  26  48  1   
 52  26  49  1   
@<TRIPOS>SUBSTRUCTURE
  1 ****  14 GROUP 4 **** **** 0

# MOE 2024.06 (io_trps.svl 2023.06)
