@<TRIPOS>MOLECULE
NONAME
46 47 1 0 0 
SMALL
USER_CHARGES


@<TRIPOS>ATOM
  1 S        0.7540     1.1590    -1.5980 S.o2  1 <1>   1.3330 
  2 O        1.0540     0.1140    -0.6520 O.2   1 <1>  -0.6500 
  3 O        1.7670     1.6300    -2.5130 O.2   1 <1>  -0.6500 
  4 N        0.2110     2.5480    -0.7270 N.am  1 <1>  -0.6930 
  5 C       -0.6800     0.7050    -2.5500 C.3   1 <1>  -0.1350 
  6 C       -1.0210     2.5360    -0.0790 C.ar  1 <1>   0.1990 
  7 C        1.2820     3.4060    -0.1300 C.3   1 <1>   0.2570 
  8 C       -2.0570     3.3740    -0.4960 C.ar  1 <1>  -0.1440 
  9 C       -1.2390     1.6730     0.9890 C.ar  1 <1>  -0.1500 
 10 C        2.0310     2.7770     1.0580 C.2   1 <1>   0.5690 
 11 C       -3.2820     3.3200     0.1480 C.ar  1 <1>  -0.1500 
 12 C       -1.8630     4.3530    -1.6480 C.3   1 <1>  -0.0970 
 13 C       -2.4630     1.6190     1.6290 C.ar  1 <1>  -0.1440 
 14 O        1.5380     2.9470     2.1520 O.2   1 <1>  -0.5700 
 15 N        3.2090     2.0730     0.9170 N.am  1 <1>  -0.6600 
 16 C       -3.4860     2.4470     1.2030 C.ar  1 <1>  -0.1500 
 17 C       -2.6760     0.6710     2.7960 C.3   1 <1>  -0.0970 
 18 C        3.9800     1.8990    -0.3490 C.3   1 <1>   0.1400 
 19 C        3.7450     1.2660     2.0500 C.3   1 <1>   0.1400 
 20 C        5.4540     2.2510    -0.1200 C.3   1 <1>  -0.1600 
 21 C        5.2120     1.6240     2.3050 C.3   1 <1>  -0.1600 
 22 C        6.0600     1.4490     1.0390 C.3   1 <1>  -0.1600 
 23 H       -0.4570    -0.1430    -3.1660 H     1 <1>   0.0800 
 24 H       -0.9810     1.5190    -3.1790 H     1 <1>   0.0800 
 25 H       -1.4930     0.4510    -1.8980 H     1 <1>   0.0800 
 26 H        0.8220     4.3070     0.2330 H     1 <1>   0.0800 
 27 H        1.9700     3.7030    -0.8960 H     1 <1>   0.0800 
 28 H       -0.4310     1.0440     1.3210 H     1 <1>   0.1500 
 29 H       -4.0900     3.9590    -0.1630 H     1 <1>   0.1500 
 30 H       -1.5190     3.8340    -2.5240 H     1 <1>   0.0800 
 31 H       -1.1310     5.0920    -1.3760 H     1 <1>   0.0800 
 32 H       -2.7820     4.8550    -1.8890 H     1 <1>   0.0800 
 33 H       -4.4430     2.4190     1.6940 H     1 <1>   0.1500 
 34 H       -2.5140     1.1950     3.7210 H     1 <1>   0.0800 
 35 H       -1.9880    -0.1540     2.7420 H     1 <1>   0.0800 
 36 H       -3.6770     0.2810     2.7850 H     1 <1>   0.0800 
 37 H        3.6030     2.5250    -1.1330 H     1 <1>   0.0800 
 38 H        3.8930     0.8740    -0.6710 H     1 <1>   0.0800 
 39 H        3.6610     0.2220     1.7990 H     1 <1>   0.0800 
 40 H        3.1750     1.4340     2.9470 H     1 <1>   0.0800 
 41 H        5.5300     3.3040     0.0900 H     1 <1>   0.0800 
 42 H        6.0080     2.0560    -1.0210 H     1 <1>   0.0800 
 43 H        5.5980     0.9980     3.0890 H     1 <1>   0.0800 
 44 H        5.2640     2.6440     2.6440 H     1 <1>   0.0800 
 45 H        7.0670     1.7780     1.2250 H     1 <1>   0.0800 
 46 H        6.0920     0.4060     0.7720 H     1 <1>   0.0800 
@<TRIPOS>BOND
  1   1   2  2   
  2   1   3  2   
  3   1   4  am  
  4   1   5  1   
  5   4   6  1   
  6   4   7  1   
  7   5  23  1   
  8   5  24  1   
  9   5  25  1   
 10   6   8  ar  
 11   6   9  ar  
 12   7  10  1   
 13   7  26  1   
 14   7  27  1   
 15   8  11  ar  
 16   8  12  1   
 17   9  13  ar  
 18   9  28  1   
 19  10  14  2   
 20  10  15  am  
 21  11  16  ar  
 22  11  29  1   
 23  12  30  1   
 24  12  31  1   
 25  12  32  1   
 26  13  16  ar  
 27  13  17  1   
 28  15  18  1   
 29  15  19  1   
 30  16  33  1   
 31  17  34  1   
 32  17  35  1   
 33  17  36  1   
 34  18  20  1   
 35  18  37  1   
 36  18  38  1   
 37  19  21  1   
 38  19  39  1   
 39  19  40  1   
 40  20  22  1   
 41  20  41  1   
 42  20  42  1   
 43  21  22  1   
 44  21  43  1   
 45  21  44  1   
 46  22  45  1   
 47  22  46  1   
@<TRIPOS>SUBSTRUCTURE
  1 ****   4 GROUP 4 **** **** 0

# MOE 2024.06 (io_trps.svl 2023.06)
