@<TRIPOS>MOLECULE
NONAME
43 44 1 0 0 
SMALL
USER_CHARGES


@<TRIPOS>ATOM
  1 S        0.3320     1.1630    -1.9550 S.o2  1 <1>   1.3330 
  2 O        1.6590     1.3420    -2.4990 O.2   1 <1>  -0.6500 
  3 O       -0.8180     1.0630    -2.8160 O.2   1 <1>  -0.6500 
  4 N        0.0720     2.4540    -0.8320 N.am  1 <1>  -0.6930 
  5 C        0.3440    -0.2550    -0.8790 C.3   1 <1>  -0.1350 
  6 C       -1.1700     2.6750    -0.2340 C.ar  1 <1>   0.1990 
  7 C        1.2580     3.2270    -0.3590 C.3   1 <1>   0.2570 
  8 C       -2.2380     3.2960    -0.8860 C.ar  1 <1>   0.1900 
  9 C       -1.3800     2.2710     1.0810 C.ar  1 <1>  -0.1500 
 10 C        2.2500     2.4000     0.4650 C.2   1 <1>   0.5690 
 11 F       -2.0780     3.7420    -2.1080 F     1 <1>  -0.1900 
 12 C       -3.4680     3.4890    -0.2890 C.ar  1 <1>  -0.1500 
 13 C       -2.6070     2.4600     1.6980 C.ar  1 <1>  -0.1500 
 14 O        2.1420     2.3840     1.6680 O.2   1 <1>  -0.5700 
 15 N        3.2170     1.6950    -0.1780 N.am  1 <1>  -0.7300 
 16 C       -3.6530     3.0630     1.0160 C.ar  1 <1>  -0.1500 
 17 C        4.2960     0.9230     0.4550 C.3   1 <1>   0.2200 
 18 C        5.6400     1.4720    -0.0360 C.3   1 <1>  -0.1600 
 19 C        4.1310    -0.5560     0.0890 C.3   1 <1>  -0.1600 
 20 C        6.8120     0.6360     0.4990 C.3   1 <1>  -0.1600 
 21 C        5.3030    -1.3960     0.6190 C.3   1 <1>  -0.1600 
 22 C        6.6490    -0.8450     0.1290 C.3   1 <1>  -0.1600 
 23 H        0.5590    -1.1410    -1.4420 H     1 <1>   0.0800 
 24 H       -0.6140    -0.3700    -0.4120 H     1 <1>   0.0800 
 25 H        1.0870    -0.1420    -0.1150 H     1 <1>   0.0800 
 26 H        0.9250     4.0500     0.2470 H     1 <1>   0.0800 
 27 H        1.7700     3.6380    -1.2110 H     1 <1>   0.0800 
 28 H       -0.5770     1.8070     1.6260 H     1 <1>   0.1500 
 29 H       -4.2620     3.9660    -0.8360 H     1 <1>   0.1500 
 30 H       -2.7490     2.1360     2.7160 H     1 <1>   0.1500 
 31 H        3.1740     1.6260    -1.2060 H     1 <1>   0.3700 
 32 H       -4.6050     3.2040     1.5000 H     1 <1>   0.1500 
 33 H        4.2410     1.0310     1.5260 H     1 <1>   0.0800 
 34 H        5.7500     2.4890     0.2950 H     1 <1>   0.0800 
 35 H        5.6630     1.4570    -1.1120 H     1 <1>   0.0800 
 36 H        4.0820    -0.6580    -0.9810 H     1 <1>   0.0800 
 37 H        3.2160    -0.9270     0.5140 H     1 <1>   0.0800 
 38 H        6.8600     0.7320     1.5700 H     1 <1>   0.0800 
 39 H        7.7370     1.0090     0.0930 H     1 <1>   0.0800 
 40 H        5.1920    -2.4160     0.2950 H     1 <1>   0.0800 
 41 H        5.2880    -1.3890     1.6960 H     1 <1>   0.0800 
 42 H        7.4510    -1.4150     0.5640 H     1 <1>   0.0800 
 43 H        6.7110    -0.9540    -0.9410 H     1 <1>   0.0800 
@<TRIPOS>BOND
  1   1   2  2   
  2   1   3  2   
  3   1   4  am  
  4   1   5  1   
  5   4   6  1   
  6   4   7  1   
  7   5  23  1   
  8   5  24  1   
  9   5  25  1   
 10   6   8  ar  
 11   6   9  ar  
 12   7  10  1   
 13   7  26  1   
 14   7  27  1   
 15   8  11  1   
 16   8  12  ar  
 17   9  13  ar  
 18   9  28  1   
 19  10  14  2   
 20  10  15  am  
 21  12  16  ar  
 22  12  29  1   
 23  13  16  ar  
 24  13  30  1   
 25  15  17  1   
 26  15  31  1   
 27  16  32  1   
 28  17  18  1   
 29  17  19  1   
 30  17  33  1   
 31  18  20  1   
 32  18  34  1   
 33  18  35  1   
 34  19  21  1   
 35  19  36  1   
 36  19  37  1   
 37  20  22  1   
 38  20  38  1   
 39  20  39  1   
 40  21  22  1   
 41  21  40  1   
 42  21  41  1   
 43  22  42  1   
 44  22  43  1   
@<TRIPOS>SUBSTRUCTURE
  1 ****  10 GROUP 4 **** **** 0

# MOE 2024.06 (io_trps.svl 2023.06)
