@<TRIPOS>MOLECULE
NONAME
23 22 1 0 0 
SMALL
USER_CHARGES


@<TRIPOS>ATOM
  1 P       -0.0790    -0.1390     0.5000 P.3   1 <1>   0.9710 
  2 O        0.2120     0.1720     1.8960 O.2   1 <1>  -0.7000 
  3 O       -0.9570     0.9820    -0.2360 O.3   1 <1>  -0.5510 
  4 C        1.2350    -0.5960    -0.5660 C.3   1 <1>  -0.2660 
  5 C       -1.1520    -1.5570     0.3810 C.3   1 <1>  -0.1600 
  6 C       -0.4700     2.2650    -0.4050 C.3   1 <1>   0.1200 
  7 C        2.3980     0.3030    -0.3740 C.2   1 <1>   0.9060 
  8 C       -2.4950    -1.4230     1.1180 C.3   1 <1>  -0.2400 
  9 C       -1.6610     3.1820    -0.6620 C.3   1 <1>  -0.2400 
 10 O        2.3840     1.4160    -0.9040 O.co2 1 <1>  -0.9000 
 11 O        3.3830    -0.1380     0.2200 O.co2 1 <1>  -0.9000 
 12 H        0.9550    -0.5510    -1.5980 H     1 <1>   0.0800 
 13 H        1.5800    -1.5880    -0.3570 H     1 <1>   0.0800 
 14 H       -0.6500    -2.4190     0.7800 H     1 <1>   0.0800 
 15 H       -1.3650    -1.7690    -0.6500 H     1 <1>   0.0800 
 16 H        0.2000     2.2710    -1.2460 H     1 <1>   0.0800 
 17 H        0.0620     2.5590     0.4860 H     1 <1>   0.0800 
 18 H       -2.3210    -1.2420     2.1650 H     1 <1>   0.0800 
 19 H       -3.0750    -2.3220     1.0110 H     1 <1>   0.0800 
 20 H       -3.0550    -0.5960     0.7180 H     1 <1>   0.0800 
 21 H       -2.1810     2.8680    -1.5480 H     1 <1>   0.0800 
 22 H       -1.3130     4.1880    -0.8030 H     1 <1>   0.0800 
 23 H       -2.3280     3.1600     0.1800 H     1 <1>   0.0800 
@<TRIPOS>BOND
  1   1   2  2   
  2   1   3  1   
  3   1   4  1   
  4   1   5  1   
  5   3   6  1   
  6   4   7  1   
  7   4  12  1   
  8   4  13  1   
  9   5   8  1   
 10   5  14  1   
 11   5  15  1   
 12   6   9  1   
 13   6  16  1   
 14   6  17  1   
 15   7  10  ar  
 16   7  11  ar  
 17   8  18  1   
 18   8  19  1   
 19   8  20  1   
 20   9  21  1   
 21   9  22  1   
 22   9  23  1   
@<TRIPOS>SUBSTRUCTURE
  1 ****   1 GROUP 4 **** **** 0

# MOE 2024.06 (io_trps.svl 2023.06)
