@<TRIPOS>MOLECULE
NONAME
49 51 1 0 0 
SMALL
USER_CHARGES


@<TRIPOS>ATOM
  1 O       -0.0560     0.5840    -1.3290 O.2   1 <1>  -0.5700 
  2 C       -0.0170     1.7790    -1.1020 C.2   1 <1>   0.5440 
  3 N        1.0990     2.5030    -1.4750 N.am  1 <1>  -0.6600 
  4 C       -1.1450     2.4140    -0.4490 C.ar  1 <1>   0.0860 
  5 C        1.2110     3.9800    -1.3190 C.3   1 <1>   0.1400 
  6 C        2.3090     1.8420    -2.0360 C.3   1 <1>   0.1400 
  7 C       -1.2410     2.5130     0.9440 C.ar  1 <1>  -0.1440 
  8 C       -2.1690     2.9640    -1.2190 C.ar  1 <1>  -0.1500 
  9 C        2.4190     4.3190    -0.4430 C.3   1 <1>  -0.1600 
 10 C        3.5190     2.1580    -1.1540 C.3   1 <1>  -0.1600 
 11 C       -2.3200     3.1580     1.5260 C.ar  1 <1>  -0.1500 
 12 C       -0.1620     1.9040     1.8320 C.3   1 <1>  -0.0970 
 13 C       -3.2450     3.6050    -0.6350 C.ar  1 <1>  -0.1500 
 14 C        3.7140     3.6750    -0.9760 C.3   1 <1>  -0.0190 
 15 C       -3.3190     3.7050     0.7420 C.ar  1 <1>  -0.1500 
 16 C        4.9090     3.9710    -0.0690 C.2   1 <1>   0.5690 
 17 O        4.8100     3.7550     1.1140 O.2   1 <1>  -0.5700 
 18 N        6.0450     4.4550    -0.6600 N.am  1 <1>  -0.5470 
 19 C        7.2820     4.8390    -0.1180 C.ar  1 <1>   0.1170 
 20 C        8.3790     4.9310    -0.9670 C.ar  1 <1>  -0.1500 
 21 C        7.4670     5.1500     1.2260 C.ar  1 <1>  -0.1500 
 22 C        9.6200     5.3170    -0.4930 C.ar  1 <1>  -0.1500 
 23 C        8.7070     5.5340     1.7030 C.ar  1 <1>  -0.1500 
 24 C        9.7920     5.6220     0.8470 C.ar  1 <1>  -0.1430 
 25 C       11.1520     6.0420     1.3730 C.3   1 <1>  -0.0970 
 26 H        0.3220     4.3940    -0.8750 H     1 <1>   0.0800 
 27 H        1.3300     4.4230    -2.2930 H     1 <1>   0.0800 
 28 H        2.4720     2.2020    -3.0370 H     1 <1>   0.0800 
 29 H        2.1740     0.7740    -2.0870 H     1 <1>   0.0800 
 30 H       -2.1120     2.8810    -2.2900 H     1 <1>   0.1500 
 31 H        2.2270     3.9740     0.5580 H     1 <1>   0.0800 
 32 H        2.5370     5.3870    -0.3980 H     1 <1>   0.0800 
 33 H        4.4000     1.7240    -1.5920 H     1 <1>   0.0800 
 34 H        3.3730     1.6960    -0.1920 H     1 <1>   0.0800 
 35 H       -2.3930     3.2360     2.5970 H     1 <1>   0.1500 
 36 H        0.7900     2.3580     1.6270 H     1 <1>   0.0800 
 37 H       -0.0870     0.8480     1.6410 H     1 <1>   0.0800 
 38 H       -0.3890     2.0450     2.8730 H     1 <1>   0.0800 
 39 H       -4.0250     4.0230    -1.2480 H     1 <1>   0.1500 
 40 H        3.9120     4.0990    -1.9450 H     1 <1>   0.0800 
 41 H       -4.1550     4.2030     1.2030 H     1 <1>   0.1500 
 42 H        6.0070     4.5170    -1.6730 H     1 <1>   0.3700 
 43 H        8.2690     4.6970    -2.0090 H     1 <1>   0.1500 
 44 H        6.6420     5.0960     1.9120 H     1 <1>   0.1500 
 45 H       10.4540     5.3770    -1.1700 H     1 <1>   0.1500 
 46 H        8.8220     5.7650     2.7480 H     1 <1>   0.1500 
 47 H       11.6950     5.1770     1.7070 H     1 <1>   0.0800 
 48 H       11.0410     6.7230     2.1980 H     1 <1>   0.0800 
 49 H       11.7190     6.5340     0.6030 H     1 <1>   0.0800 
@<TRIPOS>BOND
  1   1   2  2   
  2   2   3  am  
  3   2   4  1   
  4   3   5  1   
  5   3   6  1   
  6   4   7  ar  
  7   4   8  ar  
  8   5   9  1   
  9   5  26  1   
 10   5  27  1   
 11   6  10  1   
 12   6  28  1   
 13   6  29  1   
 14   7  11  ar  
 15   7  12  1   
 16   8  13  ar  
 17   8  30  1   
 18   9  14  1   
 19   9  31  1   
 20   9  32  1   
 21  10  14  1   
 22  10  33  1   
 23  10  34  1   
 24  11  15  ar  
 25  11  35  1   
 26  12  36  1   
 27  12  37  1   
 28  12  38  1   
 29  13  15  ar  
 30  13  39  1   
 31  14  16  1   
 32  14  40  1   
 33  15  41  1   
 34  16  17  2   
 35  16  18  am  
 36  18  19  1   
 37  18  42  1   
 38  19  20  ar  
 39  19  21  ar  
 40  20  22  ar  
 41  20  43  1   
 42  21  23  ar  
 43  21  44  1   
 44  22  24  ar  
 45  22  45  1   
 46  23  24  ar  
 47  23  46  1   
 48  24  25  1   
 49  25  47  1   
 50  25  48  1   
 51  25  49  1   
@<TRIPOS>SUBSTRUCTURE
  1 ****  14 GROUP 4 **** **** 0

# MOE 2024.06 (io_trps.svl 2023.06)
