@<TRIPOS>MOLECULE
NONAME
54 56 1 0 0 
SMALL
USER_CHARGES


@<TRIPOS>ATOM
  1 CL      -0.5080    -0.2500     1.8300 Cl    1 <1>  -0.1770 
  2 C        0.1200     1.2570     1.2120 C.ar  1 <1>   0.1770 
  3 C       -0.6700     2.3860     1.2440 C.ar  1 <1>  -0.1500 
  4 C        1.4030     1.2930     0.7040 C.ar  1 <1>  -0.1500 
  5 C       -0.1830     3.5950     0.7540 C.ar  1 <1>   0.1170 
  6 C        1.8990     2.4900     0.2200 C.ar  1 <1>  -0.1500 
  7 N       -0.9570     4.7680     0.7830 N.am  1 <1>  -0.5470 
  8 C        1.1180     3.6370     0.2420 C.ar  1 <1>  -0.1430 
  9 C       -2.3170     4.9420     0.7470 C.2   1 <1>   0.5690 
 10 C        1.7110     4.9300    -0.3090 C.3   1 <1>  -0.0960 
 11 O       -3.0910     4.0170     0.6650 O.2   1 <1>  -0.5700 
 12 C       -2.8490     6.3890     0.7920 C.3   1 <1>   0.1710 
 13 N       -4.2630     6.5940     0.3550 N.3   1 <1>  -0.8100 
 14 C       -4.7680     7.9600     0.6120 C.3   1 <1>   0.1100 
 15 C       -4.5120     6.1930    -1.0510 C.3   1 <1>   0.1100 
 16 C       -6.2400     8.1350     0.1530 C.3   1 <1>   0.3430 
 17 C       -6.0220     6.2070    -1.3900 C.3   1 <1>   0.3430 
 18 N       -6.8320     6.8300    -0.2870 N.4   1 <1>  -0.9590 
 19 C       -8.2830     6.8940    -0.5540 C.3   1 <1>   0.4810 
 20 C       -8.8290     5.4890    -0.4860 C.2   1 <1>  -0.2880 
 21 C       -9.6460     5.0330     0.4800 C.2   1 <1>  -0.1780 
 22 C      -10.2110     3.7080     0.6090 C.ar  1 <1>   0.0280 
 23 C       -9.6850     2.6030    -0.0580 C.ar  1 <1>  -0.1500 
 24 C      -11.3210     3.5010     1.4250 C.ar  1 <1>  -0.1500 
 25 C      -10.2480     1.3470     0.0790 C.ar  1 <1>  -0.1500 
 26 C      -11.8890     2.2480     1.5660 C.ar  1 <1>  -0.1500 
 27 C      -11.3530     1.1670     0.8910 C.ar  1 <1>  -0.1500 
 28 H       -1.6590     2.3130     1.6550 H     1 <1>   0.1500 
 29 H        1.9990     0.3990     0.6910 H     1 <1>   0.1500 
 30 H        2.9000     2.5170    -0.1750 H     1 <1>   0.1500 
 31 H       -0.3970     5.6170     0.7870 H     1 <1>   0.3700 
 32 H        2.6810     4.7540    -0.7410 H     1 <1>   0.0800 
 33 H        1.8220     5.6520     0.4790 H     1 <1>   0.0800 
 34 H        1.0750     5.3320    -1.0770 H     1 <1>   0.0800 
 35 H       -2.2060     7.0050     0.1890 H     1 <1>   0.0800 
 36 H       -2.7590     6.7190     1.8110 H     1 <1>   0.0800 
 37 H       -4.7100     8.1640     1.6680 H     1 <1>   0.0800 
 38 H       -4.1510     8.6850     0.1070 H     1 <1>   0.0800 
 39 H       -3.9880     6.8550    -1.7190 H     1 <1>   0.0800 
 40 H       -4.1420     5.1970    -1.2300 H     1 <1>   0.0800 
 41 H       -6.2730     8.8420    -0.6590 H     1 <1>   0.0800 
 42 H       -6.8120     8.5450     0.9690 H     1 <1>   0.0800 
 43 H       -6.3440     5.1900    -1.5430 H     1 <1>   0.0800 
 44 H       -6.1730     6.7410    -2.3130 H     1 <1>   0.0800 
 45 H       -6.6800     6.1910     0.5110 H     1 <1>   0.4500 
 46 H       -8.7650     7.4940     0.2010 H     1 <1>   0.0800 
 47 H       -8.4770     7.3320    -1.5190 H     1 <1>   0.0800 
 48 H       -8.5120     4.8720    -1.3060 H     1 <1>   0.1500 
 49 H       -9.9520     5.6930     1.2750 H     1 <1>   0.1500 
 50 H       -8.8230     2.7140    -0.6870 H     1 <1>   0.1500 
 51 H      -11.7520     4.3300     1.9560 H     1 <1>   0.1500 
 52 H       -9.8270     0.5060    -0.4450 H     1 <1>   0.1500 
 53 H      -12.7480     2.1120     2.2000 H     1 <1>   0.1500 
 54 H      -11.7930     0.1900     0.9980 H     1 <1>   0.1500 
@<TRIPOS>BOND
  1   1   2  1   
  2   2   3  ar  
  3   2   4  ar  
  4   3   5  ar  
  5   3  28  1   
  6   4   6  ar  
  7   4  29  1   
  8   5   7  1   
  9   5   8  ar  
 10   6   8  ar  
 11   6  30  1   
 12   7   9  am  
 13   7  31  1   
 14   8  10  1   
 15   9  11  2   
 16   9  12  1   
 17  10  32  1   
 18  10  33  1   
 19  10  34  1   
 20  12  13  1   
 21  12  35  1   
 22  12  36  1   
 23  13  14  1   
 24  13  15  1   
 25  14  16  1   
 26  14  37  1   
 27  14  38  1   
 28  15  17  1   
 29  15  39  1   
 30  15  40  1   
 31  16  18  1   
 32  16  41  1   
 33  16  42  1   
 34  17  18  1   
 35  17  43  1   
 36  17  44  1   
 37  18  19  1   
 38  18  45  1   
 39  19  20  1   
 40  19  46  1   
 41  19  47  1   
 42  20  21  2   
 43  20  48  1   
 44  21  22  1   
 45  21  49  1   
 46  22  23  ar  
 47  22  24  ar  
 48  23  25  ar  
 49  23  50  1   
 50  24  26  ar  
 51  24  51  1   
 52  25  27  ar  
 53  25  52  1   
 54  26  27  ar  
 55  26  53  1   
 56  27  54  1   
@<TRIPOS>SUBSTRUCTURE
  1 ****  11 GROUP 4 **** **** 0

# MOE 2024.06 (io_trps.svl 2023.06)
