@<TRIPOS>MOLECULE
NONAME
32 32 1 0 0 
SMALL
USER_CHARGES


@<TRIPOS>ATOM
  1 CL       0.7520    -0.4280    -1.4800 Cl    1 <1>  -0.1770 
  2 C        2.1070    -1.2310    -0.7500 C.ar  1 <1>   0.7970 
  3 N        1.8990    -2.4560    -0.3680 N.ar  1 <1>  -0.6200 
  4 N        3.1970    -0.5290    -0.6600 N.ar  1 <1>  -0.6200 
  5 C        2.9580    -2.9920     0.1690 C.ar  1 <1>   0.7200 
  6 C        4.1680    -1.1940    -0.1010 C.ar  1 <1>   0.7200 
  7 N        4.1220    -2.4260     0.3290 N.ar  1 <1>  -0.6200 
  8 N        2.7980    -4.2620     0.5880 N.pl3 1 <1>  -0.8690 
  9 N        5.3220    -0.5120     0.0220 N.pl3 1 <1>  -0.8690 
 10 C        3.9080    -5.2350     0.8540 C.3   1 <1>   0.2700 
 11 C        6.6250    -1.1190     0.2990 C.3   1 <1>   0.3470 
 12 C        3.6740    -6.6300     0.2640 C.2   1 <1>   0.6590 
 13 C        7.6450    -0.0030     0.2910 C.2   1 <1>  -0.2880 
 14 O        2.5950    -6.9880    -0.1420 O.2   1 <1>  -0.5700 
 15 O        4.7370    -7.4250     0.2290 O.3   1 <1>  -0.4300 
 16 C        8.6570     0.1210    -0.5740 C.2   1 <1>  -0.3000 
 17 C        4.6620    -8.7290    -0.2970 C.3   1 <1>   0.1200 
 18 C        6.0500    -9.3560    -0.2050 C.3   1 <1>  -0.2400 
 19 H        1.9210    -4.7010     0.2890 H     1 <1>   0.4000 
 20 H        5.3590     0.3760    -0.4750 H     1 <1>   0.4000 
 21 H        4.0280    -5.3370     1.9170 H     1 <1>   0.0800 
 22 H        4.8300    -4.8580     0.4510 H     1 <1>   0.0800 
 23 H        6.8540    -1.8480    -0.4600 H     1 <1>   0.0800 
 24 H        6.6070    -1.6060     1.2600 H     1 <1>   0.0800 
 25 H        7.4660     0.7070     1.0810 H     1 <1>   0.1500 
 26 H        9.3670     0.9300    -0.5520 H     1 <1>   0.1500 
 27 H        8.8630    -0.5680    -1.3750 H     1 <1>   0.1500 
 28 H        4.3340    -8.6660    -1.3210 H     1 <1>   0.0800 
 29 H        3.9450    -9.2900     0.2780 H     1 <1>   0.0800 
 30 H        6.7570    -8.7780    -0.7730 H     1 <1>   0.0800 
 31 H        6.0240   -10.3530    -0.6050 H     1 <1>   0.0800 
 32 H        6.3670    -9.4080     0.8210 H     1 <1>   0.0800 
@<TRIPOS>BOND
  1   1   2  1   
  2   2   3  ar  
  3   2   4  ar  
  4   3   5  ar  
  5   4   6  ar  
  6   5   7  ar  
  7   5   8  1   
  8   6   7  ar  
  9   6   9  1   
 10   8  10  1   
 11   8  19  1   
 12   9  11  1   
 13   9  20  1   
 14  10  12  1   
 15  10  21  1   
 16  10  22  1   
 17  11  13  1   
 18  11  23  1   
 19  11  24  1   
 20  12  14  2   
 21  12  15  1   
 22  13  16  2   
 23  13  25  1   
 24  15  17  1   
 25  16  26  1   
 26  16  27  1   
 27  17  18  1   
 28  17  28  1   
 29  17  29  1   
 30  18  30  1   
 31  18  31  1   
 32  18  32  1   
@<TRIPOS>SUBSTRUCTURE
  1 ****   7 GROUP 4 **** **** 0

# MOE 2024.06 (io_trps.svl 2023.06)
