@<TRIPOS>MOLECULE
NONAME
34 36 1 0 0 
SMALL
USER_CHARGES


@<TRIPOS>ATOM
  1 O       -1.1200     0.3170    -0.9840 O.3   1 <1>  -0.3630 
  2 C       -1.6370    -0.7750    -0.4120 C.ar  1 <1>   0.0820 
  3 C       -1.3350     1.3950    -0.0730 C.3   1 <1>   0.4000 
  4 C       -2.1390    -0.4690     0.8180 C.ar  1 <1>   0.0820 
  5 C       -1.6930    -2.0580    -0.9180 C.ar  1 <1>  -0.1500 
  6 O       -1.9640     0.8300     1.0770 O.3   1 <1>  -0.3630 
  7 C       -2.7280    -1.4310     1.6130 C.ar  1 <1>  -0.1500 
  8 C       -2.2700    -3.0500    -0.1300 C.ar  1 <1>  -0.1440 
  9 C       -2.7900    -2.7300     1.1240 C.ar  1 <1>  -0.1500 
 10 C       -2.3190    -4.4850    -0.6300 C.3   1 <1>  -0.0160 
 11 C       -1.2450    -5.3370     0.0710 C.3   1 <1>  -0.0800 
 12 C        0.1320    -4.6570    -0.0150 C.3   1 <1>   0.3430 
 13 C       -1.2010    -6.7570    -0.5200 C.3   1 <1>  -0.1600 
 14 N        1.1740    -5.5080     0.6280 N.4   1 <1>  -0.9060 
 15 C       -0.0650    -7.5760     0.1110 C.3   1 <1>  -0.1600 
 16 C        1.2830    -6.8560     0.0100 C.3   1 <1>   0.3430 
 17 H       -1.9910     2.1200    -0.5220 H     1 <1>   0.0800 
 18 H       -0.3920     1.8280     0.2060 H     1 <1>   0.0800 
 19 H       -1.2970    -2.2540    -1.8980 H     1 <1>   0.1500 
 20 H       -3.1260    -1.1670     2.5760 H     1 <1>   0.1500 
 21 H       -3.2520    -3.4910     1.7300 H     1 <1>   0.1500 
 22 H       -2.1700    -4.5000    -1.6960 H     1 <1>   0.0800 
 23 H       -3.2960    -4.8950    -0.4370 H     1 <1>   0.0800 
 24 H       -1.5160    -5.4030     1.1110 H     1 <1>   0.0800 
 25 H        0.0880    -3.6960     0.4760 H     1 <1>   0.0800 
 26 H        0.3830    -4.4920    -1.0500 H     1 <1>   0.0800 
 27 H       -1.0500    -6.7050    -1.5860 H     1 <1>   0.0800 
 28 H       -2.1410    -7.2550    -0.3480 H     1 <1>   0.0800 
 29 H        0.9380    -5.6150     1.6220 H     1 <1>   0.4500 
 30 H        2.0810    -5.0280     0.5860 H     1 <1>   0.4500 
 31 H        0.0070    -8.5260    -0.3910 H     1 <1>   0.0800 
 32 H       -0.2870    -7.7780     1.1450 H     1 <1>   0.0800 
 33 H        2.0420    -7.4360     0.5110 H     1 <1>   0.0800 
 34 H        1.5600    -6.7600    -1.0280 H     1 <1>   0.0800 
@<TRIPOS>BOND
  1   1   2  1   
  2   1   3  1   
  3   2   4  ar  
  4   2   5  ar  
  5   3   6  1   
  6   3  17  1   
  7   3  18  1   
  8   4   6  1   
  9   4   7  ar  
 10   5   8  ar  
 11   5  19  1   
 12   7   9  ar  
 13   7  20  1   
 14   8   9  ar  
 15   8  10  1   
 16   9  21  1   
 17  10  11  1   
 18  10  22  1   
 19  10  23  1   
 20  11  12  1   
 21  11  13  1   
 22  11  24  1   
 23  12  14  1   
 24  12  25  1   
 25  12  26  1   
 26  13  15  1   
 27  13  27  1   
 28  13  28  1   
 29  14  16  1   
 30  14  29  1   
 31  14  30  1   
 32  15  16  1   
 33  15  31  1   
 34  15  32  1   
 35  16  33  1   
 36  16  34  1   
@<TRIPOS>SUBSTRUCTURE
  1 ****   8 GROUP 4 **** **** 0

# MOE 2024.06 (io_trps.svl 2023.06)
