@<TRIPOS>MOLECULE
NONAME
43 44 1 0 0 
SMALL
USER_CHARGES


@<TRIPOS>ATOM
  1 CL       0.3420     0.2310    -1.0620 Cl    1 <1>  -0.1770 
  2 C        1.0910    -1.3100    -0.7010 C.ar  1 <1>   0.1770 
  3 C        2.4730    -1.4400    -0.6380 C.ar  1 <1>  -0.1440 
  4 C        0.2440    -2.3820    -0.4910 C.ar  1 <1>  -0.1500 
  5 C        3.0140    -2.7020    -0.3700 C.ar  1 <1>   0.1170 
  6 C        3.3810    -0.2260    -0.8570 C.3   1 <1>  -0.0960 
  7 C        0.7800    -3.6250    -0.2170 C.ar  1 <1>  -0.1500 
  8 N        4.4080    -2.8740    -0.3440 N.am  1 <1>  -0.5470 
  9 C        2.1530    -3.7780    -0.1620 C.ar  1 <1>  -0.1500 
 10 C        5.1930    -3.7670     0.3330 C.2   1 <1>   0.5690 
 11 O        4.7550    -4.6110     1.0760 O.2   1 <1>  -0.5700 
 12 C        6.7040    -3.6660     0.1430 C.3   1 <1>  -0.0190 
 13 C        7.3200    -4.9850    -0.3540 C.3   1 <1>  -0.1600 
 14 C        7.4190    -3.2170     1.4360 C.3   1 <1>  -0.1600 
 15 C        8.8360    -4.8630    -0.5890 C.3   1 <1>   0.1960 
 16 C        8.9040    -3.6090     1.4740 C.3   1 <1>   0.1960 
 17 N        9.4280    -3.7100     0.1110 N.am  1 <1>  -0.8490 
 18 S       11.1210    -3.7690     0.0530 S.o2  1 <1>   1.3330 
 19 O       11.5670    -4.4650     1.2390 O.2   1 <1>  -0.6500 
 20 O       11.4950    -4.2570    -1.2550 O.2   1 <1>  -0.6500 
 21 C       11.5880    -2.0340     0.1580 C.3   1 <1>  -0.0550 
 22 C       13.1050    -1.7800     0.1180 C.3   1 <1>  -0.2400 
 23 H       -0.8210    -2.2410    -0.5430 H     1 <1>   0.1500 
 24 H        2.8710     0.6930    -0.6360 H     1 <1>   0.0800 
 25 H        3.7070    -0.1950    -1.8810 H     1 <1>   0.0800 
 26 H        4.2400    -0.2650    -0.2120 H     1 <1>   0.0800 
 27 H        0.1350    -4.4700    -0.0490 H     1 <1>   0.1500 
 28 H        4.9170    -2.1780    -0.8830 H     1 <1>   0.3700 
 29 H        2.5550    -4.7530     0.0420 H     1 <1>   0.1500 
 30 H        6.9020    -2.9260    -0.6130 H     1 <1>   0.0800 
 31 H        6.8430    -5.3020    -1.2640 H     1 <1>   0.0800 
 32 H        7.1440    -5.7550     0.3790 H     1 <1>   0.0800 
 33 H        6.9410    -3.6590     2.2940 H     1 <1>   0.0800 
 34 H        7.3290    -2.1510     1.5370 H     1 <1>   0.0800 
 35 H        9.0200    -4.7500    -1.6450 H     1 <1>   0.0800 
 36 H        9.3180    -5.7740    -0.2700 H     1 <1>   0.0800 
 37 H        9.0220    -4.5590     1.9730 H     1 <1>   0.0800 
 38 H        9.4520    -2.8720     2.0380 H     1 <1>   0.0800 
 39 H       11.1990    -1.6210     1.0680 H     1 <1>   0.0800 
 40 H       11.1320    -1.5070    -0.6580 H     1 <1>   0.0800 
 41 H       13.5870    -2.2790     0.9410 H     1 <1>   0.0800 
 42 H       13.3100    -0.7260     0.1820 H     1 <1>   0.0800 
 43 H       13.5190    -2.1590    -0.8010 H     1 <1>   0.0800 
@<TRIPOS>BOND
  1   1   2  1   
  2   2   3  ar  
  3   2   4  ar  
  4   3   5  ar  
  5   3   6  1   
  6   4   7  ar  
  7   4  23  1   
  8   5   8  1   
  9   5   9  ar  
 10   6  24  1   
 11   6  25  1   
 12   6  26  1   
 13   7   9  ar  
 14   7  27  1   
 15   8  10  am  
 16   8  28  1   
 17   9  29  1   
 18  10  11  2   
 19  10  12  1   
 20  12  13  1   
 21  12  14  1   
 22  12  30  1   
 23  13  15  1   
 24  13  31  1   
 25  13  32  1   
 26  14  16  1   
 27  14  33  1   
 28  14  34  1   
 29  15  17  1   
 30  15  35  1   
 31  15  36  1   
 32  16  17  1   
 33  16  37  1   
 34  16  38  1   
 35  17  18  am  
 36  18  19  2   
 37  18  20  2   
 38  18  21  1   
 39  21  22  1   
 40  21  39  1   
 41  21  40  1   
 42  22  41  1   
 43  22  42  1   
 44  22  43  1   
@<TRIPOS>SUBSTRUCTURE
  1 ****  12 GROUP 4 **** **** 0

# MOE 2024.06 (io_trps.svl 2023.06)
