@<TRIPOS>MOLECULE
NONAME
51 53 1 0 0 
SMALL
USER_CHARGES


@<TRIPOS>ATOM
  1 O       -0.0260    -3.2370    -1.0460 O.2   1 <1>  -0.5700 
  2 C       -0.0950    -3.1130     0.1620 C.2   1 <1>   0.6900 
  3 N        0.8480    -3.7220     0.9360 N.am  1 <1>  -0.6600 
  4 N       -1.0390    -2.3590     0.7860 N.am  1 <1>  -0.5470 
  5 C        1.3030    -5.0800     0.5180 C.3   1 <1>   0.1400 
  6 C        1.9620    -2.8630     1.4240 C.3   1 <1>   0.1400 
  7 C       -2.0500    -1.5230     0.2860 C.ar  1 <1>   0.1170 
  8 C        2.3900    -4.9740    -0.5720 C.3   1 <1>   0.3430 
  9 C        3.0470    -2.7390     0.3340 C.3   1 <1>   0.3430 
 10 C       -3.1160    -1.1970     1.1180 C.ar  1 <1>  -0.1500 
 11 C       -2.0300    -0.9880    -0.9990 C.ar  1 <1>  -0.1500 
 12 N        3.5300    -4.0840    -0.1520 N.4   1 <1>  -0.9590 
 13 C       -4.1340    -0.3650     0.6870 C.ar  1 <1>  -0.1500 
 14 C       -3.0440    -0.1560    -1.4350 C.ar  1 <1>  -0.1500 
 15 C        4.5210    -3.9290    -1.2500 C.3   1 <1>   0.4860 
 16 C       -4.1020     0.1630    -0.6000 C.ar  1 <1>   0.0820 
 17 C        5.7420    -3.2230    -0.6910 C.ar  1 <1>  -0.1430 
 18 O       -5.0560     0.9890    -1.1070 O.3   1 <1>  -0.3630 
 19 C        6.6790    -3.8850     0.0990 C.ar  1 <1>  -0.1430 
 20 C        5.9110    -1.8740    -0.9750 C.ar  1 <1>  -0.1500 
 21 C       -6.1830     1.3500    -0.3420 C.3   1 <1>   0.0400 
 22 C        7.7550    -3.1750     0.6100 C.ar  1 <1>  -0.1500 
 23 C        6.5830    -5.3720     0.4240 C.3   1 <1>  -0.0970 
 24 C        6.9900    -1.1780    -0.4630 C.ar  1 <1>  -0.1500 
 25 C        7.9100    -1.8290     0.3350 C.ar  1 <1>  -0.1500 
 26 H       -1.0740    -2.5250     1.7880 H     1 <1>   0.3700 
 27 H        0.4640    -5.6330     0.1280 H     1 <1>   0.0800 
 28 H        1.6810    -5.6150     1.3720 H     1 <1>   0.0800 
 29 H        2.3820    -3.2850     2.3210 H     1 <1>   0.0800 
 30 H        1.5880    -1.8810     1.6640 H     1 <1>   0.0800 
 31 H        1.9290    -4.5740    -1.4620 H     1 <1>   0.0800 
 32 H        2.7560    -5.9600    -0.8050 H     1 <1>   0.0800 
 33 H        3.8760    -2.1710     0.7260 H     1 <1>   0.0800 
 34 H        2.6300    -2.1870    -0.4930 H     1 <1>   0.0800 
 35 H       -3.1560    -1.5990     2.1130 H     1 <1>   0.1500 
 36 H       -1.2220    -1.2140    -1.6690 H     1 <1>   0.1500 
 37 H        4.0360    -4.5200     0.6270 H     1 <1>   0.4500 
 38 H       -4.9380    -0.1400     1.3610 H     1 <1>   0.1500 
 39 H       -3.0240     0.2530    -2.4300 H     1 <1>   0.1500 
 40 H        4.0980    -3.3550    -2.0580 H     1 <1>   0.0800 
 41 H        4.8110    -4.8940    -1.6330 H     1 <1>   0.0800 
 42 H        5.2100    -1.3450    -1.6000 H     1 <1>   0.1500 
 43 H       -6.8010     1.9930    -0.9410 H     1 <1>   0.0800 
 44 H       -5.8540     1.8750     0.5380 H     1 <1>   0.0800 
 45 H       -6.7270     0.4600    -0.0810 H     1 <1>   0.0800 
 46 H        8.4900    -3.6640     1.2270 H     1 <1>   0.1500 
 47 H        6.3260    -5.9420    -0.4500 H     1 <1>   0.0800 
 48 H        5.8560    -5.5440     1.1950 H     1 <1>   0.0800 
 49 H        7.5320    -5.7390     0.7770 H     1 <1>   0.0800 
 50 H        7.1190    -0.1320    -0.6840 H     1 <1>   0.1500 
 51 H        8.7520    -1.2910     0.7360 H     1 <1>   0.1500 
@<TRIPOS>BOND
  1   1   2  2   
  2   2   3  am  
  3   2   4  am  
  4   3   5  1   
  5   3   6  1   
  6   4   7  1   
  7   4  26  1   
  8   5   8  1   
  9   5  27  1   
 10   5  28  1   
 11   6   9  1   
 12   6  29  1   
 13   6  30  1   
 14   7  10  ar  
 15   7  11  ar  
 16   8  12  1   
 17   8  31  1   
 18   8  32  1   
 19   9  12  1   
 20   9  33  1   
 21   9  34  1   
 22  10  13  ar  
 23  10  35  1   
 24  11  14  ar  
 25  11  36  1   
 26  12  15  1   
 27  12  37  1   
 28  13  16  ar  
 29  13  38  1   
 30  14  16  ar  
 31  14  39  1   
 32  15  17  1   
 33  15  40  1   
 34  15  41  1   
 35  16  18  1   
 36  17  19  ar  
 37  17  20  ar  
 38  18  21  1   
 39  19  22  ar  
 40  19  23  1   
 41  20  24  ar  
 42  20  42  1   
 43  21  43  1   
 44  21  44  1   
 45  21  45  1   
 46  22  25  ar  
 47  22  46  1   
 48  23  47  1   
 49  23  48  1   
 50  23  49  1   
 51  24  25  ar  
 52  24  50  1   
 53  25  51  1   
@<TRIPOS>SUBSTRUCTURE
  1 ****   2 GROUP 4 **** **** 0

# MOE 2024.06 (io_trps.svl 2023.06)
