@<TRIPOS>MOLECULE
NONAME
46 48 1 0 0 
SMALL
USER_CHARGES


@<TRIPOS>ATOM
  1 O      -15.2620     1.0260    -0.8800 O.3   1 <1>  -0.5600 
  2 C      -14.6910     0.1920     0.0840 C.3   1 <1>   0.1200 
  3 C      -14.9850     2.3870    -0.7240 C.3   1 <1>   0.1200 
  4 C      -13.1560     0.3310     0.0650 C.3   1 <1>   0.3430 
  5 C      -13.4640     2.6290    -0.7800 C.3   1 <1>   0.3430 
  6 N      -12.7250     1.7670     0.2140 N.4   1 <1>  -0.9590 
  7 C      -11.2340     1.8770     0.0760 C.3   1 <1>   0.3430 
  8 C      -10.6990     3.2640     0.4450 C.3   1 <1>   0.1200 
  9 O       -9.3010     3.2250     0.2980 O.3   1 <1>  -0.3630 
 10 C       -8.5260     4.3190     0.5290 C.ar  1 <1>   0.0820 
 11 C       -7.1560     4.2000     0.3010 C.ar  1 <1>  -0.1440 
 12 C       -9.0540     5.5310     0.9750 C.ar  1 <1>  -0.1500 
 13 C       -6.3380     5.3030     0.5150 C.ar  1 <1>  -0.1500 
 14 C       -6.5870     2.8640    -0.1850 C.3   1 <1>   0.1270 
 15 C       -8.2250     6.6170     1.1860 C.ar  1 <1>  -0.1500 
 16 C       -6.8680     6.5030     0.9550 C.ar  1 <1>  -0.1500 
 17 C       -5.0640     2.7880    -0.2100 C.ar  1 <1>  -0.1440 
 18 C       -4.3670     3.0110    -1.3880 C.ar  1 <1>  -0.1500 
 19 C       -4.3620     2.4970     0.9500 C.ar  1 <1>  -0.1500 
 20 C       -2.9850     2.9410    -1.4070 C.ar  1 <1>  -0.1500 
 21 C       -2.9800     2.4260     0.9320 C.ar  1 <1>  -0.1500 
 22 C       -2.2900     2.6480    -0.2470 C.ar  1 <1>  -0.1500 
 23 H      -14.9750    -0.8200    -0.1510 H     1 <1>   0.0800 
 24 H      -15.0960     0.4440     1.0490 H     1 <1>   0.0800 
 25 H      -15.4020     2.7220     0.2100 H     1 <1>   0.0800 
 26 H      -15.4740     2.9130    -1.5250 H     1 <1>   0.0800 
 27 H      -12.7960    -0.0630    -0.8720 H     1 <1>   0.0800 
 28 H      -12.7360    -0.2670     0.8570 H     1 <1>   0.0800 
 29 H      -13.2670     3.6710    -0.5890 H     1 <1>   0.0800 
 30 H      -13.1250     2.4060    -1.7790 H     1 <1>   0.0800 
 31 H      -12.9990     2.0660     1.1600 H     1 <1>   0.4500 
 32 H      -10.9490     1.6540    -0.9390 H     1 <1>   0.0800 
 33 H      -10.7630     1.1560     0.7240 H     1 <1>   0.0800 
 34 H      -10.9190     3.5010     1.4710 H     1 <1>   0.0800 
 35 H      -11.0780     4.0200    -0.2190 H     1 <1>   0.0800 
 36 H      -10.1000     5.6600     1.1670 H     1 <1>   0.1500 
 37 H       -5.2770     5.2480     0.3430 H     1 <1>   0.1500 
 38 H       -6.9650     2.6710    -1.1720 H     1 <1>   0.0800 
 39 H       -6.9500     2.0790     0.4540 H     1 <1>   0.0800 
 40 H       -8.6310     7.5530     1.5300 H     1 <1>   0.1500 
 41 H       -6.2200     7.3470     1.1160 H     1 <1>   0.1500 
 42 H       -4.8960     3.2440    -2.2950 H     1 <1>   0.1500 
 43 H       -4.8890     2.3290     1.8730 H     1 <1>   0.1500 
 44 H       -2.4500     3.1150    -2.3240 H     1 <1>   0.1500 
 45 H       -2.4410     2.2000     1.8360 H     1 <1>   0.1500 
 46 H       -1.2160     2.5930    -0.2610 H     1 <1>   0.1500 
@<TRIPOS>BOND
  1   1   2  1   
  2   1   3  1   
  3   2   4  1   
  4   2  23  1   
  5   2  24  1   
  6   3   5  1   
  7   3  25  1   
  8   3  26  1   
  9   4   6  1   
 10   4  27  1   
 11   4  28  1   
 12   5   6  1   
 13   5  29  1   
 14   5  30  1   
 15   6   7  1   
 16   6  31  1   
 17   7   8  1   
 18   7  32  1   
 19   7  33  1   
 20   8   9  1   
 21   8  34  1   
 22   8  35  1   
 23   9  10  1   
 24  10  11  ar  
 25  10  12  ar  
 26  11  13  ar  
 27  11  14  1   
 28  12  15  ar  
 29  12  36  1   
 30  13  16  ar  
 31  13  37  1   
 32  14  17  1   
 33  14  38  1   
 34  14  39  1   
 35  15  16  ar  
 36  15  40  1   
 37  16  41  1   
 38  17  18  ar  
 39  17  19  ar  
 40  18  20  ar  
 41  18  42  1   
 42  19  21  ar  
 43  19  43  1   
 44  20  22  ar  
 45  20  44  1   
 46  21  22  ar  
 47  21  45  1   
 48  22  46  1   
@<TRIPOS>SUBSTRUCTURE
  1 ****   9 GROUP 4 **** **** 0

# MOE 2024.06 (io_trps.svl 2023.06)
