@<TRIPOS>MOLECULE
NONAME
47 49 1 0 0 
SMALL
USER_CHARGES


@<TRIPOS>ATOM
  1 O       -0.4140    -0.7300    -0.6510 O.2   1 <1>  -0.5700 
  2 C       -0.8910    -1.7040    -0.1240 C.2   1 <1>   0.5690 
  3 N       -0.2320    -2.7900     0.3460 N.am  1 <1>  -0.6600 
  4 C       -2.3720    -1.8500     0.0780 C.3   1 <1>  -0.0990 
  5 C        1.2210    -3.0820     0.2730 C.3   1 <1>   0.2200 
  6 C       -1.1500    -3.7990     0.9040 C.3   1 <1>   0.1400 
  7 C       -2.4830    -3.0440     1.0480 C.3   1 <1>  -0.0190 
  8 C        2.0230    -2.0360     1.0570 C.3   1 <1>  -0.1600 
  9 C        1.6830    -3.1660    -1.1870 C.3   1 <1>  -0.1600 
 10 C       -3.7110    -3.9190     0.8310 C.2   1 <1>   0.5690 
 11 C        3.5290    -2.3250     0.9760 C.3   1 <1>  -0.1600 
 12 C        3.1900    -3.4570    -1.2710 C.3   1 <1>  -0.1600 
 13 O       -3.5860    -5.1180     0.8410 O.2   1 <1>  -0.5700 
 14 N       -4.9110    -3.2910     0.6360 N.am  1 <1>  -0.5470 
 15 C        3.9980    -2.4150    -0.4830 C.3   1 <1>  -0.1600 
 16 C       -6.2110    -3.7930     0.4420 C.ar  1 <1>   0.1170 
 17 C       -7.1680    -3.0080    -0.2230 C.ar  1 <1>   0.0860 
 18 C       -6.5860    -5.0440     0.9270 C.ar  1 <1>  -0.1500 
 19 C       -6.8350    -1.7160    -0.7770 C.2   1 <1>   0.5440 
 20 C       -8.4690    -3.4960    -0.3480 C.ar  1 <1>  -0.1500 
 21 C       -7.8740    -5.5160     0.7770 C.ar  1 <1>  -0.1500 
 22 O       -7.4370    -0.7140    -0.4670 O.2   1 <1>  -0.5700 
 23 N       -5.8310    -1.5590    -1.6730 N.am  1 <1>  -0.8000 
 24 C       -8.8230    -4.7370     0.1410 C.ar  1 <1>  -0.1500 
 25 H       -2.8180    -2.0670    -0.8750 H     1 <1>   0.0800 
 26 H       -2.7890    -0.9500     0.4910 H     1 <1>   0.0800 
 27 H        1.3960    -4.0410     0.7300 H     1 <1>   0.0800 
 28 H       -0.8010    -4.1600     1.8560 H     1 <1>   0.0800 
 29 H       -1.2310    -4.6190     0.2100 H     1 <1>   0.0800 
 30 H       -2.5250    -2.6650     2.0530 H     1 <1>   0.0800 
 31 H        1.7110    -2.0390     2.0850 H     1 <1>   0.0800 
 32 H        1.8370    -1.0580     0.6480 H     1 <1>   0.0800 
 33 H        1.4840    -2.2320    -1.6830 H     1 <1>   0.0800 
 34 H        1.1390    -3.9440    -1.6930 H     1 <1>   0.0800 
 35 H        3.7440    -3.2520     1.4790 H     1 <1>   0.0800 
 36 H        4.0720    -1.5430     1.4800 H     1 <1>   0.0800 
 37 H        3.5000    -3.4480    -2.3010 H     1 <1>   0.0800 
 38 H        3.3880    -4.4380    -0.8740 H     1 <1>   0.0800 
 39 H       -4.8490    -2.2740     0.5530 H     1 <1>   0.3700 
 40 H        5.0430    -2.6720    -0.5120 H     1 <1>   0.0800 
 41 H        3.8820    -1.4520    -0.9510 H     1 <1>   0.0800 
 42 H       -5.8690    -5.6610     1.4390 H     1 <1>   0.1500 
 43 H       -9.2080    -2.8850    -0.8390 H     1 <1>   0.1500 
 44 H       -8.1420    -6.4860     1.1600 H     1 <1>   0.1500 
 45 H       -5.7270    -0.6450    -2.1200 H     1 <1>   0.3700 
 46 H       -5.4190    -2.3500    -2.1710 H     1 <1>   0.3700 
 47 H       -9.8320    -5.0980     0.0300 H     1 <1>   0.1500 
@<TRIPOS>BOND
  1   1   2  2   
  2   2   3  am  
  3   2   4  1   
  4   3   5  1   
  5   3   6  1   
  6   4   7  1   
  7   4  25  1   
  8   4  26  1   
  9   5   8  1   
 10   5   9  1   
 11   5  27  1   
 12   6   7  1   
 13   6  28  1   
 14   6  29  1   
 15   7  10  1   
 16   7  30  1   
 17   8  11  1   
 18   8  31  1   
 19   8  32  1   
 20   9  12  1   
 21   9  33  1   
 22   9  34  1   
 23  10  13  2   
 24  10  14  am  
 25  11  15  1   
 26  11  35  1   
 27  11  36  1   
 28  12  15  1   
 29  12  37  1   
 30  12  38  1   
 31  14  16  1   
 32  14  39  1   
 33  15  40  1   
 34  15  41  1   
 35  16  17  ar  
 36  16  18  ar  
 37  17  19  1   
 38  17  20  ar  
 39  18  21  ar  
 40  18  42  1   
 41  19  22  2   
 42  19  23  am  
 43  20  24  ar  
 44  20  43  1   
 45  21  24  ar  
 46  21  44  1   
 47  23  45  1   
 48  23  46  1   
 49  24  47  1   
@<TRIPOS>SUBSTRUCTURE
  1 ****   7 GROUP 4 **** **** 0

# MOE 2024.06 (io_trps.svl 2023.06)
