@<TRIPOS>MOLECULE
NONAME
44 47 1 0 0 
SMALL
USER_CHARGES


@<TRIPOS>ATOM
  1 O       -0.1470     1.7310    -2.1980 O.2   1 <1>  -0.5700 
  2 C        0.2060     2.0810    -1.1010 C.2   1 <1>   0.5690 
  3 N       -0.5650     2.7200    -0.1890 N.am  1 <1>  -0.4200 
  4 C        1.6050     1.8620    -0.5560 C.3   1 <1>  -0.0190 
  5 C        0.1260     3.0210     0.9360 C.2   1 <1>   0.5690 
  6 C       -2.0140     2.9290    -0.3430 C.3   1 <1>   0.2840 
  7 C        1.5610     2.5650     0.8200 C.3   1 <1>  -0.0990 
  8 C        2.6880     2.4110    -1.4990 C.3   1 <1>  -0.0170 
  9 O       -0.3150     3.5870     1.9030 O.2   1 <1>  -0.5700 
 10 C       -2.7490     1.7100     0.1900 C.ar  1 <1>  -0.1440 
 11 C        4.0770     2.2180    -0.9120 C.ar  1 <1>  -0.1440 
 12 C       -3.0380     0.6470    -0.6600 C.ar  1 <1>  -0.1500 
 13 C       -3.1230     1.6520     1.5330 C.ar  1 <1>  -0.1500 
 14 C        4.6430     0.9530    -0.8720 C.ar  1 <1>  -0.1500 
 15 C        4.7890     3.2970    -0.4110 C.ar  1 <1>  -0.1500 
 16 C       -3.7040    -0.4430    -0.1370 C.ar  1 <1>   0.0830 
 17 C       -3.7920     0.5460     2.0410 C.ar  1 <1>  -0.1500 
 18 C        5.9030     0.7580    -0.3290 C.ar  1 <1>  -0.1430 
 19 C        6.0480     3.1090     0.1310 C.ar  1 <1>  -0.1500 
 20 O       -4.0800    -1.5630    -0.7630 O.3   1 <1>  -0.3630 
 21 C       -4.0710    -0.4930     1.1760 C.ar  1 <1>   0.0830 
 22 C        6.6030     1.8430     0.1730 C.ar  1 <1>  -0.1500 
 23 C        6.5160    -0.6300    -0.2880 C.3   1 <1>  -0.0970 
 24 C       -4.7300    -2.3770     0.2120 C.3   1 <1>   0.4000 
 25 O       -4.6970    -1.6460     1.4360 O.3   1 <1>  -0.3630 
 26 H        1.7440     0.8040    -0.4180 H     1 <1>   0.0800 
 27 H       -2.2480     3.0770    -1.3830 H     1 <1>   0.0800 
 28 H       -2.3110     3.8090     0.2000 H     1 <1>   0.0800 
 29 H        2.2070     3.4220     0.8670 H     1 <1>   0.0800 
 30 H        1.8010     1.8860     1.6170 H     1 <1>   0.0800 
 31 H        2.5100     3.4540    -1.6940 H     1 <1>   0.0800 
 32 H        2.6330     1.8950    -2.4430 H     1 <1>   0.0800 
 33 H       -2.7530     0.6550    -1.6980 H     1 <1>   0.1500 
 34 H       -2.8870     2.4710     2.1930 H     1 <1>   0.1500 
 35 H        4.1010     0.1120    -1.2670 H     1 <1>   0.1500 
 36 H        4.3710     4.2880    -0.4390 H     1 <1>   0.1500 
 37 H       -4.0860     0.4870     3.0730 H     1 <1>   0.1500 
 38 H        6.5980     3.9490     0.5190 H     1 <1>   0.1500 
 39 H        7.5830     1.7060     0.5940 H     1 <1>   0.1500 
 40 H        5.7480    -1.3820    -0.2630 H     1 <1>   0.0800 
 41 H        7.1290    -0.7430     0.5880 H     1 <1>   0.0800 
 42 H        7.1240    -0.7840    -1.1610 H     1 <1>   0.0800 
 43 H       -4.1910    -3.3000     0.3280 H     1 <1>   0.0800 
 44 H       -5.7510    -2.5440    -0.0810 H     1 <1>   0.0800 
@<TRIPOS>BOND
  1   1   2  2   
  2   2   3  am  
  3   2   4  1   
  4   3   5  am  
  5   3   6  1   
  6   4   7  1   
  7   4   8  1   
  8   4  26  1   
  9   5   7  1   
 10   5   9  2   
 11   6  10  1   
 12   6  27  1   
 13   6  28  1   
 14   7  29  1   
 15   7  30  1   
 16   8  11  1   
 17   8  31  1   
 18   8  32  1   
 19  10  12  ar  
 20  10  13  ar  
 21  11  14  ar  
 22  11  15  ar  
 23  12  16  ar  
 24  12  33  1   
 25  13  17  ar  
 26  13  34  1   
 27  14  18  ar  
 28  14  35  1   
 29  15  19  ar  
 30  15  36  1   
 31  16  20  1   
 32  16  21  ar  
 33  17  21  ar  
 34  17  37  1   
 35  18  22  ar  
 36  18  23  1   
 37  19  22  ar  
 38  19  38  1   
 39  20  24  1   
 40  21  25  1   
 41  22  39  1   
 42  23  40  1   
 43  23  41  1   
 44  23  42  1   
 45  24  25  1   
 46  24  43  1   
 47  24  44  1   
@<TRIPOS>SUBSTRUCTURE
  1 ****   2 GROUP 4 **** **** 0

# MOE 2024.06 (io_trps.svl 2023.06)
