@<TRIPOS>MOLECULE
NONAME
40 41 1 0 0 
SMALL
USER_CHARGES


@<TRIPOS>ATOM
  1 CL      -2.0450     1.1540     2.0680 Cl    1 <1>  -0.1770 
  2 C       -1.0280     2.1760     1.0830 C.ar  1 <1>   0.1770 
  3 C       -1.4060     2.4560    -0.2190 C.ar  1 <1>  -0.1440 
  4 C        0.1320     2.6970     1.6320 C.ar  1 <1>  -0.1500 
  5 C       -0.5780     3.2880    -0.9510 C.ar  1 <1>   0.1900 
  6 C       -2.6650     1.8730    -0.8240 C.3   1 <1>   0.4860 
  7 C        0.9430     3.5250     0.8700 C.ar  1 <1>  -0.1500 
  8 F       -0.9160     3.5870    -2.1770 F     1 <1>  -0.1900 
  9 C        0.5870     3.8270    -0.4350 C.ar  1 <1>  -0.1500 
 10 N       -3.8580     2.5230    -0.2130 N.4   1 <1>  -0.9590 
 11 C       -5.1080     1.7900    -0.5920 C.3   1 <1>   0.3430 
 12 C       -3.9310     3.9750    -0.5600 C.3   1 <1>   0.3430 
 13 C       -6.3390     2.3910     0.0950 C.3   1 <1>  -0.0190 
 14 C       -5.1230     4.6150     0.1540 C.3   1 <1>  -0.1600 
 15 C       -7.5720     1.6480    -0.3870 C.2   1 <1>   0.6590 
 16 C       -6.4420     3.9040    -0.1830 C.3   1 <1>  -0.1600 
 17 O       -7.5220     0.9020    -1.3290 O.2   1 <1>  -0.5700 
 18 O       -8.6850     1.8720     0.2920 O.3   1 <1>  -0.4300 
 19 C       -9.9000     1.2470    -0.0540 C.3   1 <1>   0.1200 
 20 C      -10.9720     1.7270     0.9190 C.3   1 <1>  -0.2400 
 21 H        0.4010     2.4580     2.6470 H     1 <1>   0.1500 
 22 H       -2.6860     0.8130    -0.6300 H     1 <1>   0.0800 
 23 H       -2.6670     2.0200    -1.8920 H     1 <1>   0.0800 
 24 H        1.8480     3.9330     1.2910 H     1 <1>   0.1500 
 25 H        1.2030     4.4680    -1.0420 H     1 <1>   0.1500 
 26 H       -3.7390     2.4490     0.8070 H     1 <1>   0.4500 
 27 H       -5.0260     0.7490    -0.3170 H     1 <1>   0.0800 
 28 H       -5.2480     1.8380    -1.6600 H     1 <1>   0.0800 
 29 H       -4.0450     4.0920    -1.6260 H     1 <1>   0.0800 
 30 H       -3.0240     4.4770    -0.2610 H     1 <1>   0.0800 
 31 H       -6.2590     2.2250     1.1540 H     1 <1>   0.0800 
 32 H       -5.1920     5.6480    -0.1420 H     1 <1>   0.0800 
 33 H       -4.9540     4.5990     1.2170 H     1 <1>   0.0800 
 34 H       -7.2430     4.3280     0.4000 H     1 <1>   0.0800 
 35 H       -6.6780     4.0630    -1.2230 H     1 <1>   0.0800 
 36 H       -9.7690     0.1800     0.0120 H     1 <1>   0.0800 
 37 H      -10.1490     1.5180    -1.0670 H     1 <1>   0.0800 
 38 H      -10.7090     1.4590     1.9260 H     1 <1>   0.0800 
 39 H      -11.9120     1.2650     0.6780 H     1 <1>   0.0800 
 40 H      -11.0890     2.7940     0.8480 H     1 <1>   0.0800 
@<TRIPOS>BOND
  1   1   2  1   
  2   2   3  ar  
  3   2   4  ar  
  4   3   5  ar  
  5   3   6  1   
  6   4   7  ar  
  7   4  21  1   
  8   5   8  1   
  9   5   9  ar  
 10   6  10  1   
 11   6  22  1   
 12   6  23  1   
 13   7   9  ar  
 14   7  24  1   
 15   9  25  1   
 16  10  11  1   
 17  10  12  1   
 18  10  26  1   
 19  11  13  1   
 20  11  27  1   
 21  11  28  1   
 22  12  14  1   
 23  12  29  1   
 24  12  30  1   
 25  13  15  1   
 26  13  16  1   
 27  13  31  1   
 28  14  16  1   
 29  14  32  1   
 30  14  33  1   
 31  15  17  2   
 32  15  18  1   
 33  16  34  1   
 34  16  35  1   
 35  18  19  1   
 36  19  20  1   
 37  19  36  1   
 38  19  37  1   
 39  20  38  1   
 40  20  39  1   
 41  20  40  1   
@<TRIPOS>SUBSTRUCTURE
  1 ****  10 GROUP 4 **** **** 0

# MOE 2024.06 (io_trps.svl 2023.06)
