@<TRIPOS>MOLECULE
NONAME
32 31 1 0 0 
SMALL
USER_CHARGES


@<TRIPOS>ATOM
  1 P        0.3680    -0.6940    -0.6290 P.3   1 <1>   1.2420 
  2 O        1.4000    -0.1690    -1.5250 O.2   1 <1>  -0.7000 
  3 O       -0.3100    -2.0310    -1.2110 O.3   1 <1>  -0.5510 
  4 O       -0.8870     0.3040    -0.4870 O.3   1 <1>  -0.5510 
  5 C        0.9000    -1.1430     1.0720 C.3   1 <1>   0.2800 
  6 C       -0.8750    -2.0180    -2.4780 C.3   1 <1>   0.0400 
  7 C       -0.6870     1.6290    -0.1280 C.3   1 <1>   0.0400 
  8 O        1.5270    -0.1010     1.7710 O.3   1 <1>  -0.6800 
  9 C        1.9100    -2.3030     1.0810 C.3   1 <1>  -0.0990 
 10 C       -0.2730    -1.5350     1.9890 C.3   1 <1>  -0.2400 
 11 C        3.1190    -1.9700     0.2420 C.2   1 <1>   0.6590 
 12 O        3.8750    -1.0900     0.5640 O.2   1 <1>  -0.5700 
 13 O        3.2540    -2.6640    -0.8770 O.3   1 <1>  -0.4300 
 14 C        4.2290    -2.3210    -1.8320 C.3   1 <1>   0.1200 
 15 C        4.0840    -3.2720    -3.0150 C.3   1 <1>  -0.2400 
 16 H       -0.1160    -1.7580    -3.1960 H     1 <1>   0.0800 
 17 H       -1.6730    -1.2960    -2.5010 H     1 <1>   0.0800 
 18 H       -1.2600    -3.0000    -2.6890 H     1 <1>   0.0800 
 19 H       -0.2500     1.6710     0.8550 H     1 <1>   0.0800 
 20 H       -1.6400     2.1280    -0.1270 H     1 <1>   0.0800 
 21 H       -0.0320     2.0920    -0.8480 H     1 <1>   0.0800 
 22 H        2.4310     0.0460     1.4010 H     1 <1>   0.4000 
 23 H        1.4470    -3.1870     0.6810 H     1 <1>   0.0800 
 24 H        2.2280    -2.5200     2.0840 H     1 <1>   0.0800 
 25 H       -0.9680    -0.7180     2.0690 H     1 <1>   0.0800 
 26 H        0.0750    -1.7940     2.9730 H     1 <1>   0.0800 
 27 H       -0.7980    -2.3780     1.5780 H     1 <1>   0.0800 
 28 H        5.2010    -2.4070    -1.3770 H     1 <1>   0.0800 
 29 H        4.0590    -1.3000    -2.1360 H     1 <1>   0.0800 
 30 H        4.2390    -4.2870    -2.6970 H     1 <1>   0.0800 
 31 H        4.8150    -3.0310    -3.7650 H     1 <1>   0.0800 
 32 H        3.1040    -3.1740    -3.4470 H     1 <1>   0.0800 
@<TRIPOS>BOND
  1   1   2  2   
  2   1   3  1   
  3   1   4  1   
  4   1   5  1   
  5   3   6  1   
  6   4   7  1   
  7   5   8  1   
  8   5   9  1   
  9   5  10  1   
 10   6  16  1   
 11   6  17  1   
 12   6  18  1   
 13   7  19  1   
 14   7  20  1   
 15   7  21  1   
 16   8  22  1   
 17   9  11  1   
 18   9  23  1   
 19   9  24  1   
 20  10  25  1   
 21  10  26  1   
 22  10  27  1   
 23  11  12  2   
 24  11  13  1   
 25  13  14  1   
 26  14  15  1   
 27  14  28  1   
 28  14  29  1   
 29  15  30  1   
 30  15  31  1   
 31  15  32  1   
@<TRIPOS>SUBSTRUCTURE
  1 ****   1 GROUP 4 **** **** 0

# MOE 2024.06 (io_trps.svl 2023.06)
