@<TRIPOS>MOLECULE
NONAME
49 50 1 0 0 
SMALL
USER_CHARGES


@<TRIPOS>ATOM
  1 S       -0.1820     0.1130     0.7160 S.o2  1 <1>   1.3330 
  2 O        1.1250    -0.3720     1.0900 O.2   1 <1>  -0.6500 
  3 O       -0.7780     1.2380     1.3930 O.2   1 <1>  -0.6500 
  4 N       -1.2710    -1.2370     0.8160 N.am  1 <1>  -0.6930 
  5 C       -0.1700     0.4290    -1.0350 C.3   1 <1>  -0.1350 
  6 C       -2.6240    -1.1350     0.5260 C.ar  1 <1>   0.1990 
  7 C       -0.6770    -2.5600     1.1300 C.3   1 <1>   0.1160 
  8 C       -3.1980    -1.9240    -0.4660 C.ar  1 <1>  -0.1500 
  9 C       -3.4500    -0.2480     1.2060 C.ar  1 <1>  -0.1500 
 10 C       -4.5430    -1.8260    -0.7630 C.ar  1 <1>  -0.1500 
 11 C       -4.7940    -0.1470     0.9040 C.ar  1 <1>  -0.1500 
 12 C       -5.3830    -0.9390    -0.0860 C.ar  1 <1>   0.0860 
 13 C       -6.7950    -0.8570    -0.4060 C.2   1 <1>   0.5440 
 14 O       -7.1930    -1.1690    -1.5120 O.2   1 <1>  -0.5700 
 15 N       -7.6990    -0.4420     0.5380 N.am  1 <1>  -0.7300 
 16 C       -9.1700    -0.3270     0.3940 C.3   1 <1>   0.2200 
 17 C       -9.7660    -1.7140     0.1050 C.3   1 <1>  -0.1600 
 18 C       -9.5130     0.7410    -0.6670 C.3   1 <1>  -0.1600 
 19 C      -11.1990    -1.9200     0.6240 C.3   1 <1>  -0.1600 
 20 C      -10.4040     1.8740    -0.1350 C.3   1 <1>  -0.1600 
 21 C      -12.2520    -0.9830     0.0120 C.3   1 <1>  -0.1600 
 22 C      -11.9110     1.5730    -0.1620 C.3   1 <1>  -0.1600 
 23 C      -12.3620     0.3890     0.7080 C.3   1 <1>  -0.1600 
 24 H        0.4910     1.2440    -1.2550 H     1 <1>   0.0800 
 25 H       -1.1550     0.6840    -1.3710 H     1 <1>   0.0800 
 26 H        0.1650    -0.4400    -1.5660 H     1 <1>   0.0800 
 27 H       -0.1310    -2.4980     2.0560 H     1 <1>   0.0800 
 28 H        0.0000    -2.8530     0.3470 H     1 <1>   0.0800 
 29 H       -1.4480    -3.3050     1.2340 H     1 <1>   0.0800 
 30 H       -2.5810    -2.6160    -1.0100 H     1 <1>   0.1500 
 31 H       -3.0300     0.3690     1.9820 H     1 <1>   0.1500 
 32 H       -4.9650    -2.4440    -1.5380 H     1 <1>   0.1500 
 33 H       -5.3930     0.5650     1.4430 H     1 <1>   0.1500 
 34 H       -7.3630    -0.2850     1.4860 H     1 <1>   0.3700 
 35 H       -9.5440    -0.0030     1.3500 H     1 <1>   0.0800 
 36 H       -9.1510    -2.4570     0.5820 H     1 <1>   0.0800 
 37 H       -9.7310    -1.9110    -0.9520 H     1 <1>   0.0800 
 38 H       -9.9740     0.2900    -1.5270 H     1 <1>   0.0800 
 39 H       -8.6000     1.1910    -1.0160 H     1 <1>   0.0800 
 40 H      -11.2160    -1.8440     1.6970 H     1 <1>   0.0800 
 41 H      -11.4790    -2.9310     0.3810 H     1 <1>   0.0800 
 42 H      -10.2420     2.7370    -0.7580 H     1 <1>   0.0800 
 43 H      -10.1000     2.1480     0.8600 H     1 <1>   0.0800 
 44 H      -13.2060    -1.4710     0.1180 H     1 <1>   0.0800 
 45 H      -12.0820    -0.8770    -1.0460 H     1 <1>   0.0800 
 46 H      -12.2350     1.4270    -1.1780 H     1 <1>   0.0800 
 47 H      -12.4150     2.4540     0.1970 H     1 <1>   0.0800 
 48 H      -11.8440     0.3980     1.6510 H     1 <1>   0.0800 
 49 H      -13.4030     0.5450     0.9330 H     1 <1>   0.0800 
@<TRIPOS>BOND
  1   1   2  2   
  2   1   3  2   
  3   1   4  am  
  4   1   5  1   
  5   4   6  1   
  6   4   7  1   
  7   5  24  1   
  8   5  25  1   
  9   5  26  1   
 10   6   8  ar  
 11   6   9  ar  
 12   7  27  1   
 13   7  28  1   
 14   7  29  1   
 15   8  10  ar  
 16   8  30  1   
 17   9  11  ar  
 18   9  31  1   
 19  10  12  ar  
 20  10  32  1   
 21  11  12  ar  
 22  11  33  1   
 23  12  13  1   
 24  13  14  2   
 25  13  15  am  
 26  15  16  1   
 27  15  34  1   
 28  16  17  1   
 29  16  18  1   
 30  16  35  1   
 31  17  19  1   
 32  17  36  1   
 33  17  37  1   
 34  18  20  1   
 35  18  38  1   
 36  18  39  1   
 37  19  21  1   
 38  19  40  1   
 39  19  41  1   
 40  20  22  1   
 41  20  42  1   
 42  20  43  1   
 43  21  23  1   
 44  21  44  1   
 45  21  45  1   
 46  22  23  1   
 47  22  46  1   
 48  22  47  1   
 49  23  48  1   
 50  23  49  1   
@<TRIPOS>SUBSTRUCTURE
  1 ****  12 GROUP 4 **** **** 0

# MOE 2024.06 (io_trps.svl 2023.06)
