@<TRIPOS>MOLECULE
NONAME
53 55 1 0 0 
SMALL
USER_CHARGES


@<TRIPOS>ATOM
  1 O        0.3370     0.0350     1.0560 O.2   1 <1>  -0.5700 
  2 C        0.8030    -0.6780     0.1880 C.2   1 <1>   0.6900 
  3 N        2.1140    -0.5380    -0.1900 N.am  1 <1>  -0.6600 
  4 N        0.0440    -1.6520    -0.4000 N.am  1 <1>  -0.5470 
  5 C        3.0620     0.3140     0.5990 C.3   1 <1>   0.1400 
  6 C        2.7160    -1.0550    -1.4610 C.3   1 <1>   0.1400 
  7 C       -1.3270    -1.9160    -0.3480 C.ar  1 <1>   0.1170 
  8 C        4.4050    -0.4030     0.8300 C.3   1 <1>   0.2090 
  9 C        4.0570    -1.7650    -1.2010 C.3   1 <1>   0.2090 
 10 C       -1.7830    -3.1920    -0.6560 C.ar  1 <1>  -0.1500 
 11 C       -2.2760    -0.9530    -0.0180 C.ar  1 <1>  -0.1500 
 12 N        4.9960    -0.8750    -0.4590 N.pl3 1 <1>  -0.8380 
 13 C       -3.1310    -3.4940    -0.6300 C.ar  1 <1>  -0.1500 
 14 C       -3.6230    -1.2570     0.0090 C.ar  1 <1>  -0.1500 
 15 C        6.3180    -1.3350    -0.3780 C.ar  1 <1>   0.1000 
 16 C       -4.0940    -2.5380    -0.2960 C.ar  1 <1>   0.0860 
 17 C        6.7160    -2.4940     0.3150 C.ar  1 <1>   0.0830 
 18 C        7.2860    -0.5840    -1.0290 C.ar  1 <1>  -0.1500 
 19 C       -5.5050    -2.8720    -0.2730 C.2   1 <1>   0.6340 
 20 O        5.7580    -3.2310     0.9600 O.3   1 <1>  -0.3620 
 21 C        8.0590    -2.8600     0.3280 C.ar  1 <1>  -0.1500 
 22 C        8.6190    -0.9540    -1.0100 C.ar  1 <1>  -0.1500 
 23 O       -5.9310    -3.9790    -0.5380 O.2   1 <1>  -0.5700 
 24 O       -6.3760    -1.9120     0.0550 O.3   1 <1>  -0.4300 
 25 C        6.1030    -4.2990     1.8140 C.3   1 <1>   0.0400 
 26 C        9.0050    -2.0940    -0.3310 C.ar  1 <1>  -0.1500 
 27 C       -7.7640    -2.1580     0.1010 C.3   1 <1>   0.1200 
 28 C       -8.4610    -0.8630     0.5060 C.3   1 <1>  -0.2400 
 29 H        0.6120    -2.3540    -0.8580 H     1 <1>   0.3700 
 30 H        2.6360     0.5660     1.5540 H     1 <1>   0.0800 
 31 H        3.2410     1.2290     0.0640 H     1 <1>   0.0800 
 32 H        2.8950    -0.2240    -2.1210 H     1 <1>   0.0800 
 33 H        2.0480    -1.7310    -1.9610 H     1 <1>   0.0800 
 34 H        4.2480    -1.2400     1.4870 H     1 <1>   0.0800 
 35 H        5.0930     0.2720     1.3090 H     1 <1>   0.0800 
 36 H        4.5050    -2.0440    -2.1390 H     1 <1>   0.0800 
 37 H        3.8810    -2.6620    -0.6340 H     1 <1>   0.0800 
 38 H       -1.0770    -3.9590    -0.9160 H     1 <1>   0.1500 
 39 H       -1.9580     0.0470     0.2200 H     1 <1>   0.1500 
 40 H       -3.4550    -4.4930    -0.8720 H     1 <1>   0.1500 
 41 H       -4.3250    -0.4850     0.2730 H     1 <1>   0.1500 
 42 H        6.9790     0.3010    -1.5550 H     1 <1>   0.1500 
 43 H        8.3950    -3.7400     0.8410 H     1 <1>   0.1500 
 44 H        9.3510    -0.3550    -1.5230 H     1 <1>   0.1500 
 45 H        5.2000    -4.6720     2.2620 H     1 <1>   0.0800 
 46 H        6.7670    -3.9340     2.5780 H     1 <1>   0.0800 
 47 H        6.5690    -5.0740     1.2330 H     1 <1>   0.0800 
 48 H       10.0410    -2.3850    -0.3160 H     1 <1>   0.1500 
 49 H       -7.9480    -2.9380     0.8210 H     1 <1>   0.0800 
 50 H       -8.0850    -2.4830    -0.8740 H     1 <1>   0.0800 
 51 H       -8.1210    -0.5470     1.4750 H     1 <1>   0.0800 
 52 H       -9.5230    -1.0210     0.5490 H     1 <1>   0.0800 
 53 H       -8.2580    -0.0930    -0.2170 H     1 <1>   0.0800 
@<TRIPOS>BOND
  1   1   2  2   
  2   2   3  am  
  3   2   4  am  
  4   3   5  1   
  5   3   6  1   
  6   4   7  1   
  7   4  29  1   
  8   5   8  1   
  9   5  30  1   
 10   5  31  1   
 11   6   9  1   
 12   6  32  1   
 13   6  33  1   
 14   7  10  ar  
 15   7  11  ar  
 16   8  12  1   
 17   8  34  1   
 18   8  35  1   
 19   9  12  1   
 20   9  36  1   
 21   9  37  1   
 22  10  13  ar  
 23  10  38  1   
 24  11  14  ar  
 25  11  39  1   
 26  12  15  1   
 27  13  16  ar  
 28  13  40  1   
 29  14  16  ar  
 30  14  41  1   
 31  15  17  ar  
 32  15  18  ar  
 33  16  19  1   
 34  17  20  1   
 35  17  21  ar  
 36  18  22  ar  
 37  18  42  1   
 38  19  23  2   
 39  19  24  1   
 40  20  25  1   
 41  21  26  ar  
 42  21  43  1   
 43  22  26  ar  
 44  22  44  1   
 45  24  27  1   
 46  25  45  1   
 47  25  46  1   
 48  25  47  1   
 49  26  48  1   
 50  27  28  1   
 51  27  49  1   
 52  27  50  1   
 53  28  51  1   
 54  28  52  1   
 55  28  53  1   
@<TRIPOS>SUBSTRUCTURE
  1 ****   4 GROUP 4 **** **** 0

# MOE 2024.06 (io_trps.svl 2023.06)
