@<TRIPOS>MOLECULE
NONAME
42 43 1 0 0 
SMALL
USER_CHARGES


@<TRIPOS>ATOM
  1 O        0.6050    -0.2190     0.4410 O.2   1 <1>  -0.5700 
  2 C        1.2340    -1.1550    -0.0150 C.2   1 <1>   0.7800 
  3 O        0.5970    -2.2780    -0.3520 O.3   1 <1>  -0.4300 
  4 N        2.5900    -1.1150    -0.1930 N.am  1 <1>  -0.6600 
  5 C       -0.7990    -2.3900    -0.1970 C.3   1 <1>   0.1200 
  6 C        3.3970    -2.2740    -0.6750 C.3   1 <1>   0.1400 
  7 C        3.4050     0.0740     0.1980 C.3   1 <1>   0.1400 
  8 C       -1.2150    -3.7820    -0.6620 C.3   1 <1>  -0.2400 
  9 C        4.4630    -2.6640     0.3640 C.3   1 <1>   0.1400 
 10 C        4.4600    -0.3200     1.2410 C.3   1 <1>   0.1400 
 11 N        5.2800    -1.4750     0.7590 N.am  1 <1>  -0.6600 
 12 C        6.5570    -1.2750     0.3040 C.2   1 <1>   0.6900 
 13 O        6.9410    -0.1540     0.0310 O.2   1 <1>  -0.5700 
 14 N        7.3770    -2.3590     0.1910 N.am  1 <1>  -0.5470 
 15 C        8.6510    -2.5140    -0.3750 C.ar  1 <1>   0.1170 
 16 C        9.4880    -3.5420     0.0700 C.ar  1 <1>  -0.1440 
 17 C        9.1010    -1.6800    -1.3940 C.ar  1 <1>  -0.1500 
 18 C       10.7380    -3.7110    -0.5030 C.ar  1 <1>  -0.1500 
 19 C        9.0560    -4.4860     1.1860 C.3   1 <1>  -0.0970 
 20 C       10.3500    -1.8540    -1.9600 C.ar  1 <1>  -0.1500 
 21 C       11.1710    -2.8720    -1.5150 C.ar  1 <1>  -0.1500 
 22 H       -1.2700    -1.6250    -0.7920 H     1 <1>   0.0800 
 23 H       -1.0400    -2.2400     0.8420 H     1 <1>   0.0800 
 24 H        3.8840    -2.0010    -1.5950 H     1 <1>   0.0800 
 25 H        2.7700    -3.1240    -0.8760 H     1 <1>   0.0800 
 26 H        2.7770     0.8500     0.6010 H     1 <1>   0.0800 
 27 H        3.8990     0.4690    -0.6730 H     1 <1>   0.0800 
 28 H       -0.9600    -3.9180    -1.6970 H     1 <1>   0.0800 
 29 H       -2.2790    -3.8960    -0.5540 H     1 <1>   0.0800 
 30 H       -0.7280    -4.5330    -0.0670 H     1 <1>   0.0800 
 31 H        5.0850    -3.4350    -0.0530 H     1 <1>   0.0800 
 32 H        3.9760    -3.0630     1.2360 H     1 <1>   0.0800 
 33 H        3.9670    -0.5940     2.1580 H     1 <1>   0.0800 
 34 H        5.0900     0.5280     1.4500 H     1 <1>   0.0800 
 35 H        7.0580    -3.1430     0.7460 H     1 <1>   0.3700 
 36 H        8.4710    -0.8870    -1.7520 H     1 <1>   0.1500 
 37 H       11.3900    -4.4980    -0.1670 H     1 <1>   0.1500 
 38 H        8.2070    -5.0650     0.8720 H     1 <1>   0.0800 
 39 H        8.8000    -3.9220     2.0650 H     1 <1>   0.0800 
 40 H        9.8500    -5.1640     1.4440 H     1 <1>   0.0800 
 41 H       10.6800    -1.1960    -2.7450 H     1 <1>   0.1500 
 42 H       12.1440    -3.0100    -1.9530 H     1 <1>   0.1500 
@<TRIPOS>BOND
  1   1   2  2   
  2   2   3  1   
  3   2   4  am  
  4   3   5  1   
  5   4   6  1   
  6   4   7  1   
  7   5   8  1   
  8   5  22  1   
  9   5  23  1   
 10   6   9  1   
 11   6  24  1   
 12   6  25  1   
 13   7  10  1   
 14   7  26  1   
 15   7  27  1   
 16   8  28  1   
 17   8  29  1   
 18   8  30  1   
 19   9  11  1   
 20   9  31  1   
 21   9  32  1   
 22  10  11  1   
 23  10  33  1   
 24  10  34  1   
 25  11  12  am  
 26  12  13  2   
 27  12  14  am  
 28  14  15  1   
 29  14  35  1   
 30  15  16  ar  
 31  15  17  ar  
 32  16  18  ar  
 33  16  19  1   
 34  17  20  ar  
 35  17  36  1   
 36  18  21  ar  
 37  18  37  1   
 38  19  38  1   
 39  19  39  1   
 40  19  40  1   
 41  20  21  ar  
 42  20  41  1   
 43  21  42  1   
@<TRIPOS>SUBSTRUCTURE
  1 ****  11 GROUP 4 **** **** 0

# MOE 2024.06 (io_trps.svl 2023.06)
