@<TRIPOS>MOLECULE
NONAME
54 57 1 0 0 
SMALL
USER_CHARGES


@<TRIPOS>ATOM
  1 S        0.2520     0.2510    -1.2810 S.o2  1 <1>   1.4470 
  2 O        0.5100     1.6490    -1.5490 O.2   1 <1>  -0.6500 
  3 O        0.7480    -0.7530    -2.1970 O.2   1 <1>  -0.6500 
  4 N        0.9220    -0.0850     0.2370 N.am  1 <1>  -0.8490 
  5 C       -1.5290     0.0260    -1.0010 C.ar  1 <1>  -0.0090 
  6 C        2.3140     0.3150     0.3400 C.3   1 <1>   0.1960 
  7 C        0.8920    -1.4870     0.6200 C.3   1 <1>   0.1960 
  8 C       -2.2310    -1.0230    -1.5800 C.ar  1 <1>  -0.1500 
  9 C       -2.2380     0.8940    -0.1790 C.ar  1 <1>  -0.1500 
 10 C        2.8310    -0.4070     1.5790 C.3   1 <1>  -0.1600 
 11 C        1.8660    -1.5750     1.7880 C.3   1 <1>  -0.1600 
 12 C       -3.5860    -1.1920    -1.3530 C.ar  1 <1>  -0.1500 
 13 C       -3.5930     0.7280     0.0490 C.ar  1 <1>  -0.1500 
 14 C       -4.3060    -0.3180    -0.5390 C.ar  1 <1>   0.0860 
 15 C       -5.7290    -0.5040    -0.3200 C.2   1 <1>   0.5440 
 16 O       -6.2050    -1.6190    -0.3390 O.2   1 <1>  -0.5700 
 17 N       -6.5310     0.6030    -0.1350 N.am  1 <1>  -0.4940 
 18 C       -7.8360     0.7660     0.3080 C.2   1 <1>   0.1040 
 19 S       -8.6990    -0.6020     1.0290 S.3   1 <1>  -0.0800 
 20 C       -8.6200     1.8980     0.3030 C.2   1 <1>  -0.0860 
 21 C      -10.1050     0.3960     1.2940 C.2   1 <1>  -0.1400 
 22 C       -9.9140     1.6340     0.8760 C.2   1 <1>  -0.1810 
 23 C       -8.2440     3.1950    -0.1910 C.2   1 <1>   0.8060 
 24 C      -11.4350     0.0750     1.8950 C.3   1 <1>   0.0200 
 25 C      -11.1510     2.4620     1.1210 C.3   1 <1>   0.0210 
 26 O       -8.9820     4.1620    -0.1830 O.2   1 <1>  -0.5700 
 27 O       -7.0010     3.3410    -0.6800 O.3   1 <1>  -0.4300 
 28 C      -12.1360     1.4530     1.7810 C.3   1 <1>  -0.1600 
 29 C       -6.5080     4.5740    -1.1660 C.3   1 <1>   0.1200 
 30 C       -5.9410     5.3740     0.0060 C.3   1 <1>  -0.2400 
 31 H        2.4020     1.3860     0.4280 H     1 <1>   0.0800 
 32 H        2.8570    -0.0180    -0.5310 H     1 <1>   0.0800 
 33 H        1.2480    -2.1050    -0.1880 H     1 <1>   0.0800 
 34 H       -0.1010    -1.7940     0.9010 H     1 <1>   0.0800 
 35 H       -1.7110    -1.7190    -2.2190 H     1 <1>   0.1500 
 36 H       -1.7110     1.7100     0.2890 H     1 <1>   0.1500 
 37 H        2.8040     0.2580     2.4250 H     1 <1>   0.0800 
 38 H        3.8420    -0.7400     1.4270 H     1 <1>   0.0800 
 39 H        2.3720    -2.5240     1.7980 H     1 <1>   0.0800 
 40 H        1.3300    -1.4520     2.7130 H     1 <1>   0.0800 
 41 H       -4.1040    -2.0180    -1.8130 H     1 <1>   0.1500 
 42 H       -4.0970     1.4170     0.7040 H     1 <1>   0.1500 
 43 H       -6.0900     1.4760    -0.4300 H     1 <1>   0.3700 
 44 H      -11.3250    -0.2360     2.9190 H     1 <1>   0.0800 
 45 H      -11.9390    -0.6810     1.3200 H     1 <1>   0.0800 
 46 H      -11.5410     2.8390     0.1920 H     1 <1>   0.0800 
 47 H      -10.9290     3.2820     1.7820 H     1 <1>   0.0800 
 48 H      -12.4180     1.8030     2.7580 H     1 <1>   0.0800 
 49 H      -13.0240     1.3630     1.1790 H     1 <1>   0.0800 
 50 H       -7.3000     5.1090    -1.6650 H     1 <1>   0.0800 
 51 H       -5.7320     4.3580    -1.8800 H     1 <1>   0.0800 
 52 H       -5.5360     6.3020    -0.3550 H     1 <1>   0.0800 
 53 H       -6.7170     5.6000     0.7160 H     1 <1>   0.0800 
 54 H       -5.1550     4.8240     0.4910 H     1 <1>   0.0800 
@<TRIPOS>BOND
  1   1   2  2   
  2   1   3  2   
  3   1   4  am  
  4   1   5  1   
  5   4   6  1   
  6   4   7  1   
  7   5   8  ar  
  8   5   9  ar  
  9   6  10  1   
 10   6  31  1   
 11   6  32  1   
 12   7  11  1   
 13   7  33  1   
 14   7  34  1   
 15   8  12  ar  
 16   8  35  1   
 17   9  13  ar  
 18   9  36  1   
 19  10  11  1   
 20  10  37  1   
 21  10  38  1   
 22  11  39  1   
 23  11  40  1   
 24  12  14  ar  
 25  12  41  1   
 26  13  14  ar  
 27  13  42  1   
 28  14  15  1   
 29  15  16  2   
 30  15  17  am  
 31  17  18  1   
 32  17  43  1   
 33  18  19  1   
 34  18  20  2   
 35  19  21  1   
 36  20  22  1   
 37  20  23  1   
 38  21  22  2   
 39  21  24  1   
 40  22  25  1   
 41  23  26  2   
 42  23  27  1   
 43  24  28  1   
 44  24  44  1   
 45  24  45  1   
 46  25  28  1   
 47  25  46  1   
 48  25  47  1   
 49  27  29  1   
 50  28  48  1   
 51  28  49  1   
 52  29  30  1   
 53  29  50  1   
 54  29  51  1   
 55  30  52  1   
 56  30  53  1   
 57  30  54  1   
@<TRIPOS>SUBSTRUCTURE
  1 ****  13 GROUP 4 **** **** 0

# MOE 2024.06 (io_trps.svl 2023.06)
