@<TRIPOS>MOLECULE
NONAME
49 52 1 0 0 
SMALL
USER_CHARGES


@<TRIPOS>ATOM
  1 O        0.8330    -0.5670     0.3130 O.3   1 <1>  -0.3630 
  2 C        2.0530    -0.9930    -0.0950 C.ar  1 <1>   0.0830 
  3 C        0.2410     0.5940    -0.2270 C.3   1 <1>   0.0400 
  4 C        2.8360    -0.3260    -1.0320 C.ar  1 <1>  -0.1500 
  5 C        2.5240    -2.1660     0.4700 C.ar  1 <1>  -0.1500 
  6 C        4.0740    -0.8310    -1.3870 C.ar  1 <1>  -0.1500 
  7 C        3.7610    -2.6710     0.1140 C.ar  1 <1>  -0.1500 
  8 C        4.5460    -2.0030    -0.8140 C.ar  1 <1>  -0.1430 
  9 C        5.9130    -2.5410    -1.1850 C.3   1 <1>  -0.0170 
 10 C        6.9350    -1.9720    -0.2030 C.3   1 <1>   0.3430 
 11 N        8.3040    -2.4590    -0.5240 N.4   1 <1>  -0.9060 
 12 C        9.3500    -1.9480     0.3950 C.3   1 <1>   0.4230 
 13 C        9.5830    -0.4320     0.1870 C.3   1 <1>  -0.0800 
 14 C       10.6680    -2.7090     0.1320 C.3   1 <1>  -0.0800 
 15 C       10.1120    -0.1440    -1.2380 C.3   1 <1>  -0.1600 
 16 C       10.6410     0.0410     1.2070 C.3   1 <1>  -0.1600 
 17 C       11.1990    -2.4230    -1.2930 C.3   1 <1>  -0.1600 
 18 C       11.7210    -2.2290     1.1520 C.3   1 <1>  -0.1600 
 19 C       11.4280    -0.9100    -1.4740 C.3   1 <1>  -0.0800 
 20 C       11.9630    -0.7160     0.9870 C.3   1 <1>  -0.0800 
 21 C       12.4690    -0.4400    -0.4410 C.3   1 <1>  -0.1600 
 22 H       -0.7220     0.7210     0.2330 H     1 <1>   0.0800 
 23 H        0.1250     0.4650    -1.2880 H     1 <1>   0.0800 
 24 H        0.8670     1.4400    -0.0050 H     1 <1>   0.0800 
 25 H        2.4950     0.5830    -1.4920 H     1 <1>   0.1500 
 26 H        1.9090    -2.6790     1.1880 H     1 <1>   0.1500 
 27 H        4.6600    -0.2990    -2.1170 H     1 <1>   0.1500 
 28 H        4.0960    -3.5880     0.5680 H     1 <1>   0.1500 
 29 H        6.1530    -2.2450    -2.1910 H     1 <1>   0.0800 
 30 H        5.8980    -3.6160    -1.1330 H     1 <1>   0.0800 
 31 H        6.6630    -2.2670     0.7980 H     1 <1>   0.0800 
 32 H        6.9020    -0.8960    -0.2540 H     1 <1>   0.0800 
 33 H        8.5780    -2.1690    -1.4690 H     1 <1>   0.4500 
 34 H        8.3290    -3.4840    -0.5030 H     1 <1>   0.4500 
 35 H        9.0480    -2.1220     1.4150 H     1 <1>   0.0800 
 36 H        8.6790     0.1210     0.3660 H     1 <1>   0.0800 
 37 H       10.5200    -3.7660     0.2690 H     1 <1>   0.0800 
 38 H        9.3880    -0.4130    -1.9850 H     1 <1>   0.0800 
 39 H       10.2940     0.9130    -1.3460 H     1 <1>   0.0800 
 40 H       10.2910    -0.1220     2.2120 H     1 <1>   0.0800 
 41 H       10.8100     1.1000     1.0950 H     1 <1>   0.0800 
 42 H       10.5210    -2.7870    -2.0440 H     1 <1>   0.0800 
 43 H       12.1320    -2.9420    -1.4390 H     1 <1>   0.0800 
 44 H       11.3920    -2.4370     2.1560 H     1 <1>   0.0800 
 45 H       12.6470    -2.7590     1.0020 H     1 <1>   0.0800 
 46 H       11.7960    -0.7110    -2.4680 H     1 <1>   0.0800 
 47 H       12.6990    -0.3840     1.7020 H     1 <1>   0.0800 
 48 H       12.6570     0.6130    -0.5640 H     1 <1>   0.0800 
 49 H       13.4030    -0.9520    -0.6020 H     1 <1>   0.0800 
@<TRIPOS>BOND
  1   1   2  1   
  2   1   3  1   
  3   2   4  ar  
  4   2   5  ar  
  5   3  22  1   
  6   3  23  1   
  7   3  24  1   
  8   4   6  ar  
  9   4  25  1   
 10   5   7  ar  
 11   5  26  1   
 12   6   8  ar  
 13   6  27  1   
 14   7   8  ar  
 15   7  28  1   
 16   8   9  1   
 17   9  10  1   
 18   9  29  1   
 19   9  30  1   
 20  10  11  1   
 21  10  31  1   
 22  10  32  1   
 23  11  12  1   
 24  11  33  1   
 25  11  34  1   
 26  12  13  1   
 27  12  14  1   
 28  12  35  1   
 29  13  15  1   
 30  13  16  1   
 31  13  36  1   
 32  14  17  1   
 33  14  18  1   
 34  14  37  1   
 35  15  19  1   
 36  15  38  1   
 37  15  39  1   
 38  16  20  1   
 39  16  40  1   
 40  16  41  1   
 41  17  19  1   
 42  17  42  1   
 43  17  43  1   
 44  18  20  1   
 45  18  44  1   
 46  18  45  1   
 47  19  21  1   
 48  19  46  1   
 49  20  21  1   
 50  20  47  1   
 51  21  48  1   
 52  21  49  1   
@<TRIPOS>SUBSTRUCTURE
  1 ****  10 GROUP 4 **** **** 0

# MOE 2024.06 (io_trps.svl 2023.06)
