@<TRIPOS>MOLECULE
NONAME
56 58 1 0 0 
SMALL
USER_CHARGES


@<TRIPOS>ATOM
  1 O        0.6840     0.7150    -1.3320 O.2   1 <1>  -0.5700 
  2 C        0.3610     1.8740    -1.1500 C.2   1 <1>   0.5440 
  3 N        1.0430     2.8750    -1.8150 N.am  1 <1>  -0.6600 
  4 C       -0.7270     2.1790    -0.2400 C.ar  1 <1>   0.0860 
  5 C        0.9030     4.3200    -1.4920 C.3   1 <1>   0.1400 
  6 C        2.0540     2.5760    -2.8650 C.3   1 <1>   0.1400 
  7 C       -0.5860     2.1080     1.1510 C.ar  1 <1>  -0.1440 
  8 C       -1.9620     2.5730    -0.7540 C.ar  1 <1>  -0.1500 
  9 C        2.2550     4.8600    -1.0150 C.3   1 <1>  -0.1600 
 10 C        3.4210     3.0860    -2.4050 C.3   1 <1>  -0.1600 
 11 C       -1.6490     2.4300     1.9790 C.ar  1 <1>  -0.1500 
 12 C        0.7360     1.6710     1.7680 C.3   1 <1>  -0.0970 
 13 C       -3.0200     2.8940     0.0740 C.ar  1 <1>  -0.1500 
 14 C        3.3710     4.5840    -2.0420 C.3   1 <1>  -0.0190 
 15 C       -2.8630     2.8240     1.4450 C.ar  1 <1>  -0.1500 
 16 C        4.7220     5.1000    -1.5540 C.2   1 <1>   0.5690 
 17 O        5.2320     6.0300    -2.1280 O.2   1 <1>  -0.5700 
 18 N        5.3170     4.4980    -0.4910 N.am  1 <1>  -0.7300 
 19 C        6.6200     4.9030     0.0870 C.3   1 <1>   0.1400 
 20 C        7.7380     4.0420    -0.4980 C.3   1 <1>  -0.0170 
 21 C        9.0720     4.4270     0.1200 C.ar  1 <1>  -0.1430 
 22 C        9.5960     3.7010     1.1780 C.ar  1 <1>  -0.1500 
 23 C        9.7740     5.5170    -0.3710 C.ar  1 <1>  -0.1500 
 24 C       10.8080     4.0630     1.7390 C.ar  1 <1>  -0.1500 
 25 C       10.9870     5.8820     0.1880 C.ar  1 <1>  -0.1500 
 26 C       11.5110     5.1520     1.2520 C.ar  1 <1>   0.0830 
 27 O       12.6900     5.4410     1.8580 O.3   1 <1>  -0.3630 
 28 C       13.4810     6.5290     1.4370 C.3   1 <1>   0.0400 
 29 H        0.1650     4.4800    -0.7260 H     1 <1>   0.0800 
 30 H        0.5870     4.8480    -2.3760 H     1 <1>   0.0800 
 31 H        1.7650     3.0650    -3.7790 H     1 <1>   0.0800 
 32 H        2.1070     1.5180    -3.0590 H     1 <1>   0.0800 
 33 H       -2.0850     2.6230    -1.8220 H     1 <1>   0.1500 
 34 H        2.4950     4.4010    -0.0730 H     1 <1>   0.0800 
 35 H        2.1740     5.9200    -0.8510 H     1 <1>   0.0800 
 36 H        4.1390     2.9290    -3.1910 H     1 <1>   0.0800 
 37 H        3.7290     2.5000    -1.5570 H     1 <1>   0.0800 
 38 H       -1.5420     2.3740     3.0490 H     1 <1>   0.1500 
 39 H        1.5300     2.3160     1.4380 H     1 <1>   0.0800 
 40 H        0.9630     0.6630     1.4660 H     1 <1>   0.0800 
 41 H        0.6940     1.7020     2.8420 H     1 <1>   0.0800 
 42 H       -3.9650     3.1950    -0.3450 H     1 <1>   0.1500 
 43 H        3.1330     5.1290    -2.9390 H     1 <1>   0.0800 
 44 H       -3.6840     3.0710     2.0960 H     1 <1>   0.1500 
 45 H        4.8620     3.6950    -0.0560 H     1 <1>   0.3700 
 46 H        6.5890     4.7930     1.1570 H     1 <1>   0.0800 
 47 H        6.8100     5.9400    -0.1390 H     1 <1>   0.0800 
 48 H        7.7820     4.1900    -1.5630 H     1 <1>   0.0800 
 49 H        7.5360     3.0030    -0.3080 H     1 <1>   0.0800 
 50 H        9.0660     2.8510     1.5710 H     1 <1>   0.1500 
 51 H        9.3760     6.0880    -1.1920 H     1 <1>   0.1500 
 52 H       11.2180     3.5030     2.5590 H     1 <1>   0.1500 
 53 H       11.5040     6.7310    -0.2150 H     1 <1>   0.1500 
 54 H       14.3590     6.5620     2.0560 H     1 <1>   0.0800 
 55 H       12.9150     7.4370     1.5550 H     1 <1>   0.0800 
 56 H       13.7620     6.3790     0.4100 H     1 <1>   0.0800 
@<TRIPOS>BOND
  1   1   2  2   
  2   2   3  am  
  3   2   4  1   
  4   3   5  1   
  5   3   6  1   
  6   4   7  ar  
  7   4   8  ar  
  8   5   9  1   
  9   5  29  1   
 10   5  30  1   
 11   6  10  1   
 12   6  31  1   
 13   6  32  1   
 14   7  11  ar  
 15   7  12  1   
 16   8  13  ar  
 17   8  33  1   
 18   9  14  1   
 19   9  34  1   
 20   9  35  1   
 21  10  14  1   
 22  10  36  1   
 23  10  37  1   
 24  11  15  ar  
 25  11  38  1   
 26  12  39  1   
 27  12  40  1   
 28  12  41  1   
 29  13  15  ar  
 30  13  42  1   
 31  14  16  1   
 32  14  43  1   
 33  15  44  1   
 34  16  17  2   
 35  16  18  am  
 36  18  19  1   
 37  18  45  1   
 38  19  20  1   
 39  19  46  1   
 40  19  47  1   
 41  20  21  1   
 42  20  48  1   
 43  20  49  1   
 44  21  22  ar  
 45  21  23  ar  
 46  22  24  ar  
 47  22  50  1   
 48  23  25  ar  
 49  23  51  1   
 50  24  26  ar  
 51  24  52  1   
 52  25  26  ar  
 53  25  53  1   
 54  26  27  1   
 55  27  28  1   
 56  28  54  1   
 57  28  55  1   
 58  28  56  1   
@<TRIPOS>SUBSTRUCTURE
  1 ****  18 GROUP 4 **** **** 0

# MOE 2024.06 (io_trps.svl 2023.06)
