@<TRIPOS>MOLECULE
NONAME
54 56 1 0 0 
SMALL
USER_CHARGES


@<TRIPOS>ATOM
  1 F        1.3260     0.2590     1.7050 F     1 <1>  -0.3400 
  2 C        2.5950     0.1160     1.3390 C.3   1 <1>   1.1640 
  3 F        2.6490    -1.0240     0.6520 F     1 <1>  -0.3400 
  4 F        3.2800    -0.0990     2.4530 F     1 <1>  -0.3400 
  5 C        3.1440     1.3010     0.5360 C.ar  1 <1>  -0.1440 
  6 C        4.3950     1.2190    -0.0880 C.ar  1 <1>   0.1170 
  7 C        2.4050     2.4770     0.4330 C.ar  1 <1>  -0.1500 
  8 N        5.1730     0.0450    -0.0300 N.am  1 <1>  -0.5470 
  9 C        4.8610     2.3230    -0.7980 C.ar  1 <1>  -0.1500 
 10 C        2.8860     3.5610    -0.2770 C.ar  1 <1>  -0.1500 
 11 C        6.5340    -0.0990     0.0650 C.2   1 <1>   0.5690 
 12 C        4.1190     3.4830    -0.8930 C.ar  1 <1>  -0.1500 
 13 O        7.2840     0.8460     0.1260 O.2   1 <1>  -0.5700 
 14 C        7.0950    -1.5360     0.0960 C.3   1 <1>   0.1710 
 15 N        8.5590    -1.6970    -0.1640 N.3   1 <1>  -0.8100 
 16 C        9.0410    -3.0740     0.0750 C.3   1 <1>   0.1100 
 17 C        8.9760    -1.2140    -1.5030 C.3   1 <1>   0.1100 
 18 C       10.5580    -3.2270    -0.2130 C.3   1 <1>   0.3430 
 19 C       10.5150    -1.2160    -1.6610 C.3   1 <1>   0.3430 
 20 N       11.1950    -1.9020    -0.5090 N.4   1 <1>  -0.9590 
 21 C       12.6660    -1.9610    -0.6140 C.3   1 <1>   0.4810 
 22 C       13.2010    -0.5650    -0.4080 C.2   1 <1>  -0.2880 
 23 C       13.9010    -0.1660     0.6680 C.2   1 <1>  -0.1780 
 24 C       14.4470     1.1470     0.9310 C.ar  1 <1>   0.0280 
 25 C       13.9950     2.2900     0.2730 C.ar  1 <1>  -0.1500 
 26 C       15.4590     1.3040     1.8740 C.ar  1 <1>  -0.1500 
 27 C       14.5370     3.5340     0.5400 C.ar  1 <1>  -0.1500 
 28 C       16.0050     2.5450     2.1460 C.ar  1 <1>  -0.1500 
 29 C       15.5450     3.6650     1.4770 C.ar  1 <1>  -0.1500 
 30 H        1.4410     2.5700     0.9070 H     1 <1>   0.1500 
 31 H        4.6360    -0.8240    -0.0150 H     1 <1>   0.3700 
 32 H        5.8180     2.2800    -1.2850 H     1 <1>   0.1500 
 33 H        2.3050     4.4650    -0.3480 H     1 <1>   0.1500 
 34 H        4.5010     4.3240    -1.4460 H     1 <1>   0.1500 
 35 H        6.5490    -2.1260    -0.6190 H     1 <1>   0.0800 
 36 H        6.8810    -1.9280     1.0740 H     1 <1>   0.0800 
 37 H        8.8570    -3.3370     1.1030 H     1 <1>   0.0800 
 38 H        8.4940    -3.7690    -0.5400 H     1 <1>   0.0800 
 39 H        8.5360    -1.8320    -2.2670 H     1 <1>   0.0800 
 40 H        8.6270    -0.2080    -1.6630 H     1 <1>   0.0800 
 41 H       10.6900    -3.8900    -1.0520 H     1 <1>   0.0800 
 42 H       11.0290    -3.6820     0.6430 H     1 <1>   0.0800 
 43 H       10.8500    -0.1930    -1.7180 H     1 <1>   0.0800 
 44 H       10.7740    -1.6980    -2.5890 H     1 <1>   0.0800 
 45 H       10.9550    -1.3080     0.3010 H     1 <1>   0.4500 
 46 H       13.0600    -2.6030     0.1570 H     1 <1>   0.0800 
 47 H       12.9690    -2.3480    -1.5730 H     1 <1>   0.0800 
 48 H       12.9800     0.0970    -1.2260 H     1 <1>   0.1500 
 49 H       14.1150    -0.8690     1.4560 H     1 <1>   0.1500 
 50 H       13.2070     2.2170    -0.4520 H     1 <1>   0.1500 
 51 H       15.8320     0.4450     2.4030 H     1 <1>   0.1500 
 52 H       14.1740     4.4040     0.0210 H     1 <1>   0.1500 
 53 H       16.7890     2.6430     2.8770 H     1 <1>   0.1500 
 54 H       15.9680     4.6320     1.6860 H     1 <1>   0.1500 
@<TRIPOS>BOND
  1   1   2  1   
  2   2   3  1   
  3   2   4  1   
  4   2   5  1   
  5   5   6  ar  
  6   5   7  ar  
  7   6   8  1   
  8   6   9  ar  
  9   7  10  ar  
 10   7  30  1   
 11   8  11  am  
 12   8  31  1   
 13   9  12  ar  
 14   9  32  1   
 15  10  12  ar  
 16  10  33  1   
 17  11  13  2   
 18  11  14  1   
 19  12  34  1   
 20  14  15  1   
 21  14  35  1   
 22  14  36  1   
 23  15  16  1   
 24  15  17  1   
 25  16  18  1   
 26  16  37  1   
 27  16  38  1   
 28  17  19  1   
 29  17  39  1   
 30  17  40  1   
 31  18  20  1   
 32  18  41  1   
 33  18  42  1   
 34  19  20  1   
 35  19  43  1   
 36  19  44  1   
 37  20  21  1   
 38  20  45  1   
 39  21  22  1   
 40  21  46  1   
 41  21  47  1   
 42  22  23  2   
 43  22  48  1   
 44  23  24  1   
 45  23  49  1   
 46  24  25  ar  
 47  24  26  ar  
 48  25  27  ar  
 49  25  50  1   
 50  26  28  ar  
 51  26  51  1   
 52  27  29  ar  
 53  27  52  1   
 54  28  29  ar  
 55  28  53  1   
 56  29  54  1   
@<TRIPOS>SUBSTRUCTURE
  1 ****  13 GROUP 4 **** **** 0

# MOE 2024.06 (io_trps.svl 2023.06)
