@<TRIPOS>MOLECULE
NONAME
51 52 1 0 0 
SMALL
USER_CHARGES


@<TRIPOS>ATOM
  1 CL       0.0280     1.3510     0.3010 Cl    1 <1>  -0.1770 
  2 C        1.6580     1.4950    -0.3220 C.ar  1 <1>   0.1770 
  3 C        1.9580     2.4100    -1.3260 C.ar  1 <1>   0.0830 
  4 C        2.6350     0.6750     0.2060 C.ar  1 <1>  -0.1500 
  5 O        1.0140     3.2210    -1.8630 O.3   1 <1>  -0.3630 
  6 C        3.2530     2.4820    -1.8120 C.ar  1 <1>  -0.1500 
  7 C        3.9370     0.7510    -0.2730 C.ar  1 <1>   0.1990 
  8 C        0.7110     4.3810    -1.1220 C.3   1 <1>   0.0400 
  9 C        4.2340     1.6590    -1.2850 C.ar  1 <1>  -0.1500 
 10 N        4.9150    -0.0830     0.2530 N.am  1 <1>  -0.6930 
 11 S        5.2550    -1.6020    -0.5060 S.o2  1 <1>   1.4470 
 12 C        6.0150     0.5350     1.0590 C.3   1 <1>   0.2570 
 13 O        6.3300    -2.1880     0.2680 O.2   1 <1>  -0.6500 
 14 O        5.4550    -1.3240    -1.9080 O.2   1 <1>  -0.6500 
 15 C        3.7140    -2.5120    -0.2250 C.ar  1 <1>  -0.0090 
 16 C        7.2520     0.9360     0.2460 C.2   1 <1>   0.5690 
 17 C        3.5230    -3.2710     0.9230 C.ar  1 <1>  -0.1500 
 18 C        2.6650    -2.4360    -1.1340 C.ar  1 <1>  -0.1500 
 19 O        7.4280     2.1050    -0.0030 O.2   1 <1>  -0.5700 
 20 N        8.1300    -0.0190    -0.1620 N.am  1 <1>  -0.7300 
 21 C        2.3280    -3.9300     1.1570 C.ar  1 <1>  -0.1500 
 22 C        1.4680    -3.0900    -0.9050 C.ar  1 <1>  -0.1500 
 23 C        9.2820     0.2150    -1.0680 C.3   1 <1>   0.1400 
 24 C        1.2930    -3.8420     0.2430 C.ar  1 <1>  -0.1430 
 25 C       10.4550     0.8230    -0.3000 C.3   1 <1>   0.1200 
 26 C       -0.0210    -4.5580     0.4990 C.3   1 <1>  -0.0970 
 27 O       11.5630     0.8670    -1.1440 O.3   1 <1>  -0.5600 
 28 C       12.6790     1.4690    -0.5740 C.3   1 <1>   0.0400 
 29 H        2.3840    -0.0240     0.9810 H     1 <1>   0.1500 
 30 H        3.4880     3.1780    -2.5980 H     1 <1>   0.1500 
 31 H       -0.0290     4.9420    -1.6640 H     1 <1>   0.0800 
 32 H        1.6070     4.9650    -1.0070 H     1 <1>   0.0800 
 33 H        0.3220     4.0950    -0.1610 H     1 <1>   0.0800 
 34 H        5.2390     1.7140    -1.6680 H     1 <1>   0.1500 
 35 H        6.3170    -0.1500     1.8290 H     1 <1>   0.0800 
 36 H        5.6360     1.4170     1.5430 H     1 <1>   0.0800 
 37 H        4.3180    -3.3480     1.6460 H     1 <1>   0.1500 
 38 H        2.7830    -1.8520    -2.0320 H     1 <1>   0.1500 
 39 H        7.8950    -1.0090     0.0050 H     1 <1>   0.3700 
 40 H        2.2080    -4.5100     2.0560 H     1 <1>   0.1500 
 41 H        0.6720    -3.0090    -1.6250 H     1 <1>   0.1500 
 42 H        8.9850     0.8890    -1.8550 H     1 <1>   0.0800 
 43 H        9.5820    -0.7210    -1.5050 H     1 <1>   0.0800 
 44 H       10.7000     0.2140     0.5520 H     1 <1>   0.0800 
 45 H       10.2120     1.8260     0.0090 H     1 <1>   0.0800 
 46 H        0.1420    -5.4500     1.0770 H     1 <1>   0.0800 
 47 H       -0.4840    -4.8370    -0.4310 H     1 <1>   0.0800 
 48 H       -0.6890    -3.9110     1.0380 H     1 <1>   0.0800 
 49 H       13.4760     1.4480    -1.2960 H     1 <1>   0.0800 
 50 H       12.9700     0.9200     0.3050 H     1 <1>   0.0800 
 51 H       12.4430     2.4890    -0.3240 H     1 <1>   0.0800 
@<TRIPOS>BOND
  1   1   2  1   
  2   2   3  ar  
  3   2   4  ar  
  4   3   5  1   
  5   3   6  ar  
  6   4   7  ar  
  7   4  29  1   
  8   5   8  1   
  9   6   9  ar  
 10   6  30  1   
 11   7   9  ar  
 12   7  10  1   
 13   8  31  1   
 14   8  32  1   
 15   8  33  1   
 16   9  34  1   
 17  10  11  am  
 18  10  12  1   
 19  11  13  2   
 20  11  14  2   
 21  11  15  1   
 22  12  16  1   
 23  12  35  1   
 24  12  36  1   
 25  15  17  ar  
 26  15  18  ar  
 27  16  19  2   
 28  16  20  am  
 29  17  21  ar  
 30  17  37  1   
 31  18  22  ar  
 32  18  38  1   
 33  20  23  1   
 34  20  39  1   
 35  21  24  ar  
 36  21  40  1   
 37  22  24  ar  
 38  22  41  1   
 39  23  25  1   
 40  23  42  1   
 41  23  43  1   
 42  24  26  1   
 43  25  27  1   
 44  25  44  1   
 45  25  45  1   
 46  26  46  1   
 47  26  47  1   
 48  26  48  1   
 49  27  28  1   
 50  28  49  1   
 51  28  50  1   
 52  28  51  1   
@<TRIPOS>SUBSTRUCTURE
  1 ****  10 GROUP 4 **** **** 0

# MOE 2024.06 (io_trps.svl 2023.06)
