@<TRIPOS>MOLECULE
NONAME
28 28 1 0 0 
SMALL
USER_CHARGES


@<TRIPOS>ATOM
  1 BR       1.1130    -0.9340     2.8570 Br    1 <1>  -0.1110 
  2 C        2.0920    -1.2930     1.2420 C.ar  1 <1>   0.1110 
  3 C        3.1860    -0.5030     0.9430 C.ar  1 <1>  -0.1500 
  4 C        1.6790    -2.3260     0.4250 C.ar  1 <1>  -0.1500 
  5 C        3.9000    -0.7620    -0.2200 C.ar  1 <1>  -0.1430 
  6 C        2.3900    -2.5750    -0.7350 C.ar  1 <1>  -0.1500 
  7 C        3.4930    -1.7970    -1.0550 C.ar  1 <1>  -0.1500 
  8 C        5.1130     0.0700    -0.5690 C.3   1 <1>   0.4870 
  9 N        6.2740    -0.5950     0.0580 N.4   1 <1>  -0.9060 
 10 C        7.5630     0.0910    -0.1890 C.3   1 <1>   0.3430 
 11 C        8.6790    -0.7000     0.4820 C.3   1 <1>  -0.1600 
 12 C       10.0370    -0.0610     0.1940 C.3   1 <1>   0.1200 
 13 O       11.0090    -0.9120     0.6700 O.3   1 <1>  -0.6800 
 14 H        3.4520     0.2920     1.6180 H     1 <1>   0.1500 
 15 H        0.8200    -2.9190     0.6910 H     1 <1>   0.1500 
 16 H        2.0810    -3.3740    -1.3890 H     1 <1>   0.1500 
 17 H        4.0220    -2.0130    -1.9700 H     1 <1>   0.1500 
 18 H        4.9950     1.0720    -0.1870 H     1 <1>   0.0800 
 19 H        5.2320     0.1160    -1.6400 H     1 <1>   0.0800 
 20 H        6.3090    -1.5610    -0.2910 H     1 <1>   0.4500 
 21 H        6.0890    -0.6740     1.0650 H     1 <1>   0.4500 
 22 H        7.5350     1.0930     0.2110 H     1 <1>   0.0800 
 23 H        7.7520     0.1500    -1.2500 H     1 <1>   0.0800 
 24 H        8.6890    -1.7040     0.0920 H     1 <1>   0.0800 
 25 H        8.5240    -0.7270     1.5460 H     1 <1>   0.0800 
 26 H       10.1530     0.8970     0.6740 H     1 <1>   0.0800 
 27 H       10.1990     0.0470    -0.8660 H     1 <1>   0.0800 
 28 H       11.1140    -0.8470     1.6400 H     1 <1>   0.4000 
@<TRIPOS>BOND
  1   1   2  1   
  2   2   3  ar  
  3   2   4  ar  
  4   3   5  ar  
  5   3  14  1   
  6   4   6  ar  
  7   4  15  1   
  8   5   7  ar  
  9   5   8  1   
 10   6   7  ar  
 11   6  16  1   
 12   7  17  1   
 13   8   9  1   
 14   8  18  1   
 15   8  19  1   
 16   9  10  1   
 17   9  20  1   
 18   9  21  1   
 19  10  11  1   
 20  10  22  1   
 21  10  23  1   
 22  11  12  1   
 23  11  24  1   
 24  11  25  1   
 25  12  13  1   
 26  12  26  1   
 27  12  27  1   
 28  13  28  1   
@<TRIPOS>SUBSTRUCTURE
  1 ****   9 GROUP 4 **** **** 0

# MOE 2024.06 (io_trps.svl 2023.06)
