@<TRIPOS>MOLECULE
NONAME
28 29 1 0 0 
SMALL
USER_CHARGES


@<TRIPOS>ATOM
  1 F       -1.1200     0.7140    -0.3940 F     1 <1>  -0.3400 
  2 C       -0.3500     1.8000    -0.3720 C.3   1 <1>   1.0200 
  3 F       -1.1030     2.7510     0.1730 F     1 <1>  -0.3400 
  4 F       -0.2110     2.1540    -1.6460 F     1 <1>  -0.3400 
  5 C        0.9970     1.5780     0.3650 C.3   1 <1>   0.6800 
  6 F        0.7700     1.1010     1.6010 F     1 <1>  -0.3400 
  7 F        1.6890     0.5860    -0.2170 F     1 <1>  -0.3400 
  8 C        1.8400     2.8650     0.4400 C.3   1 <1>   0.7410 
  9 F        2.9840     2.6280     1.0960 F     1 <1>  -0.3400 
 10 F        1.2360     3.7540     1.2340 F     1 <1>  -0.3400 
 11 C        2.1790     3.4680    -0.9510 C.2   1 <1>   0.5690 
 12 O        2.8370     2.8110    -1.7220 O.2   1 <1>  -0.5700 
 13 N        1.7520     4.6890    -1.4030 N.am  1 <1>  -0.5470 
 14 C        0.9250     5.6530    -0.8210 C.ar  1 <1>   0.1170 
 15 C       -0.4160     5.7230    -1.1880 C.ar  1 <1>  -0.1500 
 16 C        1.4390     6.5520     0.1170 C.ar  1 <1>  -0.1500 
 17 C       -1.2040     6.6860    -0.5930 C.ar  1 <1>   0.0830 
 18 C        0.6300     7.5150     0.7040 C.ar  1 <1>  -0.1500 
 19 O       -2.5040     6.9290    -0.7880 O.3   1 <1>  -0.3630 
 20 C       -0.6970     7.5570     0.3270 C.ar  1 <1>   0.0830 
 21 C       -2.8500     8.0180     0.0670 C.3   1 <1>   0.4000 
 22 O       -1.6560     8.3880     0.7540 O.3   1 <1>  -0.3630 
 23 H        2.0600     4.8890    -2.3590 H     1 <1>   0.3700 
 24 H       -0.8400     5.0510    -1.9110 H     1 <1>   0.1500 
 25 H        2.4780     6.4950     0.3900 H     1 <1>   0.1500 
 26 H        1.0110     8.2120     1.4300 H     1 <1>   0.1500 
 27 H       -3.5910     7.6960     0.7770 H     1 <1>   0.0800 
 28 H       -3.1980     8.8450    -0.5250 H     1 <1>   0.0800 
@<TRIPOS>BOND
  1   1   2  1   
  2   2   3  1   
  3   2   4  1   
  4   2   5  1   
  5   5   6  1   
  6   5   7  1   
  7   5   8  1   
  8   8   9  1   
  9   8  10  1   
 10   8  11  1   
 11  11  12  2   
 12  11  13  am  
 13  13  14  1   
 14  13  23  1   
 15  14  15  ar  
 16  14  16  ar  
 17  15  17  ar  
 18  15  24  1   
 19  16  18  ar  
 20  16  25  1   
 21  17  19  1   
 22  17  20  ar  
 23  18  20  ar  
 24  18  26  1   
 25  19  21  1   
 26  20  22  1   
 27  21  22  1   
 28  21  27  1   
 29  21  28  1   
@<TRIPOS>SUBSTRUCTURE
  1 ****  14 GROUP 4 **** **** 0

# MOE 2024.06 (io_trps.svl 2023.06)
