@<TRIPOS>MOLECULE
NONAME
51 53 1 0 0 
SMALL
USER_CHARGES


@<TRIPOS>ATOM
  1 CL      -1.6160     2.9800     3.1460 Cl    1 <1>  -0.1770 
  2 C       -0.8190     3.7840     1.8200 C.ar  1 <1>   0.1770 
  3 C       -0.9170     5.1570     1.7010 C.ar  1 <1>  -0.1500 
  4 C       -0.1020     3.0360     0.9060 C.ar  1 <1>  -0.1500 
  5 C       -0.2820     5.7940     0.6480 C.ar  1 <1>  -0.1500 
  6 C        0.5340     3.6760    -0.1450 C.ar  1 <1>  -0.1500 
  7 C        0.4500     5.0580    -0.2760 C.ar  1 <1>  -0.1430 
  8 C        1.1590     5.7570    -1.4230 C.3   1 <1>   0.4870 
  9 N        2.3100     6.5240    -0.8860 N.4   1 <1>  -0.9590 
 10 C        3.0080     7.3830    -1.8940 C.3   1 <1>   0.3430 
 11 C        3.2980     5.7090    -0.1010 C.3   1 <1>   0.3430 
 12 C        4.0510     8.2950    -1.2060 C.3   1 <1>   0.1100 
 13 C        4.3870     6.6140     0.5290 C.3   1 <1>   0.1100 
 14 N        4.1380     8.0480     0.2580 N.3   1 <1>  -0.8100 
 15 C        5.1570     8.9090     0.8910 C.3   1 <1>   0.2530 
 16 C        4.7830    10.3760     0.7230 C.ar  1 <1>  -0.1430 
 17 C        5.4890    11.2170    -0.1350 C.ar  1 <1>   0.0830 
 18 C        3.7090    10.8780     1.4390 C.ar  1 <1>  -0.1500 
 19 O        6.5260    10.6840    -0.8380 O.3   1 <1>  -0.3630 
 20 C        5.1090    12.5520    -0.2530 C.ar  1 <1>  -0.1500 
 21 C        3.3260    12.2020     1.3200 C.ar  1 <1>   0.0830 
 22 C        7.4480    11.5100    -1.5170 C.3   1 <1>   0.0400 
 23 C        4.0360    13.0430     0.4690 C.ar  1 <1>  -0.1500 
 24 O        2.2570    12.5960     2.0590 O.3   1 <1>  -0.3620 
 25 C        1.8380    13.9430     2.0710 C.3   1 <1>   0.0400 
 26 H       -1.4870     5.7130     2.4250 H     1 <1>   0.1500 
 27 H       -0.0480     1.9680     1.0220 H     1 <1>   0.1500 
 28 H       -0.3690     6.8650     0.5630 H     1 <1>   0.1500 
 29 H        1.0860     3.0830    -0.8550 H     1 <1>   0.1500 
 30 H        0.4690     6.4230    -1.9150 H     1 <1>   0.0800 
 31 H        1.5010     5.0300    -2.1400 H     1 <1>   0.0800 
 32 H        1.9670     7.2000    -0.1850 H     1 <1>   0.4500 
 33 H        2.2950     8.0040    -2.4110 H     1 <1>   0.0800 
 34 H        3.5040     6.7680    -2.6270 H     1 <1>   0.0800 
 35 H        3.7660     4.9770    -0.7370 H     1 <1>   0.0800 
 36 H        2.7900     5.1810     0.6900 H     1 <1>   0.0800 
 37 H        3.7690     9.3190    -1.3830 H     1 <1>   0.0800 
 38 H        5.0160     8.1480    -1.6630 H     1 <1>   0.0800 
 39 H        5.3520     6.3300     0.1420 H     1 <1>   0.0800 
 40 H        4.4020     6.4480     1.5930 H     1 <1>   0.0800 
 41 H        6.1280     8.7060     0.4730 H     1 <1>   0.0800 
 42 H        5.2030     8.6920     1.9440 H     1 <1>   0.0800 
 43 H        3.1530    10.2380     2.1000 H     1 <1>   0.1500 
 44 H        5.6330    13.2250    -0.9040 H     1 <1>   0.1500 
 45 H        6.9440    12.0040    -2.3290 H     1 <1>   0.0800 
 46 H        8.2360    10.8890    -1.9020 H     1 <1>   0.0800 
 47 H        7.8540    12.2250    -0.8230 H     1 <1>   0.0800 
 48 H        3.7670    14.0760     0.3560 H     1 <1>   0.1500 
 49 H        1.0020    14.0260     2.7420 H     1 <1>   0.0800 
 50 H        1.5370    14.2240     1.0770 H     1 <1>   0.0800 
 51 H        2.6480    14.5580     2.4190 H     1 <1>   0.0800 
@<TRIPOS>BOND
  1   1   2  1   
  2   2   3  ar  
  3   2   4  ar  
  4   3   5  ar  
  5   3  26  1   
  6   4   6  ar  
  7   4  27  1   
  8   5   7  ar  
  9   5  28  1   
 10   6   7  ar  
 11   6  29  1   
 12   7   8  1   
 13   8   9  1   
 14   8  30  1   
 15   8  31  1   
 16   9  10  1   
 17   9  11  1   
 18   9  32  1   
 19  10  12  1   
 20  10  33  1   
 21  10  34  1   
 22  11  13  1   
 23  11  35  1   
 24  11  36  1   
 25  12  14  1   
 26  12  37  1   
 27  12  38  1   
 28  13  14  1   
 29  13  39  1   
 30  13  40  1   
 31  14  15  1   
 32  15  16  1   
 33  15  41  1   
 34  15  42  1   
 35  16  17  ar  
 36  16  18  ar  
 37  17  19  1   
 38  17  20  ar  
 39  18  21  ar  
 40  18  43  1   
 41  19  22  1   
 42  20  23  ar  
 43  20  44  1   
 44  21  23  ar  
 45  21  24  1   
 46  22  45  1   
 47  22  46  1   
 48  22  47  1   
 49  23  48  1   
 50  24  25  1   
 51  25  49  1   
 52  25  50  1   
 53  25  51  1   
@<TRIPOS>SUBSTRUCTURE
  1 ****  14 GROUP 4 **** **** 0

# MOE 2024.06 (io_trps.svl 2023.06)
