@<TRIPOS>MOLECULE
NONAME
42 44 1 0 0 
SMALL
USER_CHARGES


@<TRIPOS>ATOM
  1 BR      -0.3490    -0.5300    -0.2000 Br    1 <1>  -0.1110 
  2 C       -2.2060    -0.1260    -0.4700 C.ar  1 <1>   0.1110 
  3 C       -2.7920     0.8580     0.3040 C.ar  1 <1>  -0.1500 
  4 C       -2.9060    -0.8360    -1.4360 C.ar  1 <1>  -0.1500 
  5 C       -4.1360     1.1350     0.0920 C.ar  1 <1>   0.0860 
  6 C       -4.2470    -0.5510    -1.6390 C.ar  1 <1>  -0.1500 
  7 C       -5.0420     2.0700     0.6990 C.2   1 <1>   0.5440 
  8 C       -4.8580     0.4370    -0.8700 C.ar  1 <1>   0.0860 
  9 O       -4.7900     2.8630     1.5800 O.2   1 <1>  -0.5700 
 10 N       -6.2740     1.9300     0.1150 N.am  1 <1>  -0.4200 
 11 C       -6.1970     0.9510    -0.8410 C.2   1 <1>   0.5440 
 12 C       -7.4770     2.7380     0.4110 C.3   1 <1>   0.1400 
 13 O       -7.1370     0.6000    -1.5240 O.2   1 <1>  -0.5700 
 14 C       -8.4650     1.9260     1.2470 C.3   1 <1>  -0.0990 
 15 C       -9.7970     2.6310     1.2680 C.2   1 <1>   0.5690 
 16 O      -10.0130     3.4470     2.1270 O.2   1 <1>  -0.5700 
 17 N      -10.6940     2.3300     0.2970 N.am  1 <1>  -0.7300 
 18 C      -12.0280     2.9330     0.1580 C.3   1 <1>   0.2200 
 19 C      -13.0810     1.8220     0.2060 C.3   1 <1>  -0.1600 
 20 C      -12.0870     3.6990    -1.1680 C.3   1 <1>  -0.1600 
 21 C      -14.4890     2.3800    -0.0440 C.3   1 <1>  -0.1600 
 22 C      -13.4940     4.2610    -1.4210 C.3   1 <1>  -0.1600 
 23 C      -14.5520     3.1510    -1.3700 C.3   1 <1>  -0.1600 
 24 H       -2.2300     1.3960     1.0470 H     1 <1>   0.1500 
 25 H       -2.4050    -1.5940    -2.0140 H     1 <1>   0.1500 
 26 H       -4.8230    -1.0810    -2.3800 H     1 <1>   0.1500 
 27 H       -7.9350     3.0240    -0.5210 H     1 <1>   0.0800 
 28 H       -7.1990     3.6350     0.9400 H     1 <1>   0.0800 
 29 H       -8.1000     1.8320     2.2530 H     1 <1>   0.0800 
 30 H       -8.5990     0.9460     0.8300 H     1 <1>   0.0800 
 31 H      -10.4570     1.6400    -0.4170 H     1 <1>   0.3700 
 32 H      -12.2030     3.6200     0.9700 H     1 <1>   0.0800 
 33 H      -13.0530     1.3500     1.1730 H     1 <1>   0.0800 
 34 H      -12.8600     1.0820    -0.5430 H     1 <1>   0.0800 
 35 H      -11.8220     3.0420    -1.9770 H     1 <1>   0.0800 
 36 H      -11.3810     4.5100    -1.1400 H     1 <1>   0.0800 
 37 H      -14.7590     3.0400     0.7630 H     1 <1>   0.0800 
 38 H      -15.2000     1.5730    -0.0610 H     1 <1>   0.0800 
 39 H      -13.5220     4.7440    -2.3830 H     1 <1>   0.0800 
 40 H      -13.7200     5.0030    -0.6740 H     1 <1>   0.0800 
 41 H      -15.5320     3.5810    -1.4900 H     1 <1>   0.0800 
 42 H      -14.3910     2.4680    -2.1870 H     1 <1>   0.0800 
@<TRIPOS>BOND
  1   1   2  1   
  2   2   3  ar  
  3   2   4  ar  
  4   3   5  ar  
  5   3  24  1   
  6   4   6  ar  
  7   4  25  1   
  8   5   7  1   
  9   5   8  ar  
 10   6   8  ar  
 11   6  26  1   
 12   7   9  2   
 13   7  10  am  
 14   8  11  1   
 15  10  11  am  
 16  10  12  1   
 17  11  13  2   
 18  12  14  1   
 19  12  27  1   
 20  12  28  1   
 21  14  15  1   
 22  14  29  1   
 23  14  30  1   
 24  15  16  2   
 25  15  17  am  
 26  17  18  1   
 27  17  31  1   
 28  18  19  1   
 29  18  20  1   
 30  18  32  1   
 31  19  21  1   
 32  19  33  1   
 33  19  34  1   
 34  20  22  1   
 35  20  35  1   
 36  20  36  1   
 37  21  23  1   
 38  21  37  1   
 39  21  38  1   
 40  22  23  1   
 41  22  39  1   
 42  22  40  1   
 43  23  41  1   
 44  23  42  1   
@<TRIPOS>SUBSTRUCTURE
  1 ****  12 GROUP 4 **** **** 0

# MOE 2024.06 (io_trps.svl 2023.06)
