@<TRIPOS>MOLECULE
NONAME
44 46 1 0 0 
SMALL
USER_CHARGES


@<TRIPOS>ATOM
  1 O       -0.4330     0.2050    -0.2320 O.2   1 <1>  -0.5700 
  2 C       -1.3750     0.9570    -0.0580 C.2   1 <1>   0.6340 
  3 O       -2.5250     0.3820     0.2930 O.3   1 <1>  -0.2320 
  4 C       -1.3190     2.3860    -0.2370 C.ar  1 <1>   0.0860 
  5 C       -3.6870     1.0550     0.4120 C.ar  1 <1>   0.0830 
  6 C       -0.1190     3.0720    -0.5100 C.ar  1 <1>   0.4270 
  7 C       -2.5040     3.1180    -0.1450 C.ar  1 <1>   0.0000 
  8 C       -3.7320     2.4350     0.1940 C.ar  1 <1>   0.0000 
  9 C       -4.8210     0.3350     0.7500 C.ar  1 <1>  -0.1500 
 10 N       -0.0660     4.3680    -0.7730 N.ar  1 <1>  -0.6200 
 11 N        1.0930     2.3980    -0.5420 N.am  1 <1>  -0.5470 
 12 C       -2.4060     4.4810    -0.3890 C.ar  1 <1>  -0.1500 
 13 C       -4.9750     3.0600     0.3280 C.ar  1 <1>  -0.1500 
 14 C       -6.0350     0.9780     0.8760 C.ar  1 <1>  -0.1500 
 15 C       -1.1900     5.0490    -0.7000 C.ar  1 <1>   0.1670 
 16 C        2.3610     2.8050    -0.2480 C.2   1 <1>   0.5690 
 17 C       -6.1090     2.3440     0.6630 C.ar  1 <1>  -0.1500 
 18 C       -1.0870     6.5420    -0.9710 C.3   1 <1>  -0.0160 
 19 O        2.6540     3.8760     0.2180 O.2   1 <1>  -0.5700 
 20 C        3.4640     1.8050    -0.4870 C.3   1 <1>  -0.1790 
 21 C       -0.5450     7.2870     0.2600 C.3   1 <1>  -0.1600 
 22 C       -0.3140     8.7900     0.0210 C.3   1 <1>  -0.0800 
 23 C        0.3750     9.4050     1.2440 C.3   1 <1>  -0.2400 
 24 C       -1.6220     9.5420    -0.2600 C.3   1 <1>  -0.2400 
 25 H       -4.7480    -0.7270     0.9110 H     1 <1>   0.1500 
 26 H        0.9930     1.3880    -0.6780 H     1 <1>   0.3700 
 27 H       -3.2690     5.1140    -0.3390 H     1 <1>   0.1500 
 28 H       -5.0770     4.1170     0.1740 H     1 <1>   0.1500 
 29 H       -6.9200     0.4230     1.1380 H     1 <1>   0.1500 
 30 H       -7.0560     2.8470     0.7610 H     1 <1>   0.1500 
 31 H       -2.0540     6.9230    -1.2410 H     1 <1>   0.0800 
 32 H       -0.4250     6.6960    -1.8060 H     1 <1>   0.0800 
 33 H        3.4660     1.5060    -1.5190 H     1 <1>   0.0800 
 34 H        3.3170     0.9440     0.1380 H     1 <1>   0.0800 
 35 H        4.4130     2.2490    -0.2520 H     1 <1>   0.0800 
 36 H        0.3950     6.8330     0.5310 H     1 <1>   0.0800 
 37 H       -1.2190     7.1480     1.0870 H     1 <1>   0.0800 
 38 H        0.3430     8.9090    -0.8260 H     1 <1>   0.0800 
 39 H       -0.2470     9.3120     2.1170 H     1 <1>   0.0800 
 40 H        0.5780    10.4470     1.0750 H     1 <1>   0.0800 
 41 H        1.3100     8.9080     1.4340 H     1 <1>   0.0800 
 42 H       -2.3250     9.3940     0.5410 H     1 <1>   0.0800 
 43 H       -2.0670     9.2120    -1.1810 H     1 <1>   0.0800 
 44 H       -1.4290    10.5970    -0.3520 H     1 <1>   0.0800 
@<TRIPOS>BOND
  1   1   2  2   
  2   2   3  1   
  3   2   4  1   
  4   3   5  1   
  5   4   6  ar  
  6   4   7  ar  
  7   5   8  ar  
  8   5   9  ar  
  9   6  10  ar  
 10   6  11  1   
 11   7   8  1   
 12   7  12  ar  
 13   8  13  ar  
 14   9  14  ar  
 15   9  25  1   
 16  10  15  ar  
 17  11  16  am  
 18  11  26  1   
 19  12  15  ar  
 20  12  27  1   
 21  13  17  ar  
 22  13  28  1   
 23  14  17  ar  
 24  14  29  1   
 25  15  18  1   
 26  16  19  2   
 27  16  20  1   
 28  17  30  1   
 29  18  21  1   
 30  18  31  1   
 31  18  32  1   
 32  20  33  1   
 33  20  34  1   
 34  20  35  1   
 35  21  22  1   
 36  21  36  1   
 37  21  37  1   
 38  22  23  1   
 39  22  24  1   
 40  22  38  1   
 41  23  39  1   
 42  23  40  1   
 43  23  41  1   
 44  24  42  1   
 45  24  43  1   
 46  24  44  1   
@<TRIPOS>SUBSTRUCTURE
  1 ****   7 GROUP 4 **** **** 0

# MOE 2024.06 (io_trps.svl 2023.06)
