@<TRIPOS>MOLECULE
NONAME
47 50 1 0 0 
SMALL
USER_CHARGES


@<TRIPOS>ATOM
  1 O       -0.4490     1.8360    -1.1820 O.2   1 <1>  -0.5700 
  2 C       -0.1410     0.8770    -0.5240 C.2   1 <1>   0.4950 
  3 C        1.1750     0.5990    -0.0170 C.2   1 <1>  -0.1240 
  4 C       -1.2570    -0.1000    -0.1920 C.3   1 <1>  -0.0990 
  5 C        1.4400    -0.5390     0.6580 C.2   1 <1>  -0.0620 
  6 C        2.3020     1.6230    -0.2440 C.3   1 <1>   0.4810 
  7 C       -0.7670    -1.5570    -0.0800 C.3   1 <1>   0.0000 
  8 O        2.6330    -0.8270     1.1720 O.3   1 <1>  -0.1530 
  9 C        0.4100    -1.6280     0.9160 C.3   1 <1>  -0.0220 
 10 C        3.6570     1.1450     0.3200 C.2   1 <1>  -0.1240 
 11 C        2.3820     2.0340    -1.7280 C.2   1 <1>   0.5690 
 12 C        1.8990     2.9650     0.3730 C.ar  1 <1>  -0.1440 
 13 C       -0.3180    -2.0660    -1.4640 C.3   1 <1>  -0.2400 
 14 C       -1.9160    -2.4510     0.4120 C.3   1 <1>  -0.2400 
 15 C        3.7020    -0.0440     0.9970 C.2   1 <1>   0.1770 
 16 C        4.8080     1.9700     0.1160 C.2   1 <1>   0.7060 
 17 O        2.6930     1.3070    -2.6430 O.2   1 <1>  -0.5700 
 18 N        2.0570     3.3460    -1.8630 N.am  1 <1>  -0.5470 
 19 C        1.7640     3.9090    -0.6290 C.ar  1 <1>   0.1170 
 20 C        1.6750     3.3010     1.6960 C.ar  1 <1>  -0.1500 
 21 N        4.8140    -0.5800     1.5700 N.pl3 1 <1>  -0.9000 
 22 O        5.9370     1.6670     0.4760 O.2   1 <1>  -0.5700 
 23 O        4.6850     3.1570    -0.4910 O.3   1 <1>  -0.4300 
 24 C        1.3920     5.2090    -0.3300 C.ar  1 <1>  -0.1500 
 25 C        1.3060     4.6030     2.0000 C.ar  1 <1>  -0.1500 
 26 C        5.7860     4.0150    -0.7150 C.3   1 <1>   0.0400 
 27 C        1.1640     5.5500     0.9930 C.ar  1 <1>  -0.1500 
 28 H       -2.0180    -0.0290    -0.9480 H     1 <1>   0.0800 
 29 H       -1.6950     0.2120     0.7390 H     1 <1>   0.0800 
 30 H        0.0520    -1.5180     1.9250 H     1 <1>   0.0800 
 31 H        0.8810    -2.5930     0.8430 H     1 <1>   0.0800 
 32 H        0.5040    -1.4900    -1.8510 H     1 <1>   0.0800 
 33 H       -1.1270    -2.0060    -2.1700 H     1 <1>   0.0800 
 34 H       -0.0010    -3.0930    -1.4050 H     1 <1>   0.0800 
 35 H       -2.2690    -2.1260     1.3750 H     1 <1>   0.0800 
 36 H       -1.5910    -3.4730     0.4990 H     1 <1>   0.0800 
 37 H       -2.7420    -2.4180    -0.2780 H     1 <1>   0.0800 
 38 H        1.9410     3.7890    -2.7730 H     1 <1>   0.3700 
 39 H        1.7830     2.5670     2.4770 H     1 <1>   0.1500 
 40 H        5.7280    -0.1100     1.4700 H     1 <1>   0.4000 
 41 H        4.8270    -1.4980     2.0220 H     1 <1>   0.4000 
 42 H        1.2840     5.9340    -1.1160 H     1 <1>   0.1500 
 43 H        1.1260     4.8820     3.0240 H     1 <1>   0.1500 
 44 H        6.5050     3.5050    -1.3330 H     1 <1>   0.0800 
 45 H        6.2250     4.2730     0.2340 H     1 <1>   0.0800 
 46 H        5.4310     4.9000    -1.2110 H     1 <1>   0.0800 
 47 H        0.8740     6.5560     1.2440 H     1 <1>   0.1500 
@<TRIPOS>BOND
  1   1   2  2   
  2   2   3  1   
  3   2   4  1   
  4   3   5  2   
  5   3   6  1   
  6   4   7  1   
  7   4  28  1   
  8   4  29  1   
  9   5   8  1   
 10   5   9  1   
 11   6  10  1   
 12   6  11  1   
 13   6  12  1   
 14   7   9  1   
 15   7  13  1   
 16   7  14  1   
 17   8  15  1   
 18   9  30  1   
 19   9  31  1   
 20  10  15  2   
 21  10  16  1   
 22  11  17  2   
 23  11  18  am  
 24  12  19  ar  
 25  12  20  ar  
 26  13  32  1   
 27  13  33  1   
 28  13  34  1   
 29  14  35  1   
 30  14  36  1   
 31  14  37  1   
 32  15  21  1   
 33  16  22  2   
 34  16  23  1   
 35  18  19  1   
 36  18  38  1   
 37  19  24  ar  
 38  20  25  ar  
 39  20  39  1   
 40  21  40  1   
 41  21  41  1   
 42  23  26  1   
 43  24  27  ar  
 44  24  42  1   
 45  25  27  ar  
 46  25  43  1   
 47  26  44  1   
 48  26  45  1   
 49  26  46  1   
 50  27  47  1   
@<TRIPOS>SUBSTRUCTURE
  1 ****   6 GROUP 4 **** **** 0

# MOE 2024.06 (io_trps.svl 2023.06)
