@<TRIPOS>MOLECULE
NONAME
46 48 1 0 0 
SMALL
USER_CHARGES


@<TRIPOS>ATOM
  1 S        0.0020     0.3850     0.6770 S.o2  1 <1>   1.4470 
  2 O       -0.2980     0.5730     2.0810 O.2   1 <1>  -0.6500 
  3 O       -0.4900    -0.7950    -0.0010 O.2   1 <1>  -0.6500 
  4 N       -0.6150     1.7410    -0.1380 N.am  1 <1>  -0.8490 
  5 C        1.7900     0.5120     0.3900 C.ar  1 <1>  -0.0090 
  6 C       -0.2660     2.9850     0.5600 C.3   1 <1>   0.1960 
  7 C       -2.0570     1.5920    -0.3640 C.3   1 <1>   0.1960 
  8 C        2.3010     0.6210    -0.8980 C.ar  1 <1>  -0.1500 
  9 C        2.6980     0.5050     1.4430 C.ar  1 <1>  -0.1500 
 10 C       -0.2180     4.1560    -0.4250 C.3   1 <1>  -0.1600 
 11 C       -2.6520     2.6740    -1.2750 C.3   1 <1>  -0.1600 
 12 C        3.6610     0.7240    -1.1270 C.ar  1 <1>  -0.1500 
 13 C        4.0600     0.6070     1.2180 C.ar  1 <1>  -0.1500 
 14 C       -1.5470     4.9050    -0.6120 C.3   1 <1>  -0.1600 
 15 C       -2.8120     4.0360    -0.5840 C.3   1 <1>  -0.1600 
 16 C        4.5650     0.7230    -0.0720 C.ar  1 <1>   0.1170 
 17 N        5.9360     0.8160    -0.3490 N.am  1 <1>  -0.5470 
 18 C        6.9710     1.2990     0.4200 C.2   1 <1>   0.5440 
 19 O        6.7380     1.8850     1.4570 O.2   1 <1>  -0.5700 
 20 C        8.3360     1.1420    -0.0310 C.ar  1 <1>   0.0860 
 21 C        8.7570    -0.0150    -0.6870 C.ar  1 <1>   0.1600 
 22 C        9.2900     2.1320     0.1690 C.ar  1 <1>  -0.1500 
 23 N        9.9710    -0.2410    -1.1630 N.ar  1 <1>  -0.6200 
 24 C       10.5640     1.9140    -0.3090 C.ar  1 <1>  -0.1500 
 25 C       10.8490     0.7280    -0.9630 C.ar  1 <1>   0.1600 
 26 H        0.7200     2.8900     0.9830 H     1 <1>   0.0800 
 27 H       -0.9450     3.1780     1.3740 H     1 <1>   0.0800 
 28 H       -2.5760     1.5730     0.5810 H     1 <1>   0.0800 
 29 H       -2.2350     0.6460    -0.8470 H     1 <1>   0.0800 
 30 H        1.6160     0.6270    -1.7300 H     1 <1>   0.1500 
 31 H        2.3360     0.4180     2.4540 H     1 <1>   0.1500 
 32 H        0.1370     3.7950    -1.3750 H     1 <1>   0.0800 
 33 H        0.5090     4.8660    -0.0720 H     1 <1>   0.0800 
 34 H       -3.6340     2.3380    -1.5570 H     1 <1>   0.0800 
 35 H       -2.0760     2.7590    -2.1800 H     1 <1>   0.0800 
 36 H        4.0190     0.8100    -2.1370 H     1 <1>   0.1500 
 37 H        4.7330     0.5960     2.0570 H     1 <1>   0.1500 
 38 H       -1.5040     5.4260    -1.5530 H     1 <1>   0.0800 
 39 H       -1.6400     5.6520     0.1570 H     1 <1>   0.0800 
 40 H       -3.1240     3.8840     0.4350 H     1 <1>   0.0800 
 41 H       -3.6000     4.5840    -1.0720 H     1 <1>   0.0800 
 42 H        6.1880     0.5800    -1.3070 H     1 <1>   0.3700 
 43 H        8.0430    -0.8080    -0.8240 H     1 <1>   0.1500 
 44 H        9.0310     3.0410     0.6850 H     1 <1>   0.1500 
 45 H       11.3320     2.6560    -0.1780 H     1 <1>   0.1500 
 46 H       11.8470     0.5680    -1.3370 H     1 <1>   0.1500 
@<TRIPOS>BOND
  1   1   2  2   
  2   1   3  2   
  3   1   4  am  
  4   1   5  1   
  5   4   6  1   
  6   4   7  1   
  7   5   8  ar  
  8   5   9  ar  
  9   6  10  1   
 10   6  26  1   
 11   6  27  1   
 12   7  11  1   
 13   7  28  1   
 14   7  29  1   
 15   8  12  ar  
 16   8  30  1   
 17   9  13  ar  
 18   9  31  1   
 19  10  14  1   
 20  10  32  1   
 21  10  33  1   
 22  11  15  1   
 23  11  34  1   
 24  11  35  1   
 25  12  16  ar  
 26  12  36  1   
 27  13  16  ar  
 28  13  37  1   
 29  14  15  1   
 30  14  38  1   
 31  14  39  1   
 32  15  40  1   
 33  15  41  1   
 34  16  17  1   
 35  17  18  am  
 36  17  42  1   
 37  18  19  2   
 38  18  20  1   
 39  20  21  ar  
 40  20  22  ar  
 41  21  23  ar  
 42  21  43  1   
 43  22  24  ar  
 44  22  44  1   
 45  23  25  ar  
 46  24  25  ar  
 47  24  45  1   
 48  25  46  1   
@<TRIPOS>SUBSTRUCTURE
  1 ****  12 GROUP 4 **** **** 0

# MOE 2024.06 (io_trps.svl 2023.06)
