@<TRIPOS>MOLECULE
NONAME
43 45 1 0 0 
SMALL
USER_CHARGES


@<TRIPOS>ATOM
  1 CL      -2.5530     1.6000     2.3080 Cl    1 <1>  -0.1770 
  2 C       -1.3860     2.3300     1.2310 C.ar  1 <1>   0.1770 
  3 C       -1.5660     2.2390    -0.1420 C.ar  1 <1>  -0.1440 
  4 C       -0.3060     2.9970     1.7770 C.ar  1 <1>  -0.1500 
  5 C       -0.6290     2.8330    -0.9770 C.ar  1 <1>  -0.1500 
  6 C       -2.7620     1.5050    -0.7120 C.3   1 <1>   0.4870 
  7 C        0.6190     3.5890     0.9350 C.ar  1 <1>  -0.1500 
  8 C        0.4560     3.5050    -0.4380 C.ar  1 <1>  -0.1500 
  9 N       -4.0000     2.2670    -0.4030 N.4   1 <1>  -0.9590 
 10 C       -5.2250     1.5150    -0.7840 C.3   1 <1>   0.4860 
 11 C       -4.0170     3.6390    -0.9890 C.3   1 <1>   0.3430 
 12 C       -6.4660     2.3090    -0.4110 C.ar  1 <1>  -0.1430 
 13 C       -5.1350     4.4650    -0.3490 C.3   1 <1>  -0.0170 
 14 C       -6.4350     3.6840    -0.2200 C.ar  1 <1>  -0.1430 
 15 C       -7.6660     1.6340    -0.2670 C.ar  1 <1>  -0.1500 
 16 C       -7.6010     4.3580     0.1090 C.ar  1 <1>  -0.1500 
 17 C       -8.8380     2.2920     0.0610 C.ar  1 <1>   0.0830 
 18 C       -8.8130     3.6850     0.2530 C.ar  1 <1>   0.0830 
 19 O       -9.9180     1.4630     0.1590 O.3   1 <1>  -0.3630 
 20 O       -9.9550     4.3600     0.5750 O.3   1 <1>  -0.3620 
 21 C      -11.2140     1.9000     0.5020 C.3   1 <1>   0.0400 
 22 C       -9.9930     5.7570     0.7700 C.3   1 <1>   0.0400 
 23 H       -0.1880     3.0530     2.8450 H     1 <1>   0.1500 
 24 H       -0.7240     2.7790    -2.0500 H     1 <1>   0.1500 
 25 H       -2.8140     0.5220    -0.2700 H     1 <1>   0.0800 
 26 H       -2.6500     1.3940    -1.7780 H     1 <1>   0.0800 
 27 H        1.4680     4.1110     1.3460 H     1 <1>   0.1500 
 28 H        1.1840     3.9640    -1.0880 H     1 <1>   0.1500 
 29 H       -4.0390     2.3740     0.6220 H     1 <1>   0.4500 
 30 H       -5.2480     0.5650    -0.2740 H     1 <1>   0.0800 
 31 H       -5.2330     1.3330    -1.8460 H     1 <1>   0.0800 
 32 H       -4.1840     3.5770    -2.0520 H     1 <1>   0.0800 
 33 H       -3.0740     4.1350    -0.8210 H     1 <1>   0.0800 
 34 H       -5.2980     5.3480    -0.9420 H     1 <1>   0.0800 
 35 H       -4.8200     4.7860     0.6280 H     1 <1>   0.0800 
 36 H       -7.7200     0.5680    -0.4100 H     1 <1>   0.1500 
 37 H       -7.5460     5.4200     0.2540 H     1 <1>   0.1500 
 38 H      -11.8640     1.0440     0.5180 H     1 <1>   0.0800 
 39 H      -11.5530     2.6020    -0.2400 H     1 <1>   0.0800 
 40 H      -11.1830     2.3540     1.4760 H     1 <1>   0.0800 
 41 H      -11.0060     6.0320     1.0060 H     1 <1>   0.0800 
 42 H       -9.6860     6.2460    -0.1370 H     1 <1>   0.0800 
 43 H       -9.3470     6.0150     1.5900 H     1 <1>   0.0800 
@<TRIPOS>BOND
  1   1   2  1   
  2   2   3  ar  
  3   2   4  ar  
  4   3   5  ar  
  5   3   6  1   
  6   4   7  ar  
  7   4  23  1   
  8   5   8  ar  
  9   5  24  1   
 10   6   9  1   
 11   6  25  1   
 12   6  26  1   
 13   7   8  ar  
 14   7  27  1   
 15   8  28  1   
 16   9  10  1   
 17   9  11  1   
 18   9  29  1   
 19  10  12  1   
 20  10  30  1   
 21  10  31  1   
 22  11  13  1   
 23  11  32  1   
 24  11  33  1   
 25  12  14  ar  
 26  12  15  ar  
 27  13  14  1   
 28  13  34  1   
 29  13  35  1   
 30  14  16  ar  
 31  15  17  ar  
 32  15  36  1   
 33  16  18  ar  
 34  16  37  1   
 35  17  18  ar  
 36  17  19  1   
 37  18  20  1   
 38  19  21  1   
 39  20  22  1   
 40  21  38  1   
 41  21  39  1   
 42  21  40  1   
 43  22  41  1   
 44  22  42  1   
 45  22  43  1   
@<TRIPOS>SUBSTRUCTURE
  1 ****   9 GROUP 4 **** **** 0

# MOE 2024.06 (io_trps.svl 2023.06)
