@<TRIPOS>MOLECULE
NONAME
43 43 1 0 0 
SMALL
USER_CHARGES


@<TRIPOS>ATOM
  1 N       -0.1680     1.3780    -2.0730 N.4   1 <1>  -0.9590 
  2 C        1.2790     1.4240    -2.4500 C.3   1 <1>   0.4810 
  3 C       -0.5390     0.1310    -1.2930 C.3   1 <1>   0.3430 
  4 C       -0.9940     1.4920    -3.3200 C.3   1 <1>   0.2630 
  5 C        2.1060     1.4140    -1.1790 C.2   1 <1>  -0.2760 
  6 C       -0.4040     0.2560     0.2570 C.3   1 <1>   0.3430 
  7 C        2.7040     0.2840    -0.7540 C.2   1 <1>  -0.1780 
  8 C        2.1990     2.7820    -0.5020 C.3   1 <1>  -0.1020 
  9 N       -0.5430    -1.0430     1.0180 N.4   1 <1>  -0.9590 
 10 C        3.4610     0.0050     0.4460 C.ar  1 <1>   0.0280 
 11 C       -0.6450    -0.7680     2.4900 C.3   1 <1>   0.2630 
 12 C        0.6090    -1.9820     0.7970 C.3   1 <1>   0.2630 
 13 C        4.5220    -0.8950     0.3900 C.ar  1 <1>  -0.1500 
 14 C        3.1460     0.5560     1.6870 C.ar  1 <1>  -0.1500 
 15 C        5.2350    -1.2380     1.5230 C.ar  1 <1>  -0.1500 
 16 C        3.8580     0.2200     2.8240 C.ar  1 <1>  -0.1500 
 17 C        4.9030    -0.6810     2.7440 C.ar  1 <1>  -0.1500 
 18 H       -0.3440     2.2230    -1.5090 H     1 <1>   0.4500 
 19 H        1.5270     0.5640    -3.0520 H     1 <1>   0.0800 
 20 H        1.4990     2.3110    -3.0240 H     1 <1>   0.0800 
 21 H       -1.5630    -0.1220    -1.5110 H     1 <1>   0.0800 
 22 H        0.0800    -0.6830    -1.6330 H     1 <1>   0.0800 
 23 H       -0.8210     0.6490    -3.9690 H     1 <1>   0.0800 
 24 H       -0.7430     2.3940    -3.8570 H     1 <1>   0.0800 
 25 H       -2.0450     1.5280    -3.0760 H     1 <1>   0.0800 
 26 H       -1.1610     0.9410     0.6020 H     1 <1>   0.0800 
 27 H        0.5550     0.6820     0.4950 H     1 <1>   0.0800 
 28 H        2.6380    -0.5950    -1.3750 H     1 <1>   0.1500 
 29 H        2.4430     3.5400    -1.2270 H     1 <1>   0.0800 
 30 H        2.9870     2.8010     0.2310 H     1 <1>   0.0800 
 31 H        1.2770     3.0520    -0.0220 H     1 <1>   0.0800 
 32 H       -1.4160    -1.5290     0.7490 H     1 <1>   0.4500 
 33 H        0.2530    -0.2880     2.8470 H     1 <1>   0.0800 
 34 H       -0.7770    -1.6890     3.0350 H     1 <1>   0.0800 
 35 H       -1.4860    -0.1270     2.7000 H     1 <1>   0.0800 
 36 H        1.5320    -1.5340     1.1310 H     1 <1>   0.0800 
 37 H        0.7050    -2.2360    -0.2460 H     1 <1>   0.0800 
 38 H        0.4590    -2.8940     1.3540 H     1 <1>   0.0800 
 39 H        4.8040    -1.3340    -0.5520 H     1 <1>   0.1500 
 40 H        2.3410     1.2570     1.7820 H     1 <1>   0.1500 
 41 H        6.0550    -1.9330     1.4570 H     1 <1>   0.1500 
 42 H        3.6110     0.6600     3.7760 H     1 <1>   0.1500 
 43 H        5.4630    -0.9430     3.6270 H     1 <1>   0.1500 
@<TRIPOS>BOND
  1   1   2  1   
  2   1   3  1   
  3   1   4  1   
  4   1  18  1   
  5   2   5  1   
  6   2  19  1   
  7   2  20  1   
  8   3   6  1   
  9   3  21  1   
 10   3  22  1   
 11   4  23  1   
 12   4  24  1   
 13   4  25  1   
 14   5   7  2   
 15   5   8  1   
 16   6   9  1   
 17   6  26  1   
 18   6  27  1   
 19   7  10  1   
 20   7  28  1   
 21   8  29  1   
 22   8  30  1   
 23   8  31  1   
 24   9  11  1   
 25   9  12  1   
 26   9  32  1   
 27  10  13  ar  
 28  10  14  ar  
 29  11  33  1   
 30  11  34  1   
 31  11  35  1   
 32  12  36  1   
 33  12  37  1   
 34  12  38  1   
 35  13  15  ar  
 36  13  39  1   
 37  14  16  ar  
 38  14  40  1   
 39  15  17  ar  
 40  15  41  1   
 41  16  17  ar  
 42  16  42  1   
 43  17  43  1   
@<TRIPOS>SUBSTRUCTURE
  1 ****   7 GROUP 4 **** **** 0

# MOE 2024.06 (io_trps.svl 2023.06)
