@<TRIPOS>MOLECULE
NONAME
45 46 1 0 0 
SMALL
USER_CHARGES


@<TRIPOS>ATOM
  1 S        0.3240    -0.5840    -1.4040 S.3   1 <1>  -0.3710 
  2 C       -0.6710     0.4960    -0.3760 C.2   1 <1>   0.6510 
  3 C        1.7340     0.4780    -2.0130 C.3   1 <1>   0.1310 
  4 N       -0.3440     1.7300    -0.3640 N.2   1 <1>  -0.6210 
  5 N       -1.6980    -0.0940     0.3380 N.am  1 <1>  -0.2370 
  6 C        3.0480     0.1150    -1.3230 C.2   1 <1>   0.5690 
  7 C       -1.0160     2.5600     0.4810 C.2   1 <1>   0.0210 
  8 C       -2.4270     0.7530     1.1690 C.2   1 <1>   0.6160 
  9 C       -1.9870    -1.4700     0.2650 C.ar  1 <1>   0.1170 
 10 O        3.7100    -0.7440    -1.8630 O.2   1 <1>  -0.5700 
 11 N        3.5010     0.7410    -0.1790 N.am  1 <1>  -0.6600 
 12 O       -0.6200     3.7220     0.5470 O.3   1 <1>  -0.8500 
 13 C       -2.0670     2.0860     1.2380 C.2   1 <1>  -0.1360 
 14 O       -3.3730     0.2880     1.8320 O.2   1 <1>  -0.5700 
 15 C       -3.0110    -1.9330    -0.5530 C.ar  1 <1>  -0.1500 
 16 C       -1.2540    -2.3890     1.0070 C.ar  1 <1>  -0.1500 
 17 C        4.8200     0.3760     0.4020 C.3   1 <1>   0.1400 
 18 C        2.7660     1.8110     0.5590 C.3   1 <1>   0.1400 
 19 C       -3.2910    -3.2850    -0.6310 C.ar  1 <1>  -0.1500 
 20 C       -1.5290    -3.7430     0.9320 C.ar  1 <1>  -0.1500 
 21 C        5.8990     1.2950    -0.1650 C.3   1 <1>  -0.2400 
 22 C        2.0790     1.2170     1.7870 C.3   1 <1>  -0.2400 
 23 C       -2.5550    -4.1990     0.1060 C.ar  1 <1>   0.0820 
 24 O       -2.8920    -5.5080    -0.0300 O.3   1 <1>  -0.3630 
 25 C       -2.1850    -6.5150     0.6590 C.3   1 <1>   0.0400 
 26 H        1.4900     1.5150    -1.9040 H     1 <1>   0.0800 
 27 H        1.8230     0.2680    -3.0610 H     1 <1>   0.0800 
 28 H       -2.5920     2.7590     1.8810 H     1 <1>   0.1500 
 29 H       -3.5880    -1.2280    -1.1240 H     1 <1>   0.1500 
 30 H       -0.4620    -2.0340     1.6430 H     1 <1>   0.1500 
 31 H        5.0540    -0.6480     0.1640 H     1 <1>   0.0800 
 32 H        4.7860     0.4630     1.4740 H     1 <1>   0.0800 
 33 H        2.0400     2.2930    -0.0700 H     1 <1>   0.0800 
 34 H        3.4540     2.5780     0.8700 H     1 <1>   0.0800 
 35 H       -4.0830    -3.6410    -1.2640 H     1 <1>   0.1500 
 36 H       -0.9400    -4.4200     1.5180 H     1 <1>   0.1500 
 37 H        5.9430     1.1890    -1.2340 H     1 <1>   0.0800 
 38 H        6.8550     1.0250     0.2450 H     1 <1>   0.0800 
 39 H        5.6950     2.3200     0.0860 H     1 <1>   0.0800 
 40 H        1.4700     0.3790     1.5030 H     1 <1>   0.0800 
 41 H        1.4360     1.9650     2.2180 H     1 <1>   0.0800 
 42 H        2.7960     0.9120     2.5240 H     1 <1>   0.0800 
 43 H       -2.6130    -7.4640     0.3930 H     1 <1>   0.0800 
 44 H       -2.2860    -6.3510     1.7170 H     1 <1>   0.0800 
 45 H       -1.1520    -6.4820     0.3590 H     1 <1>   0.0800 
@<TRIPOS>BOND
  1   1   2  1   
  2   1   3  1   
  3   2   4  2   
  4   2   5  1   
  5   3   6  1   
  6   3  26  1   
  7   3  27  1   
  8   4   7  1   
  9   5   8  am  
 10   5   9  1   
 11   6  10  2   
 12   6  11  am  
 13   7  12  1   
 14   7  13  2   
 15   8  13  1   
 16   8  14  2   
 17   9  15  ar  
 18   9  16  ar  
 19  11  17  1   
 20  11  18  1   
 21  13  28  1   
 22  15  19  ar  
 23  15  29  1   
 24  16  20  ar  
 25  16  30  1   
 26  17  21  1   
 27  17  31  1   
 28  17  32  1   
 29  18  22  1   
 30  18  33  1   
 31  18  34  1   
 32  19  23  ar  
 33  19  35  1   
 34  20  23  ar  
 35  20  36  1   
 36  21  37  1   
 37  21  38  1   
 38  21  39  1   
 39  22  40  1   
 40  22  41  1   
 41  22  42  1   
 42  23  24  1   
 43  24  25  1   
 44  25  43  1   
 45  25  44  1   
 46  25  45  1   
@<TRIPOS>SUBSTRUCTURE
  1 ****   2 GROUP 4 **** **** 0

# MOE 2024.06 (io_trps.svl 2023.06)
