@<TRIPOS>MOLECULE
NONAME
41 43 1 0 0 
SMALL
USER_CHARGES


@<TRIPOS>ATOM
  1 O        0.3660    -0.7300    -0.8260 O.3   1 <1>  -0.5600 
  2 C        1.0850     0.1940    -0.0670 C.3   1 <1>   0.1200 
  3 C        0.5500    -2.0510    -0.4100 C.3   1 <1>   0.1200 
  4 C        2.5930    -0.1110    -0.1480 C.3   1 <1>   0.1100 
  5 C        2.0380    -2.4350    -0.4970 C.3   1 <1>   0.1100 
  6 N        2.8870    -1.5010     0.2800 N.3   1 <1>  -0.8100 
  7 C        4.3050    -1.8480     0.1550 C.3   1 <1>   0.1100 
  8 C        5.1010    -1.2220     1.3110 C.3   1 <1>   0.3430 
  9 N        6.5230    -1.6870     1.3500 N.4   1 <1>  -0.9060 
 10 C        7.3360    -1.2730     0.1770 C.3   1 <1>   0.4230 
 11 C        8.8460    -1.9000     0.2390 C.3   1 <1>  -0.0800 
 12 C        7.4830     0.3900     0.1030 C.3   1 <1>  -0.1600 
 13 C        8.9520    -0.5790     0.0470 C.3   1 <1>  -0.1600 
 14 C       10.4280    -1.5540     0.0070 C.3   1 <1>  -0.1600 
 15 C        9.0670     0.7440    -0.1020 C.3   1 <1>  -0.0800 
 16 C       10.5760     0.1090    -0.0910 C.3   1 <1>  -0.1600 
 17 H        0.7400     0.1490     0.9520 H     1 <1>   0.0800 
 18 H        0.8780     1.1730    -0.4610 H     1 <1>   0.0800 
 19 H       -0.0380    -2.6830    -1.0520 H     1 <1>   0.0800 
 20 H        0.1890    -2.1500     0.5990 H     1 <1>   0.0800 
 21 H        3.1150     0.5880     0.4800 H     1 <1>   0.0800 
 22 H        2.9140     0.0410    -1.1650 H     1 <1>   0.0800 
 23 H        2.3330    -2.4300    -1.5330 H     1 <1>   0.0800 
 24 H        2.1580    -3.4350    -0.1170 H     1 <1>   0.0800 
 25 H        4.6760    -1.5160    -0.8000 H     1 <1>   0.0800 
 26 H        4.4040    -2.9190     0.2140 H     1 <1>   0.0800 
 27 H        4.6130    -1.4940     2.2340 H     1 <1>   0.0800 
 28 H        5.0680    -0.1500     1.2200 H     1 <1>   0.0800 
 29 H        6.5450    -2.7100     1.4300 H     1 <1>   0.4500 
 30 H        6.9750    -1.3160     2.1940 H     1 <1>   0.4500 
 31 H        6.8680    -1.6200    -0.7310 H     1 <1>   0.0800 
 32 H        8.8840    -2.3330     1.2290 H     1 <1>   0.0800 
 33 H        7.1260     0.8620     1.0060 H     1 <1>   0.0800 
 34 H        6.9040     0.7760    -0.7220 H     1 <1>   0.0800 
 35 H        8.8810    -0.7070    -1.1230 H     1 <1>   0.0800 
 36 H        9.0460    -0.4370     1.2140 H     1 <1>   0.0800 
 37 H       10.7820    -2.0100    -0.9070 H     1 <1>   0.0800 
 38 H       11.0370    -1.9380     0.8110 H     1 <1>   0.0800 
 39 H        9.0520     1.2110    -1.0800 H     1 <1>   0.0800 
 40 H       11.1220     0.3870    -0.9800 H     1 <1>   0.0800 
 41 H       11.1310     0.4850     0.7560 H     1 <1>   0.0800 
@<TRIPOS>BOND
  1   1   2  1   
  2   1   3  1   
  3   2   4  1   
  4   2  17  1   
  5   2  18  1   
  6   3   5  1   
  7   3  19  1   
  8   3  20  1   
  9   4   6  1   
 10   4  21  1   
 11   4  22  1   
 12   5   6  1   
 13   5  23  1   
 14   5  24  1   
 15   6   7  1   
 16   7   8  1   
 17   7  25  1   
 18   7  26  1   
 19   8   9  1   
 20   8  27  1   
 21   8  28  1   
 22   9  10  1   
 23   9  29  1   
 24   9  30  1   
 25  10  11  1   
 26  10  12  1   
 27  10  31  1   
 28  11  13  1   
 29  11  14  1   
 30  11  32  1   
 31  12  15  1   
 32  12  33  1   
 33  12  34  1   
 34  13  15  1   
 35  13  35  1   
 36  13  36  1   
 37  14  16  1   
 38  14  37  1   
 39  14  38  1   
 40  15  16  1   
 41  15  39  1   
 42  16  40  1   
 43  16  41  1   
@<TRIPOS>SUBSTRUCTURE
  1 ****   8 GROUP 4 **** **** 0

# MOE 2024.06 (io_trps.svl 2023.06)
