@<TRIPOS>MOLECULE
NONAME
52 53 1 0 0 
SMALL
USER_CHARGES


@<TRIPOS>ATOM
  1 N        0.2020    -0.5590     0.1370 N.3   1 <1>  -0.8100 
  2 C        0.6310     0.7470    -0.4240 C.3   1 <1>   0.1100 
  3 C        0.4520    -0.6150     1.6000 C.3   1 <1>   0.1100 
  4 C       -1.2000    -0.8630    -0.2250 C.3   1 <1>   0.1100 
  5 C        2.1130     1.0530    -0.1130 C.3   1 <1>   0.3430 
  6 C        1.9330    -0.3250     1.9440 C.3   1 <1>   0.3430 
  7 C       -1.4660    -2.3800    -0.2110 C.3   1 <1>   0.3430 
  8 N        2.3950     0.9750     1.3570 N.4   1 <1>  -0.9060 
  9 N       -2.8370    -2.7040    -0.7050 N.4   1 <1>  -0.9060 
 10 C       -3.1020    -4.1700    -0.6800 C.3   1 <1>   0.3430 
 11 C       -4.5080    -4.5070    -1.2070 C.3   1 <1>  -0.0800 
 12 C       -5.6000    -3.9050    -0.2870 C.3   1 <1>   0.0580 
 13 C       -4.6660    -6.0470    -1.2880 C.3   1 <1>  -0.0800 
 14 C       -5.6280    -4.6540     1.0320 C.2   1 <1>  -0.2880 
 15 C       -7.0000    -3.9350    -0.9110 C.3   1 <1>  -0.2400 
 16 C       -4.5050    -6.7120     0.0960 C.3   1 <1>  -0.0220 
 17 C       -3.7210    -6.6910    -2.3160 C.3   1 <1>  -0.2400 
 18 C       -5.1370    -5.8850     1.2110 C.2   1 <1>  -0.2760 
 19 C       -5.1790    -6.5990     2.5520 C.3   1 <1>  -0.1020 
 20 H        0.0120     1.5380    -0.0340 H     1 <1>   0.0800 
 21 H        0.5090     0.7330    -1.4940 H     1 <1>   0.0800 
 22 H        0.2060    -1.5950     1.9720 H     1 <1>   0.0800 
 23 H       -0.1760     0.0970     2.1100 H     1 <1>   0.0800 
 24 H       -1.3850    -0.5060    -1.2240 H     1 <1>   0.0800 
 25 H       -1.8700    -0.3550     0.4490 H     1 <1>   0.0800 
 26 H        2.3620     2.0340    -0.4850 H     1 <1>   0.0800 
 27 H        2.7240     0.3370    -0.6380 H     1 <1>   0.0800 
 28 H        2.5350    -1.1300     1.5550 H     1 <1>   0.0800 
 29 H        2.0560    -0.3100     3.0150 H     1 <1>   0.0800 
 30 H       -1.3480    -2.7510     0.7930 H     1 <1>   0.0800 
 31 H       -0.7350    -2.8620    -0.8410 H     1 <1>   0.0800 
 32 H        1.9190     1.7510     1.8330 H     1 <1>   0.4500 
 33 H        3.4030     1.0940     1.5230 H     1 <1>   0.4500 
 34 H       -2.9640    -2.3630    -1.6660 H     1 <1>   0.4500 
 35 H       -3.5440    -2.2450    -0.1170 H     1 <1>   0.4500 
 36 H       -3.0130    -4.5400     0.3300 H     1 <1>   0.0800 
 37 H       -2.3680    -4.6750    -1.2860 H     1 <1>   0.0800 
 38 H       -4.6160    -4.1040    -2.1990 H     1 <1>   0.0800 
 39 H       -5.3780    -2.8740    -0.0860 H     1 <1>   0.0800 
 40 H       -5.6670    -6.2580    -1.6240 H     1 <1>   0.0800 
 41 H       -6.1060    -4.0980     1.8220 H     1 <1>   0.1500 
 42 H       -7.3590    -4.9430    -1.0140 H     1 <1>   0.0800 
 43 H       -7.0000    -3.4650    -1.8780 H     1 <1>   0.0800 
 44 H       -7.6930    -3.4070    -0.2790 H     1 <1>   0.0800 
 45 H       -3.4650    -6.8620     0.3240 H     1 <1>   0.0800 
 46 H       -4.9700    -7.6830     0.0640 H     1 <1>   0.0800 
 47 H       -2.6900    -6.6150    -2.0220 H     1 <1>   0.0800 
 48 H       -3.8440    -6.2320    -3.2810 H     1 <1>   0.0800 
 49 H       -3.9570    -7.7360    -2.4190 H     1 <1>   0.0800 
 50 H       -5.7610    -7.5010     2.4730 H     1 <1>   0.0800 
 51 H       -5.6290    -5.9740     3.3030 H     1 <1>   0.0800 
 52 H       -4.1860    -6.8550     2.8730 H     1 <1>   0.0800 
@<TRIPOS>BOND
  1   1   2  1   
  2   1   3  1   
  3   1   4  1   
  4   2   5  1   
  5   2  20  1   
  6   2  21  1   
  7   3   6  1   
  8   3  22  1   
  9   3  23  1   
 10   4   7  1   
 11   4  24  1   
 12   4  25  1   
 13   5   8  1   
 14   5  26  1   
 15   5  27  1   
 16   6   8  1   
 17   6  28  1   
 18   6  29  1   
 19   7   9  1   
 20   7  30  1   
 21   7  31  1   
 22   8  32  1   
 23   8  33  1   
 24   9  10  1   
 25   9  34  1   
 26   9  35  1   
 27  10  11  1   
 28  10  36  1   
 29  10  37  1   
 30  11  12  1   
 31  11  13  1   
 32  11  38  1   
 33  12  14  1   
 34  12  15  1   
 35  12  39  1   
 36  13  16  1   
 37  13  17  1   
 38  13  40  1   
 39  14  18  2   
 40  14  41  1   
 41  15  42  1   
 42  15  43  1   
 43  15  44  1   
 44  16  18  1   
 45  16  45  1   
 46  16  46  1   
 47  17  47  1   
 48  17  48  1   
 49  17  49  1   
 50  18  19  1   
 51  19  50  1   
 52  19  51  1   
 53  19  52  1   
@<TRIPOS>SUBSTRUCTURE
  1 ****   9 GROUP 4 **** **** 0

# MOE 2024.06 (io_trps.svl 2023.06)
