@<TRIPOS>MOLECULE
NONAME
37 38 1 0 0 
SMALL
USER_CHARGES


@<TRIPOS>ATOM
  1 O       -0.1250    -0.9200     0.5540 O.2   1 <1>  -0.5700 
  2 C        0.4550    -1.9690     0.3590 C.2   1 <1>   0.6900 
  3 N       -0.1740    -3.0120    -0.2780 N.am  1 <1>  -0.6600 
  4 N        1.7360    -2.0490     0.8120 N.am  1 <1>  -0.5470 
  5 C        0.1840    -4.4410    -0.0580 C.3   1 <1>   0.1400 
  6 C       -1.4100    -2.7880    -1.0740 C.3   1 <1>   0.1400 
  7 C        2.8530    -2.6990     0.2760 C.ar  1 <1>   0.1170 
  8 C       -0.9920    -5.1760     0.5920 C.3   1 <1>  -0.1600 
  9 C       -2.5890    -3.5050    -0.4140 C.3   1 <1>  -0.1600 
 10 C        3.8930    -3.0750     1.1160 C.ar  1 <1>  -0.1500 
 11 C        2.9600    -2.9740    -1.0840 C.ar  1 <1>  -0.1500 
 12 C       -2.2980    -5.0040    -0.2100 C.3   1 <1>  -0.0190 
 13 C        5.0100    -3.7190     0.6150 C.ar  1 <1>  -0.1500 
 14 C        4.0750    -3.6180    -1.5890 C.ar  1 <1>  -0.1500 
 15 C       -3.4890    -5.7150     0.4330 C.2   1 <1>   0.6590 
 16 C        5.1010    -3.9930    -0.7390 C.ar  1 <1>  -0.1500 
 17 O       -3.4640    -6.1460     1.5570 O.2   1 <1>  -0.5700 
 18 O       -4.5650    -5.8330    -0.3380 O.3   1 <1>  -0.4300 
 19 C       -5.7420    -6.4630     0.1260 C.3   1 <1>   0.0400 
 20 H        1.9350    -1.2840     1.4520 H     1 <1>   0.3700 
 21 H        1.0410    -4.5270     0.5850 H     1 <1>   0.0800 
 22 H        0.4270    -4.8920    -1.0040 H     1 <1>   0.0800 
 23 H       -1.2570    -3.1700    -2.0690 H     1 <1>   0.0800 
 24 H       -1.6230    -1.7350    -1.1540 H     1 <1>   0.0800 
 25 H       -1.1260    -4.7930     1.5900 H     1 <1>   0.0800 
 26 H       -0.7530    -6.2210     0.6760 H     1 <1>   0.0800 
 27 H       -3.4620    -3.3830    -1.0310 H     1 <1>   0.0800 
 28 H       -2.7900    -3.0380     0.5350 H     1 <1>   0.0800 
 29 H        3.8250    -2.8660     2.1680 H     1 <1>   0.1500 
 30 H        2.1680    -2.6770    -1.7480 H     1 <1>   0.1500 
 31 H       -2.1550    -5.4540    -1.1760 H     1 <1>   0.0800 
 32 H        5.8090    -4.0080     1.2760 H     1 <1>   0.1500 
 33 H        4.1470    -3.8250    -2.6430 H     1 <1>   0.1500 
 34 H        5.9700    -4.4940    -1.1310 H     1 <1>   0.1500 
 35 H       -6.4740    -6.4410    -0.6620 H     1 <1>   0.0800 
 36 H       -6.1050    -5.9280     0.9860 H     1 <1>   0.0800 
 37 H       -5.5110    -7.4800     0.3910 H     1 <1>   0.0800 
@<TRIPOS>BOND
  1   1   2  2   
  2   2   3  am  
  3   2   4  am  
  4   3   5  1   
  5   3   6  1   
  6   4   7  1   
  7   4  20  1   
  8   5   8  1   
  9   5  21  1   
 10   5  22  1   
 11   6   9  1   
 12   6  23  1   
 13   6  24  1   
 14   7  10  ar  
 15   7  11  ar  
 16   8  12  1   
 17   8  25  1   
 18   8  26  1   
 19   9  12  1   
 20   9  27  1   
 21   9  28  1   
 22  10  13  ar  
 23  10  29  1   
 24  11  14  ar  
 25  11  30  1   
 26  12  15  1   
 27  12  31  1   
 28  13  16  ar  
 29  13  32  1   
 30  14  16  ar  
 31  14  33  1   
 32  15  17  2   
 33  15  18  1   
 34  16  34  1   
 35  18  19  1   
 36  19  35  1   
 37  19  36  1   
 38  19  37  1   
@<TRIPOS>SUBSTRUCTURE
  1 ****   5 GROUP 4 **** **** 0

# MOE 2024.06 (io_trps.svl 2023.06)
