@<TRIPOS>MOLECULE
NONAME
40 41 1 0 0 
SMALL
USER_CHARGES


@<TRIPOS>ATOM
  1 S        0.4390    -0.6060    -0.9040 S.3   1 <1>  -0.3320 
  2 C        0.8210    -1.7540     0.4440 C.ar  1 <1>   0.1020 
  3 C       -1.3990    -0.4090    -0.9850 C.3   1 <1>  -0.0100 
  4 C        2.1520    -1.9480     0.8510 C.ar  1 <1>   0.0860 
  5 C       -0.2270    -2.4210     1.0620 C.ar  1 <1>  -0.1500 
  6 C        3.3130    -1.3110     0.2450 C.2   1 <1>   0.5440 
  7 C        2.3590    -2.8230     1.9210 C.ar  1 <1>  -0.1500 
  8 C        0.0200    -3.2860     2.1110 C.ar  1 <1>  -0.1500 
  9 O        4.2910    -1.0350     0.9160 O.2   1 <1>  -0.5700 
 10 N        3.3980    -1.0600    -1.0960 N.am  1 <1>  -0.7300 
 11 C        1.3170    -3.4840     2.5430 C.ar  1 <1>  -0.1500 
 12 C        4.2980    -0.0630    -1.7500 C.3   1 <1>   0.1400 
 13 C        5.6750    -0.6600    -2.1010 C.3   1 <1>   0.3430 
 14 N        6.3640    -1.1510    -0.8770 N.4   1 <1>  -0.9590 
 15 C        7.0840    -0.0720    -0.1220 C.3   1 <1>   0.3430 
 16 C        7.2420    -2.3420    -1.1110 C.3   1 <1>   0.3430 
 17 C        7.7730    -0.6410     1.1320 C.3   1 <1>   0.1200 
 18 C        7.9300    -2.7910     0.1930 C.3   1 <1>   0.1200 
 19 O        8.6010    -1.7160     0.7850 O.3   1 <1>  -0.5600 
 20 H       -1.6130     0.3440    -1.7220 H     1 <1>   0.0800 
 21 H       -1.7450    -0.0980    -0.0150 H     1 <1>   0.0800 
 22 H       -1.8260    -1.3530    -1.2730 H     1 <1>   0.0800 
 23 H       -1.2430    -2.2860     0.7490 H     1 <1>   0.1500 
 24 H        3.3610    -2.9900     2.2780 H     1 <1>   0.1500 
 25 H       -0.7940    -3.8030     2.5920 H     1 <1>   0.1500 
 26 H        2.5140    -1.2060    -1.6040 H     1 <1>   0.3700 
 27 H        1.5120    -4.1530     3.3640 H     1 <1>   0.1500 
 28 H        4.4220     0.7870    -1.1010 H     1 <1>   0.0800 
 29 H        3.8260     0.2860    -2.6530 H     1 <1>   0.0800 
 30 H        6.2830     0.0800    -2.5960 H     1 <1>   0.0800 
 31 H        5.5200    -1.4770    -2.7860 H     1 <1>   0.0800 
 32 H        5.5920    -1.4390    -0.2350 H     1 <1>   0.4500 
 33 H        6.3850     0.6910     0.1790 H     1 <1>   0.0800 
 34 H        7.8330     0.3810    -0.7510 H     1 <1>   0.0800 
 35 H        8.0040    -2.0980    -1.8320 H     1 <1>   0.0800 
 36 H        6.6570    -3.1580    -1.5040 H     1 <1>   0.0800 
 37 H        7.0440    -0.9770     1.8510 H     1 <1>   0.0800 
 38 H        8.3870     0.1120     1.5930 H     1 <1>   0.0800 
 39 H        8.6570    -3.5570    -0.0150 H     1 <1>   0.0800 
 40 H        7.2120    -3.1810     0.8940 H     1 <1>   0.0800 
@<TRIPOS>BOND
  1   1   2  1   
  2   1   3  1   
  3   2   4  ar  
  4   2   5  ar  
  5   3  20  1   
  6   3  21  1   
  7   3  22  1   
  8   4   6  1   
  9   4   7  ar  
 10   5   8  ar  
 11   5  23  1   
 12   6   9  2   
 13   6  10  am  
 14   7  11  ar  
 15   7  24  1   
 16   8  11  ar  
 17   8  25  1   
 18  10  12  1   
 19  10  26  1   
 20  11  27  1   
 21  12  13  1   
 22  12  28  1   
 23  12  29  1   
 24  13  14  1   
 25  13  30  1   
 26  13  31  1   
 27  14  15  1   
 28  14  16  1   
 29  14  32  1   
 30  15  17  1   
 31  15  33  1   
 32  15  34  1   
 33  16  18  1   
 34  16  35  1   
 35  16  36  1   
 36  17  19  1   
 37  17  37  1   
 38  17  38  1   
 39  18  19  1   
 40  18  39  1   
 41  18  40  1   
@<TRIPOS>SUBSTRUCTURE
  1 ****   6 GROUP 4 **** **** 0

# MOE 2024.06 (io_trps.svl 2023.06)
