@<TRIPOS>MOLECULE
NONAME
47 50 1 0 0 
SMALL
USER_CHARGES


@<TRIPOS>ATOM
  1 S        0.8070    -0.0500    -1.2870 S.o2  1 <1>   1.4470 
  2 O       -0.1270     1.0460    -1.3690 O.2   1 <1>  -0.6500 
  3 O        2.0200    -0.0880    -2.0750 O.2   1 <1>  -0.6500 
  4 N        1.3090    -0.1900     0.3610 N.am  1 <1>  -0.6930 
  5 C        0.0190    -1.6570    -1.2550 C.ar  1 <1>  -0.0090 
  6 C        1.0330    -1.4620     0.8740 C.ar  1 <1>   0.1990 
  7 C        2.5000     0.6200     0.7430 C.3   1 <1>   0.3370 
  8 C        0.2860    -2.2500    -0.0230 C.ar  1 <1>   0.0000 
  9 C       -0.7200    -2.3330    -2.1920 C.ar  1 <1>  -0.1500 
 10 C        1.3950    -2.0100     2.0830 C.ar  1 <1>  -0.1500 
 11 C        3.7830    -0.2380     0.8080 C.2   1 <1>   0.5690 
 12 C        2.1740     1.4120     2.0160 C.3   1 <1>  -0.2400 
 13 C       -0.1430    -3.5460     0.2860 C.ar  1 <1>   0.0000 
 14 C       -1.1870    -3.6250    -1.9000 C.ar  1 <1>  -0.1500 
 15 C        0.9910    -3.3110     2.4130 C.ar  1 <1>  -0.1500 
 16 O        4.3770    -0.3770     1.8540 O.2   1 <1>  -0.5700 
 17 N        4.1920    -0.8560    -0.3330 N.am  1 <1>  -0.7300 
 18 C       -0.9040    -4.2160    -0.6930 C.ar  1 <1>  -0.1500 
 19 C        0.2370    -4.0590     1.5420 C.ar  1 <1>  -0.1500 
 20 C        5.2220    -1.8960    -0.4200 C.3   1 <1>   0.2200 
 21 C        6.0890    -1.6310    -1.6540 C.3   1 <1>  -0.1600 
 22 C        4.5250    -3.2570    -0.5100 C.3   1 <1>  -0.1600 
 23 C        7.1090    -2.7600    -1.8670 C.3   1 <1>  -0.1600 
 24 C        5.5410    -4.3890    -0.7200 C.3   1 <1>  -0.1600 
 25 C        6.4150    -4.1260    -1.9540 C.3   1 <1>  -0.1600 
 26 H        2.6710     1.3490    -0.0300 H     1 <1>   0.0800 
 27 H       -0.9420    -1.8910    -3.1490 H     1 <1>   0.1500 
 28 H        1.9890    -1.4590     2.7880 H     1 <1>   0.1500 
 29 H        2.0110     0.7590     2.8510 H     1 <1>   0.0800 
 30 H        1.2980     2.0160     1.8600 H     1 <1>   0.0800 
 31 H        2.9980     2.0600     2.2560 H     1 <1>   0.0800 
 32 H       -1.7700    -4.1460    -2.6410 H     1 <1>   0.1500 
 33 H        1.2830    -3.7160     3.3670 H     1 <1>   0.1500 
 34 H        3.6430    -0.7180    -1.1930 H     1 <1>   0.3700 
 35 H       -1.2580    -5.2080    -0.4740 H     1 <1>   0.1500 
 36 H       -0.0740    -5.0540     1.8050 H     1 <1>   0.1500 
 37 H        5.8410    -1.8700     0.4630 H     1 <1>   0.0800 
 38 H        6.6110    -0.6990    -1.5290 H     1 <1>   0.0800 
 39 H        5.4620    -1.5580    -2.5260 H     1 <1>   0.0800 
 40 H        3.8300    -3.2520    -1.3310 H     1 <1>   0.0800 
 41 H        3.9760    -3.4350     0.3990 H     1 <1>   0.0800 
 42 H        7.8070    -2.7680    -1.0470 H     1 <1>   0.0800 
 43 H        7.6640    -2.5790    -2.7710 H     1 <1>   0.0800 
 44 H        5.0200    -5.3240    -0.8370 H     1 <1>   0.0800 
 45 H        6.1690    -4.4680     0.1510 H     1 <1>   0.0800 
 46 H        7.1560    -4.9020    -2.0430 H     1 <1>   0.0800 
 47 H        5.8000    -4.1570    -2.8380 H     1 <1>   0.0800 
@<TRIPOS>BOND
  1   1   2  2   
  2   1   3  2   
  3   1   4  am  
  4   1   5  1   
  5   4   6  1   
  6   4   7  1   
  7   5   8  ar  
  8   5   9  ar  
  9   6   8  ar  
 10   6  10  ar  
 11   7  11  1   
 12   7  12  1   
 13   7  26  1   
 14   8  13  ar  
 15   9  14  ar  
 16   9  27  1   
 17  10  15  ar  
 18  10  28  1   
 19  11  16  2   
 20  11  17  am  
 21  12  29  1   
 22  12  30  1   
 23  12  31  1   
 24  13  18  ar  
 25  13  19  ar  
 26  14  18  ar  
 27  14  32  1   
 28  15  19  ar  
 29  15  33  1   
 30  17  20  1   
 31  17  34  1   
 32  18  35  1   
 33  19  36  1   
 34  20  21  1   
 35  20  22  1   
 36  20  37  1   
 37  21  23  1   
 38  21  38  1   
 39  21  39  1   
 40  22  24  1   
 41  22  40  1   
 42  22  41  1   
 43  23  25  1   
 44  23  42  1   
 45  23  43  1   
 46  24  25  1   
 47  24  44  1   
 48  24  45  1   
 49  25  46  1   
 50  25  47  1   
@<TRIPOS>SUBSTRUCTURE
  1 ****   6 GROUP 4 **** **** 0

# MOE 2024.06 (io_trps.svl 2023.06)
