@<TRIPOS>MOLECULE
NONAME
37 38 1 0 0 
SMALL
USER_CHARGES


@<TRIPOS>ATOM
  1 BR      -1.8190     1.2410     3.4350 Br    1 <1>  -0.0580 
  2 C       -2.5980     0.6070     1.7980 C.2   1 <1>   0.0980 
  3 S       -4.1220    -0.2340     1.9510 S.3   1 <1>  -0.0800 
  4 C       -2.1720     0.6960     0.5270 C.2   1 <1>  -0.1500 
  5 C       -4.1710    -0.4660     0.2020 C.2   1 <1>  -0.1400 
  6 C       -3.0820     0.0750    -0.3890 C.2   1 <1>  -0.1500 
  7 C       -5.3730    -1.2020    -0.3520 C.3   1 <1>   0.5230 
  8 N       -6.5990    -0.4450     0.0150 N.4   1 <1>  -0.9590 
  9 C       -7.8330    -1.2480    -0.2590 C.3   1 <1>   0.3430 
 10 C       -6.6330     0.8950    -0.6440 C.3   1 <1>   0.3430 
 11 C       -9.0970    -0.5090     0.1960 C.3   1 <1>  -0.0190 
 12 C       -7.8590     1.6740    -0.1640 C.3   1 <1>  -0.1600 
 13 C      -10.3060    -1.3440    -0.1860 C.2   1 <1>   0.6590 
 14 C       -9.1630     0.9030    -0.4180 C.3   1 <1>  -0.1600 
 15 O      -10.2040    -2.2850    -0.9280 O.2   1 <1>  -0.5700 
 16 O      -11.4580    -0.9730     0.3480 O.3   1 <1>  -0.4300 
 17 C      -12.6570    -1.6610     0.0710 C.3   1 <1>   0.1200 
 18 C      -13.7830    -0.9730     0.8360 C.3   1 <1>  -0.2400 
 19 H       -1.2600     1.1680     0.2020 H     1 <1>   0.1500 
 20 H       -2.8610     0.0710    -1.4440 H     1 <1>   0.1500 
 21 H       -5.4060    -2.1920     0.0750 H     1 <1>   0.0800 
 22 H       -5.2920    -1.2910    -1.4230 H     1 <1>   0.0800 
 23 H       -6.5300    -0.2780     1.0290 H     1 <1>   0.4500 
 24 H       -7.7800    -2.1990     0.2480 H     1 <1>   0.0800 
 25 H       -7.9090    -1.4440    -1.3180 H     1 <1>   0.0800 
 26 H       -6.6790     0.7760    -1.7150 H     1 <1>   0.0800 
 27 H       -5.7390     1.4510    -0.4030 H     1 <1>   0.0800 
 28 H       -9.0860    -0.4340     1.2680 H     1 <1>   0.0800 
 29 H       -7.8980     2.6170    -0.6820 H     1 <1>   0.0800 
 30 H       -7.7560     1.8920     0.8850 H     1 <1>   0.0800 
 31 H       -9.9940     1.4450     0.0050 H     1 <1>   0.0800 
 32 H       -9.3320     0.8270    -1.4800 H     1 <1>   0.0800 
 33 H      -12.5460    -2.6850     0.3850 H     1 <1>   0.0800 
 34 H      -12.8350    -1.6260    -0.9910 H     1 <1>   0.0800 
 35 H      -13.5910    -1.0070     1.8940 H     1 <1>   0.0800 
 36 H      -14.7120    -1.4790     0.6430 H     1 <1>   0.0800 
 37 H      -13.8800     0.0500     0.5190 H     1 <1>   0.0800 
@<TRIPOS>BOND
  1   1   2  1   
  2   2   3  1   
  3   2   4  2   
  4   3   5  1   
  5   4   6  1   
  6   4  19  1   
  7   5   6  2   
  8   5   7  1   
  9   6  20  1   
 10   7   8  1   
 11   7  21  1   
 12   7  22  1   
 13   8   9  1   
 14   8  10  1   
 15   8  23  1   
 16   9  11  1   
 17   9  24  1   
 18   9  25  1   
 19  10  12  1   
 20  10  26  1   
 21  10  27  1   
 22  11  13  1   
 23  11  14  1   
 24  11  28  1   
 25  12  14  1   
 26  12  29  1   
 27  12  30  1   
 28  13  15  2   
 29  13  16  1   
 30  14  31  1   
 31  14  32  1   
 32  16  17  1   
 33  17  18  1   
 34  17  33  1   
 35  17  34  1   
 36  18  35  1   
 37  18  36  1   
 38  18  37  1   
@<TRIPOS>SUBSTRUCTURE
  1 ****   8 GROUP 4 **** **** 0

# MOE 2024.06 (io_trps.svl 2023.06)
