@<TRIPOS>MOLECULE
NONAME
51 53 1 0 0 
SMALL
USER_CHARGES


@<TRIPOS>ATOM
  1 O       -1.0410     1.3480     3.3470 O.2   1 <1>  -0.5700 
  2 C       -1.1640     2.0030     2.3370 C.2   1 <1>   0.5690 
  3 N       -2.2940     1.9100     1.5580 N.am  1 <1>  -0.6600 
  4 C       -0.0230     2.9570     1.9900 C.3   1 <1>   0.1810 
  5 C       -2.5590     2.7070     0.3160 C.3   1 <1>   0.1400 
  6 C       -3.3780     0.9240     1.8670 C.3   1 <1>   0.1400 
  7 O        0.4880     2.7030     0.6890 O.3   1 <1>  -0.3620 
  8 C       -3.9430     3.3810     0.3440 C.3   1 <1>   0.2090 
  9 C       -4.7660     1.5880     1.9120 C.3   1 <1>   0.2090 
 10 C        1.3450     3.5670     0.0870 C.ar  1 <1>   0.0820 
 11 N       -5.0350     2.4330     0.7100 N.pl3 1 <1>  -0.8380 
 12 C        1.5500     3.4210    -1.2820 C.ar  1 <1>  -0.1440 
 13 C        2.0080     4.5760     0.7820 C.ar  1 <1>  -0.1500 
 14 C       -5.8230     1.9050    -0.3150 C.ar  1 <1>   0.1000 
 15 C        2.4050     4.2900    -1.9420 C.ar  1 <1>  -0.1500 
 16 C        0.8470     2.3180    -2.0600 C.3   1 <1>  -0.0970 
 17 C        2.8590     5.4370     0.1130 C.ar  1 <1>  -0.1500 
 18 C       -7.1310     2.3520    -0.5250 C.ar  1 <1>  -0.1440 
 19 C       -5.2990     0.9210    -1.1450 C.ar  1 <1>  -0.1500 
 20 C        3.0570     5.2950    -1.2490 C.ar  1 <1>  -0.1500 
 21 C       -7.8900     1.8140    -1.5640 C.ar  1 <1>  -0.1440 
 22 C       -7.6790     3.4320     0.4080 C.3   1 <1>  -0.0970 
 23 C       -6.0510     0.3860    -2.1700 C.ar  1 <1>  -0.1500 
 24 C       -7.3420     0.8330    -2.3770 C.ar  1 <1>  -0.1500 
 25 C       -9.3160     2.2630    -1.8520 C.3   1 <1>  -0.0970 
 26 H        0.7790     2.8270     2.6930 H     1 <1>   0.0800 
 27 H       -0.3830     3.9670     2.0280 H     1 <1>   0.0800 
 28 H       -2.5080     2.0500    -0.5340 H     1 <1>   0.0800 
 29 H       -1.8170     3.4700     0.1780 H     1 <1>   0.0800 
 30 H       -3.1950     0.4440     2.8120 H     1 <1>   0.0800 
 31 H       -3.3790     0.1600     1.1120 H     1 <1>   0.0800 
 32 H       -4.1520     3.8070    -0.6220 H     1 <1>   0.0800 
 33 H       -3.9300     4.1830     1.0600 H     1 <1>   0.0800 
 34 H       -4.8320     2.2040     2.7910 H     1 <1>   0.0800 
 35 H       -5.5230     0.8260     1.9880 H     1 <1>   0.0800 
 36 H        1.8830     4.7040     1.8400 H     1 <1>   0.1500 
 37 H        2.5700     4.1890    -3.0000 H     1 <1>   0.1500 
 38 H        1.0610     1.3640    -1.6120 H     1 <1>   0.0800 
 39 H        1.1730     2.2950    -3.0840 H     1 <1>   0.0800 
 40 H       -0.2160     2.4780    -2.0400 H     1 <1>   0.0800 
 41 H        3.3710     6.2160     0.6500 H     1 <1>   0.1500 
 42 H       -4.2970     0.5760    -0.9850 H     1 <1>   0.1500 
 43 H        3.7190     5.9640    -1.7700 H     1 <1>   0.1500 
 44 H       -7.5580     3.1180     1.4290 H     1 <1>   0.0800 
 45 H       -8.7180     3.6420     0.2510 H     1 <1>   0.0800 
 46 H       -7.1220     4.3400     0.2650 H     1 <1>   0.0800 
 47 H       -5.6360    -0.3750    -2.8060 H     1 <1>   0.1500 
 48 H       -7.9180     0.4090    -3.1810 H     1 <1>   0.1500 
 49 H       -9.3370     3.3220    -2.0340 H     1 <1>   0.0800 
 50 H       -9.9480     2.0350    -1.0130 H     1 <1>   0.0800 
 51 H       -9.7130     1.7660    -2.7180 H     1 <1>   0.0800 
@<TRIPOS>BOND
  1   1   2  2   
  2   2   3  am  
  3   2   4  1   
  4   3   5  1   
  5   3   6  1   
  6   4   7  1   
  7   4  26  1   
  8   4  27  1   
  9   5   8  1   
 10   5  28  1   
 11   5  29  1   
 12   6   9  1   
 13   6  30  1   
 14   6  31  1   
 15   7  10  1   
 16   8  11  1   
 17   8  32  1   
 18   8  33  1   
 19   9  11  1   
 20   9  34  1   
 21   9  35  1   
 22  10  12  ar  
 23  10  13  ar  
 24  11  14  1   
 25  12  15  ar  
 26  12  16  1   
 27  13  17  ar  
 28  13  36  1   
 29  14  18  ar  
 30  14  19  ar  
 31  15  20  ar  
 32  15  37  1   
 33  16  38  1   
 34  16  39  1   
 35  16  40  1   
 36  17  20  ar  
 37  17  41  1   
 38  18  21  ar  
 39  18  22  1   
 40  19  23  ar  
 41  19  42  1   
 42  20  43  1   
 43  21  24  ar  
 44  21  25  1   
 45  22  44  1   
 46  22  45  1   
 47  22  46  1   
 48  23  24  ar  
 49  23  47  1   
 50  24  48  1   
 51  25  49  1   
 52  25  50  1   
 53  25  51  1   
@<TRIPOS>SUBSTRUCTURE
  1 ****   5 GROUP 4 **** **** 0

# MOE 2024.06 (io_trps.svl 2023.06)
