@<TRIPOS>MOLECULE
NONAME
43 44 1 0 0 
SMALL
USER_CHARGES


@<TRIPOS>ATOM
  1 CL       0.1510    -0.0790    -0.5420 Cl    1 <1>  -0.1770 
  2 C        1.8900    -0.2030    -0.4610 C.ar  1 <1>   0.1770 
  3 C        2.4630    -1.1830     0.3300 C.ar  1 <1>  -0.1500 
  4 C        2.6680     0.6790    -1.1870 C.ar  1 <1>  -0.1500 
  5 C        3.8430    -1.2840     0.3970 C.ar  1 <1>  -0.1500 
  6 C        4.0470     0.5760    -1.1180 C.ar  1 <1>  -0.1500 
  7 C        4.6410    -0.4010    -0.3300 C.ar  1 <1>   0.0830 
  8 O        5.9980    -0.4290    -0.3220 O.3   1 <1>  -0.3630 
  9 C        6.7110    -1.3590     0.4670 C.3   1 <1>   0.1200 
 10 C        8.2120    -1.1210     0.2600 C.3   1 <1>   0.2000 
 11 O        8.4860    -1.0890    -1.1100 O.3   1 <1>  -0.6800 
 12 C        9.0860    -2.2090     0.9190 C.3   1 <1>   0.3430 
 13 N       10.4200    -2.2750     0.2380 N.4   1 <1>  -0.9590 
 14 C       10.8690    -3.6680    -0.1160 C.3   1 <1>   0.4230 
 15 C       11.4290    -1.4860     1.0030 C.3   1 <1>   0.3430 
 16 C       12.2310    -3.6080    -0.8340 C.3   1 <1>  -0.1600 
 17 C        9.8410    -4.4030    -1.0160 C.3   1 <1>   0.1200 
 18 C       12.7460    -1.4060     0.2380 C.3   1 <1>  -0.1600 
 19 C       13.2850    -2.8040    -0.0690 C.3   1 <1>  -0.1600 
 20 O       10.2160    -5.7320    -1.1620 O.3   1 <1>  -0.6800 
 21 H        1.8310    -1.8540     0.8830 H     1 <1>   0.1500 
 22 H        2.1980     1.4310    -1.7940 H     1 <1>   0.1500 
 23 H        4.2660    -2.0510     1.0170 H     1 <1>   0.1500 
 24 H        4.6660     1.2550    -1.6770 H     1 <1>   0.1500 
 25 H        6.4340    -2.3510     0.1540 H     1 <1>   0.0800 
 26 H        6.4390    -1.2090     1.4980 H     1 <1>   0.0800 
 27 H        8.4710    -0.1580     0.6660 H     1 <1>   0.0800 
 28 H        7.7840    -0.5550    -1.5540 H     1 <1>   0.4000 
 29 H        8.5770    -3.1530     0.8340 H     1 <1>   0.0800 
 30 H        9.2030    -2.0030     1.9710 H     1 <1>   0.0800 
 31 H       10.2550    -1.7880    -0.6640 H     1 <1>   0.4500 
 32 H       10.9820    -4.2330     0.7940 H     1 <1>   0.0800 
 33 H       11.6050    -1.9540     1.9580 H     1 <1>   0.0800 
 34 H       11.0600    -0.4880     1.1760 H     1 <1>   0.0800 
 35 H       12.1000    -3.1820    -1.8140 H     1 <1>   0.0800 
 36 H       12.5980    -4.6100    -0.9730 H     1 <1>   0.0800 
 37 H        9.8070    -3.9560    -1.9950 H     1 <1>   0.0800 
 38 H        8.8570    -4.4040    -0.5870 H     1 <1>   0.0800 
 39 H       13.4660    -0.8690     0.8310 H     1 <1>   0.0800 
 40 H       12.6020    -0.8540    -0.6750 H     1 <1>   0.0800 
 41 H       14.1850    -2.7290    -0.6580 H     1 <1>   0.0800 
 42 H       13.5340    -3.3110     0.8490 H     1 <1>   0.0800 
 43 H        9.6350    -6.2060    -1.7940 H     1 <1>   0.4000 
@<TRIPOS>BOND
  1   1   2  1   
  2   2   3  ar  
  3   2   4  ar  
  4   3   5  ar  
  5   3  21  1   
  6   4   6  ar  
  7   4  22  1   
  8   5   7  ar  
  9   5  23  1   
 10   6   7  ar  
 11   6  24  1   
 12   7   8  1   
 13   8   9  1   
 14   9  10  1   
 15   9  25  1   
 16   9  26  1   
 17  10  11  1   
 18  10  12  1   
 19  10  27  1   
 20  11  28  1   
 21  12  13  1   
 22  12  29  1   
 23  12  30  1   
 24  13  14  1   
 25  13  15  1   
 26  13  31  1   
 27  14  16  1   
 28  14  17  1   
 29  14  32  1   
 30  15  18  1   
 31  15  33  1   
 32  15  34  1   
 33  16  19  1   
 34  16  35  1   
 35  16  36  1   
 36  17  20  1   
 37  17  37  1   
 38  17  38  1   
 39  18  19  1   
 40  18  39  1   
 41  18  40  1   
 42  19  41  1   
 43  19  42  1   
 44  20  43  1   
@<TRIPOS>SUBSTRUCTURE
  1 ****  10 GROUP 4 **** **** 0

# MOE 2024.06 (io_trps.svl 2023.06)
