@<TRIPOS>MOLECULE
NONAME
36 37 1 0 0 
SMALL
USER_CHARGES


@<TRIPOS>ATOM
  1 BR      -0.0810    -0.2840     0.7170 Br    1 <1>  -0.1110 
  2 C        1.8100    -0.1450     0.4110 C.ar  1 <1>   0.1110 
  3 C        2.4430     1.0570     0.6570 C.ar  1 <1>  -0.1500 
  4 C        2.4970    -1.2500    -0.0510 C.ar  1 <1>  -0.1500 
  5 C        3.8050     1.1450     0.4340 C.ar  1 <1>  -0.1500 
  6 C        3.8590    -1.1430    -0.2690 C.ar  1 <1>  -0.1500 
  7 C        4.5490     0.0530    -0.0280 C.ar  1 <1>   0.0860 
  8 C        5.9820     0.1730    -0.2470 C.2   1 <1>   0.5440 
  9 O        6.5120     1.2610    -0.3640 O.2   1 <1>  -0.5700 
 10 N        6.7810    -0.9280    -0.3190 N.am  1 <1>  -0.7300 
 11 C        8.2580    -0.9030    -0.5140 C.3   1 <1>   0.2010 
 12 C        8.9000    -2.2950    -0.4250 C.2   1 <1>   0.5690 
 13 O        8.1640    -3.2440    -0.2440 O.2   1 <1>  -0.5700 
 14 N       10.2610    -2.4500    -0.5450 N.am  1 <1>  -0.6600 
 15 C       11.2300    -1.3430    -0.7850 C.3   1 <1>   0.1400 
 16 C       10.9040    -3.7870    -0.3970 C.3   1 <1>   0.1400 
 17 C       12.2270    -1.2750     0.3770 C.3   1 <1>  -0.1600 
 18 C       11.9030    -3.7490     0.7650 C.3   1 <1>  -0.1600 
 19 C       12.9320    -2.6220     0.5940 C.3   1 <1>  -0.1600 
 20 H        1.8810     1.9020     1.0140 H     1 <1>   0.1500 
 21 H        1.9740    -2.1720    -0.2370 H     1 <1>   0.1500 
 22 H        4.3130     2.0770     0.6210 H     1 <1>   0.1500 
 23 H        4.3920    -2.0010    -0.6390 H     1 <1>   0.1500 
 24 H        6.4240    -1.8710    -0.1330 H     1 <1>   0.3700 
 25 H        8.6940    -0.2700     0.2380 H     1 <1>   0.0800 
 26 H        8.4690    -0.4820    -1.4800 H     1 <1>   0.0800 
 27 H       10.7330    -0.3960    -0.8870 H     1 <1>   0.0800 
 28 H       11.7600    -1.5380    -1.7030 H     1 <1>   0.0800 
 29 H       11.4140    -4.0350    -1.3120 H     1 <1>   0.0800 
 30 H       10.1660    -4.5490    -0.2110 H     1 <1>   0.0800 
 31 H       11.7000    -0.9930     1.2720 H     1 <1>   0.0800 
 32 H       12.9590    -0.5140     0.1740 H     1 <1>   0.0800 
 33 H       12.4090    -4.6960     0.8280 H     1 <1>   0.0800 
 34 H       11.3580    -3.6090     1.6830 H     1 <1>   0.0800 
 35 H       13.5600    -2.5680     1.4660 H     1 <1>   0.0800 
 36 H       13.5580    -2.8380    -0.2540 H     1 <1>   0.0800 
@<TRIPOS>BOND
  1   1   2  1   
  2   2   3  ar  
  3   2   4  ar  
  4   3   5  ar  
  5   3  20  1   
  6   4   6  ar  
  7   4  21  1   
  8   5   7  ar  
  9   5  22  1   
 10   6   7  ar  
 11   6  23  1   
 12   7   8  1   
 13   8   9  2   
 14   8  10  am  
 15  10  11  1   
 16  10  24  1   
 17  11  12  1   
 18  11  25  1   
 19  11  26  1   
 20  12  13  2   
 21  12  14  am  
 22  14  15  1   
 23  14  16  1   
 24  15  17  1   
 25  15  27  1   
 26  15  28  1   
 27  16  18  1   
 28  16  29  1   
 29  16  30  1   
 30  17  19  1   
 31  17  31  1   
 32  17  32  1   
 33  18  19  1   
 34  18  33  1   
 35  18  34  1   
 36  19  35  1   
 37  19  36  1   
@<TRIPOS>SUBSTRUCTURE
  1 ****  10 GROUP 4 **** **** 0

# MOE 2024.06 (io_trps.svl 2023.06)
