@<TRIPOS>MOLECULE
NONAME
49 51 1 0 0 
SMALL
USER_CHARGES


@<TRIPOS>ATOM
  1 O       -7.9400     2.0600    -0.5190 O.3   1 <1>  -0.3630 
  2 C       -9.1000     1.4750    -0.1600 C.ar  1 <1>   0.0830 
  3 C       -6.9560     2.1360     0.4800 C.3   1 <1>   0.1200 
  4 C       -9.2970     0.0980    -0.4290 C.ar  1 <1>   0.0000 
  5 C      -10.0660     2.2290     0.4570 C.ar  1 <1>  -0.1500 
  6 C       -5.7000     2.7360    -0.1540 C.3   1 <1>  -0.1600 
  7 C      -10.5080    -0.4960    -0.0090 C.ar  1 <1>   0.0000 
  8 C       -8.3500    -0.7120    -1.0930 C.ar  1 <1>  -0.1500 
  9 C      -11.2660     1.6370     0.8580 C.ar  1 <1>  -0.1500 
 10 C       -4.5800     2.9250     0.8850 C.3   1 <1>  -0.1600 
 11 C      -11.4760     0.3040     0.6320 C.ar  1 <1>  -0.1500 
 12 C      -10.7120    -1.8700    -0.2480 C.ar  1 <1>  -0.1500 
 13 C       -8.5750    -2.0430    -1.3140 C.ar  1 <1>  -0.1500 
 14 C       -3.2640     3.4340     0.2840 C.3   1 <1>   0.3430 
 15 C       -9.7690    -2.6300    -0.8840 C.ar  1 <1>  -0.1500 
 16 N       -3.1690     4.9210     0.3120 N.4   1 <1>  -0.9590 
 17 C       -4.1580     5.6660    -0.5410 C.3   1 <1>   0.3430 
 18 C       -1.7770     5.4100     0.0370 C.3   1 <1>   0.3430 
 19 C       -3.9520     7.1990    -0.4510 C.3   1 <1>   0.1100 
 20 C       -1.6560     6.9310     0.3050 C.3   1 <1>   0.1100 
 21 N       -2.9660     7.5610     0.5910 N.3   1 <1>  -0.8100 
 22 C       -2.8400     9.0180     0.7290 C.3   1 <1>   0.0300 
 23 H       -6.7710     1.1410     0.8510 H     1 <1>   0.0800 
 24 H       -7.3310     2.7570     1.2750 H     1 <1>   0.0800 
 25 H       -9.9080     3.2760     0.6350 H     1 <1>   0.1500 
 26 H       -5.9730     3.6710    -0.6030 H     1 <1>   0.0800 
 27 H       -5.3630     2.0710    -0.9310 H     1 <1>   0.0800 
 28 H       -7.4360    -0.2590    -1.4310 H     1 <1>   0.1500 
 29 H      -12.0140     2.2400     1.3430 H     1 <1>   0.1500 
 30 H       -4.3780     1.9590     1.3170 H     1 <1>   0.0800 
 31 H       -4.9030     3.5670     1.6870 H     1 <1>   0.0800 
 32 H      -12.3960    -0.1580     0.9420 H     1 <1>   0.1500 
 33 H      -11.6330    -2.3160     0.0810 H     1 <1>   0.1500 
 34 H       -7.8460    -2.6510    -1.8200 H     1 <1>   0.1500 
 35 H       -3.1560     3.0700    -0.7250 H     1 <1>   0.0800 
 36 H       -2.4530     3.0290     0.8680 H     1 <1>   0.0800 
 37 H       -9.9320    -3.6780    -1.0640 H     1 <1>   0.1500 
 38 H       -3.3610     5.2740     1.2640 H     1 <1>   0.4500 
 39 H       -5.1570     5.4480    -0.2060 H     1 <1>   0.0800 
 40 H       -4.0780     5.3540    -1.5690 H     1 <1>   0.0800 
 41 H       -1.5160     5.2110    -0.9890 H     1 <1>   0.0800 
 42 H       -1.0690     4.8910     0.6630 H     1 <1>   0.0800 
 43 H       -4.8980     7.6630    -0.2300 H     1 <1>   0.0800 
 44 H       -3.6260     7.5710    -1.4080 H     1 <1>   0.0800 
 45 H       -1.1980     7.4020    -0.5490 H     1 <1>   0.0800 
 46 H       -1.0030     7.0860     1.1470 H     1 <1>   0.0800 
 47 H       -3.7930     9.4480     0.9850 H     1 <1>   0.0800 
 48 H       -2.4920     9.4610    -0.1890 H     1 <1>   0.0800 
 49 H       -2.1440     9.2540     1.5170 H     1 <1>   0.0800 
@<TRIPOS>BOND
  1   1   2  1   
  2   1   3  1   
  3   2   4  ar  
  4   2   5  ar  
  5   3   6  1   
  6   3  23  1   
  7   3  24  1   
  8   4   7  ar  
  9   4   8  ar  
 10   5   9  ar  
 11   5  25  1   
 12   6  10  1   
 13   6  26  1   
 14   6  27  1   
 15   7  11  ar  
 16   7  12  ar  
 17   8  13  ar  
 18   8  28  1   
 19   9  11  ar  
 20   9  29  1   
 21  10  14  1   
 22  10  30  1   
 23  10  31  1   
 24  11  32  1   
 25  12  15  ar  
 26  12  33  1   
 27  13  15  ar  
 28  13  34  1   
 29  14  16  1   
 30  14  35  1   
 31  14  36  1   
 32  15  37  1   
 33  16  17  1   
 34  16  18  1   
 35  16  38  1   
 36  17  19  1   
 37  17  39  1   
 38  17  40  1   
 39  18  20  1   
 40  18  41  1   
 41  18  42  1   
 42  19  21  1   
 43  19  43  1   
 44  19  44  1   
 45  20  21  1   
 46  20  45  1   
 47  20  46  1   
 48  21  22  1   
 49  22  47  1   
 50  22  48  1   
 51  22  49  1   
@<TRIPOS>SUBSTRUCTURE
  1 ****   3 GROUP 4 **** **** 0

# MOE 2024.06 (io_trps.svl 2023.06)
