@<TRIPOS>MOLECULE
NONAME
48 50 1 0 0 
SMALL
USER_CHARGES


@<TRIPOS>ATOM
  1 O        1.0800    -2.2080     1.5220 O.2   1 <1>  -0.5700 
  2 C        1.1630    -3.0280     0.6280 C.2   1 <1>   0.5690 
  3 N        1.7480    -2.6140    -0.5440 N.am  1 <1>  -0.6600 
  4 C        0.6370    -4.4850     0.8220 C.3   1 <1>   0.3480 
  5 C        3.2330    -2.7760    -0.6750 C.3   1 <1>   0.1400 
  6 C        1.2710    -1.3310    -1.1590 C.3   1 <1>   0.1400 
  7 C        1.7110    -5.4610     0.2660 C.ar  1 <1>  -0.1440 
  8 C       -0.7280    -4.6880     0.1200 C.ar  1 <1>  -0.1440 
  9 C        0.3510    -4.7650     2.3160 C.3   1 <1>  -0.2400 
 10 C        3.9910    -1.5960    -0.0140 C.3   1 <1>   0.3430 
 11 C        2.1370    -0.1170    -0.7350 C.3   1 <1>   0.3430 
 12 C        1.7800    -5.7010    -1.1040 C.ar  1 <1>  -0.1500 
 13 C        2.6500    -6.0910     1.0810 C.ar  1 <1>  -0.1500 
 14 C       -1.5840    -3.6190    -0.1350 C.ar  1 <1>  -0.1500 
 15 C       -1.1540    -5.9640    -0.2380 C.ar  1 <1>  -0.1500 
 16 N        3.0630    -0.4810     0.3880 N.4   1 <1>  -0.9590 
 17 C        2.7390    -6.5400    -1.6430 C.ar  1 <1>  -0.1500 
 18 C        3.6120    -6.9300     0.5450 C.ar  1 <1>  -0.1500 
 19 C       -2.8030    -3.8150    -0.7590 C.ar  1 <1>  -0.1500 
 20 C       -2.3730    -6.1630    -0.8620 C.ar  1 <1>  -0.1500 
 21 C        3.7630     0.6880     0.9920 C.3   1 <1>   0.2630 
 22 C        3.6590    -7.1560    -0.8170 C.ar  1 <1>  -0.1500 
 23 C       -3.1980    -5.0870    -1.1280 C.ar  1 <1>  -0.1500 
 24 H        3.4910    -2.8340    -1.7190 H     1 <1>   0.0800 
 25 H        3.5560    -3.6950    -0.2200 H     1 <1>   0.0800 
 26 H        0.2530    -1.1500    -0.8600 H     1 <1>   0.0800 
 27 H        1.2740    -1.4230    -2.2310 H     1 <1>   0.0800 
 28 H        1.1940    -4.5100     2.9300 H     1 <1>   0.0800 
 29 H        0.1030    -5.8010     2.4630 H     1 <1>   0.0800 
 30 H       -0.4840    -4.1710     2.6460 H     1 <1>   0.0800 
 31 H        4.7380    -1.2310    -0.6990 H     1 <1>   0.0800 
 32 H        4.5050    -1.9650     0.8590 H     1 <1>   0.0800 
 33 H        1.4860     0.6860    -0.4330 H     1 <1>   0.0800 
 34 H        2.7090     0.2240    -1.5830 H     1 <1>   0.0800 
 35 H        1.0770    -5.2300    -1.7720 H     1 <1>   0.1500 
 36 H        2.6590    -5.9500     2.1460 H     1 <1>   0.1500 
 37 H       -1.3270    -2.6180     0.1570 H     1 <1>   0.1500 
 38 H       -0.5380    -6.8230    -0.0340 H     1 <1>   0.1500 
 39 H        2.4270    -0.9140     1.0980 H     1 <1>   0.4500 
 40 H        2.7660    -6.7160    -2.7040 H     1 <1>   0.1500 
 41 H        4.3250    -7.4140     1.1910 H     1 <1>   0.1500 
 42 H       -3.4510    -2.9780    -0.9540 H     1 <1>   0.1500 
 43 H       -2.6790    -7.1570    -1.1380 H     1 <1>   0.1500 
 44 H        4.4160     1.1500     0.2690 H     1 <1>   0.0800 
 45 H        4.3510     0.3740     1.8390 H     1 <1>   0.0800 
 46 H        3.0450     1.4190     1.3280 H     1 <1>   0.0800 
 47 H        4.4040    -7.8130    -1.2320 H     1 <1>   0.1500 
 48 H       -4.1460    -5.2410    -1.6140 H     1 <1>   0.1500 
@<TRIPOS>BOND
  1   1   2  2   
  2   2   3  am  
  3   2   4  1   
  4   3   5  1   
  5   3   6  1   
  6   4   7  1   
  7   4   8  1   
  8   4   9  1   
  9   5  10  1   
 10   5  24  1   
 11   5  25  1   
 12   6  11  1   
 13   6  26  1   
 14   6  27  1   
 15   7  12  ar  
 16   7  13  ar  
 17   8  14  ar  
 18   8  15  ar  
 19   9  28  1   
 20   9  29  1   
 21   9  30  1   
 22  10  16  1   
 23  10  31  1   
 24  10  32  1   
 25  11  16  1   
 26  11  33  1   
 27  11  34  1   
 28  12  17  ar  
 29  12  35  1   
 30  13  18  ar  
 31  13  36  1   
 32  14  19  ar  
 33  14  37  1   
 34  15  20  ar  
 35  15  38  1   
 36  16  21  1   
 37  16  39  1   
 38  17  22  ar  
 39  17  40  1   
 40  18  22  ar  
 41  18  41  1   
 42  19  23  ar  
 43  19  42  1   
 44  20  23  ar  
 45  20  43  1   
 46  21  44  1   
 47  21  45  1   
 48  21  46  1   
 49  22  47  1   
 50  23  48  1   
@<TRIPOS>SUBSTRUCTURE
  1 ****   2 GROUP 4 **** **** 0

# MOE 2024.06 (io_trps.svl 2023.06)
