@<TRIPOS>MOLECULE
NONAME
38 38 1 0 0 
SMALL
USER_CHARGES


@<TRIPOS>ATOM
  1 O       -0.6660     0.2810    -0.4160 O.2   1 <1>  -0.5700 
  2 C       -1.6680     0.9350    -0.2590 C.2   1 <1>   0.8410 
  3 N       -2.6810     0.7770    -1.1240 N.am  1 <1>  -0.4900 
  4 N       -1.7740     1.8130     0.7700 N.2   1 <1>  -0.6610 
  5 C       -3.8340     1.4670    -1.0980 C.2   1 <1>   0.5690 
  6 C       -2.8260     2.5060     0.9360 C.2   1 <1>   0.4390 
  7 O       -4.6280     1.2920    -1.9870 O.2   1 <1>  -0.5700 
  8 C       -4.0920     2.4760     0.0360 C.3   1 <1>   0.1220 
  9 N       -2.8220     3.3090     2.0170 N.pl3 1 <1>  -0.8500 
 10 C       -4.3450     3.8660    -0.6330 C.3   1 <1>  -0.1600 
 11 C       -5.2930     2.0020     0.9140 C.3   1 <1>  -0.1600 
 12 C       -4.7720     5.0430     0.2690 C.3   1 <1>  -0.1600 
 13 C       -6.6800     1.9680     0.2420 C.3   1 <1>  -0.1600 
 14 C       -5.1630     6.2600    -0.5770 C.3   1 <1>  -0.1600 
 15 C       -7.7630     1.5540     1.2460 C.3   1 <1>  -0.1600 
 16 C       -5.5760     7.4380     0.3090 C.3   1 <1>  -0.2400 
 17 C       -9.1420     1.5180     0.5810 C.3   1 <1>  -0.2400 
 18 H       -2.5260     0.1220    -1.8800 H     1 <1>   0.3700 
 19 H       -1.9940     3.3290     2.6170 H     1 <1>   0.4000 
 20 H       -3.5880     3.9300     2.2800 H     1 <1>   0.4000 
 21 H       -5.1060     3.7420    -1.3840 H     1 <1>   0.0800 
 22 H       -3.4490     4.1530    -1.1580 H     1 <1>   0.0800 
 23 H       -5.3670     2.6330     1.7810 H     1 <1>   0.0800 
 24 H       -5.0710     1.0120     1.2760 H     1 <1>   0.0800 
 25 H       -3.9610     5.3330     0.9120 H     1 <1>   0.0800 
 26 H       -5.6140     4.7650     0.8780 H     1 <1>   0.0800 
 27 H       -6.6820     1.2660    -0.5730 H     1 <1>   0.0800 
 28 H       -6.9290     2.9370    -0.1540 H     1 <1>   0.0800 
 29 H       -5.9840     6.0030    -1.2260 H     1 <1>   0.0800 
 30 H       -4.3320     6.5560    -1.1950 H     1 <1>   0.0800 
 31 H       -7.7860     2.2500     2.0670 H     1 <1>   0.0800 
 32 H       -7.5380     0.5780     1.6410 H     1 <1>   0.0800 
 33 H       -6.4220     7.1740     0.9190 H     1 <1>   0.0800 
 34 H       -5.8490     8.2800    -0.3040 H     1 <1>   0.0800 
 35 H       -4.7630     7.7330     0.9490 H     1 <1>   0.0800 
 36 H       -9.4010     2.4900     0.1970 H     1 <1>   0.0800 
 37 H       -9.8890     1.2240     1.2970 H     1 <1>   0.0800 
 38 H       -9.1500     0.8120    -0.2300 H     1 <1>   0.0800 
@<TRIPOS>BOND
  1   1   2  2   
  2   2   3  am  
  3   2   4  1   
  4   3   5  am  
  5   3  18  1   
  6   4   6  2   
  7   5   7  2   
  8   5   8  1   
  9   6   8  1   
 10   6   9  1   
 11   8  10  1   
 12   8  11  1   
 13   9  19  1   
 14   9  20  1   
 15  10  12  1   
 16  10  21  1   
 17  10  22  1   
 18  11  13  1   
 19  11  23  1   
 20  11  24  1   
 21  12  14  1   
 22  12  25  1   
 23  12  26  1   
 24  13  15  1   
 25  13  27  1   
 26  13  28  1   
 27  14  16  1   
 28  14  29  1   
 29  14  30  1   
 30  15  17  1   
 31  15  31  1   
 32  15  32  1   
 33  16  33  1   
 34  16  34  1   
 35  16  35  1   
 36  17  36  1   
 37  17  37  1   
 38  17  38  1   
@<TRIPOS>SUBSTRUCTURE
  1 ****   8 GROUP 4 **** **** 0

# MOE 2024.06 (io_trps.svl 2023.06)
