@<TRIPOS>MOLECULE
NONAME
47 47 1 0 0 
SMALL
USER_CHARGES


@<TRIPOS>ATOM
  1 O       -0.2950     0.5600     1.6670 O.2   1 <1>  -0.5700 
  2 C       -0.3430     1.4000     0.7890 C.2   1 <1>   0.5440 
  3 N        0.7770     1.6200     0.0360 N.am  1 <1>  -0.7300 
  4 C       -1.5570     2.1640     0.5540 C.ar  1 <1>   0.0860 
  5 C        2.0700     0.9290     0.2120 C.3   1 <1>   0.1400 
  6 C       -1.8750     2.6860    -0.6990 C.ar  1 <1>  -0.1500 
  7 C       -2.4620     2.4080     1.5830 C.ar  1 <1>  -0.1500 
  8 C        3.2040     1.9100    -0.0720 C.3   1 <1>  -0.1600 
  9 C       -3.0270     3.4240    -0.9030 C.ar  1 <1>  -0.1500 
 10 C       -3.6150     3.1450     1.3820 C.ar  1 <1>  -0.1500 
 11 C        4.5600     1.2430     0.1380 C.3   1 <1>   0.1200 
 12 C       -3.9220     3.6730     0.1310 C.ar  1 <1>  -0.1430 
 13 O        5.5390     2.1750    -0.1850 O.3   1 <1>  -0.5600 
 14 C       -5.1950     4.5040    -0.1450 C.3   1 <1>   0.1440 
 15 C        6.8500     1.7490    -0.0230 C.3   1 <1>   0.2000 
 16 C       -6.0460     3.8000    -1.2120 C.3   1 <1>  -0.2400 
 17 C       -6.0760     4.6930     1.1010 C.3   1 <1>  -0.2400 
 18 C       -4.7980     5.9000    -0.6480 C.3   1 <1>  -0.2400 
 19 C        7.6910     3.0010     0.1990 C.3   1 <1>  -0.2400 
 20 C        7.2890     1.0080    -1.2870 C.3   1 <1>  -0.2400 
 21 H        0.7750     2.3810    -0.6440 H     1 <1>   0.3700 
 22 H        2.1180     0.0940    -0.4670 H     1 <1>   0.0800 
 23 H        2.1470     0.5550     1.2200 H     1 <1>   0.0800 
 24 H       -1.2190     2.5080    -1.5310 H     1 <1>   0.1500 
 25 H       -2.2510     2.0100     2.5610 H     1 <1>   0.1500 
 26 H        3.1250     2.7500     0.5960 H     1 <1>   0.0800 
 27 H        3.1390     2.2510    -1.0890 H     1 <1>   0.0800 
 28 H       -3.2230     3.8050    -1.8890 H     1 <1>   0.1500 
 29 H       -4.2610     3.2920     2.2270 H     1 <1>   0.1500 
 30 H        4.6650     0.3870    -0.5050 H     1 <1>   0.0800 
 31 H        4.6840     0.9510     1.1680 H     1 <1>   0.0800 
 32 H        6.9160     1.1120     0.8440 H     1 <1>   0.0800 
 33 H       -5.5150     3.7200    -2.1430 H     1 <1>   0.0800 
 34 H       -6.9560     4.3440    -1.3930 H     1 <1>   0.0800 
 35 H       -6.3000     2.8080    -0.8830 H     1 <1>   0.0800 
 36 H       -5.5330     5.2070     1.8740 H     1 <1>   0.0800 
 37 H       -6.9480     5.2770     0.8640 H     1 <1>   0.0800 
 38 H       -6.4070     3.7420     1.4780 H     1 <1>   0.0800 
 39 H       -4.2570     5.8410    -1.5730 H     1 <1>   0.0800 
 40 H       -4.1730     6.3880     0.0790 H     1 <1>   0.0800 
 41 H       -5.6710     6.5070    -0.8110 H     1 <1>   0.0800 
 42 H        7.6120     3.6590    -0.6480 H     1 <1>   0.0800 
 43 H        8.7230     2.7350     0.3360 H     1 <1>   0.0800 
 44 H        7.3520     3.5160     1.0800 H     1 <1>   0.0800 
 45 H        7.1530     1.6350    -2.1500 H     1 <1>   0.0800 
 46 H        6.7270     0.1020    -1.4120 H     1 <1>   0.0800 
 47 H        8.3280     0.7470    -1.2130 H     1 <1>   0.0800 
@<TRIPOS>BOND
  1   1   2  2   
  2   2   3  am  
  3   2   4  1   
  4   3   5  1   
  5   3  21  1   
  6   4   6  ar  
  7   4   7  ar  
  8   5   8  1   
  9   5  22  1   
 10   5  23  1   
 11   6   9  ar  
 12   6  24  1   
 13   7  10  ar  
 14   7  25  1   
 15   8  11  1   
 16   8  26  1   
 17   8  27  1   
 18   9  12  ar  
 19   9  28  1   
 20  10  12  ar  
 21  10  29  1   
 22  11  13  1   
 23  11  30  1   
 24  11  31  1   
 25  12  14  1   
 26  13  15  1   
 27  14  16  1   
 28  14  17  1   
 29  14  18  1   
 30  15  19  1   
 31  15  20  1   
 32  15  32  1   
 33  16  33  1   
 34  16  34  1   
 35  16  35  1   
 36  17  36  1   
 37  17  37  1   
 38  17  38  1   
 39  18  39  1   
 40  18  40  1   
 41  18  41  1   
 42  19  42  1   
 43  19  43  1   
 44  19  44  1   
 45  20  45  1   
 46  20  46  1   
 47  20  47  1   
@<TRIPOS>SUBSTRUCTURE
  1 ****   3 GROUP 4 **** **** 0

# MOE 2024.06 (io_trps.svl 2023.06)
