@<TRIPOS>MOLECULE
NONAME
31 32 1 0 0 
SMALL
USER_CHARGES


@<TRIPOS>ATOM
  1 BR      -0.6080    -0.6510    -2.3570 Br    1 <1>  -0.1110 
  2 C       -2.2270    -1.1040    -1.4140 C.ar  1 <1>   0.1110 
  3 C       -3.3790    -1.3780    -2.1270 C.ar  1 <1>   0.1600 
  4 C       -2.2120    -1.1500    -0.0390 C.ar  1 <1>  -0.1500 
  5 N       -4.5340    -1.6980    -1.5610 N.ar  1 <1>  -0.6200 
  6 C       -3.4110    -1.4830     0.5530 C.ar  1 <1>  -0.1500 
  7 C       -4.5380    -1.7440    -0.2330 C.ar  1 <1>   0.4270 
  8 N       -5.7660    -2.0830     0.2880 N.am  1 <1>  -0.5470 
  9 C       -6.2980    -2.0670     1.5410 C.2   1 <1>   0.5690 
 10 O       -5.6890    -1.7380     2.5300 O.2   1 <1>  -0.5700 
 11 C       -7.7630    -2.4920     1.6730 C.3   1 <1>   0.1710 
 12 N       -8.5480    -2.3590     0.4100 N.3   1 <1>  -0.8100 
 13 C       -9.8180    -3.1080     0.4950 C.3   1 <1>   0.1100 
 14 C       -8.8420    -0.9400     0.1040 C.3   1 <1>   0.1100 
 15 C      -10.6580    -2.9190    -0.7810 C.3   1 <1>   0.1200 
 16 C       -9.7120    -0.8150    -1.1600 C.3   1 <1>   0.1200 
 17 O      -10.8880    -1.5600    -1.0190 O.3   1 <1>  -0.5600 
 18 H       -3.3450    -1.3330    -3.2020 H     1 <1>   0.1500 
 19 H       -1.3220    -0.9410     0.5280 H     1 <1>   0.1500 
 20 H       -3.4740    -1.5420     1.6230 H     1 <1>   0.1500 
 21 H       -6.4540    -2.3150    -0.4310 H     1 <1>   0.3700 
 22 H       -8.2240    -1.9160     2.4560 H     1 <1>   0.0800 
 23 H       -7.7620    -3.5230     1.9800 H     1 <1>   0.0800 
 24 H      -10.3920    -2.7710     1.3420 H     1 <1>   0.0800 
 25 H       -9.6090    -4.1560     0.6240 H     1 <1>   0.0800 
 26 H       -7.9250    -0.3990    -0.0510 H     1 <1>   0.0800 
 27 H       -9.3640    -0.4830     0.9280 H     1 <1>   0.0800 
 28 H      -11.6150    -3.3990    -0.6730 H     1 <1>   0.0800 
 29 H      -10.1520    -3.3380    -1.6330 H     1 <1>   0.0800 
 30 H       -9.1780    -1.1720    -2.0240 H     1 <1>   0.0800 
 31 H       -9.9900     0.2110    -1.3230 H     1 <1>   0.0800 
@<TRIPOS>BOND
  1   1   2  1   
  2   2   3  ar  
  3   2   4  ar  
  4   3   5  ar  
  5   3  18  1   
  6   4   6  ar  
  7   4  19  1   
  8   5   7  ar  
  9   6   7  ar  
 10   6  20  1   
 11   7   8  1   
 12   8   9  am  
 13   8  21  1   
 14   9  10  2   
 15   9  11  1   
 16  11  12  1   
 17  11  22  1   
 18  11  23  1   
 19  12  13  1   
 20  12  14  1   
 21  13  15  1   
 22  13  24  1   
 23  13  25  1   
 24  14  16  1   
 25  14  26  1   
 26  14  27  1   
 27  15  17  1   
 28  15  28  1   
 29  15  29  1   
 30  16  17  1   
 31  16  30  1   
 32  16  31  1   
@<TRIPOS>SUBSTRUCTURE
  1 ****   8 GROUP 4 **** **** 0

# MOE 2024.06 (io_trps.svl 2023.06)
