@<TRIPOS>MOLECULE
NONAME
37 38 1 0 0 
SMALL
USER_CHARGES


@<TRIPOS>ATOM
  1 O       -0.6190    -1.0470    -1.9420 O.2   1 <1>  -0.5700 
  2 C       -0.4440    -1.7990    -1.0020 C.2   1 <1>   0.5440 
  3 N        0.7540    -1.7500    -0.3230 N.am  1 <1>  -0.6600 
  4 C       -1.5050    -2.7110    -0.6210 C.ar  1 <1>   0.0860 
  5 C        1.9160    -0.9570    -0.8240 C.3   1 <1>   0.1400 
  6 C        1.0010    -2.3610     1.0170 C.3   1 <1>   0.1400 
  7 C       -2.7590    -2.2260    -0.2600 C.ar  1 <1>  -0.1500 
  8 C       -1.3080    -4.0920    -0.6090 C.ar  1 <1>  -0.1500 
  9 C        3.2150    -1.7710    -0.7030 C.3   1 <1>   0.1200 
 10 C        2.3470    -3.1050     1.0260 C.3   1 <1>   0.1200 
 11 C       -3.7830    -3.0870     0.1200 C.ar  1 <1>   0.0830 
 12 C       -2.3180    -4.9570    -0.2310 C.ar  1 <1>  -0.1500 
 13 O        3.3800    -2.2620     0.5990 O.3   1 <1>  -0.5600 
 14 O       -5.0250    -2.6810     0.4860 O.3   1 <1>  -0.3630 
 15 C       -3.5520    -4.4520     0.1360 C.ar  1 <1>  -0.1500 
 16 C       -5.4680    -1.3450     0.3750 C.3   1 <1>   0.2000 
 17 C       -6.7090    -1.2130     1.2530 C.3   1 <1>  -0.2400 
 18 C       -5.7980    -1.0490    -1.0910 C.3   1 <1>  -0.2400 
 19 H        2.0040    -0.0540    -0.2470 H     1 <1>   0.0800 
 20 H        1.7680    -0.6800    -1.8540 H     1 <1>   0.0800 
 21 H        0.2140    -3.0390     1.2880 H     1 <1>   0.0800 
 22 H        1.0310    -1.5810     1.7570 H     1 <1>   0.0800 
 23 H       -2.9030    -1.1640    -0.2900 H     1 <1>   0.1500 
 24 H       -0.3500    -4.4830    -0.9050 H     1 <1>   0.1500 
 25 H        4.0630    -1.1490    -0.9290 H     1 <1>   0.0800 
 26 H        3.2040    -2.6010    -1.3870 H     1 <1>   0.0800 
 27 H        2.3120    -3.9630     0.3760 H     1 <1>   0.0800 
 28 H        2.5830    -3.4340     2.0220 H     1 <1>   0.0800 
 29 H       -2.1490    -6.0200    -0.2250 H     1 <1>   0.1500 
 30 H       -4.3460    -5.1130     0.4320 H     1 <1>   0.1500 
 31 H       -4.7020    -0.6890     0.7490 H     1 <1>   0.0800 
 32 H       -7.4790    -1.8850     0.9170 H     1 <1>   0.0800 
 33 H       -7.0860    -0.2070     1.2090 H     1 <1>   0.0800 
 34 H       -6.4600    -1.4390     2.2740 H     1 <1>   0.0800 
 35 H       -6.5490    -1.7300    -1.4480 H     1 <1>   0.0800 
 36 H       -4.9210    -1.1400    -1.7050 H     1 <1>   0.0800 
 37 H       -6.1710    -0.0460    -1.1870 H     1 <1>   0.0800 
@<TRIPOS>BOND
  1   1   2  2   
  2   2   3  am  
  3   2   4  1   
  4   3   5  1   
  5   3   6  1   
  6   4   7  ar  
  7   4   8  ar  
  8   5   9  1   
  9   5  19  1   
 10   5  20  1   
 11   6  10  1   
 12   6  21  1   
 13   6  22  1   
 14   7  11  ar  
 15   7  23  1   
 16   8  12  ar  
 17   8  24  1   
 18   9  13  1   
 19   9  25  1   
 20   9  26  1   
 21  10  13  1   
 22  10  27  1   
 23  10  28  1   
 24  11  14  1   
 25  11  15  ar  
 26  12  15  ar  
 27  12  29  1   
 28  14  16  1   
 29  15  30  1   
 30  16  17  1   
 31  16  18  1   
 32  16  31  1   
 33  17  32  1   
 34  17  33  1   
 35  17  34  1   
 36  18  35  1   
 37  18  36  1   
 38  18  37  1   
@<TRIPOS>SUBSTRUCTURE
  1 ****   4 GROUP 4 **** **** 0

# MOE 2024.06 (io_trps.svl 2023.06)
