@<TRIPOS>MOLECULE
NONAME
36 36 1 0 0 
SMALL
USER_CHARGES


@<TRIPOS>ATOM
  1 O       -0.5930     1.1700    -1.1180 O.2   1 <1>  -0.5700 
  2 C       -0.2970     1.8490    -0.1530 C.2   1 <1>   0.5440 
  3 N       -1.2450     2.0550     0.8110 N.am  1 <1>  -0.7300 
  4 C        1.0330     2.4180    -0.0240 C.ar  1 <1>   0.0860 
  5 C       -2.6130     1.4740     0.7980 C.3   1 <1>   0.1400 
  6 C        2.1320     1.8160    -0.6400 C.ar  1 <1>  -0.1500 
  7 C        1.2740     3.5810     0.7130 C.ar  1 <1>  -0.1500 
  8 C       -3.4890     2.1800    -0.2380 C.3   1 <1>   0.1200 
  9 C        3.4090     2.3330    -0.5220 C.ar  1 <1>  -0.1500 
 10 C        2.5470     4.1040     0.8370 C.ar  1 <1>  -0.1500 
 11 O       -4.8100     1.7790    -0.0480 O.3   1 <1>  -0.5600 
 12 C        3.6250     3.4870     0.2250 C.ar  1 <1>   0.0830 
 13 C       -5.6900     2.2870    -0.9980 C.3   1 <1>   0.0400 
 14 O        4.8370     4.0600     0.3970 O.3   1 <1>  -0.3630 
 15 C        6.0000     3.5260    -0.1930 C.3   1 <1>   0.1200 
 16 C        7.1830     4.4140     0.1940 C.3   1 <1>  -0.1600 
 17 C        8.4920     3.8960    -0.4120 C.3   1 <1>  -0.2400 
 18 H       -0.9750     2.5190     1.6780 H     1 <1>   0.3700 
 19 H       -3.0530     1.5850     1.7730 H     1 <1>   0.0800 
 20 H       -2.5540     0.4260     0.5550 H     1 <1>   0.0800 
 21 H        1.9720     0.9240    -1.2220 H     1 <1>   0.1500 
 22 H        0.4560     4.0900     1.1880 H     1 <1>   0.1500 
 23 H       -3.1770     1.9060    -1.2320 H     1 <1>   0.0800 
 24 H       -3.4360     3.2470    -0.1090 H     1 <1>   0.0800 
 25 H        4.2180     1.8290    -1.0150 H     1 <1>   0.1500 
 26 H        2.7180     4.9990     1.4080 H     1 <1>   0.1500 
 27 H       -6.6770     1.9290    -0.7650 H     1 <1>   0.0800 
 28 H       -5.3980     1.9380    -1.9740 H     1 <1>   0.0800 
 29 H       -5.6740     3.3620    -0.9580 H     1 <1>   0.0800 
 30 H        5.8650     3.5160    -1.2610 H     1 <1>   0.0800 
 31 H        6.1390     2.5250     0.1770 H     1 <1>   0.0800 
 32 H        7.2730     4.4350     1.2660 H     1 <1>   0.0800 
 33 H        7.0020     5.4150    -0.1560 H     1 <1>   0.0800 
 34 H        8.7020     2.9000    -0.0620 H     1 <1>   0.0800 
 35 H        9.3080     4.5370    -0.1260 H     1 <1>   0.0800 
 36 H        8.4310     3.8810    -1.4860 H     1 <1>   0.0800 
@<TRIPOS>BOND
  1   1   2  2   
  2   2   3  am  
  3   2   4  1   
  4   3   5  1   
  5   3  18  1   
  6   4   6  ar  
  7   4   7  ar  
  8   5   8  1   
  9   5  19  1   
 10   5  20  1   
 11   6   9  ar  
 12   6  21  1   
 13   7  10  ar  
 14   7  22  1   
 15   8  11  1   
 16   8  23  1   
 17   8  24  1   
 18   9  12  ar  
 19   9  25  1   
 20  10  12  ar  
 21  10  26  1   
 22  11  13  1   
 23  12  14  1   
 24  13  27  1   
 25  13  28  1   
 26  13  29  1   
 27  14  15  1   
 28  15  16  1   
 29  15  30  1   
 30  15  31  1   
 31  16  17  1   
 32  16  32  1   
 33  16  33  1   
 34  17  34  1   
 35  17  35  1   
 36  17  36  1   
@<TRIPOS>SUBSTRUCTURE
  1 ****   4 GROUP 4 **** **** 0

# MOE 2024.06 (io_trps.svl 2023.06)
