@<TRIPOS>MOLECULE
NONAME
35 37 1 0 0 
SMALL
USER_CHARGES


@<TRIPOS>ATOM
  1 S       -0.2670     0.3430    -0.0190 S.3   1 <1>  -0.3320 
  2 C       -2.0230     0.0050    -0.0060 C.ar  1 <1>   0.7220 
  3 C        0.5310    -1.3220     0.0010 C.3   1 <1>   0.0700 
  4 N       -2.8140     1.1040    -0.0170 N.ar  1 <1>  -0.3100 
  5 N       -2.3830    -1.2570     0.0130 N.ar  1 <1>  -0.5670 
  6 C        2.0470    -1.1220    -0.0090 C.3   1 <1>  -0.1600 
  7 N       -4.1100     0.9710    -0.0100 N.ar  1 <1>  -0.2560 
  8 C       -3.7110    -1.3700     0.0210 C.ar  1 <1>   0.1050 
  9 C        2.7820    -2.4680     0.0060 C.3   1 <1>  -0.1600 
 10 C       -4.5680    -0.2850     0.0100 C.ar  1 <1>   0.2560 
 11 N       -4.4450    -2.5200     0.0400 N.pl3 1 <1>   0.0330 
 12 C        4.3000    -2.2650    -0.0040 C.3   1 <1>  -0.2400 
 13 C       -5.8940    -0.8010     0.0230 C.ar  1 <1>   0.0000 
 14 C       -5.7860    -2.1900     0.0420 C.ar  1 <1>  -0.1520 
 15 C       -7.1540    -0.2040     0.0210 C.ar  1 <1>  -0.1500 
 16 C       -6.9210    -3.0030     0.0580 C.ar  1 <1>  -0.1430 
 17 C       -8.2770    -1.0010     0.0370 C.ar  1 <1>  -0.1500 
 18 C       -8.1590    -2.3940     0.0550 C.ar  1 <1>  -0.1500 
 19 C       -6.7880    -4.5160     0.0780 C.3   1 <1>  -0.0970 
 20 H        0.1930    -1.8500    -0.8740 H     1 <1>   0.0800 
 21 H        0.2010    -1.8260     0.8920 H     1 <1>   0.0800 
 22 H        2.3320    -0.5460     0.8540 H     1 <1>   0.0800 
 23 H        2.3240    -0.5700    -0.8910 H     1 <1>   0.0800 
 24 H        2.4980    -3.0460    -0.8570 H     1 <1>   0.0800 
 25 H        2.5060    -3.0230     0.8870 H     1 <1>   0.0800 
 26 H       -4.0530    -3.4640     0.0510 H     1 <1>   0.2700 
 27 H        4.6030    -1.7310    -0.8870 H     1 <1>   0.0800 
 28 H        4.7990    -3.2180     0.0070 H     1 <1>   0.0800 
 29 H        4.6110    -1.7070     0.8620 H     1 <1>   0.0800 
 30 H       -7.2280     0.8690     0.0060 H     1 <1>   0.1500 
 31 H       -9.2560    -0.5560     0.0350 H     1 <1>   0.1500 
 32 H       -9.0580    -2.9850     0.0680 H     1 <1>   0.1500 
 33 H       -6.2520    -4.8260     0.9570 H     1 <1>   0.0800 
 34 H       -6.2600    -4.8500    -0.7960 H     1 <1>   0.0800 
 35 H       -7.7570    -4.9830     0.0890 H     1 <1>   0.0800 
@<TRIPOS>BOND
  1   1   2  1   
  2   1   3  1   
  3   2   4  ar  
  4   2   5  ar  
  5   3   6  1   
  6   3  20  1   
  7   3  21  1   
  8   4   7  ar  
  9   5   8  ar  
 10   6   9  1   
 11   6  22  1   
 12   6  23  1   
 13   7  10  ar  
 14   8  10  ar  
 15   8  11  1   
 16   9  12  1   
 17   9  24  1   
 18   9  25  1   
 19  10  13  1   
 20  11  14  1   
 21  11  26  1   
 22  12  27  1   
 23  12  28  1   
 24  12  29  1   
 25  13  14  ar  
 26  13  15  ar  
 27  14  16  ar  
 28  15  17  ar  
 29  15  30  1   
 30  16  18  ar  
 31  16  19  1   
 32  17  18  ar  
 33  17  31  1   
 34  18  32  1   
 35  19  33  1   
 36  19  34  1   
 37  19  35  1   
@<TRIPOS>SUBSTRUCTURE
  1 ****   8 GROUP 4 **** **** 0

# MOE 2024.06 (io_trps.svl 2023.06)
