@<TRIPOS>MOLECULE
NONAME
40 42 1 0 0 
SMALL
USER_CHARGES


@<TRIPOS>ATOM
  1 CL       0.0210    -0.9350    -1.9960 Cl    1 <1>  -0.1770 
  2 C        1.6510    -1.4630    -1.6560 C.ar  1 <1>   0.1770 
  3 C        1.8470    -2.5880    -0.8810 C.ar  1 <1>  -0.1500 
  4 C        2.7150    -0.7470    -2.1700 C.ar  1 <1>  -0.1500 
  5 C        3.1360    -3.0230    -0.5990 C.ar  1 <1>   0.1000 
  6 C        4.0050    -1.1720    -1.8980 C.ar  1 <1>  -0.1500 
  7 N        3.3600    -4.1730     0.1830 N.pl3 1 <1>  -0.8380 
  8 C        4.2260    -2.3020    -1.1190 C.ar  1 <1>   0.1170 
  9 C        3.6750    -5.4460    -0.5370 C.3   1 <1>   0.2090 
 10 C        2.6060    -4.3780     1.4590 C.3   1 <1>   0.2090 
 11 N        5.5090    -2.7750    -0.8030 N.am  1 <1>  -0.5470 
 12 C        2.4600    -6.3900    -0.5770 C.3   1 <1>   0.1200 
 13 C        1.4770    -5.4180     1.3120 C.3   1 <1>   0.1200 
 14 C        6.7710    -2.5010    -1.2380 C.2   1 <1>   0.5690 
 15 O        1.9390    -6.5930     0.7070 O.3   1 <1>  -0.5600 
 16 O        7.0300    -1.6470    -2.0550 O.2   1 <1>  -0.5700 
 17 C        7.9130    -3.3370    -0.6460 C.3   1 <1>   0.2610 
 18 O        7.4510    -4.5120    -0.0280 O.3   1 <1>  -0.5600 
 19 C        8.6860    -2.6250     0.4580 C.3   1 <1>  -0.1600 
 20 C        8.3960    -4.9790     0.8810 C.3   1 <1>   0.1200 
 21 C        9.2260    -3.7680     1.3030 C.3   1 <1>  -0.1600 
 22 H        0.9970    -3.1220    -0.5080 H     1 <1>   0.1500 
 23 H        2.5380     0.1260    -2.7720 H     1 <1>   0.1500 
 24 H        4.8360    -0.6180    -2.2930 H     1 <1>   0.1500 
 25 H        4.4900    -5.9410    -0.0380 H     1 <1>   0.0800 
 26 H        3.9890    -5.2280    -1.5430 H     1 <1>   0.0800 
 27 H        2.1940    -3.4420     1.7930 H     1 <1>   0.0800 
 28 H        3.2930    -4.7170     2.2140 H     1 <1>   0.0800 
 29 H        5.4570    -3.5630    -0.1450 H     1 <1>   0.3700 
 30 H        2.7500    -7.3480    -0.9690 H     1 <1>   0.0800 
 31 H        1.6880    -5.9790    -1.2040 H     1 <1>   0.0800 
 32 H        0.6720    -5.0240     0.7200 H     1 <1>   0.0800 
 33 H        1.0920    -5.6800     2.2810 H     1 <1>   0.0800 
 34 H        8.5810    -3.6310    -1.4360 H     1 <1>   0.0800 
 35 H        8.0090    -2.0200     1.0360 H     1 <1>   0.0800 
 36 H        9.4620    -1.9980     0.0550 H     1 <1>   0.0800 
 37 H        9.0050    -5.7160     0.3840 H     1 <1>   0.0800 
 38 H        7.8800    -5.4270     1.7120 H     1 <1>   0.0800 
 39 H        9.1140    -3.5680     2.3540 H     1 <1>   0.0800 
 40 H       10.2650    -3.9500     1.0910 H     1 <1>   0.0800 
@<TRIPOS>BOND
  1   1   2  1   
  2   2   3  ar  
  3   2   4  ar  
  4   3   5  ar  
  5   3  22  1   
  6   4   6  ar  
  7   4  23  1   
  8   5   7  1   
  9   5   8  ar  
 10   6   8  ar  
 11   6  24  1   
 12   7   9  1   
 13   7  10  1   
 14   8  11  1   
 15   9  12  1   
 16   9  25  1   
 17   9  26  1   
 18  10  13  1   
 19  10  27  1   
 20  10  28  1   
 21  11  14  am  
 22  11  29  1   
 23  12  15  1   
 24  12  30  1   
 25  12  31  1   
 26  13  15  1   
 27  13  32  1   
 28  13  33  1   
 29  14  16  2   
 30  14  17  1   
 31  17  18  1   
 32  17  19  1   
 33  17  34  1   
 34  18  20  1   
 35  19  21  1   
 36  19  35  1   
 37  19  36  1   
 38  20  21  1   
 39  20  37  1   
 40  20  38  1   
 41  21  39  1   
 42  21  40  1   
@<TRIPOS>SUBSTRUCTURE
  1 ****  11 GROUP 4 **** **** 0

# MOE 2024.06 (io_trps.svl 2023.06)
