@<TRIPOS>MOLECULE
NONAME
47 48 1 0 0 
SMALL
USER_CHARGES


@<TRIPOS>ATOM
  1 S        0.0570     0.0330     1.1740 S.o2  1 <1>   1.4470 
  2 O        0.0080     1.4140     0.7580 O.2   1 <1>  -0.6500 
  3 O        0.6420    -0.3300     2.4420 O.2   1 <1>  -0.6500 
  4 N        1.0500    -0.6420    -0.0010 N.am  1 <1>  -0.9140 
  5 C       -1.5340    -0.7950     0.9110 C.ar  1 <1>  -0.0090 
  6 C        2.4600    -0.3710     0.2630 C.3   1 <1>   0.1960 
  7 C       -2.4810    -0.2660     0.0470 C.ar  1 <1>  -0.1500 
  8 C       -1.8310    -1.9960     1.5390 C.ar  1 <1>  -0.1500 
  9 C        3.3570    -1.0650    -0.7780 C.3   1 <1>   0.3430 
 10 C       -3.7000    -0.8910    -0.2100 C.ar  1 <1>   0.0860 
 11 C       -3.0320    -2.6410     1.3080 C.ar  1 <1>  -0.1500 
 12 N        4.8150    -0.9810    -0.4360 N.4   1 <1>  -0.9590 
 13 C       -3.9650    -2.1010     0.4400 C.ar  1 <1>  -0.1440 
 14 C       -4.6300    -0.2680    -1.1320 C.2   1 <1>   0.5440 
 15 C        5.3780     0.4170    -0.3940 C.3   1 <1>   0.3430 
 16 C        5.6610    -1.8520    -1.3230 C.3   1 <1>   0.3430 
 17 C       -5.2760    -2.8410     0.2050 C.3   1 <1>  -0.0970 
 18 O       -4.9710    -0.8310    -2.1530 O.2   1 <1>  -0.5700 
 19 N       -5.1170     0.9810    -0.8610 N.am  1 <1>  -0.7300 
 20 C        6.8930     0.4080    -0.0820 C.3   1 <1>   0.1200 
 21 C        7.1560    -1.7730    -0.9310 C.3   1 <1>   0.1200 
 22 C       -6.0490     1.7500    -1.7250 C.3   1 <1>   0.0600 
 23 O        7.3530    -0.8970     0.1470 O.3   1 <1>  -0.5600 
 24 H        0.7660    -0.1300    -0.8370 H     1 <1>   0.4200 
 25 H        2.7150    -0.7580     1.2370 H     1 <1>   0.0800 
 26 H        2.6260     0.6930     0.2570 H     1 <1>   0.0800 
 27 H       -2.2740     0.6650    -0.4550 H     1 <1>   0.1500 
 28 H       -1.1170    -2.4340     2.2170 H     1 <1>   0.1500 
 29 H        3.1840    -0.6240    -1.7450 H     1 <1>   0.0800 
 30 H        3.0670    -2.1020    -0.8230 H     1 <1>   0.0800 
 31 H       -3.2330    -3.5730     1.8100 H     1 <1>   0.1500 
 32 H        4.9740    -1.3580     0.5130 H     1 <1>   0.4500 
 33 H        4.8740     0.9970     0.3620 H     1 <1>   0.0800 
 34 H        5.2210     0.9090    -1.3400 H     1 <1>   0.0800 
 35 H        5.5540    -1.5470    -2.3510 H     1 <1>   0.0800 
 36 H        5.3370    -2.8770    -1.2530 H     1 <1>   0.0800 
 37 H       -6.1110    -2.1840     0.3720 H     1 <1>   0.0800 
 38 H       -5.3730    -3.6850     0.8640 H     1 <1>   0.0800 
 39 H       -5.3180    -3.1960    -0.8100 H     1 <1>   0.0800 
 40 H       -4.8780     1.4160     0.0320 H     1 <1>   0.3700 
 41 H        7.0930     0.9860     0.8040 H     1 <1>   0.0800 
 42 H        7.4550     0.8340    -0.8950 H     1 <1>   0.0800 
 43 H        7.7530    -1.4380    -1.7620 H     1 <1>   0.0800 
 44 H        7.5130    -2.7430    -0.6320 H     1 <1>   0.0800 
 45 H       -6.2350     1.2200    -2.6450 H     1 <1>   0.0800 
 46 H       -5.6200     2.7080    -1.9610 H     1 <1>   0.0800 
 47 H       -6.9840     1.8940    -1.2130 H     1 <1>   0.0800 
@<TRIPOS>BOND
  1   1   2  2   
  2   1   3  2   
  3   1   4  am  
  4   1   5  1   
  5   4   6  1   
  6   4  24  1   
  7   5   7  ar  
  8   5   8  ar  
  9   6   9  1   
 10   6  25  1   
 11   6  26  1   
 12   7  10  ar  
 13   7  27  1   
 14   8  11  ar  
 15   8  28  1   
 16   9  12  1   
 17   9  29  1   
 18   9  30  1   
 19  10  13  ar  
 20  10  14  1   
 21  11  13  ar  
 22  11  31  1   
 23  12  15  1   
 24  12  16  1   
 25  12  32  1   
 26  13  17  1   
 27  14  18  2   
 28  14  19  am  
 29  15  20  1   
 30  15  33  1   
 31  15  34  1   
 32  16  21  1   
 33  16  35  1   
 34  16  36  1   
 35  17  37  1   
 36  17  38  1   
 37  17  39  1   
 38  19  22  1   
 39  19  40  1   
 40  20  23  1   
 41  20  41  1   
 42  20  42  1   
 43  21  23  1   
 44  21  43  1   
 45  21  44  1   
 46  22  45  1   
 47  22  46  1   
 48  22  47  1   
@<TRIPOS>SUBSTRUCTURE
  1 ****   4 GROUP 4 **** **** 0

# MOE 2024.06 (io_trps.svl 2023.06)
