@<TRIPOS>MOLECULE
NONAME
40 40 1 0 0 
SMALL
USER_CHARGES


@<TRIPOS>ATOM
  1 O        0.3930    -0.2260    -0.1600 O.3   1 <1>  -0.3630 
  2 C       -0.8110    -0.8390    -0.0410 C.ar  1 <1>   0.0830 
  3 C        1.5920    -0.9390     0.0080 C.3   1 <1>   0.1200 
  4 C       -0.9700    -2.1820     0.2930 C.ar  1 <1>  -0.1500 
  5 C       -1.9310    -0.0560    -0.2730 C.ar  1 <1>  -0.1500 
  6 C        2.7390     0.0490    -0.2230 C.3   1 <1>   0.3430 
  7 C       -2.2390    -2.7290     0.3920 C.ar  1 <1>  -0.1440 
  8 C       -3.2010    -0.5960    -0.1790 C.ar  1 <1>  -0.1440 
  9 N        4.0980    -0.5630    -0.0310 N.4   1 <1>  -0.9590 
 10 C       -3.3470    -1.9330     0.1540 C.ar  1 <1>  -0.1500 
 11 C       -2.4250    -4.1910     0.7550 C.3   1 <1>  -0.0970 
 12 C       -4.4280     0.2600    -0.4330 C.3   1 <1>  -0.0970 
 13 C        5.1270     0.5110    -0.0240 C.3   1 <1>   0.3430 
 14 C        4.3970    -1.6030    -1.0560 C.3   1 <1>   0.3430 
 15 C        6.4140    -0.0150     0.6020 C.3   1 <1>  -0.2400 
 16 C        4.4070    -2.9640    -0.3730 C.3   1 <1>  -0.2400 
 17 H        1.6060    -1.7330    -0.7170 H     1 <1>   0.0800 
 18 H        1.6110    -1.3260     1.0110 H     1 <1>   0.0800 
 19 H       -0.1260    -2.8150     0.4800 H     1 <1>   0.1500 
 20 H       -1.7990     0.9790    -0.5270 H     1 <1>   0.1500 
 21 H        2.6160     0.8630     0.4720 H     1 <1>   0.0800 
 22 H        2.6590     0.4440    -1.2220 H     1 <1>   0.0800 
 23 H        4.1280    -1.0130     0.8940 H     1 <1>   0.4500 
 24 H       -4.3340    -2.3560     0.2290 H     1 <1>   0.1500 
 25 H       -1.5690    -4.5670     1.2850 H     1 <1>   0.0800 
 26 H       -2.5640    -4.7730    -0.1390 H     1 <1>   0.0800 
 27 H       -3.2900    -4.3110     1.3830 H     1 <1>   0.0800 
 28 H       -4.1620     1.1650    -0.9500 H     1 <1>   0.0800 
 29 H       -4.8900     0.5200     0.5020 H     1 <1>   0.0800 
 30 H       -5.1380    -0.2790    -1.0350 H     1 <1>   0.0800 
 31 H        4.7760     1.3470     0.5610 H     1 <1>   0.0800 
 32 H        5.3150     0.8580    -1.0280 H     1 <1>   0.0800 
 33 H        5.3620    -1.4230    -1.5030 H     1 <1>   0.0800 
 34 H        3.6570    -1.5860    -1.8400 H     1 <1>   0.0800 
 35 H        6.2390    -0.3620     1.6050 H     1 <1>   0.0800 
 36 H        6.8460    -0.8060     0.0150 H     1 <1>   0.0800 
 37 H        7.1330     0.7840     0.6510 H     1 <1>   0.0800 
 38 H        4.6240    -3.7230    -1.1040 H     1 <1>   0.0800 
 39 H        5.1710    -3.0060     0.3820 H     1 <1>   0.0800 
 40 H        3.4520    -3.1910     0.0640 H     1 <1>   0.0800 
@<TRIPOS>BOND
  1   1   2  1   
  2   1   3  1   
  3   2   4  ar  
  4   2   5  ar  
  5   3   6  1   
  6   3  17  1   
  7   3  18  1   
  8   4   7  ar  
  9   4  19  1   
 10   5   8  ar  
 11   5  20  1   
 12   6   9  1   
 13   6  21  1   
 14   6  22  1   
 15   7  10  ar  
 16   7  11  1   
 17   8  10  ar  
 18   8  12  1   
 19   9  13  1   
 20   9  14  1   
 21   9  23  1   
 22  10  24  1   
 23  11  25  1   
 24  11  26  1   
 25  11  27  1   
 26  12  28  1   
 27  12  29  1   
 28  12  30  1   
 29  13  15  1   
 30  13  31  1   
 31  13  32  1   
 32  14  16  1   
 33  14  33  1   
 34  14  34  1   
 35  15  35  1   
 36  15  36  1   
 37  15  37  1   
 38  16  38  1   
 39  16  39  1   
 40  16  40  1   
@<TRIPOS>SUBSTRUCTURE
  1 ****   1 GROUP 4 **** **** 0

# MOE 2024.06 (io_trps.svl 2023.06)
