@<TRIPOS>MOLECULE
NONAME
32 33 1 0 0 
SMALL
USER_CHARGES


@<TRIPOS>ATOM
  1 BR      -0.3650     0.2500    -2.3390 Br    1 <1>  -0.1110 
  2 C       -1.4440     1.2850    -1.1180 C.ar  1 <1>   0.1110 
  3 C       -0.8560     2.2580    -0.3210 C.ar  1 <1>   0.0820 
  4 C       -2.8000     1.0250    -1.0720 C.ar  1 <1>  -0.1500 
  5 O        0.4690     2.5160    -0.3690 O.3   1 <1>  -0.3630 
  6 C       -1.6610     2.9940     0.5330 C.ar  1 <1>  -0.1500 
  7 C       -3.6010     1.7630    -0.2110 C.ar  1 <1>  -0.1430 
  8 C        1.2820     1.7200     0.4620 C.3   1 <1>   0.0400 
  9 C       -3.0240     2.7430     0.5890 C.ar  1 <1>  -0.1500 
 10 C       -5.0950     1.4990    -0.1490 C.3   1 <1>   0.2140 
 11 S       -5.3730     0.0010     0.8910 S.3   1 <1>  -0.2860 
 12 C       -7.1500    -0.2830     0.8760 C.2   1 <1>   0.2430 
 13 N       -7.7140    -1.2560     1.4980 N.2   1 <1>  -0.3380 
 14 N       -8.0150     0.4850     0.2230 N.pl3 1 <1>   0.0330 
 15 N       -9.0260    -1.1360     1.2520 N.2   1 <1>  -0.3380 
 16 C       -9.1840    -0.1000     0.4980 C.2   1 <1>   0.0060 
 17 C      -10.5220     0.3950    -0.0200 C.3   1 <1>   0.0200 
 18 C      -10.8560     1.7890     0.5210 C.3   1 <1>  -0.2400 
 19 H       -3.2150     0.2560    -1.6990 H     1 <1>   0.1500 
 20 H       -1.2180     3.7560     1.1480 H     1 <1>   0.1500 
 21 H        2.3030     2.0270     0.3270 H     1 <1>   0.0800 
 22 H        1.1670     0.6880     0.1820 H     1 <1>   0.0800 
 23 H        0.9830     1.8670     1.4850 H     1 <1>   0.0800 
 24 H       -3.6320     3.3200     1.2650 H     1 <1>   0.1500 
 25 H       -5.4930     1.2940    -1.1260 H     1 <1>   0.0800 
 26 H       -5.6220     2.3150     0.3130 H     1 <1>   0.0800 
 27 H       -7.8390     1.3130    -0.3410 H     1 <1>   0.2700 
 28 H      -11.2890    -0.2960     0.2880 H     1 <1>   0.0800 
 29 H      -10.5090     0.4090    -1.0960 H     1 <1>   0.0800 
 30 H      -10.8620     1.7720     1.5970 H     1 <1>   0.0800 
 31 H      -11.8300     2.0920     0.1790 H     1 <1>   0.0800 
 32 H      -10.1350     2.5130     0.1880 H     1 <1>   0.0800 
@<TRIPOS>BOND
  1   1   2  1   
  2   2   3  ar  
  3   2   4  ar  
  4   3   5  1   
  5   3   6  ar  
  6   4   7  ar  
  7   4  19  1   
  8   5   8  1   
  9   6   9  ar  
 10   6  20  1   
 11   7   9  ar  
 12   7  10  1   
 13   8  21  1   
 14   8  22  1   
 15   8  23  1   
 16   9  24  1   
 17  10  11  1   
 18  10  25  1   
 19  10  26  1   
 20  11  12  1   
 21  12  13  2   
 22  12  14  1   
 23  13  15  1   
 24  14  16  1   
 25  14  27  1   
 26  15  16  2   
 27  16  17  1   
 28  17  18  1   
 29  17  28  1   
 30  17  29  1   
 31  18  30  1   
 32  18  31  1   
 33  18  32  1   
@<TRIPOS>SUBSTRUCTURE
  1 ****  10 GROUP 4 **** **** 0

# MOE 2024.06 (io_trps.svl 2023.06)
