@<TRIPOS>MOLECULE
NONAME
44 44 1 0 0 
SMALL
USER_CHARGES


@<TRIPOS>ATOM
  1 O       -0.2680     1.6040     0.2210 O.2   1 <1>  -0.5700 
  2 C        0.5410     2.4830     0.4510 C.2   1 <1>   0.5440 
  3 N        0.0470     3.6960     0.8500 N.am  1 <1>  -0.7300 
  4 C        1.9660     2.2690     0.2690 C.ar  1 <1>   0.0860 
  5 C       -1.3110     3.9560     1.4200 C.3   1 <1>   0.1400 
  6 C        2.4370     1.3000    -0.6190 C.ar  1 <1>  -0.1500 
  7 C        2.9230     3.0120     0.9670 C.ar  1 <1>  -0.1500 
  8 C       -2.3880     4.1500     0.3320 C.3   1 <1>   0.3430 
  9 C        3.7900     1.0950    -0.8150 C.ar  1 <1>  -0.1500 
 10 C        4.2790     2.8130     0.7760 C.ar  1 <1>  -0.1500 
 11 N       -2.5890     2.9070    -0.4720 N.4   1 <1>  -0.9590 
 12 C        4.7230     1.8500    -0.1250 C.ar  1 <1>   0.0830 
 13 C       -2.9850     3.1900    -1.8810 C.3   1 <1>   0.2630 
 14 C       -3.5150     1.9370     0.1840 C.3   1 <1>   0.2630 
 15 O        6.0250     1.5930    -0.3750 O.3   1 <1>  -0.3630 
 16 C        7.0650     2.2990     0.2670 C.3   1 <1>   0.1200 
 17 C        8.4210     1.7960    -0.2530 C.3   1 <1>  -0.0800 
 18 C        9.5660     2.4900     0.4950 C.3   1 <1>  -0.2400 
 19 C        8.5730     2.0310    -1.7640 C.3   1 <1>  -0.2400 
 20 H        0.7220     4.4590     0.9640 H     1 <1>   0.3700 
 21 H       -1.2640     4.8450     2.0260 H     1 <1>   0.0800 
 22 H       -1.5900     3.1390     2.0650 H     1 <1>   0.0800 
 23 H        1.7320     0.6970    -1.1640 H     1 <1>   0.1500 
 24 H        2.6110     3.7530     1.6800 H     1 <1>   0.1500 
 25 H       -2.0700     4.9530    -0.3120 H     1 <1>   0.0800 
 26 H       -3.3190     4.4410     0.7890 H     1 <1>   0.0800 
 27 H        4.1360     0.3460    -1.5050 H     1 <1>   0.1500 
 28 H        4.9760     3.4090     1.3340 H     1 <1>   0.1500 
 29 H       -1.6520     2.4370    -0.4790 H     1 <1>   0.4500 
 30 H       -3.9450     3.6790    -1.9100 H     1 <1>   0.0800 
 31 H       -3.0470     2.2710    -2.4410 H     1 <1>   0.0800 
 32 H       -2.2550     3.8280    -2.3520 H     1 <1>   0.0800 
 33 H       -4.5030     2.3590     0.2740 H     1 <1>   0.0800 
 34 H       -3.1510     1.6830     1.1660 H     1 <1>   0.0800 
 35 H       -3.5750     1.0320    -0.3970 H     1 <1>   0.0800 
 36 H        6.9820     2.1260     1.3250 H     1 <1>   0.0800 
 37 H        6.9460     3.3470     0.0530 H     1 <1>   0.0800 
 38 H        8.4830     0.7390    -0.0560 H     1 <1>   0.0800 
 39 H        9.5420     3.5530     0.3270 H     1 <1>   0.0800 
 40 H       10.5140     2.1110     0.1570 H     1 <1>   0.0800 
 41 H        9.4880     2.3060     1.5530 H     1 <1>   0.0800 
 42 H        8.5030     3.0790    -1.9950 H     1 <1>   0.0800 
 43 H        7.8020     1.5090    -2.3030 H     1 <1>   0.0800 
 44 H        9.5250     1.6650    -2.1050 H     1 <1>   0.0800 
@<TRIPOS>BOND
  1   1   2  2   
  2   2   3  am  
  3   2   4  1   
  4   3   5  1   
  5   3  20  1   
  6   4   6  ar  
  7   4   7  ar  
  8   5   8  1   
  9   5  21  1   
 10   5  22  1   
 11   6   9  ar  
 12   6  23  1   
 13   7  10  ar  
 14   7  24  1   
 15   8  11  1   
 16   8  25  1   
 17   8  26  1   
 18   9  12  ar  
 19   9  27  1   
 20  10  12  ar  
 21  10  28  1   
 22  11  13  1   
 23  11  14  1   
 24  11  29  1   
 25  12  15  1   
 26  13  30  1   
 27  13  31  1   
 28  13  32  1   
 29  14  33  1   
 30  14  34  1   
 31  14  35  1   
 32  15  16  1   
 33  16  17  1   
 34  16  36  1   
 35  16  37  1   
 36  17  18  1   
 37  17  19  1   
 38  17  38  1   
 39  18  39  1   
 40  18  40  1   
 41  18  41  1   
 42  19  42  1   
 43  19  43  1   
 44  19  44  1   
@<TRIPOS>SUBSTRUCTURE
  1 ****   4 GROUP 4 **** **** 0

# MOE 2024.06 (io_trps.svl 2023.06)
