@<TRIPOS>MOLECULE
NONAME
36 37 1 0 0 
SMALL
USER_CHARGES


@<TRIPOS>ATOM
  1 N       -0.6760    -0.1890    -1.0760 N.ar  1 <1>  -0.6200 
  2 C       -0.9940    -0.1090     0.2030 C.ar  1 <1>   0.1600 
  3 C       -1.5330    -0.8400    -1.8420 C.ar  1 <1>   0.1600 
  4 C       -2.1460    -0.6400     0.7580 C.ar  1 <1>  -0.1500 
  5 C       -2.7120    -1.4080    -1.3890 C.ar  1 <1>  -0.1500 
  6 C       -3.0480    -1.3060    -0.0520 C.ar  1 <1>  -0.1430 
  7 C       -4.3360    -1.8890     0.5000 C.3   1 <1>   0.4870 
  8 N       -5.4890    -1.0780     0.0160 N.4   1 <1>  -0.9590 
  9 C       -5.3950     0.3310     0.4960 C.3   1 <1>   0.4380 
 10 C       -6.8030    -1.6950     0.3580 C.3   1 <1>   0.3430 
 11 C       -6.3660     1.2120    -0.2910 C.3   1 <1>  -0.1950 
 12 C       -7.0250    -2.9810    -0.4430 C.3   1 <1>  -0.1600 
 13 C       -6.7720     2.5430     0.2610 C.3   1 <1>  -0.2000 
 14 C       -7.7860     1.4440     0.1310 C.3   1 <1>  -0.2000 
 15 C       -8.4350    -3.5310    -0.2050 C.3   1 <1>  -0.2400 
 16 H       -0.2960     0.4080     0.8430 H     1 <1>   0.1500 
 17 H       -1.2790    -0.9250    -2.8860 H     1 <1>   0.1500 
 18 H       -2.3130    -0.5240     1.8140 H     1 <1>   0.1500 
 19 H       -3.3410    -1.9230    -2.0930 H     1 <1>   0.1500 
 20 H       -4.3070    -1.8910     1.5780 H     1 <1>   0.0800 
 21 H       -4.4260    -2.9080     0.1630 H     1 <1>   0.0800 
 22 H       -5.4180    -1.0290    -1.0070 H     1 <1>   0.4500 
 23 H       -4.3960     0.7090     0.3430 H     1 <1>   0.0800 
 24 H       -5.6190     0.3850     1.5490 H     1 <1>   0.0800 
 25 H       -7.5990    -1.0110     0.1130 H     1 <1>   0.0800 
 26 H       -6.8570    -1.9030     1.4140 H     1 <1>   0.0800 
 27 H       -6.1440     1.2130    -1.3450 H     1 <1>   0.1000 
 28 H       -6.3180    -3.7380    -0.1520 H     1 <1>   0.0800 
 29 H       -6.9110    -2.7810    -1.4940 H     1 <1>   0.0800 
 30 H       -6.8470     3.3860    -0.4070 H     1 <1>   0.1000 
 31 H       -6.4690     2.8380     1.2520 H     1 <1>   0.1000 
 32 H       -8.1730     1.0270     1.0460 H     1 <1>   0.1000 
 33 H       -8.5490     1.5500    -0.6220 H     1 <1>   0.1000 
 34 H       -8.5870    -3.7660     0.8340 H     1 <1>   0.0800 
 35 H       -8.5810    -4.4320    -0.7770 H     1 <1>   0.0800 
 36 H       -9.1820    -2.8180    -0.5110 H     1 <1>   0.0800 
@<TRIPOS>BOND
  1   1   2  ar  
  2   1   3  ar  
  3   2   4  ar  
  4   2  16  1   
  5   3   5  ar  
  6   3  17  1   
  7   4   6  ar  
  8   4  18  1   
  9   5   6  ar  
 10   5  19  1   
 11   6   7  1   
 12   7   8  1   
 13   7  20  1   
 14   7  21  1   
 15   8   9  1   
 16   8  10  1   
 17   8  22  1   
 18   9  11  1   
 19   9  23  1   
 20   9  24  1   
 21  10  12  1   
 22  10  25  1   
 23  10  26  1   
 24  11  13  1   
 25  11  14  1   
 26  11  27  1   
 27  12  15  1   
 28  12  28  1   
 29  12  29  1   
 30  13  14  1   
 31  13  30  1   
 32  13  31  1   
 33  14  32  1   
 34  14  33  1   
 35  15  34  1   
 36  15  35  1   
 37  15  36  1   
@<TRIPOS>SUBSTRUCTURE
  1 ****   8 GROUP 4 **** **** 0

# MOE 2024.06 (io_trps.svl 2023.06)
