@<TRIPOS>MOLECULE
NONAME
50 53 1 0 0 
SMALL
USER_CHARGES


@<TRIPOS>ATOM
  1 O        0.4330     1.2600    -1.9520 O.2   1 <1>  -0.5700 
  2 C        0.2830     2.1480    -1.1370 C.2   1 <1>   0.5440 
  3 N        1.3700     2.6100    -0.4530 N.am  1 <1>  -0.7300 
  4 C       -1.0340     2.7100    -0.9030 C.ar  1 <1>   0.0860 
  5 C        2.7490     2.0990    -0.5830 C.3   1 <1>   0.2200 
  6 C       -1.4310     3.1770     0.3510 C.ar  1 <1>  -0.1500 
  7 C       -1.9660     2.7940    -1.9370 C.ar  1 <1>  -0.1500 
  8 C        3.3650     1.7020     0.7750 C.3   1 <1>  -0.0800 
  9 C        3.6990     3.1990    -1.0820 C.3   1 <1>  -0.1600 
 10 C       -2.6960     3.6950     0.5640 C.ar  1 <1>  -0.1500 
 11 C       -3.2310     3.3110    -1.7350 C.ar  1 <1>  -0.1500 
 12 C        4.8490     1.8160     0.4580 C.3   1 <1>  -0.1600 
 13 C        3.2150     2.8350     1.8120 C.3   1 <1>  -0.1600 
 14 C        4.7690     3.2700     0.0220 C.3   1 <1>  -0.0800 
 15 C       -3.6100     3.7570    -0.4770 C.ar  1 <1>  -0.1430 
 16 C        4.1460     3.9300     1.2630 C.3   1 <1>  -0.1600 
 17 C       -5.0130     4.2880    -0.2470 C.3   1 <1>   0.4860 
 18 N       -5.8060     3.2370     0.4470 N.4   1 <1>  -0.9590 
 19 C       -5.9250     1.9840    -0.3820 C.3   1 <1>   0.3430 
 20 C       -7.1640     3.7360     0.8550 C.3   1 <1>   0.3430 
 21 C       -6.8370     0.9440     0.2930 C.3   1 <1>   0.1200 
 22 C       -8.0180     2.6110     1.4720 C.3   1 <1>   0.1200 
 23 O       -8.0740     1.5160     0.6040 O.3   1 <1>  -0.5600 
 24 H        1.2900     3.4320     0.1430 H     1 <1>   0.3700 
 25 H        2.7780     1.2580    -1.2560 H     1 <1>   0.0800 
 26 H       -0.7370     3.1230     1.1720 H     1 <1>   0.1500 
 27 H       -1.6790     2.4420    -2.9150 H     1 <1>   0.1500 
 28 H        3.0560     0.7310     1.1210 H     1 <1>   0.0800 
 29 H        3.2070     4.1430    -1.2320 H     1 <1>   0.0800 
 30 H        4.1490     2.8850    -2.0070 H     1 <1>   0.0800 
 31 H       -2.9520     4.0470     1.5490 H     1 <1>   0.1500 
 32 H       -3.9100     3.3580    -2.5710 H     1 <1>   0.1500 
 33 H        5.1590     1.1580    -0.3370 H     1 <1>   0.0800 
 34 H        5.4760     1.6730     1.3220 H     1 <1>   0.0800 
 35 H        3.5740     2.4980     2.7700 H     1 <1>   0.0800 
 36 H        2.2030     3.1740     1.9300 H     1 <1>   0.0800 
 37 H        5.7000     3.7120    -0.2940 H     1 <1>   0.0800 
 38 H        4.9100     4.1650     1.9850 H     1 <1>   0.0800 
 39 H        3.6120     4.8300     1.0120 H     1 <1>   0.0800 
 40 H       -5.4710     4.5410    -1.1900 H     1 <1>   0.0800 
 41 H       -4.9620     5.1790     0.3580 H     1 <1>   0.0800 
 42 H       -5.2860     2.9800     1.2940 H     1 <1>   0.4500 
 43 H       -4.9500     1.5510    -0.5410 H     1 <1>   0.0800 
 44 H       -6.3410     2.2220    -1.3470 H     1 <1>   0.0800 
 45 H       -7.6870     4.1190    -0.0060 H     1 <1>   0.0800 
 46 H       -7.0670     4.5390     1.5680 H     1 <1>   0.0800 
 47 H       -6.3930     0.5610     1.1960 H     1 <1>   0.0800 
 48 H       -7.0160     0.1190    -0.3750 H     1 <1>   0.0800 
 49 H       -9.0260     2.9530     1.6300 H     1 <1>   0.0800 
 50 H       -7.6160     2.2850     2.4160 H     1 <1>   0.0800 
@<TRIPOS>BOND
  1   1   2  2   
  2   2   3  am  
  3   2   4  1   
  4   3   5  1   
  5   3  24  1   
  6   4   6  ar  
  7   4   7  ar  
  8   5   8  1   
  9   5   9  1   
 10   5  25  1   
 11   6  10  ar  
 12   6  26  1   
 13   7  11  ar  
 14   7  27  1   
 15   8  12  1   
 16   8  13  1   
 17   8  28  1   
 18   9  14  1   
 19   9  29  1   
 20   9  30  1   
 21  10  15  ar  
 22  10  31  1   
 23  11  15  ar  
 24  11  32  1   
 25  12  14  1   
 26  12  33  1   
 27  12  34  1   
 28  13  16  1   
 29  13  35  1   
 30  13  36  1   
 31  14  16  1   
 32  14  37  1   
 33  15  17  1   
 34  16  38  1   
 35  16  39  1   
 36  17  18  1   
 37  17  40  1   
 38  17  41  1   
 39  18  19  1   
 40  18  20  1   
 41  18  42  1   
 42  19  21  1   
 43  19  43  1   
 44  19  44  1   
 45  20  22  1   
 46  20  45  1   
 47  20  46  1   
 48  21  23  1   
 49  21  47  1   
 50  21  48  1   
 51  22  23  1   
 52  22  49  1   
 53  22  50  1   
@<TRIPOS>SUBSTRUCTURE
  1 ****   6 GROUP 4 **** **** 0

# MOE 2024.06 (io_trps.svl 2023.06)
