@<TRIPOS>MOLECULE
NONAME
33 33 1 0 0 
SMALL
USER_CHARGES


@<TRIPOS>ATOM
  1 BR      -1.5640     0.4900     3.4090 Br    1 <1>  -0.0580 
  2 C       -2.3990     0.2630     1.6950 C.2   1 <1>   0.0980 
  3 S       -3.8720    -0.6790     1.6800 S.3   1 <1>  -0.0800 
  4 C       -2.0490     0.7080     0.4770 C.2   1 <1>  -0.1500 
  5 C       -4.0050    -0.4470    -0.0650 C.2   1 <1>  -0.1400 
  6 C       -2.9770     0.2960    -0.5340 C.2   1 <1>  -0.1500 
  7 C       -5.1970    -1.0850    -0.7420 C.3   1 <1>   0.5230 
  8 N       -6.4360    -0.5240    -0.1160 N.4   1 <1>  -0.9590 
  9 C       -7.6410    -1.3830    -0.4130 C.3   1 <1>   0.3430 
 10 C       -6.5910     0.9190    -0.5150 C.3   1 <1>   0.2630 
 11 C       -8.9150    -1.0050     0.4000 C.3   1 <1>   0.3430 
 12 N      -10.1220    -1.8730     0.1260 N.4   1 <1>  -0.9590 
 13 C      -11.3330    -1.3050     0.8120 C.3   1 <1>   0.2630 
 14 C       -9.9510    -3.3010     0.5630 C.3   1 <1>   0.2630 
 15 H       -1.1790     1.3030     0.2530 H     1 <1>   0.1500 
 16 H       -2.8100     0.5830    -1.5600 H     1 <1>   0.1500 
 17 H       -5.1490    -2.1520    -0.5920 H     1 <1>   0.0800 
 18 H       -5.1770    -0.8830    -1.8010 H     1 <1>   0.0800 
 19 H       -6.2140    -0.5420     0.8950 H     1 <1>   0.4500 
 20 H       -7.3940    -2.4080    -0.1920 H     1 <1>   0.0800 
 21 H       -7.8670    -1.3130    -1.4650 H     1 <1>   0.0800 
 22 H       -6.7580     1.0050    -1.5770 H     1 <1>   0.0800 
 23 H       -5.6980     1.4730    -0.2670 H     1 <1>   0.0800 
 24 H       -7.4190     1.3750     0.0040 H     1 <1>   0.0800 
 25 H       -9.1700     0.0170     0.1710 H     1 <1>   0.0800 
 26 H       -8.6830    -1.0600     1.4520 H     1 <1>   0.0800 
 27 H      -10.3420    -1.8730    -0.8860 H     1 <1>   0.4500 
 28 H      -11.1930    -1.2920     1.8810 H     1 <1>   0.0800 
 29 H      -12.2040    -1.9020     0.5910 H     1 <1>   0.0800 
 30 H      -11.5220    -0.2970     0.4770 H     1 <1>   0.0800 
 31 H       -9.7520    -3.3520     1.6220 H     1 <1>   0.0800 
 32 H       -9.1370    -3.7710     0.0340 H     1 <1>   0.0800 
 33 H      -10.8500    -3.8630     0.3610 H     1 <1>   0.0800 
@<TRIPOS>BOND
  1   1   2  1   
  2   2   3  1   
  3   2   4  2   
  4   3   5  1   
  5   4   6  1   
  6   4  15  1   
  7   5   6  2   
  8   5   7  1   
  9   6  16  1   
 10   7   8  1   
 11   7  17  1   
 12   7  18  1   
 13   8   9  1   
 14   8  10  1   
 15   8  19  1   
 16   9  11  1   
 17   9  20  1   
 18   9  21  1   
 19  10  22  1   
 20  10  23  1   
 21  10  24  1   
 22  11  12  1   
 23  11  25  1   
 24  11  26  1   
 25  12  13  1   
 26  12  14  1   
 27  12  27  1   
 28  13  28  1   
 29  13  29  1   
 30  13  30  1   
 31  14  31  1   
 32  14  32  1   
 33  14  33  1   
@<TRIPOS>SUBSTRUCTURE
  1 ****   8 GROUP 4 **** **** 0

# MOE 2024.06 (io_trps.svl 2023.06)
