@<TRIPOS>MOLECULE
NONAME
44 45 1 0 0 
SMALL
USER_CHARGES


@<TRIPOS>ATOM
  1 O       -0.2330    -0.4100    -0.2340 O.3   1 <1>  -0.3630 
  2 C       -1.4410    -1.0160    -0.1240 C.ar  1 <1>   0.0830 
  3 C        0.9440    -1.0440     0.1970 C.3   1 <1>   0.1200 
  4 C       -2.5350    -0.3230    -0.6100 C.ar  1 <1>  -0.1500 
  5 C       -1.6350    -2.2710     0.4410 C.ar  1 <1>  -0.1500 
  6 C        2.1040    -0.0870    -0.0920 C.3   1 <1>   0.3430 
  7 C       -3.8020    -0.8720    -0.5370 C.ar  1 <1>  -0.1500 
  8 C       -2.9060    -2.8140     0.5110 C.ar  1 <1>  -0.1500 
  9 N        3.4330    -0.6470     0.3170 N.4   1 <1>  -0.9590 
 10 C       -4.0160    -2.1280     0.0240 C.ar  1 <1>  -0.1430 
 11 C        4.5260     0.3450     0.1700 C.3   1 <1>   0.3430 
 12 C        3.8630    -1.8330    -0.4680 C.3   1 <1>   0.3430 
 13 C       -5.4510    -2.6960     0.0810 C.3   1 <1>   0.1440 
 14 C        5.7980    -0.4910     0.1620 C.3   1 <1>  -0.1600 
 15 C        5.3700    -1.8990    -0.2610 C.3   1 <1>  -0.1600 
 16 C       -6.3440    -1.7570     0.9060 C.3   1 <1>  -0.2400 
 17 C       -6.0150    -2.8150    -1.3430 C.3   1 <1>  -0.2400 
 18 C       -5.5270    -4.0910     0.7260 C.3   1 <1>  -0.2400 
 19 H        1.0460    -1.9620    -0.3550 H     1 <1>   0.0800 
 20 H        0.8540    -1.2330     1.2520 H     1 <1>   0.0800 
 21 H       -2.3940     0.6490    -1.0470 H     1 <1>   0.1500 
 22 H       -0.8190    -2.8460     0.8340 H     1 <1>   0.1500 
 23 H        1.9230     0.8300     0.4440 H     1 <1>   0.0800 
 24 H        2.1150     0.1330    -1.1470 H     1 <1>   0.0800 
 25 H       -4.6260    -0.3030    -0.9260 H     1 <1>   0.1500 
 26 H       -3.0060    -3.7860     0.9550 H     1 <1>   0.1500 
 27 H        3.4060    -0.9180     1.3100 H     1 <1>   0.4500 
 28 H        4.5260     1.0660     0.9730 H     1 <1>   0.0800 
 29 H        4.4290     0.8600    -0.7730 H     1 <1>   0.0800 
 30 H        3.6520    -1.6750    -1.5140 H     1 <1>   0.0800 
 31 H        3.3750    -2.7360    -0.1360 H     1 <1>   0.0800 
 32 H        6.2300    -0.5100     1.1480 H     1 <1>   0.0800 
 33 H        6.5200    -0.0710    -0.5180 H     1 <1>   0.0800 
 34 H        5.8600    -2.2100    -1.1690 H     1 <1>   0.0800 
 35 H        5.6030    -2.6120     0.5120 H     1 <1>   0.0800 
 36 H       -5.9390    -1.6400     1.8950 H     1 <1>   0.0800 
 37 H       -7.3400    -2.1530     0.9880 H     1 <1>   0.0800 
 38 H       -6.4090    -0.7850     0.4520 H     1 <1>   0.0800 
 39 H       -6.0770    -1.8540    -1.8180 H     1 <1>   0.0800 
 40 H       -7.0010    -3.2440    -1.3280 H     1 <1>   0.0800 
 41 H       -5.3770    -3.4440    -1.9390 H     1 <1>   0.0800 
 42 H       -6.5420    -4.4450     0.7440 H     1 <1>   0.0800 
 43 H       -4.9390    -4.7980     0.1690 H     1 <1>   0.0800 
 44 H       -5.1700    -4.0580     1.7400 H     1 <1>   0.0800 
@<TRIPOS>BOND
  1   1   2  1   
  2   1   3  1   
  3   2   4  ar  
  4   2   5  ar  
  5   3   6  1   
  6   3  19  1   
  7   3  20  1   
  8   4   7  ar  
  9   4  21  1   
 10   5   8  ar  
 11   5  22  1   
 12   6   9  1   
 13   6  23  1   
 14   6  24  1   
 15   7  10  ar  
 16   7  25  1   
 17   8  10  ar  
 18   8  26  1   
 19   9  11  1   
 20   9  12  1   
 21   9  27  1   
 22  10  13  1   
 23  11  14  1   
 24  11  28  1   
 25  11  29  1   
 26  12  15  1   
 27  12  30  1   
 28  12  31  1   
 29  13  16  1   
 30  13  17  1   
 31  13  18  1   
 32  14  15  1   
 33  14  32  1   
 34  14  33  1   
 35  15  34  1   
 36  15  35  1   
 37  16  36  1   
 38  16  37  1   
 39  16  38  1   
 40  17  39  1   
 41  17  40  1   
 42  17  41  1   
 43  18  42  1   
 44  18  43  1   
 45  18  44  1   
@<TRIPOS>SUBSTRUCTURE
  1 ****   2 GROUP 4 **** **** 0

# MOE 2024.06 (io_trps.svl 2023.06)
