@<TRIPOS>MOLECULE
NONAME
39 42 1 0 0 
SMALL
USER_CHARGES


@<TRIPOS>ATOM
  1 O       -0.1300     0.7440    -1.1420 O.2   1 <1>  -0.5700 
  2 C       -0.4580     1.8290    -0.7290 C.2   1 <1>   0.5690 
  3 N        0.3570     2.7270    -0.1030 N.am  1 <1>  -0.1840 
  4 C       -1.8830     2.3370    -0.8140 C.3   1 <1>  -0.0190 
  5 C        1.7510     2.6810    -0.1570 C.2   1 <1>   0.2500 
  6 C       -0.3710     3.7860     0.3650 C.2   1 <1>   0.5690 
  7 C       -1.8200     3.6920    -0.0690 C.3   1 <1>  -0.0190 
  8 C       -2.9010     1.3100    -0.2820 C.3   1 <1>  -0.0220 
  9 N        2.4610     3.5540    -0.7950 N.2   1 <1>  -0.5650 
 10 N        2.4930     1.6960     0.4380 N.pl3 1 <1>   0.0480 
 11 O        0.0280     4.6730     1.0760 O.2   1 <1>  -0.5700 
 12 C       -2.7980     3.8680     1.1090 C.3   1 <1>  -0.0220 
 13 C       -4.1690     1.9970     0.1950 C.2   1 <1>  -0.2760 
 14 C        3.7420     3.1400    -0.6180 C.ar  1 <1>   0.2270 
 15 C        3.7880     1.9850     0.1400 C.ar  1 <1>  -0.1520 
 16 C        2.0220     0.5190     1.1940 C.3   1 <1>   0.0160 
 17 C       -4.1120     3.1670     0.8310 C.2   1 <1>  -0.2880 
 18 C       -5.4580     1.2410    -0.0760 C.3   1 <1>  -0.1020 
 19 C        4.9230     3.7120    -1.0880 C.ar  1 <1>  -0.1500 
 20 C        5.0050     1.3690     0.4420 C.ar  1 <1>  -0.1500 
 21 C        6.1280     3.1130    -0.7930 C.ar  1 <1>  -0.1500 
 22 C        6.1680     1.9410    -0.0280 C.ar  1 <1>  -0.1500 
 23 H       -2.1090     2.5290    -1.8480 H     1 <1>   0.0800 
 24 H       -2.0040     4.4780    -0.7790 H     1 <1>   0.0800 
 25 H       -2.4850     0.7590     0.5440 H     1 <1>   0.0800 
 26 H       -3.1200     0.6060    -1.0660 H     1 <1>   0.0800 
 27 H       -2.9660     4.9200     1.2690 H     1 <1>   0.0800 
 28 H       -2.3800     3.4620     2.0140 H     1 <1>   0.0800 
 29 H        2.7620     0.2360     1.9190 H     1 <1>   0.0800 
 30 H        1.1040     0.7550     1.7000 H     1 <1>   0.0800 
 31 H        1.8550    -0.2940     0.5100 H     1 <1>   0.0800 
 32 H       -4.9760     3.6870     1.2120 H     1 <1>   0.1500 
 33 H       -5.4270     0.2750     0.3940 H     1 <1>   0.0800 
 34 H       -5.5980     1.1110    -1.1350 H     1 <1>   0.0800 
 35 H       -6.3020     1.7830     0.3130 H     1 <1>   0.0800 
 36 H        4.8620     4.6110    -1.6730 H     1 <1>   0.1500 
 37 H        5.0310     0.4680     1.0280 H     1 <1>   0.1500 
 38 H        7.0480     3.5420    -1.1480 H     1 <1>   0.1500 
 39 H        7.1200     1.4890     0.1890 H     1 <1>   0.1500 
@<TRIPOS>BOND
  1   1   2  2   
  2   2   3  am  
  3   2   4  1   
  4   3   5  1   
  5   3   6  am  
  6   4   7  1   
  7   4   8  1   
  8   4  23  1   
  9   5   9  2   
 10   5  10  1   
 11   6   7  1   
 12   6  11  2   
 13   7  12  1   
 14   7  24  1   
 15   8  13  1   
 16   8  25  1   
 17   8  26  1   
 18   9  14  1   
 19  10  15  1   
 20  10  16  1   
 21  12  17  1   
 22  12  27  1   
 23  12  28  1   
 24  13  17  2   
 25  13  18  1   
 26  14  15  ar  
 27  14  19  ar  
 28  15  20  ar  
 29  16  29  1   
 30  16  30  1   
 31  16  31  1   
 32  17  32  1   
 33  18  33  1   
 34  18  34  1   
 35  18  35  1   
 36  19  21  ar  
 37  19  36  1   
 38  20  22  ar  
 39  20  37  1   
 40  21  22  ar  
 41  21  38  1   
 42  22  39  1   
@<TRIPOS>SUBSTRUCTURE
  1 ****   3 GROUP 4 **** **** 0

# MOE 2024.06 (io_trps.svl 2023.06)
