@<TRIPOS>MOLECULE
NONAME
47 49 1 0 0 
SMALL
USER_CHARGES


@<TRIPOS>ATOM
  1 O       -1.0180    -0.9910    -2.3960 O.2   1 <1>  -0.5700 
  2 C       -0.5120    -1.7030    -1.5470 C.2   1 <1>   0.7160 
  3 N       -1.3100    -2.1850    -0.5300 N.am  1 <1>  -0.6600 
  4 C        0.8850    -2.0080    -1.6460 C.2   1 <1>  -0.0860 
  5 C       -0.9580    -3.3420     0.3490 C.3   1 <1>   0.1400 
  6 C       -2.7120    -1.7060    -0.3320 C.3   1 <1>   0.1400 
  7 C        1.9160    -1.9680    -0.7450 C.2   1 <1>  -0.0880 
  8 C        1.4900    -2.4590    -2.8210 C.2   1 <1>   0.1390 
  9 C       -1.3670    -3.0630     1.8050 C.3   1 <1>   0.1200 
 10 C       -3.0260    -1.5360     1.1640 C.3   1 <1>   0.1200 
 11 N        3.0380    -2.4140    -1.3900 N.pl3 1 <1>   0.5930 
 12 N        1.8910    -1.5740     0.6110 N.am  1 <1>  -0.4940 
 13 N        2.7460    -2.7170    -2.6830 N.2   1 <1>  -0.7070 
 14 O       -2.7170    -2.7040     1.8700 O.3   1 <1>  -0.5600 
 15 C        4.3290    -2.6070    -0.8240 C.ar  1 <1>  -0.0230 
 16 C        1.2720    -0.5370     1.2390 C.2   1 <1>   0.5690 
 17 C        4.9840    -3.8250    -0.9660 C.ar  1 <1>  -0.1500 
 18 C        4.9610    -1.5940    -0.1120 C.ar  1 <1>  -0.1500 
 19 O        1.2810    -0.4830     2.4400 O.2   1 <1>  -0.5700 
 20 C        0.6000     0.5750     0.4680 C.3   1 <1>  -0.1790 
 21 C        6.2280    -4.0460    -0.3970 C.ar  1 <1>  -0.1430 
 22 C        6.2010    -1.8070     0.4590 C.ar  1 <1>  -0.1500 
 23 C        6.8410    -3.0290     0.3260 C.ar  1 <1>  -0.1430 
 24 C        6.8950    -5.4020    -0.5840 C.3   1 <1>  -0.0970 
 25 C        8.2070    -3.2230     0.9700 C.3   1 <1>  -0.0970 
 26 H        0.0920    -3.5590     0.3070 H     1 <1>   0.0800 
 27 H       -1.4850    -4.2140     0.0050 H     1 <1>   0.0800 
 28 H       -3.3940    -2.4210    -0.7590 H     1 <1>   0.0800 
 29 H       -2.8640    -0.7650    -0.8320 H     1 <1>   0.0800 
 30 H        0.9540    -2.5840    -3.7490 H     1 <1>   0.1500 
 31 H       -0.7760    -2.2680     2.2280 H     1 <1>   0.0800 
 32 H       -1.2330    -3.9450     2.4050 H     1 <1>   0.0800 
 33 H       -4.0740    -1.3360     1.3030 H     1 <1>   0.0800 
 34 H       -2.4610    -0.7210     1.5820 H     1 <1>   0.0800 
 35 H        2.4900    -2.0960     1.2600 H     1 <1>   0.3700 
 36 H        4.5060    -4.6050    -1.5340 H     1 <1>   0.1500 
 37 H        4.4880    -0.6340    -0.0020 H     1 <1>   0.1500 
 38 H        1.0180     0.6680    -0.5170 H     1 <1>   0.0800 
 39 H        0.7420     1.5030     0.9890 H     1 <1>   0.0800 
 40 H       -0.4530     0.3810     0.3950 H     1 <1>   0.0800 
 41 H        6.6700    -1.0090     1.0090 H     1 <1>   0.1500 
 42 H        6.2760    -6.0600    -1.1670 H     1 <1>   0.0800 
 43 H        7.0720    -5.8620     0.3710 H     1 <1>   0.0800 
 44 H        7.8320    -5.2820    -1.0970 H     1 <1>   0.0800 
 45 H        8.9400    -3.4490     0.2170 H     1 <1>   0.0800 
 46 H        8.1690    -4.0310     1.6780 H     1 <1>   0.0800 
 47 H        8.5190    -2.3350     1.4890 H     1 <1>   0.0800 
@<TRIPOS>BOND
  1   1   2  2   
  2   2   3  am  
  3   2   4  1   
  4   3   5  1   
  5   3   6  1   
  6   4   7  2   
  7   4   8  1   
  8   5   9  1   
  9   5  26  1   
 10   5  27  1   
 11   6  10  1   
 12   6  28  1   
 13   6  29  1   
 14   7  11  1   
 15   7  12  1   
 16   8  13  2   
 17   8  30  1   
 18   9  14  1   
 19   9  31  1   
 20   9  32  1   
 21  10  14  1   
 22  10  33  1   
 23  10  34  1   
 24  11  13  1   
 25  11  15  1   
 26  12  16  am  
 27  12  35  1   
 28  15  17  ar  
 29  15  18  ar  
 30  16  19  2   
 31  16  20  1   
 32  17  21  ar  
 33  17  36  1   
 34  18  22  ar  
 35  18  37  1   
 36  20  38  1   
 37  20  39  1   
 38  20  40  1   
 39  21  23  ar  
 40  21  24  1   
 41  22  23  ar  
 42  22  41  1   
 43  23  25  1   
 44  24  42  1   
 45  24  43  1   
 46  24  44  1   
 47  25  45  1   
 48  25  46  1   
 49  25  47  1   
@<TRIPOS>SUBSTRUCTURE
  1 ****   7 GROUP 4 **** **** 0

# MOE 2024.06 (io_trps.svl 2023.06)
