@<TRIPOS>MOLECULE
NONAME
46 48 1 0 0 
SMALL
USER_CHARGES


@<TRIPOS>ATOM
  1 O       -0.2400    -0.5790    -1.5610 O.2   1 <1>  -0.5700 
  2 C       -0.2580    -1.4500    -0.7150 C.2   1 <1>   0.5440 
  3 N       -1.4170    -1.7280    -0.0250 N.am  1 <1>  -0.5470 
  4 C        0.9450    -2.2050    -0.4160 C.ar  1 <1>   0.0860 
  5 C       -2.7120    -1.1940    -0.1110 C.ar  1 <1>   0.1170 
  6 C        2.2000    -1.5990    -0.4740 C.ar  1 <1>  -0.1500 
  7 C        0.9040    -3.5540    -0.0580 C.ar  1 <1>  -0.1500 
  8 C       -3.7730    -1.9610     0.3480 C.ar  1 <1>  -0.1500 
  9 C       -2.9860     0.0730    -0.6130 C.ar  1 <1>  -0.1500 
 10 C        3.3550    -2.2970    -0.1720 C.ar  1 <1>  -0.1500 
 11 C        2.0570    -4.2560     0.2460 C.ar  1 <1>  -0.1500 
 12 C       -5.0930    -1.5140     0.3160 C.ar  1 <1>   0.0860 
 13 C       -4.2820     0.5500    -0.6540 C.ar  1 <1>  -0.1500 
 14 C        3.2900    -3.6300     0.1950 C.ar  1 <1>  -0.1430 
 15 C       -6.1730    -2.3600     0.7980 C.2   1 <1>   0.5440 
 16 C       -5.3230    -0.2340    -0.1920 C.ar  1 <1>  -0.1500 
 17 C        4.5580    -4.3970     0.5260 C.3   1 <1>  -0.0970 
 18 O       -5.9560    -3.2330     1.6160 O.2   1 <1>  -0.5700 
 19 N       -7.4460    -2.2000     0.3300 N.am  1 <1>  -0.7300 
 20 C       -8.6250    -2.9800     0.7440 C.3   1 <1>   0.2200 
 21 C       -9.2020    -3.6790    -0.4790 C.3   1 <1>  -0.1600 
 22 C       -9.7300    -2.0140     1.1490 C.3   1 <1>  -0.1600 
 23 C      -10.0490    -2.6260    -1.2040 C.3   1 <1>  -0.1600 
 24 C      -10.3850    -1.5540    -0.1590 C.3   1 <1>  -0.1600 
 25 H       -1.3160    -2.4630     0.6720 H     1 <1>   0.3700 
 26 H        2.2640    -0.5640    -0.7620 H     1 <1>   0.1500 
 27 H       -0.0380    -4.0710    -0.0260 H     1 <1>   0.1500 
 28 H       -3.5800    -2.9430     0.7420 H     1 <1>   0.1500 
 29 H       -2.1870     0.6980    -0.9700 H     1 <1>   0.1500 
 30 H        4.3070    -1.7970    -0.2260 H     1 <1>   0.1500 
 31 H        1.9930    -5.2950     0.5190 H     1 <1>   0.1500 
 32 H       -4.4760     1.5340    -1.0440 H     1 <1>   0.1500 
 33 H       -6.3230     0.1590    -0.2190 H     1 <1>   0.1500 
 34 H        5.2940    -3.7410     0.9550 H     1 <1>   0.0800 
 35 H        4.9630    -4.8340    -0.3690 H     1 <1>   0.0800 
 36 H        4.3510    -5.1810     1.2320 H     1 <1>   0.0800 
 37 H       -7.6280    -1.5520    -0.4340 H     1 <1>   0.3700 
 38 H       -8.3740    -3.6710     1.5330 H     1 <1>   0.0800 
 39 H       -9.8460    -4.4730    -0.1420 H     1 <1>   0.0800 
 40 H       -8.4360    -4.1040    -1.1050 H     1 <1>   0.0800 
 41 H       -9.3590    -1.1960     1.7420 H     1 <1>   0.0800 
 42 H      -10.4560    -2.5550     1.7310 H     1 <1>   0.0800 
 43 H      -10.9400    -3.0690    -1.6150 H     1 <1>   0.0800 
 44 H       -9.4800    -2.1860    -2.0060 H     1 <1>   0.0800 
 45 H       -9.9720    -0.6080    -0.4630 H     1 <1>   0.0800 
 46 H      -11.4490    -1.4440    -0.0360 H     1 <1>   0.0800 
@<TRIPOS>BOND
  1   1   2  2   
  2   2   3  am  
  3   2   4  1   
  4   3   5  1   
  5   3  25  1   
  6   4   6  ar  
  7   4   7  ar  
  8   5   8  ar  
  9   5   9  ar  
 10   6  10  ar  
 11   6  26  1   
 12   7  11  ar  
 13   7  27  1   
 14   8  12  ar  
 15   8  28  1   
 16   9  13  ar  
 17   9  29  1   
 18  10  14  ar  
 19  10  30  1   
 20  11  14  ar  
 21  11  31  1   
 22  12  15  1   
 23  12  16  ar  
 24  13  16  ar  
 25  13  32  1   
 26  14  17  1   
 27  15  18  2   
 28  15  19  am  
 29  16  33  1   
 30  17  34  1   
 31  17  35  1   
 32  17  36  1   
 33  19  20  1   
 34  19  37  1   
 35  20  21  1   
 36  20  22  1   
 37  20  38  1   
 38  21  23  1   
 39  21  39  1   
 40  21  40  1   
 41  22  24  1   
 42  22  41  1   
 43  22  42  1   
 44  23  24  1   
 45  23  43  1   
 46  23  44  1   
 47  24  45  1   
 48  24  46  1   
@<TRIPOS>SUBSTRUCTURE
  1 ****   8 GROUP 4 **** **** 0

# MOE 2024.06 (io_trps.svl 2023.06)
