@<TRIPOS>MOLECULE
NONAME
56 58 1 0 0 
SMALL
USER_CHARGES


@<TRIPOS>ATOM
  1 O       -9.3480     0.8410     0.8490 O.2   1 <1>  -0.5700 
  2 C       -9.1610     2.0120     0.5640 C.2   1 <1>   0.6160 
  3 N       -7.9040     2.4520     0.2290 N.am  1 <1>  -0.5470 
  4 C      -10.2560     2.9140     0.5280 C.2   1 <1>  -0.1360 
  5 C       -6.6460     1.8330     0.2050 C.ar  1 <1>   0.1170 
  6 C      -10.2810     4.2810     0.4850 C.2   1 <1>   0.0720 
  7 C       -5.6450     2.3310    -0.6320 C.ar  1 <1>  -0.1430 
  8 C       -6.3520     0.7430     1.0170 C.ar  1 <1>  -0.1500 
  9 N       -9.0990     5.0090     0.5690 N.pl3 1 <1>  -0.8690 
 10 C      -11.5190     5.0410     0.3580 C.ar  1 <1>   0.0280 
 11 C       -4.3920     1.7390    -0.6400 C.ar  1 <1>  -0.1500 
 12 C       -5.9020     3.5190    -1.5510 C.3   1 <1>  -0.0970 
 13 C       -5.1000     0.1570     1.0010 C.ar  1 <1>  -0.1500 
 14 C       -9.0400     6.4700     0.4070 C.3   1 <1>   0.3690 
 15 C      -11.4970     6.3370    -0.1600 C.ar  1 <1>  -0.1430 
 16 C      -12.7600     4.5410     0.7500 C.ar  1 <1>  -0.1500 
 17 C       -4.1100     0.6540     0.1730 C.ar  1 <1>  -0.1430 
 18 C      -10.1500     6.9220    -0.5600 C.3   1 <1>  -0.0170 
 19 C       -7.6630     6.8090    -0.1580 C.3   1 <1>  -0.2400 
 20 C       -9.2020     7.0910     1.7950 C.3   1 <1>  -0.2400 
 21 C      -12.6550     7.0820    -0.3000 C.ar  1 <1>  -0.1500 
 22 C      -13.9310     5.2640     0.6090 C.ar  1 <1>   0.0830 
 23 C       -2.7340     0.0140     0.1500 C.3   1 <1>  -0.0970 
 24 C      -13.8890     6.5640     0.0830 C.ar  1 <1>   0.0830 
 25 O      -15.0590     4.6220     1.0220 O.3   1 <1>  -0.3630 
 26 O      -15.0340     7.2960    -0.0210 O.3   1 <1>  -0.3620 
 27 C      -16.2730     4.7800     0.3210 C.3   1 <1>   0.0400 
 28 C      -15.0350     8.6520    -0.4100 C.3   1 <1>   0.0400 
 29 H       -7.9400     3.3970    -0.1600 H     1 <1>   0.3700 
 30 H      -11.1850     2.3840     0.5170 H     1 <1>   0.1500 
 31 H       -7.1050     0.3450     1.6720 H     1 <1>   0.1500 
 32 H       -8.4030     4.6740     1.2470 H     1 <1>   0.4000 
 33 H       -3.6220     2.1220    -1.2870 H     1 <1>   0.1500 
 34 H       -6.0150     4.4120    -0.9660 H     1 <1>   0.0800 
 35 H       -6.7940     3.3560    -2.1290 H     1 <1>   0.0800 
 36 H       -5.0840     3.6610    -2.2340 H     1 <1>   0.0800 
 37 H       -4.9030    -0.6880     1.6370 H     1 <1>   0.1500 
 38 H      -12.8380     3.5660     1.1880 H     1 <1>   0.1500 
 39 H       -9.9160     6.5840    -1.5530 H     1 <1>   0.0800 
 40 H      -10.1950     7.9950    -0.5780 H     1 <1>   0.0800 
 41 H       -7.5340     6.3500    -1.1220 H     1 <1>   0.0800 
 42 H       -6.8880     6.4680     0.5030 H     1 <1>   0.0800 
 43 H       -7.5650     7.8730    -0.2750 H     1 <1>   0.0800 
 44 H      -10.1490     6.8170     2.2230 H     1 <1>   0.0800 
 45 H       -9.1610     8.1620     1.7290 H     1 <1>   0.0800 
 46 H       -8.4170     6.7610     2.4520 H     1 <1>   0.0800 
 47 H      -12.5790     8.0700    -0.7090 H     1 <1>   0.1500 
 48 H       -1.9800     0.7540    -0.0480 H     1 <1>   0.0800 
 49 H       -2.6970    -0.7370    -0.6180 H     1 <1>   0.0800 
 50 H       -2.5180    -0.4450     1.0980 H     1 <1>   0.0800 
 51 H      -16.8950     3.9290     0.5310 H     1 <1>   0.0800 
 52 H      -16.0660     4.8360    -0.7340 H     1 <1>   0.0800 
 53 H      -16.7570     5.6770     0.6630 H     1 <1>   0.0800 
 54 H      -16.0470     9.0120    -0.3600 H     1 <1>   0.0800 
 55 H      -14.6710     8.7270    -1.4190 H     1 <1>   0.0800 
 56 H      -14.4160     9.2110     0.2690 H     1 <1>   0.0800 
@<TRIPOS>BOND
  1   1   2  2   
  2   2   3  am  
  3   2   4  1   
  4   3   5  1   
  5   3  29  1   
  6   4   6  2   
  7   4  30  1   
  8   5   7  ar  
  9   5   8  ar  
 10   6   9  1   
 11   6  10  1   
 12   7  11  ar  
 13   7  12  1   
 14   8  13  ar  
 15   8  31  1   
 16   9  14  1   
 17   9  32  1   
 18  10  15  ar  
 19  10  16  ar  
 20  11  17  ar  
 21  11  33  1   
 22  12  34  1   
 23  12  35  1   
 24  12  36  1   
 25  13  17  ar  
 26  13  37  1   
 27  14  18  1   
 28  14  19  1   
 29  14  20  1   
 30  15  18  1   
 31  15  21  ar  
 32  16  22  ar  
 33  16  38  1   
 34  17  23  1   
 35  18  39  1   
 36  18  40  1   
 37  19  41  1   
 38  19  42  1   
 39  19  43  1   
 40  20  44  1   
 41  20  45  1   
 42  20  46  1   
 43  21  24  ar  
 44  21  47  1   
 45  22  24  ar  
 46  22  25  1   
 47  23  48  1   
 48  23  49  1   
 49  23  50  1   
 50  24  26  1   
 51  25  27  1   
 52  26  28  1   
 53  27  51  1   
 54  27  52  1   
 55  27  53  1   
 56  28  54  1   
 57  28  55  1   
 58  28  56  1   
@<TRIPOS>SUBSTRUCTURE
  1 ****   6 GROUP 4 **** **** 0

# MOE 2024.06 (io_trps.svl 2023.06)
