@<TRIPOS>MOLECULE
NONAME
41 42 1 0 0 
SMALL
USER_CHARGES


@<TRIPOS>ATOM
  1 O        0.3770    -2.6240    -3.6040 O.2   1 <1>  -0.5700 
  2 C        0.0770    -2.9540    -2.4720 C.2   1 <1>   0.5440 
  3 N        1.0860    -3.2290    -1.5690 N.am  1 <1>  -0.6600 
  4 C       -1.3280    -3.0650    -2.1240 C.ar  1 <1>   0.0860 
  5 C        2.5000    -2.8610    -1.8570 C.3   1 <1>   0.1400 
  6 C        0.8940    -4.0500    -0.3410 C.3   1 <1>   0.1400 
  7 C       -1.8600    -2.4400    -0.9980 C.ar  1 <1>  -0.1500 
  8 C       -2.2000    -3.8030    -2.9230 C.ar  1 <1>  -0.1500 
  9 C        3.1010    -2.1310    -0.6520 C.3   1 <1>  -0.1600 
 10 C        1.4790    -3.3180     0.8690 C.3   1 <1>  -0.1600 
 11 C       -3.1980    -2.5570    -0.6650 C.ar  1 <1>   0.0820 
 12 C       -3.5400    -3.9280    -2.6050 C.ar  1 <1>  -0.1500 
 13 C        2.9580    -2.9520     0.6420 C.3   1 <1>  -0.0190 
 14 O       -3.6050    -1.9130     0.4560 O.3   1 <1>  -0.3630 
 15 C       -4.0440    -3.3090    -1.4750 C.ar  1 <1>  -0.1500 
 16 C        3.5470    -2.2060     1.8380 C.2   1 <1>   0.5690 
 17 C       -4.9630    -1.8800     0.8310 C.3   1 <1>   0.2580 
 18 O        3.0360    -1.1930     2.2420 O.2   1 <1>  -0.5700 
 19 N        4.6500    -2.6810     2.4440 N.am  1 <1>  -0.8000 
 20 C       -5.0840    -1.0460     2.0910 C.2   1 <1>  -0.2880 
 21 C       -5.6240    -1.4540     3.2450 C.2   1 <1>  -0.3000 
 22 H        2.5570    -2.2220    -2.7210 H     1 <1>   0.0800 
 23 H        3.0590    -3.7570    -2.0670 H     1 <1>   0.0800 
 24 H        1.3990    -4.9910    -0.4740 H     1 <1>   0.0800 
 25 H       -0.1470    -4.2610    -0.1710 H     1 <1>   0.0800 
 26 H       -1.2180    -1.8480    -0.3720 H     1 <1>   0.1500 
 27 H       -1.8110    -4.2790    -3.8080 H     1 <1>   0.1500 
 28 H        2.6020    -1.1840    -0.5380 H     1 <1>   0.0800 
 29 H        4.1400    -1.9300    -0.8430 H     1 <1>   0.0800 
 30 H        1.3900    -3.9420     1.7400 H     1 <1>   0.0800 
 31 H        0.9060    -2.4240     1.0490 H     1 <1>   0.0800 
 32 H       -4.1900    -4.5060    -3.2390 H     1 <1>   0.1500 
 33 H        3.5100    -3.8670     0.5180 H     1 <1>   0.0800 
 34 H       -5.0870    -3.4240    -1.2490 H     1 <1>   0.1500 
 35 H       -5.2960    -2.8880     1.0060 H     1 <1>   0.0800 
 36 H       -5.5260    -1.4330     0.0290 H     1 <1>   0.0800 
 37 H        5.0340    -2.1680     3.2380 H     1 <1>   0.3700 
 38 H        5.1480    -3.5240     2.1610 H     1 <1>   0.3700 
 39 H       -4.6740    -0.0590     1.9590 H     1 <1>   0.1500 
 40 H       -5.6920    -0.8360     4.1240 H     1 <1>   0.1500 
 41 H       -6.0390    -2.4330     3.4120 H     1 <1>   0.1500 
@<TRIPOS>BOND
  1   1   2  2   
  2   2   3  am  
  3   2   4  1   
  4   3   5  1   
  5   3   6  1   
  6   4   7  ar  
  7   4   8  ar  
  8   5   9  1   
  9   5  22  1   
 10   5  23  1   
 11   6  10  1   
 12   6  24  1   
 13   6  25  1   
 14   7  11  ar  
 15   7  26  1   
 16   8  12  ar  
 17   8  27  1   
 18   9  13  1   
 19   9  28  1   
 20   9  29  1   
 21  10  13  1   
 22  10  30  1   
 23  10  31  1   
 24  11  14  1   
 25  11  15  ar  
 26  12  15  ar  
 27  12  32  1   
 28  13  16  1   
 29  13  33  1   
 30  14  17  1   
 31  15  34  1   
 32  16  18  2   
 33  16  19  am  
 34  17  20  1   
 35  17  35  1   
 36  17  36  1   
 37  19  37  1   
 38  19  38  1   
 39  20  21  2   
 40  20  39  1   
 41  21  40  1   
 42  21  41  1   
@<TRIPOS>SUBSTRUCTURE
  1 ****   7 GROUP 4 **** **** 0

# MOE 2024.06 (io_trps.svl 2023.06)
