@<TRIPOS>MOLECULE
NONAME
55 57 1 0 0 
SMALL
USER_CHARGES


@<TRIPOS>ATOM
  1 O        0.4350    -2.4190     0.8680 O.2   1 <1>  -0.5700 
  2 C       -0.0880    -2.7380    -0.1840 C.2   1 <1>   0.5440 
  3 N        0.7360    -3.2750    -1.1470 N.am  1 <1>  -0.6600 
  4 C       -1.5240    -2.6220    -0.3760 C.ar  1 <1>   0.0860 
  5 C        2.1690    -2.8710    -1.1690 C.3   1 <1>   0.1400 
  6 C        0.5240    -4.6850    -1.5700 C.3   1 <1>   0.1400 
  7 C       -2.3980    -2.5870     0.7120 C.ar  1 <1>  -0.1500 
  8 C       -2.0920    -2.5430    -1.6500 C.ar  1 <1>  -0.1500 
  9 C        2.9890    -3.8050    -0.2620 C.3   1 <1>   0.3430 
 10 C        1.3660    -5.6320    -0.6870 C.3   1 <1>   0.3430 
 11 C       -3.7680    -2.4970     0.5450 C.ar  1 <1>  -0.1500 
 12 C       -3.4600    -2.4550    -1.8250 C.ar  1 <1>  -0.1500 
 13 N        2.8350    -5.2650    -0.6410 N.4   1 <1>  -0.9590 
 14 C       -4.3120    -2.4340    -0.7340 C.ar  1 <1>   0.0830 
 15 C        3.6200    -6.1650     0.2660 C.3   1 <1>   0.4230 
 16 O       -5.6360    -2.3510    -0.9980 O.3   1 <1>  -0.3620 
 17 C        5.1130    -5.7790     0.2390 C.3   1 <1>  -0.1600 
 18 C        3.4470    -7.6370    -0.1620 C.3   1 <1>  -0.1600 
 19 C       -6.6270    -2.2410     0.0030 C.3   1 <1>   0.1200 
 20 C        5.9760    -6.7390     1.0700 C.3   1 <1>  -0.1600 
 21 C        4.3150    -8.5910     0.6710 C.3   1 <1>  -0.1600 
 22 C       -6.7040    -0.7900     0.4930 C.3   1 <1>  -0.1600 
 23 C        5.7910    -8.1890     0.6170 C.3   1 <1>  -0.1600 
 24 C       -7.7930    -0.6200     1.5590 C.3   1 <1>  -0.2400 
 25 H        2.2640    -1.8570    -0.8140 H     1 <1>   0.0800 
 26 H        2.5430    -2.9010    -2.1780 H     1 <1>   0.0800 
 27 H       -0.5170    -4.9460    -1.4760 H     1 <1>   0.0800 
 28 H        0.7990    -4.7970    -2.6040 H     1 <1>   0.0800 
 29 H       -1.9910    -2.6280     1.7090 H     1 <1>   0.1500 
 30 H       -1.4550    -2.5440    -2.5170 H     1 <1>   0.1500 
 31 H        4.0230    -3.5110    -0.3220 H     1 <1>   0.0800 
 32 H        2.6600    -3.6560     0.7540 H     1 <1>   0.0800 
 33 H        1.2480    -6.6340    -1.0620 H     1 <1>   0.0800 
 34 H        0.9620    -5.6040     0.3120 H     1 <1>   0.0800 
 35 H       -4.3930    -2.4730     1.4170 H     1 <1>   0.1500 
 36 H       -3.8830    -2.3960    -2.8130 H     1 <1>   0.1500 
 37 H        3.2210    -5.3840    -1.5840 H     1 <1>   0.4500 
 38 H        3.2590    -6.0590     1.2770 H     1 <1>   0.0800 
 39 H        5.2600    -4.7970     0.6480 H     1 <1>   0.0800 
 40 H        5.4730    -5.7890    -0.7750 H     1 <1>   0.0800 
 41 H        2.4280    -7.9540    -0.0340 H     1 <1>   0.0800 
 42 H        3.7170    -7.7480    -1.1980 H     1 <1>   0.0800 
 43 H       -6.4100    -2.9320     0.7980 H     1 <1>   0.0800 
 44 H       -7.5620    -2.5230    -0.4470 H     1 <1>   0.0800 
 45 H        7.0150    -6.4660     0.9760 H     1 <1>   0.0800 
 46 H        5.7130    -6.6550     2.1120 H     1 <1>   0.0800 
 47 H        4.2080    -9.5970     0.3000 H     1 <1>   0.0800 
 48 H        3.9830    -8.5850     1.6950 H     1 <1>   0.0800 
 49 H       -6.9250    -0.1500    -0.3430 H     1 <1>   0.0800 
 50 H       -5.7580    -0.4910     0.9080 H     1 <1>   0.0800 
 51 H        6.3650    -8.8410     1.2540 H     1 <1>   0.0800 
 52 H        6.1640    -8.3060    -0.3870 H     1 <1>   0.0800 
 53 H       -8.7560    -0.8890     1.1600 H     1 <1>   0.0800 
 54 H       -7.8330     0.4050     1.8820 H     1 <1>   0.0800 
 55 H       -7.5850    -1.2400     2.4130 H     1 <1>   0.0800 
@<TRIPOS>BOND
  1   1   2  2   
  2   2   3  am  
  3   2   4  1   
  4   3   5  1   
  5   3   6  1   
  6   4   7  ar  
  7   4   8  ar  
  8   5   9  1   
  9   5  25  1   
 10   5  26  1   
 11   6  10  1   
 12   6  27  1   
 13   6  28  1   
 14   7  11  ar  
 15   7  29  1   
 16   8  12  ar  
 17   8  30  1   
 18   9  13  1   
 19   9  31  1   
 20   9  32  1   
 21  10  13  1   
 22  10  33  1   
 23  10  34  1   
 24  11  14  ar  
 25  11  35  1   
 26  12  14  ar  
 27  12  36  1   
 28  13  15  1   
 29  13  37  1   
 30  14  16  1   
 31  15  17  1   
 32  15  18  1   
 33  15  38  1   
 34  16  19  1   
 35  17  20  1   
 36  17  39  1   
 37  17  40  1   
 38  18  21  1   
 39  18  41  1   
 40  18  42  1   
 41  19  22  1   
 42  19  43  1   
 43  19  44  1   
 44  20  23  1   
 45  20  45  1   
 46  20  46  1   
 47  21  23  1   
 48  21  47  1   
 49  21  48  1   
 50  22  24  1   
 51  22  49  1   
 52  22  50  1   
 53  23  51  1   
 54  23  52  1   
 55  24  53  1   
 56  24  54  1   
 57  24  55  1   
@<TRIPOS>SUBSTRUCTURE
  1 ****   2 GROUP 4 **** **** 0

# MOE 2024.06 (io_trps.svl 2023.06)
