@<TRIPOS>MOLECULE
NONAME
53 55 1 0 0 
SMALL
USER_CHARGES


@<TRIPOS>ATOM
  1 N       -0.3260     0.1070     0.5100 N.4   1 <1>  -0.9590 
  2 C        0.8050     1.0460     0.7470 C.3   1 <1>   0.3430 
  3 C       -0.0750    -0.8660    -0.5940 C.3   1 <1>   0.3430 
  4 C       -1.6050     0.8510     0.2820 C.3   1 <1>   0.4860 
  5 C        2.0850     0.2590     1.0440 C.3   1 <1>  -0.1600 
  6 C        1.1930    -1.6690    -0.3010 C.3   1 <1>  -0.1600 
  7 C       -2.7400    -0.1500     0.3190 C.ar  1 <1>  -0.1440 
  8 C        2.3920    -0.7490    -0.0700 C.3   1 <1>   0.4230 
  9 C       -3.3720    -0.5340    -0.8570 C.ar  1 <1>  -0.1500 
 10 C       -3.1510    -0.6990     1.5260 C.ar  1 <1>  -0.1500 
 11 N        3.5680    -1.5830     0.2840 N.4   1 <1>  -0.9060 
 12 C       -4.3890    -1.4710    -0.8260 C.ar  1 <1>  -0.1500 
 13 C       -4.1690    -1.6370     1.5530 C.ar  1 <1>  -0.1500 
 14 C        4.8810    -0.8940     0.3440 C.3   1 <1>   0.4230 
 15 C       -4.7850    -2.0250     0.3780 C.ar  1 <1>  -0.1500 
 16 C        5.2910    -0.4640    -1.0740 C.3   1 <1>  -0.1600 
 17 C        5.8620    -1.8560     1.0260 C.3   1 <1>  -0.1600 
 18 C        6.6790     0.1890    -1.1790 C.3   1 <1>  -0.1600 
 19 C        7.1400    -1.1420     1.4910 C.3   1 <1>  -0.1600 
 20 C        7.8240    -0.8200    -1.0140 C.3   1 <1>  -0.1600 
 21 C        8.2550    -1.0740     0.4380 C.3   1 <1>  -0.1600 
 22 H       -0.5100    -0.4380     1.3650 H     1 <1>   0.4500 
 23 H        0.5780     1.6940     1.5800 H     1 <1>   0.0800 
 24 H        0.9520     1.6650    -0.1250 H     1 <1>   0.0800 
 25 H        0.0310    -0.3390    -1.5300 H     1 <1>   0.0800 
 26 H       -0.9120    -1.5430    -0.6870 H     1 <1>   0.0800 
 27 H       -1.5880     1.3580    -0.6690 H     1 <1>   0.0800 
 28 H       -1.7570     1.5840     1.0580 H     1 <1>   0.0800 
 29 H        1.9710    -0.2420     1.9900 H     1 <1>   0.0800 
 30 H        2.8890     0.9670     1.1340 H     1 <1>   0.0800 
 31 H        1.3840    -2.3110    -1.1430 H     1 <1>   0.0800 
 32 H        1.0150    -2.2910     0.5600 H     1 <1>   0.0800 
 33 H        2.5930    -0.2130    -0.9850 H     1 <1>   0.0800 
 34 H       -3.0910    -0.1120    -1.8070 H     1 <1>   0.1500 
 35 H       -2.7000    -0.4070     2.4590 H     1 <1>   0.1500 
 36 H        3.6760    -2.3440    -0.3990 H     1 <1>   0.4500 
 37 H        3.4190    -2.0420     1.1890 H     1 <1>   0.4500 
 38 H       -4.8810    -1.7700    -1.7370 H     1 <1>   0.1500 
 39 H       -4.4900    -2.0640     2.4890 H     1 <1>   0.1500 
 40 H        4.8000    -0.0160     0.9640 H     1 <1>   0.0800 
 41 H       -5.5790    -2.7530     0.4000 H     1 <1>   0.1500 
 42 H        4.5860     0.2610    -1.4370 H     1 <1>   0.0800 
 43 H        5.2640    -1.3110    -1.7370 H     1 <1>   0.0800 
 44 H        6.1160    -2.6810     0.3810 H     1 <1>   0.0800 
 45 H        5.3980    -2.2570     1.9100 H     1 <1>   0.0800 
 46 H        6.7880     1.0020    -0.4810 H     1 <1>   0.0800 
 47 H        6.7660     0.6130    -2.1660 H     1 <1>   0.0800 
 48 H        7.5380    -1.6630     2.3460 H     1 <1>   0.0800 
 49 H        6.9040    -0.1450     1.8250 H     1 <1>   0.0800 
 50 H        8.6850    -0.4490    -1.5450 H     1 <1>   0.0800 
 51 H        7.5610    -1.7530    -1.4820 H     1 <1>   0.0800 
 52 H        8.8110    -1.9970     0.4590 H     1 <1>   0.0800 
 53 H        8.9430    -0.2980     0.7340 H     1 <1>   0.0800 
@<TRIPOS>BOND
  1   1   2  1   
  2   1   3  1   
  3   1   4  1   
  4   1  22  1   
  5   2   5  1   
  6   2  23  1   
  7   2  24  1   
  8   3   6  1   
  9   3  25  1   
 10   3  26  1   
 11   4   7  1   
 12   4  27  1   
 13   4  28  1   
 14   5   8  1   
 15   5  29  1   
 16   5  30  1   
 17   6   8  1   
 18   6  31  1   
 19   6  32  1   
 20   7   9  ar  
 21   7  10  ar  
 22   8  11  1   
 23   8  33  1   
 24   9  12  ar  
 25   9  34  1   
 26  10  13  ar  
 27  10  35  1   
 28  11  14  1   
 29  11  36  1   
 30  11  37  1   
 31  12  15  ar  
 32  12  38  1   
 33  13  15  ar  
 34  13  39  1   
 35  14  16  1   
 36  14  17  1   
 37  14  40  1   
 38  15  41  1   
 39  16  18  1   
 40  16  42  1   
 41  16  43  1   
 42  17  19  1   
 43  17  44  1   
 44  17  45  1   
 45  18  20  1   
 46  18  46  1   
 47  18  47  1   
 48  19  21  1   
 49  19  48  1   
 50  19  49  1   
 51  20  21  1   
 52  20  50  1   
 53  20  51  1   
 54  21  52  1   
 55  21  53  1   
@<TRIPOS>SUBSTRUCTURE
  1 ****   8 GROUP 4 **** **** 0

# MOE 2024.06 (io_trps.svl 2023.06)
