@<TRIPOS>MOLECULE
NONAME
44 46 1 0 0 
SMALL
USER_CHARGES


@<TRIPOS>ATOM
  1 O        0.0190     1.4070    -1.7540 O.2   1 <1>  -0.5700 
  2 C       -0.0060     2.0570    -0.7400 C.2   1 <1>   0.5690 
  3 N       -1.0910     2.0840     0.0900 N.am  1 <1>  -0.5390 
  4 C        1.2040     2.8870    -0.3610 C.3   1 <1>  -0.0990 
  5 C       -2.2710     1.3320    -0.0460 C.2   1 <1>   0.0810 
  6 C        1.9850     2.2640     0.8080 C.3   1 <1>  -0.1600 
  7 C       -3.5060     2.0820    -0.2000 C.ar  1 <1>   0.0280 
  8 C       -2.2580    -0.0280    -0.0200 C.2   1 <1>  -0.0730 
  9 C        3.2110     3.1060     1.1710 C.3   1 <1>  -0.2400 
 10 C       -4.6230     1.4390    -0.7340 C.ar  1 <1>  -0.1430 
 11 C       -3.6480     3.4190     0.1770 C.ar  1 <1>  -0.1500 
 12 C       -1.0870    -0.7880     0.2880 C.1   1 <1>   0.4920 
 13 C       -3.5540    -0.8270    -0.2600 C.3   1 <1>   0.1380 
 14 C       -5.8310     2.1020    -0.8730 C.ar  1 <1>  -0.1500 
 15 C       -4.4870    -0.0070    -1.1850 C.3   1 <1>  -0.0160 
 16 C       -4.8530     4.0820     0.0380 C.ar  1 <1>  -0.1500 
 17 N       -0.1760    -1.4080     0.5900 N.1   1 <1>  -0.5570 
 18 C       -3.3820    -2.2350    -0.8670 C.3   1 <1>  -0.1600 
 19 C       -4.2550    -1.1380     1.0700 C.3   1 <1>  -0.1600 
 20 C       -5.9490     3.4230    -0.4850 C.ar  1 <1>  -0.1500 
 21 C       -4.6420    -3.0110    -0.4730 C.3   1 <1>  -0.1600 
 22 C       -5.1540    -2.3550     0.8140 C.3   1 <1>  -0.1600 
 23 H       -1.0650     2.7650     0.8460 H     1 <1>   0.3700 
 24 H        0.8830     3.8800    -0.1070 H     1 <1>   0.0800 
 25 H        1.8470     2.9580    -1.2210 H     1 <1>   0.0800 
 26 H        2.3020     1.2710     0.5310 H     1 <1>   0.0800 
 27 H        1.3470     2.1740     1.6700 H     1 <1>   0.0800 
 28 H        3.8780     3.1810     0.3300 H     1 <1>   0.0800 
 29 H        3.7430     2.6460     1.9850 H     1 <1>   0.0800 
 30 H        2.9180     4.0960     1.4710 H     1 <1>   0.0800 
 31 H       -2.8160     3.9570     0.5880 H     1 <1>   0.1500 
 32 H       -6.6860     1.5960    -1.2870 H     1 <1>   0.1500 
 33 H       -4.0720     0.0050    -2.1780 H     1 <1>   0.0800 
 34 H       -5.4580    -0.4610    -1.2470 H     1 <1>   0.0800 
 35 H       -4.9410     5.1130     0.3370 H     1 <1>   0.1500 
 36 H       -2.5480    -2.7530    -0.4280 H     1 <1>   0.0800 
 37 H       -3.2370    -2.2130    -1.9340 H     1 <1>   0.0800 
 38 H       -4.8150    -0.2980     1.4450 H     1 <1>   0.0800 
 39 H       -3.5180    -1.4080     1.8070 H     1 <1>   0.0800 
 40 H       -6.8880     3.9370    -0.5940 H     1 <1>   0.1500 
 41 H       -4.4230    -4.0550    -0.3240 H     1 <1>   0.0800 
 42 H       -5.3860    -2.9230    -1.2470 H     1 <1>   0.0800 
 43 H       -6.1760    -2.0430     0.6850 H     1 <1>   0.0800 
 44 H       -5.1050    -3.0390     1.6440 H     1 <1>   0.0800 
@<TRIPOS>BOND
  1   1   2  2   
  2   2   3  am  
  3   2   4  1   
  4   3   5  1   
  5   3  23  1   
  6   4   6  1   
  7   4  24  1   
  8   4  25  1   
  9   5   7  1   
 10   5   8  2   
 11   6   9  1   
 12   6  26  1   
 13   6  27  1   
 14   7  10  ar  
 15   7  11  ar  
 16   8  12  1   
 17   8  13  1   
 18   9  28  1   
 19   9  29  1   
 20   9  30  1   
 21  10  14  ar  
 22  10  15  1   
 23  11  16  ar  
 24  11  31  1   
 25  12  17  3   
 26  13  15  1   
 27  13  18  1   
 28  13  19  1   
 29  14  20  ar  
 30  14  32  1   
 31  15  33  1   
 32  15  34  1   
 33  16  20  ar  
 34  16  35  1   
 35  18  21  1   
 36  18  36  1   
 37  18  37  1   
 38  19  22  1   
 39  19  38  1   
 40  19  39  1   
 41  20  40  1   
 42  21  22  1   
 43  21  41  1   
 44  21  42  1   
 45  22  43  1   
 46  22  44  1   
@<TRIPOS>SUBSTRUCTURE
  1 ****   5 GROUP 4 **** **** 0

# MOE 2024.06 (io_trps.svl 2023.06)
