@<TRIPOS>MOLECULE
NONAME
50 53 1 0 0 
SMALL
USER_CHARGES


@<TRIPOS>ATOM
  1 O        1.1340    -1.1530     1.0420 O.3   1 <1>  -0.3630 
  2 C        2.2450    -1.1450     0.2650 C.ar  1 <1>   0.0830 
  3 C        0.7040    -0.0110     1.7480 C.3   1 <1>   0.0400 
  4 C        2.4660    -2.2730    -0.5070 C.ar  1 <1>  -0.1500 
  5 C        3.1450    -0.0840     0.2160 C.ar  1 <1>  -0.1500 
  6 C        3.5780    -2.3460    -1.3360 C.ar  1 <1>   0.0830 
  7 C        4.2600    -0.1550    -0.6070 C.ar  1 <1>  -0.1430 
  8 O        3.8680    -3.4110    -2.1230 O.3   1 <1>  -0.3630 
  9 C        4.4650    -1.2850    -1.3840 C.ar  1 <1>  -0.1500 
 10 C        5.2610     0.9730    -0.6560 C.3   1 <1>   0.4860 
 11 C        2.9990    -4.5210    -2.1960 C.3   1 <1>   0.0400 
 12 N        6.3720     0.5730     0.2280 N.4   1 <1>  -0.9060 
 13 C        7.5140     1.5120     0.2830 C.3   1 <1>   0.4230 
 14 C        8.2690     1.5530    -1.0680 C.3   1 <1>  -0.0800 
 15 C        8.4830     1.0620     1.3980 C.3   1 <1>  -0.0800 
 16 C        8.8840     0.1720    -1.3970 C.3   1 <1>  -0.1600 
 17 C        9.4110     2.5840    -0.9560 C.3   1 <1>  -0.1600 
 18 C        9.1000    -0.3200     1.0700 C.3   1 <1>  -0.1600 
 19 C        9.6240     2.0950     1.5020 C.3   1 <1>  -0.1600 
 20 C        9.8500    -0.2540    -0.2740 C.3   1 <1>  -0.0800 
 21 C       10.3850     2.1760     0.1650 C.3   1 <1>  -0.0800 
 22 C       10.9760     0.7920    -0.1630 C.3   1 <1>  -0.1600 
 23 H       -0.2290    -0.2490     2.2280 H     1 <1>   0.0800 
 24 H        0.5580     0.7970     1.0530 H     1 <1>   0.0800 
 25 H        1.4390     0.2410     2.4910 H     1 <1>   0.0800 
 26 H        1.7550    -3.0740    -0.4420 H     1 <1>   0.1500 
 27 H        2.9760     0.7910     0.8150 H     1 <1>   0.1500 
 28 H        5.3110    -1.3720    -2.0450 H     1 <1>   0.1500 
 29 H        4.8110     1.8900    -0.3110 H     1 <1>   0.0800 
 30 H        5.6070     1.1090    -1.6680 H     1 <1>   0.0800 
 31 H        3.4150    -5.2270    -2.8920 H     1 <1>   0.0800 
 32 H        2.0360    -4.1900    -2.5430 H     1 <1>   0.0800 
 33 H        2.9230    -4.9720    -1.2220 H     1 <1>   0.0800 
 34 H        6.7250    -0.3360    -0.0900 H     1 <1>   0.4500 
 35 H        6.0000     0.4120     1.1680 H     1 <1>   0.4500 
 36 H        7.1550     2.5020     0.5170 H     1 <1>   0.0800 
 37 H        7.6160     1.8660    -1.8620 H     1 <1>   0.0800 
 38 H        7.9690     1.0240     2.3430 H     1 <1>   0.0800 
 39 H        8.1230    -0.5750    -1.5310 H     1 <1>   0.0800 
 40 H        9.4280     0.2330    -2.3260 H     1 <1>   0.0800 
 41 H        9.0130     3.5630    -0.7520 H     1 <1>   0.0800 
 42 H        9.9440     2.6440    -1.8910 H     1 <1>   0.0800 
 43 H        8.3470    -1.0870     1.0360 H     1 <1>   0.0800 
 44 H        9.7910    -0.5970     1.8490 H     1 <1>   0.0800 
 45 H        9.2290     3.0640     1.7550 H     1 <1>   0.0800 
 46 H       10.3050     1.8120     2.2870 H     1 <1>   0.0800 
 47 H       10.2780    -1.2170    -0.5030 H     1 <1>   0.0800 
 48 H       11.1810     2.8990     0.2400 H     1 <1>   0.0800 
 49 H       11.5240     0.8390    -1.0880 H     1 <1>   0.0800 
 50 H       11.6710     0.5010     0.6060 H     1 <1>   0.0800 
@<TRIPOS>BOND
  1   1   2  1   
  2   1   3  1   
  3   2   4  ar  
  4   2   5  ar  
  5   3  23  1   
  6   3  24  1   
  7   3  25  1   
  8   4   6  ar  
  9   4  26  1   
 10   5   7  ar  
 11   5  27  1   
 12   6   8  1   
 13   6   9  ar  
 14   7   9  ar  
 15   7  10  1   
 16   8  11  1   
 17   9  28  1   
 18  10  12  1   
 19  10  29  1   
 20  10  30  1   
 21  11  31  1   
 22  11  32  1   
 23  11  33  1   
 24  12  13  1   
 25  12  34  1   
 26  12  35  1   
 27  13  14  1   
 28  13  15  1   
 29  13  36  1   
 30  14  16  1   
 31  14  17  1   
 32  14  37  1   
 33  15  18  1   
 34  15  19  1   
 35  15  38  1   
 36  16  20  1   
 37  16  39  1   
 38  16  40  1   
 39  17  21  1   
 40  17  41  1   
 41  17  42  1   
 42  18  20  1   
 43  18  43  1   
 44  18  44  1   
 45  19  21  1   
 46  19  45  1   
 47  19  46  1   
 48  20  22  1   
 49  20  47  1   
 50  21  22  1   
 51  21  48  1   
 52  22  49  1   
 53  22  50  1   
@<TRIPOS>SUBSTRUCTURE
  1 ****  12 GROUP 4 **** **** 0

# MOE 2024.06 (io_trps.svl 2023.06)
