@<TRIPOS>MOLECULE
NONAME
34 35 1 0 0 
SMALL
USER_CHARGES


@<TRIPOS>ATOM
  1 CL       6.9540     1.9740     0.4260 Cl    1 <1>  -0.1770 
  2 C        5.3400     1.3170     0.2230 C.ar  1 <1>   0.1770 
  3 C        4.2850     2.1820    -0.0410 C.ar  1 <1>  -0.1440 
  4 C        5.1500    -0.0560     0.3290 C.ar  1 <1>  -0.1440 
  5 C        3.0140     1.6530    -0.2010 C.ar  1 <1>  -0.1500 
  6 C        4.5050     3.6830    -0.1550 C.3   1 <1>  -0.0960 
  7 C        3.8710    -0.5640     0.1670 C.ar  1 <1>  -0.1500 
  8 C        6.3140    -0.9930     0.6170 C.3   1 <1>  -0.0960 
  9 C        2.8030     0.2830    -0.0910 C.ar  1 <1>   0.0830 
 10 O        1.5800    -0.2850    -0.2560 O.3   1 <1>  -0.2330 
 11 C        0.4060     0.2040     0.1710 C.2   1 <1>   0.7800 
 12 O        0.3650     1.1930     0.8780 O.2   1 <1>  -0.5700 
 13 N       -0.7340    -0.4570    -0.2130 N.am  1 <1>  -0.6600 
 14 C       -2.0910    -0.0120     0.2190 C.3   1 <1>   0.1400 
 15 C       -0.7470    -1.6930    -1.0490 C.3   1 <1>   0.1400 
 16 C       -2.8920    -1.1940     0.7900 C.3   1 <1>   0.1200 
 17 C       -1.6270    -2.7740    -0.4000 C.3   1 <1>   0.1200 
 18 O       -2.8990    -2.2680    -0.1090 O.3   1 <1>  -0.5600 
 19 H        2.1860     2.3050    -0.4130 H     1 <1>   0.1500 
 20 H        4.9160     4.0640     0.7640 H     1 <1>   0.0800 
 21 H        3.5800     4.1960    -0.3510 H     1 <1>   0.0800 
 22 H        5.1900     3.8950    -0.9560 H     1 <1>   0.0800 
 23 H        3.6900    -1.6200     0.2420 H     1 <1>   0.1500 
 24 H        7.0540    -0.9090    -0.1590 H     1 <1>   0.0800 
 25 H        5.9850    -2.0160     0.6650 H     1 <1>   0.0800 
 26 H        6.7670    -0.7360     1.5580 H     1 <1>   0.0800 
 27 H       -2.6160     0.3940    -0.6290 H     1 <1>   0.0800 
 28 H       -2.0190     0.7610     0.9650 H     1 <1>   0.0800 
 29 H        0.2480    -2.0810    -1.1800 H     1 <1>   0.0800 
 30 H       -1.1420    -1.4560    -2.0220 H     1 <1>   0.0800 
 31 H       -3.9120    -0.9020     0.9620 H     1 <1>   0.0800 
 32 H       -2.4650    -1.5240     1.7210 H     1 <1>   0.0800 
 33 H       -1.1810    -3.1310     0.5120 H     1 <1>   0.0800 
 34 H       -1.7510    -3.6050    -1.0710 H     1 <1>   0.0800 
@<TRIPOS>BOND
  1   1   2  1   
  2   2   3  ar  
  3   2   4  ar  
  4   3   5  ar  
  5   3   6  1   
  6   4   7  ar  
  7   4   8  1   
  8   5   9  ar  
  9   5  19  1   
 10   6  20  1   
 11   6  21  1   
 12   6  22  1   
 13   7   9  ar  
 14   7  23  1   
 15   8  24  1   
 16   8  25  1   
 17   8  26  1   
 18   9  10  1   
 19  10  11  1   
 20  11  12  2   
 21  11  13  am  
 22  13  14  1   
 23  13  15  1   
 24  14  16  1   
 25  14  27  1   
 26  14  28  1   
 27  15  17  1   
 28  15  29  1   
 29  15  30  1   
 30  16  18  1   
 31  16  31  1   
 32  16  32  1   
 33  17  18  1   
 34  17  33  1   
 35  17  34  1   
@<TRIPOS>SUBSTRUCTURE
  1 ****  10 GROUP 4 **** **** 0

# MOE 2024.06 (io_trps.svl 2023.06)
