@<TRIPOS>MOLECULE
NONAME
45 47 1 0 0 
SMALL
USER_CHARGES


@<TRIPOS>ATOM
  1 S       -0.1620     0.7960    -1.8170 S.3   1 <1>  -0.3710 
  2 C       -1.7460     1.4100    -1.2680 C.2   1 <1>   0.6510 
  3 C       -0.0630    -0.9470    -1.1820 C.3   1 <1>   0.1310 
  4 N       -2.5770     0.5520    -0.8110 N.2   1 <1>  -0.6290 
  5 N       -1.9630     2.7650    -1.3730 N.am  1 <1>  -0.4200 
  6 C        1.3700    -1.3000    -0.8000 C.2   1 <1>   0.4480 
  7 C       -3.8150     0.9980    -0.4010 C.ar  1 <1>   0.1790 
  8 C       -3.1870     3.2640    -0.9960 C.2   1 <1>   0.5440 
  9 C       -0.8640     3.7030    -1.7410 C.3   1 <1>   0.3200 
 10 O        1.9560    -2.1180    -1.4480 O.2   1 <1>  -0.5700 
 11 C        2.0310    -0.6180     0.4300 C.3   1 <1>   0.0610 
 12 C       -4.1680     2.3510    -0.4790 C.ar  1 <1>   0.0860 
 13 C       -4.7310     0.0790     0.0990 C.ar  1 <1>  -0.1500 
 14 O       -3.4190     4.4570    -1.0980 O.2   1 <1>  -0.5700 
 15 C        0.1150     3.8730    -0.5870 C.2   1 <1>  -0.0400 
 16 C        2.8630     0.5980    -0.0170 C.3   1 <1>  -0.2400 
 17 C        1.0110    -0.1520     1.4880 C.3   1 <1>  -0.2400 
 18 C        2.9870    -1.6080     1.1270 C.3   1 <1>  -0.2400 
 19 C       -5.4400     2.7410    -0.0500 C.ar  1 <1>  -0.1500 
 20 C       -5.9830     0.4800     0.5190 C.ar  1 <1>  -0.1500 
 21 O        1.2900     4.4170    -0.8420 O.3   1 <1>  -0.2800 
 22 C        0.0210     3.5550     0.7240 C.2   1 <1>  -0.1500 
 23 C       -6.3390     1.8180     0.4430 C.ar  1 <1>  -0.1500 
 24 C        1.9680     4.4550     0.2870 C.2   1 <1>  -0.0100 
 25 C        1.2410     3.9360     1.2980 C.2   1 <1>  -0.1500 
 26 H       -0.4050    -1.5840    -1.9760 H     1 <1>   0.0800 
 27 H       -0.7160    -1.0490    -0.3380 H     1 <1>   0.0800 
 28 H       -1.2540     4.6680    -2.0100 H     1 <1>   0.0800 
 29 H       -0.3410     3.3290    -2.6030 H     1 <1>   0.0800 
 30 H       -4.4480    -0.9570     0.1520 H     1 <1>   0.1500 
 31 H        2.2370     1.3610    -0.4420 H     1 <1>   0.0800 
 32 H        3.5830     0.3020    -0.7600 H     1 <1>   0.0800 
 33 H        3.3910     1.0270     0.8160 H     1 <1>   0.0800 
 34 H        0.4110    -0.9790     1.8260 H     1 <1>   0.0800 
 35 H        0.3620     0.6080     1.0930 H     1 <1>   0.0800 
 36 H        1.5170     0.2650     2.3410 H     1 <1>   0.0800 
 37 H        2.4510    -2.4850     1.4450 H     1 <1>   0.0800 
 38 H        3.4520    -1.1590     1.9870 H     1 <1>   0.0800 
 39 H        3.7640    -1.9200     0.4500 H     1 <1>   0.0800 
 40 H       -5.7150     3.7810    -0.1100 H     1 <1>   0.1500 
 41 H       -6.6850    -0.2410     0.9040 H     1 <1>   0.1500 
 42 H       -0.7990     3.1060     1.2560 H     1 <1>   0.1500 
 43 H       -7.3160     2.1320     0.7710 H     1 <1>   0.1500 
 44 H        2.9620     4.8690     0.2810 H     1 <1>   0.1500 
 45 H        1.5070     3.8260     2.3330 H     1 <1>   0.1500 
@<TRIPOS>BOND
  1   1   2  1   
  2   1   3  1   
  3   2   4  2   
  4   2   5  1   
  5   3   6  1   
  6   3  26  1   
  7   3  27  1   
  8   4   7  1   
  9   5   8  am  
 10   5   9  1   
 11   6  10  2   
 12   6  11  1   
 13   7  12  ar  
 14   7  13  ar  
 15   8  12  1   
 16   8  14  2   
 17   9  15  1   
 18   9  28  1   
 19   9  29  1   
 20  11  16  1   
 21  11  17  1   
 22  11  18  1   
 23  12  19  ar  
 24  13  20  ar  
 25  13  30  1   
 26  15  21  1   
 27  15  22  2   
 28  16  31  1   
 29  16  32  1   
 30  16  33  1   
 31  17  34  1   
 32  17  35  1   
 33  17  36  1   
 34  18  37  1   
 35  18  38  1   
 36  18  39  1   
 37  19  23  ar  
 38  19  40  1   
 39  20  23  ar  
 40  20  41  1   
 41  21  24  1   
 42  22  25  1   
 43  22  42  1   
 44  23  43  1   
 45  24  25  2   
 46  24  44  1   
 47  25  45  1   
@<TRIPOS>SUBSTRUCTURE
  1 ****   2 GROUP 4 **** **** 0

# MOE 2024.06 (io_trps.svl 2023.06)
