@<TRIPOS>MOLECULE
NONAME
57 59 1 0 0 
SMALL
USER_CHARGES


@<TRIPOS>ATOM
  1 O       -0.1430     0.0760    -0.4330 O.2   1 <1>  -0.5700 
  2 C       -0.5400    -1.0710    -0.3630 C.2   1 <1>   0.5440 
  3 N        0.3780    -2.0850    -0.3920 N.am  1 <1>  -0.7300 
  4 C       -1.9580    -1.3570    -0.2340 C.ar  1 <1>   0.0860 
  5 C        1.8290    -1.9260    -0.5370 C.3   1 <1>   0.2200 
  6 C       -2.8360    -0.4080     0.2940 C.ar  1 <1>  -0.1500 
  7 C       -2.5140    -2.5770    -0.6250 C.ar  1 <1>  -0.1500 
  8 C        2.2800    -2.7490    -1.7390 C.3   1 <1>  -0.2400 
  9 C        2.4930    -2.4090     0.7470 C.3   1 <1>  -0.2400 
 10 C       -4.1860    -0.6650     0.4330 C.ar  1 <1>  -0.1500 
 11 C       -3.8640    -2.8380    -0.4840 C.ar  1 <1>  -0.1500 
 12 C       -4.7270    -1.8850     0.0470 C.ar  1 <1>   0.1170 
 13 N       -6.0980    -2.0910     0.2190 N.am  1 <1>  -0.5470 
 14 C       -6.9750    -3.0010    -0.3190 C.2   1 <1>   0.5690 
 15 O       -6.6270    -3.8280    -1.1290 O.2   1 <1>  -0.5700 
 16 C       -8.4510    -2.9310     0.1540 C.3   1 <1>   0.2040 
 17 C       -8.7730    -1.4450     0.4650 C.ar  1 <1>  -0.1430 
 18 C       -8.6140    -3.8390     1.3970 C.3   1 <1>  -0.1600 
 19 C       -9.4520    -3.4350    -0.9200 C.3   1 <1>  -0.1600 
 20 C       -9.0460    -0.9690     1.7460 C.ar  1 <1>  -0.1500 
 21 C       -8.7510    -0.5230    -0.5780 C.ar  1 <1>  -0.1500 
 22 C       -8.5660    -5.3250     1.0300 C.3   1 <1>   0.1200 
 23 C       -9.4420    -4.9600    -1.1050 C.3   1 <1>   0.1200 
 24 C       -9.2910     0.3750     1.9670 C.ar  1 <1>  -0.1500 
 25 C       -8.9960     0.8210    -0.3610 C.ar  1 <1>  -0.1500 
 26 O       -9.5950    -5.5810     0.1310 O.3   1 <1>  -0.5600 
 27 C       -9.2680     1.2800     0.9220 C.ar  1 <1>   0.0830 
 28 O       -9.5150     2.5770     1.2280 O.3   1 <1>  -0.3620 
 29 C       -9.5780     3.5680     0.2260 C.3   1 <1>   0.0400 
 30 H        0.0690    -3.0410    -0.2280 H     1 <1>   0.3700 
 31 H        2.0730    -0.8870    -0.7010 H     1 <1>   0.0800 
 32 H       -2.4410     0.5480     0.5970 H     1 <1>   0.1500 
 33 H       -1.8840    -3.3350    -1.0550 H     1 <1>   0.1500 
 34 H        2.0520    -3.7900    -1.5980 H     1 <1>   0.0800 
 35 H        3.3410    -2.6440    -1.8750 H     1 <1>   0.0800 
 36 H        1.7900    -2.3930    -2.6270 H     1 <1>   0.0800 
 37 H        2.2670    -3.4440     0.9310 H     1 <1>   0.0800 
 38 H        2.1520    -1.8150     1.5770 H     1 <1>   0.0800 
 39 H        3.5590    -2.2980     0.6710 H     1 <1>   0.0800 
 40 H       -4.8270     0.0960     0.8430 H     1 <1>   0.1500 
 41 H       -4.2450    -3.7940    -0.7930 H     1 <1>   0.1500 
 42 H       -6.5700    -1.3660     0.7650 H     1 <1>   0.3700 
 43 H       -9.5690    -3.6630     1.8600 H     1 <1>   0.0800 
 44 H       -7.8440    -3.6290     2.1170 H     1 <1>   0.0800 
 45 H       -9.2410    -2.9810    -1.8700 H     1 <1>   0.0800 
 46 H      -10.4480    -3.1450    -0.6360 H     1 <1>   0.0800 
 47 H       -9.0760    -1.6180     2.6020 H     1 <1>   0.1500 
 48 H       -8.5320    -0.8410    -1.5830 H     1 <1>   0.1500 
 49 H       -8.7350    -5.9350     1.9010 H     1 <1>   0.0800 
 50 H       -7.6280    -5.6060     0.5810 H     1 <1>   0.0800 
 51 H       -8.5280    -5.3090    -1.5540 H     1 <1>   0.0800 
 52 H      -10.2650    -5.2660    -1.7270 H     1 <1>   0.0800 
 53 H       -9.5040     0.7330     2.9590 H     1 <1>   0.1500 
 54 H       -8.9700     1.4930    -1.1980 H     1 <1>   0.1500 
 55 H       -9.8110     4.5050     0.6980 H     1 <1>   0.0800 
 56 H      -10.3530     3.3080    -0.4740 H     1 <1>   0.0800 
 57 H       -8.6220     3.6320    -0.2620 H     1 <1>   0.0800 
@<TRIPOS>BOND
  1   1   2  2   
  2   2   3  am  
  3   2   4  1   
  4   3   5  1   
  5   3  30  1   
  6   4   6  ar  
  7   4   7  ar  
  8   5   8  1   
  9   5   9  1   
 10   5  31  1   
 11   6  10  ar  
 12   6  32  1   
 13   7  11  ar  
 14   7  33  1   
 15   8  34  1   
 16   8  35  1   
 17   8  36  1   
 18   9  37  1   
 19   9  38  1   
 20   9  39  1   
 21  10  12  ar  
 22  10  40  1   
 23  11  12  ar  
 24  11  41  1   
 25  12  13  1   
 26  13  14  am  
 27  13  42  1   
 28  14  15  2   
 29  14  16  1   
 30  16  17  1   
 31  16  18  1   
 32  16  19  1   
 33  17  20  ar  
 34  17  21  ar  
 35  18  22  1   
 36  18  43  1   
 37  18  44  1   
 38  19  23  1   
 39  19  45  1   
 40  19  46  1   
 41  20  24  ar  
 42  20  47  1   
 43  21  25  ar  
 44  21  48  1   
 45  22  26  1   
 46  22  49  1   
 47  22  50  1   
 48  23  26  1   
 49  23  51  1   
 50  23  52  1   
 51  24  27  ar  
 52  24  53  1   
 53  25  27  ar  
 54  25  54  1   
 55  27  28  1   
 56  28  29  1   
 57  29  55  1   
 58  29  56  1   
 59  29  57  1   
@<TRIPOS>SUBSTRUCTURE
  1 ****  13 GROUP 4 **** **** 0

# MOE 2024.06 (io_trps.svl 2023.06)
