@<TRIPOS>MOLECULE
NONAME
49 50 1 0 0 
SMALL
USER_CHARGES


@<TRIPOS>ATOM
  1 O        0.0670    -0.3430    -0.4390 O.2   1 <1>  -0.5700 
  2 C       -0.6080    -1.3550    -0.3610 C.2   1 <1>   0.5440 
  3 N        0.0380    -2.5400    -0.5410 N.am  1 <1>  -0.4300 
  4 C       -2.0380    -1.2730    -0.1360 C.ar  1 <1>   0.0860 
  5 N       -0.5510    -3.8840    -0.6630 N.am  1 <1>  -0.4300 
  6 C       -2.8320    -0.4330    -0.9180 C.ar  1 <1>  -0.1500 
  7 C       -2.6750    -2.0150     0.8590 C.ar  1 <1>  -0.1500 
  8 C       -0.7020    -4.7930     0.3480 C.2   1 <1>   0.5440 
  9 C       -4.2010    -0.3530    -0.7380 C.ar  1 <1>  -0.1500 
 10 C       -4.0430    -1.9440     1.0440 C.ar  1 <1>  -0.1500 
 11 O       -0.2440    -4.5400     1.4510 O.2   1 <1>  -0.5700 
 12 C       -1.3880    -6.0460     0.1030 C.ar  1 <1>   0.0860 
 13 C       -4.8190    -1.1180     0.2470 C.ar  1 <1>   0.0830 
 14 C       -0.9460    -7.2310     0.6900 C.ar  1 <1>  -0.1500 
 15 C       -2.5100    -6.1190    -0.7240 C.ar  1 <1>  -0.1500 
 16 O       -6.1490    -1.1060     0.4890 O.3   1 <1>  -0.3620 
 17 C       -1.5780    -8.4370     0.4470 C.ar  1 <1>  -0.1500 
 18 C       -3.1450    -7.3230    -0.9700 C.ar  1 <1>  -0.1500 
 19 C       -7.0240    -0.2560    -0.2170 C.3   1 <1>   0.1200 
 20 C       -2.6810    -8.4920    -0.3900 C.ar  1 <1>  -0.1430 
 21 C       -8.4380    -0.4710     0.3220 C.3   1 <1>  -0.1600 
 22 C       -3.3770    -9.8160    -0.6590 C.3   1 <1>  -0.0170 
 23 C       -9.4520     0.4250    -0.4010 C.3   1 <1>  -0.1600 
 24 C       -4.4830   -10.0610     0.3700 C.3   1 <1>  -0.2400 
 25 C      -10.8660     0.2060     0.1440 C.3   1 <1>  -0.2400 
 26 H        1.0620    -2.4780    -0.5580 H     1 <1>   0.3700 
 27 H       -0.8430    -4.1610    -1.6050 H     1 <1>   0.3700 
 28 H       -2.3570     0.1650    -1.6770 H     1 <1>   0.1500 
 29 H       -2.0860    -2.6490     1.4990 H     1 <1>   0.1500 
 30 H       -4.7680     0.3060    -1.3680 H     1 <1>   0.1500 
 31 H       -4.5190    -2.5260     1.8130 H     1 <1>   0.1500 
 32 H       -0.0940    -7.2000     1.3470 H     1 <1>   0.1500 
 33 H       -2.9010    -5.2240    -1.1740 H     1 <1>   0.1500 
 34 H       -1.2110    -9.3340     0.9140 H     1 <1>   0.1500 
 35 H       -4.0080    -7.3500    -1.6130 H     1 <1>   0.1500 
 36 H       -6.9730    -0.5080    -1.2620 H     1 <1>   0.0800 
 37 H       -6.7090     0.7610    -0.0610 H     1 <1>   0.0800 
 38 H       -8.4490    -0.2480     1.3750 H     1 <1>   0.0800 
 39 H       -8.7120    -1.5030     0.1860 H     1 <1>   0.0800 
 40 H       -2.6610   -10.6190    -0.6160 H     1 <1>   0.0800 
 41 H       -3.8000    -9.8110    -1.6490 H     1 <1>   0.0800 
 42 H       -9.4420     0.2080    -1.4550 H     1 <1>   0.0800 
 43 H       -9.1800     1.4590    -0.2690 H     1 <1>   0.0800 
 44 H       -4.0670   -10.0850     1.3620 H     1 <1>   0.0800 
 45 H       -4.9700   -10.9990     0.1750 H     1 <1>   0.0800 
 46 H       -5.2140    -9.2730     0.3230 H     1 <1>   0.0800 
 47 H      -11.1680    -0.8170     0.0040 H     1 <1>   0.0800 
 48 H      -11.5620     0.8420    -0.3730 H     1 <1>   0.0800 
 49 H      -10.9050     0.4390     1.1940 H     1 <1>   0.0800 
@<TRIPOS>BOND
  1   1   2  2   
  2   2   3  am  
  3   2   4  1   
  4   3   5  1   
  5   3  26  1   
  6   4   6  ar  
  7   4   7  ar  
  8   5   8  am  
  9   5  27  1   
 10   6   9  ar  
 11   6  28  1   
 12   7  10  ar  
 13   7  29  1   
 14   8  11  2   
 15   8  12  1   
 16   9  13  ar  
 17   9  30  1   
 18  10  13  ar  
 19  10  31  1   
 20  12  14  ar  
 21  12  15  ar  
 22  13  16  1   
 23  14  17  ar  
 24  14  32  1   
 25  15  18  ar  
 26  15  33  1   
 27  16  19  1   
 28  17  20  ar  
 29  17  34  1   
 30  18  20  ar  
 31  18  35  1   
 32  19  21  1   
 33  19  36  1   
 34  19  37  1   
 35  20  22  1   
 36  21  23  1   
 37  21  38  1   
 38  21  39  1   
 39  22  24  1   
 40  22  40  1   
 41  22  41  1   
 42  23  25  1   
 43  23  42  1   
 44  23  43  1   
 45  24  44  1   
 46  24  45  1   
 47  24  46  1   
 48  25  47  1   
 49  25  48  1   
 50  25  49  1   
@<TRIPOS>SUBSTRUCTURE
  1 ****   7 GROUP 4 **** **** 0

# MOE 2024.06 (io_trps.svl 2023.06)
