@<TRIPOS>MOLECULE
NONAME
38 39 1 0 0 
SMALL
USER_CHARGES


@<TRIPOS>ATOM
  1 P        1.3230     0.7520    -0.0080 P.3   1 <1>   0.9000 
  2 O        0.6070     0.2210    -1.2050 O.co2 1 <1>  -0.9500 
  3 O        2.7380     1.2110    -0.1800 O.co2 1 <1>  -0.9500 
  4 C        1.5590    -0.6620     1.0880 C.3   1 <1>   0.3430 
  5 C        0.3140     1.9260     0.9470 C.3   1 <1>   0.1400 
  6 N        2.7690    -1.4180     0.6160 N.4   1 <1>  -0.9590 
  7 N       -0.0250     3.2360     0.3080 N.am  1 <1>  -0.6600 
  8 C        2.4540    -2.1910    -0.6170 C.3   1 <1>   0.3430 
  9 C        3.5010    -2.1580     1.6660 C.3   1 <1>   0.3430 
 10 C       -0.9100     4.1300     0.7860 C.2   1 <1>   0.5690 
 11 C        0.4970     3.5870    -1.0250 C.3   1 <1>   0.1400 
 12 C        3.7440    -2.7690    -1.2020 C.3   1 <1>  -0.1600 
 13 C        4.7970    -2.7270     1.0850 C.3   1 <1>  -0.1600 
 14 O       -1.4940     4.0470     1.8400 O.2   1 <1>  -0.5700 
 15 C       -1.0960     5.2650    -0.1820 C.3   1 <1>  -0.0990 
 16 C       -0.0210     5.0140    -1.2570 C.3   1 <1>  -0.1600 
 17 C        4.5380    -3.5780    -0.1660 C.3   1 <1>  -0.1600 
 18 H        0.7040    -1.3130     1.1150 H     1 <1>   0.0800 
 19 H        1.7570    -0.3220     2.0880 H     1 <1>   0.0800 
 20 H        0.8060     2.1670     1.8700 H     1 <1>   0.0800 
 21 H       -0.6230     1.4730     1.2120 H     1 <1>   0.0800 
 22 H        3.3460    -0.6110     0.2650 H     1 <1>   0.4500 
 23 H        1.9900    -1.5480    -1.3500 H     1 <1>   0.0800 
 24 H        1.7690    -2.9880    -0.3840 H     1 <1>   0.0800 
 25 H        2.8860    -2.9630     2.0340 H     1 <1>   0.0800 
 26 H        3.7330    -1.4980     2.4860 H     1 <1>   0.0800 
 27 H        0.1030     2.9020    -1.7580 H     1 <1>   0.0800 
 28 H        1.5750     3.5490    -1.0360 H     1 <1>   0.0800 
 29 H        4.3450    -1.9570    -1.5750 H     1 <1>   0.0800 
 30 H        3.4960    -3.3950    -2.0410 H     1 <1>   0.0800 
 31 H        5.2850    -3.3270     1.8330 H     1 <1>   0.0800 
 32 H        5.4570    -1.9130     0.8410 H     1 <1>   0.0800 
 33 H       -0.9550     6.2080     0.3140 H     1 <1>   0.0800 
 34 H       -2.0840     5.2070    -0.5990 H     1 <1>   0.0800 
 35 H       -0.4130     5.1250    -2.2520 H     1 <1>   0.0800 
 36 H        0.7940     5.7030    -1.1260 H     1 <1>   0.0800 
 37 H        5.4750    -3.8940    -0.5930 H     1 <1>   0.0800 
 38 H        3.9820    -4.4600     0.1040 H     1 <1>   0.0800 
@<TRIPOS>BOND
  1   1   2  ar  
  2   1   3  ar  
  3   1   4  1   
  4   1   5  1   
  5   4   6  1   
  6   4  18  1   
  7   4  19  1   
  8   5   7  1   
  9   5  20  1   
 10   5  21  1   
 11   6   8  1   
 12   6   9  1   
 13   6  22  1   
 14   7  10  am  
 15   7  11  1   
 16   8  12  1   
 17   8  23  1   
 18   8  24  1   
 19   9  13  1   
 20   9  25  1   
 21   9  26  1   
 22  10  14  2   
 23  10  15  1   
 24  11  16  1   
 25  11  27  1   
 26  11  28  1   
 27  12  17  1   
 28  12  29  1   
 29  12  30  1   
 30  13  17  1   
 31  13  31  1   
 32  13  32  1   
 33  15  16  1   
 34  15  33  1   
 35  15  34  1   
 36  16  35  1   
 37  16  36  1   
 38  17  37  1   
 39  17  38  1   
@<TRIPOS>SUBSTRUCTURE
  1 ****   1 GROUP 4 **** **** 0

# MOE 2024.06 (io_trps.svl 2023.06)
