@<TRIPOS>MOLECULE
NONAME
36 35 1 0 0 
SMALL
USER_CHARGES


@<TRIPOS>ATOM
  1 P        0.0850    -0.2670     0.2250 P.3   1 <1>   1.2420 
  2 O       -0.1790     0.6240     1.3540 O.2   1 <1>  -0.7000 
  3 O       -1.1100    -0.2790    -0.8470 O.3   1 <1>  -0.5510 
  4 O        0.2300    -1.8100     0.6450 O.3   1 <1>  -0.5510 
  5 C        1.5550     0.1020    -0.7470 C.3   1 <1>   0.1400 
  6 C       -2.3790     0.1280    -0.4760 C.3   1 <1>   0.1200 
  7 C       -0.7280    -2.4130     1.4350 C.3   1 <1>   0.1200 
  8 N        2.8990    -0.0030    -0.0600 N.am  1 <1>  -0.6600 
  9 C       -3.2960    -0.0550    -1.6790 C.3   1 <1>  -0.2400 
 10 C       -0.2550    -3.8310     1.7340 C.3   1 <1>  -0.2400 
 11 C        3.4820     1.0220     0.6400 C.2   1 <1>   0.5690 
 12 C        3.5120    -1.3600    -0.0500 C.3   1 <1>   0.2780 
 13 O        4.5230     0.8860     1.2350 O.2   1 <1>  -0.5700 
 14 C        2.8340     2.3870     0.6930 C.3   1 <1>  -0.1790 
 15 C        4.0890    -1.6660    -1.4210 C.2   1 <1>  -0.2880 
 16 C        5.3940    -1.7600    -1.6950 C.2   1 <1>  -0.3000 
 17 H        1.4680     1.0900    -1.1540 H     1 <1>   0.0800 
 18 H        1.5760    -0.5500    -1.5980 H     1 <1>   0.0800 
 19 H       -2.3360     1.1630    -0.1780 H     1 <1>   0.0800 
 20 H       -2.7110    -0.4710     0.3550 H     1 <1>   0.0800 
 21 H       -1.6610    -2.4280     0.8980 H     1 <1>   0.0800 
 22 H       -0.8350    -1.8440     2.3450 H     1 <1>   0.0800 
 23 H       -2.9530     0.5450    -2.5030 H     1 <1>   0.0800 
 24 H       -4.2940     0.2530    -1.4250 H     1 <1>   0.0800 
 25 H       -3.3210    -1.0890    -1.9730 H     1 <1>   0.0800 
 26 H       -0.1400    -4.3840     0.8190 H     1 <1>   0.0800 
 27 H       -0.9800    -4.3330     2.3490 H     1 <1>   0.0800 
 28 H        0.6810    -3.8050     2.2610 H     1 <1>   0.0800 
 29 H        2.7740    -2.0970     0.2150 H     1 <1>   0.0800 
 30 H        4.2960    -1.4110     0.6860 H     1 <1>   0.0800 
 31 H        2.7580     2.7980    -0.2950 H     1 <1>   0.0800 
 32 H        3.4360     3.0460     1.2910 H     1 <1>   0.0800 
 33 H        1.8620     2.3180     1.1410 H     1 <1>   0.0800 
 34 H        3.3340    -1.8050    -2.1730 H     1 <1>   0.1500 
 35 H        5.7920    -1.9790    -2.6710 H     1 <1>   0.1500 
 36 H        6.1740    -1.6190    -0.9650 H     1 <1>   0.1500 
@<TRIPOS>BOND
  1   1   2  2   
  2   1   3  1   
  3   1   4  1   
  4   1   5  1   
  5   3   6  1   
  6   4   7  1   
  7   5   8  1   
  8   5  17  1   
  9   5  18  1   
 10   6   9  1   
 11   6  19  1   
 12   6  20  1   
 13   7  10  1   
 14   7  21  1   
 15   7  22  1   
 16   8  11  am  
 17   8  12  1   
 18   9  23  1   
 19   9  24  1   
 20   9  25  1   
 21  10  26  1   
 22  10  27  1   
 23  10  28  1   
 24  11  13  2   
 25  11  14  1   
 26  12  15  1   
 27  12  29  1   
 28  12  30  1   
 29  14  31  1   
 30  14  32  1   
 31  14  33  1   
 32  15  16  2   
 33  15  34  1   
 34  16  35  1   
 35  16  36  1   
@<TRIPOS>SUBSTRUCTURE
  1 ****   5 GROUP 4 **** **** 0

# MOE 2024.06 (io_trps.svl 2023.06)
