@<TRIPOS>MOLECULE
NONAME
29 29 1 0 0 
SMALL
USER_CHARGES


@<TRIPOS>ATOM
  1 BR       0.2580    -0.1470     1.5850 Br    1 <1>  -0.1110 
  2 C       -1.4090    -1.0460     1.2330 C.ar  1 <1>   0.1110 
  3 C       -1.4570    -2.2080     0.4730 C.ar  1 <1>  -0.0090 
  4 C       -2.5350    -0.4620     1.7800 C.ar  1 <1>  -0.1500 
  5 S        0.0140    -2.9810    -0.2490 S.o2  1 <1>   1.2040 
  6 C       -2.7180    -2.7660     0.2800 C.ar  1 <1>  -0.1500 
  7 C       -3.7670    -1.0500     1.5630 C.ar  1 <1>  -0.1500 
  8 O       -0.4010    -4.1590    -0.9760 O.2   1 <1>  -0.6500 
  9 O        1.0560    -3.1040     0.7430 O.2   1 <1>  -0.6500 
 10 C        0.5570    -1.8090    -1.4800 C.3   1 <1>  -0.1350 
 11 C       -3.8820    -2.2100     0.8060 C.ar  1 <1>  -0.0090 
 12 S       -5.5050    -2.9830     0.5360 S.o2  1 <1>   1.4470 
 13 O       -5.4450    -3.8710    -0.6050 O.2   1 <1>  -0.6500 
 14 O       -6.0000    -3.4780     1.8020 O.2   1 <1>  -0.6500 
 15 N       -6.4890    -1.6700     0.0870 N.am  1 <1>  -0.8490 
 16 C       -7.9140    -1.9630     0.2720 C.3   1 <1>   0.1160 
 17 C       -6.2490    -1.2150    -1.2870 C.3   1 <1>   0.1160 
 18 H       -2.4500     0.4360     2.3670 H     1 <1>   0.1500 
 19 H       -2.8030    -3.6730    -0.3000 H     1 <1>   0.1500 
 20 H       -4.6550    -0.6080     1.9870 H     1 <1>   0.1500 
 21 H       -0.2260    -1.6200    -2.1880 H     1 <1>   0.0800 
 22 H        1.4010    -2.2070    -2.0090 H     1 <1>   0.0800 
 23 H        0.8510    -0.8830    -1.0310 H     1 <1>   0.0800 
 24 H       -8.1120    -2.1930     1.3060 H     1 <1>   0.0800 
 25 H       -8.2050    -2.8070    -0.3320 H     1 <1>   0.0800 
 26 H       -8.5090    -1.1090    -0.0010 H     1 <1>   0.0800 
 27 H       -5.2090    -0.9680    -1.4190 H     1 <1>   0.0800 
 28 H       -6.8350    -0.3350    -1.4910 H     1 <1>   0.0800 
 29 H       -6.5150    -1.9850    -1.9930 H     1 <1>   0.0800 
@<TRIPOS>BOND
  1   1   2  1   
  2   2   3  ar  
  3   2   4  ar  
  4   3   5  1   
  5   3   6  ar  
  6   4   7  ar  
  7   4  18  1   
  8   5   8  2   
  9   5   9  2   
 10   5  10  1   
 11   6  11  ar  
 12   6  19  1   
 13   7  11  ar  
 14   7  20  1   
 15  10  21  1   
 16  10  22  1   
 17  10  23  1   
 18  11  12  1   
 19  12  13  2   
 20  12  14  2   
 21  12  15  am  
 22  15  16  1   
 23  15  17  1   
 24  16  24  1   
 25  16  25  1   
 26  16  26  1   
 27  17  27  1   
 28  17  28  1   
 29  17  29  1   
@<TRIPOS>SUBSTRUCTURE
  1 ****   6 GROUP 4 **** **** 0

# MOE 2024.06 (io_trps.svl 2023.06)
