@<TRIPOS>MOLECULE
NONAME
34 37 1 0 0 
SMALL
USER_CHARGES


@<TRIPOS>ATOM
  1 S       -0.1150    -0.1490     0.1260 S.3   1 <1>  -0.0800 
  2 C       -1.1060     1.2940     0.0460 C.2   1 <1>   0.1660 
  3 C        1.3540     0.8170     0.0690 C.2   1 <1>  -0.1400 
  4 N       -2.4460     1.2390     0.0480 N.2   1 <1>  -0.5760 
  5 C       -0.3290     2.4220    -0.0190 C.2   1 <1>  -0.0370 
  6 C        1.0830     2.1300     0.0070 C.2   1 <1>  -0.1810 
  7 C        2.7050     0.1340     0.0950 C.3   1 <1>   0.0200 
  8 C       -3.0540     2.3890    -0.0210 C.2   1 <1>   1.0190 
  9 C       -1.0570     3.6160    -0.0980 C.cat 1 <1>   0.8370 
 10 C        2.2080     3.1580    -0.0340 C.3   1 <1>   0.0210 
 11 C        3.7910     1.1560    -0.2850 C.3   1 <1>  -0.1600 
 12 O       -4.3830     2.4570    -0.0240 O.3   1 <1>  -0.4300 
 13 N       -2.3900     3.5990    -0.0970 N.pl3 1 <1>  -0.3620 
 14 N       -0.6910     4.8940    -0.1880 N.pl3 1 <1>  -0.7000 
 15 C        3.5520     2.5260     0.3810 C.3   1 <1>  -0.1600 
 16 C       -5.2080     1.3120     0.0470 C.3   1 <1>   0.1200 
 17 N       -2.8810     4.8820    -0.1840 N.2   1 <1>  -0.2600 
 18 C       -1.8370     5.6230    -0.2370 C.2   1 <1>   0.5030 
 19 C       -6.6600     1.7780     0.0190 C.3   1 <1>  -0.2400 
 20 H        2.7200    -0.6910    -0.5950 H     1 <1>   0.0800 
 21 H        2.8840    -0.2470     1.0860 H     1 <1>   0.0800 
 22 H        1.9960     3.9730     0.6340 H     1 <1>   0.0800 
 23 H        2.2930     3.5430    -1.0360 H     1 <1>   0.0800 
 24 H        3.7900     1.2830    -1.3540 H     1 <1>   0.0800 
 25 H        4.7560     0.7710    -0.0020 H     1 <1>   0.0800 
 26 H        0.2640     5.2480    -0.2200 H     1 <1>   0.4500 
 27 H        3.5620     2.3940     1.4500 H     1 <1>   0.0800 
 28 H        4.3570     3.1950     0.1280 H     1 <1>   0.0800 
 29 H       -4.9940     0.7850     0.9620 H     1 <1>   0.0800 
 30 H       -4.9950     0.6770    -0.7980 H     1 <1>   0.0800 
 31 H       -1.8510     6.7020    -0.3120 H     1 <1>   0.1500 
 32 H       -6.8640     2.4160     0.8610 H     1 <1>   0.0800 
 33 H       -7.3140     0.9260     0.0720 H     1 <1>   0.0800 
 34 H       -6.8660     2.3080    -0.8930 H     1 <1>   0.0800 
@<TRIPOS>BOND
  1   1   2  1   
  2   1   3  1   
  3   2   4  1   
  4   2   5  2   
  5   3   6  2   
  6   3   7  1   
  7   4   8  2   
  8   5   6  1   
  9   5   9  1   
 10   6  10  1   
 11   7  11  1   
 12   7  20  1   
 13   7  21  1   
 14   8  12  1   
 15   8  13  1   
 16   9  13  ar  
 17   9  14  ar  
 18  10  15  1   
 19  10  22  1   
 20  10  23  1   
 21  11  15  1   
 22  11  24  1   
 23  11  25  1   
 24  12  16  1   
 25  13  17  1   
 26  14  18  1   
 27  14  26  1   
 28  15  27  1   
 29  15  28  1   
 30  16  19  1   
 31  16  29  1   
 32  16  30  1   
 33  17  18  2   
 34  18  31  1   
 35  19  32  1   
 36  19  33  1   
 37  19  34  1   
@<TRIPOS>SUBSTRUCTURE
  1 ****   5 GROUP 4 **** **** 0

# MOE 2024.06 (io_trps.svl 2023.06)
