@<TRIPOS>MOLECULE
NONAME
41 42 1 0 0 
SMALL
USER_CHARGES


@<TRIPOS>ATOM
  1 O       -0.0330    -1.4580    -0.0690 O.3   1 <1>  -0.3630 
  2 C       -1.3110    -1.2640     0.3550 C.ar  1 <1>   0.0830 
  3 C        1.0710    -0.9660     0.6550 C.3   1 <1>   0.1200 
  4 C       -2.3360    -1.7880    -0.4280 C.ar  1 <1>  -0.1440 
  5 C       -1.6230    -0.5710     1.5240 C.ar  1 <1>  -0.1500 
  6 C        2.3430    -1.3590    -0.0960 C.3   1 <1>  -0.1600 
  7 C       -3.6550    -1.6150    -0.0370 C.ar  1 <1>  -0.1500 
  8 C       -2.0200    -2.5470    -1.7080 C.3   1 <1>  -0.0970 
  9 C       -2.9430    -0.4050     1.9040 C.ar  1 <1>  -0.1500 
 10 C        3.5980    -0.8590     0.6310 C.3   1 <1>  -0.1600 
 11 C       -3.9590    -0.9270     1.1240 C.ar  1 <1>  -0.1500 
 12 C        4.8700    -1.2550    -0.1300 C.3   1 <1>  -0.1600 
 13 C        6.1260    -0.7540     0.5950 C.3   1 <1>  -0.1600 
 14 C        7.3990    -1.1430    -0.1680 C.3   1 <1>   0.0960 
 15 N        8.5950    -0.6520     0.5430 N.pl3 1 <1>   0.0480 
 16 C        9.3870    -1.3310     1.4030 C.2   1 <1>   0.0360 
 17 C        9.1400     0.5760     0.4760 C.2   1 <1>  -0.3020 
 18 N       10.3710    -0.6360     1.8740 N.2   1 <1>  -0.5650 
 19 C       10.2170     0.5670     1.2910 C.2   1 <1>   0.0770 
 20 H        1.0550    -1.4070     1.6370 H     1 <1>   0.0800 
 21 H        0.9820     0.1040     0.7220 H     1 <1>   0.0800 
 22 H       -0.8580    -0.1550     2.1490 H     1 <1>   0.1500 
 23 H        2.3070    -0.9360    -1.0850 H     1 <1>   0.0800 
 24 H        2.3790    -2.4320    -0.1810 H     1 <1>   0.0800 
 25 H       -4.4540    -2.0160    -0.6350 H     1 <1>   0.1500 
 26 H       -1.4090    -3.4020    -1.4810 H     1 <1>   0.0800 
 27 H       -1.4820    -1.9090    -2.3850 H     1 <1>   0.0800 
 28 H       -2.9180    -2.8850    -2.1930 H     1 <1>   0.0800 
 29 H       -3.1800     0.1300     2.8070 H     1 <1>   0.1500 
 30 H        3.6280    -1.2800     1.6220 H     1 <1>   0.0800 
 31 H        3.5550     0.2130     0.7230 H     1 <1>   0.0800 
 32 H       -4.9850    -0.7980     1.4200 H     1 <1>   0.1500 
 33 H        4.8350    -0.8360    -1.1220 H     1 <1>   0.0800 
 34 H        4.9100    -2.3280    -0.2220 H     1 <1>   0.0800 
 35 H        6.1610    -1.1790     1.5840 H     1 <1>   0.0800 
 36 H        6.0810     0.3180     0.6850 H     1 <1>   0.0800 
 37 H        7.3870    -0.7150    -1.1540 H     1 <1>   0.0800 
 38 H        7.4660    -2.2130    -0.2590 H     1 <1>   0.0800 
 39 H        9.1990    -2.3580     1.6620 H     1 <1>   0.1500 
 40 H        8.7450     1.3700    -0.1310 H     1 <1>   0.1500 
 41 H       10.9010     1.3750     1.4910 H     1 <1>   0.1500 
@<TRIPOS>BOND
  1   1   2  1   
  2   1   3  1   
  3   2   4  ar  
  4   2   5  ar  
  5   3   6  1   
  6   3  20  1   
  7   3  21  1   
  8   4   7  ar  
  9   4   8  1   
 10   5   9  ar  
 11   5  22  1   
 12   6  10  1   
 13   6  23  1   
 14   6  24  1   
 15   7  11  ar  
 16   7  25  1   
 17   8  26  1   
 18   8  27  1   
 19   8  28  1   
 20   9  11  ar  
 21   9  29  1   
 22  10  12  1   
 23  10  30  1   
 24  10  31  1   
 25  11  32  1   
 26  12  13  1   
 27  12  33  1   
 28  12  34  1   
 29  13  14  1   
 30  13  35  1   
 31  13  36  1   
 32  14  15  1   
 33  14  37  1   
 34  14  38  1   
 35  15  16  1   
 36  15  17  1   
 37  16  18  2   
 38  16  39  1   
 39  17  19  2   
 40  17  40  1   
 41  18  19  1   
 42  19  41  1   
@<TRIPOS>SUBSTRUCTURE
  1 ****  10 GROUP 4 **** **** 0

# MOE 2024.06 (io_trps.svl 2023.06)
