@<TRIPOS>MOLECULE
NONAME
42 43 1 0 0 
SMALL
USER_CHARGES


@<TRIPOS>ATOM
  1 O       -0.8330    -2.1400    -0.7350 O.3   1 <1>  -0.5600 
  2 C       -1.1940    -2.8240     0.4350 C.3   1 <1>   0.1200 
  3 C       -0.9150    -0.7440    -0.6320 C.3   1 <1>   0.1200 
  4 C       -2.6510    -2.5020     0.8410 C.3   1 <1>   0.3430 
  5 C       -2.3310    -0.2920    -0.2020 C.3   1 <1>   0.3430 
  6 N       -3.2620    -1.4630    -0.0610 N.4   1 <1>  -0.9590 
  7 C       -4.6400    -1.0500     0.3200 C.3   1 <1>   0.3430 
  8 C       -5.6280    -2.1970     0.0970 C.3   1 <1>  -0.1600 
  9 C       -7.0600    -1.7310     0.3940 C.3   1 <1>  -0.1600 
 10 C       -8.0830    -2.8470     0.1710 C.3   1 <1>   0.1200 
 11 O       -9.3510    -2.3230     0.4800 O.3   1 <1>  -0.3630 
 12 C      -10.4720    -3.0800     0.3830 C.ar  1 <1>   0.0820 
 13 C      -10.4790    -4.4100    -0.0310 C.ar  1 <1>  -0.1500 
 14 C      -11.6670    -2.4670     0.7230 C.ar  1 <1>  -0.1500 
 15 C      -11.6700    -5.1150    -0.1040 C.ar  1 <1>  -0.1430 
 16 C      -12.8570    -3.1670     0.6530 C.ar  1 <1>  -0.1500 
 17 C      -12.8570    -4.4890     0.2410 C.ar  1 <1>  -0.1500 
 18 C      -11.6770    -6.5650    -0.5530 C.3   1 <1>  -0.0970 
 19 H       -0.5090    -2.5510     1.2190 H     1 <1>   0.0800 
 20 H       -1.0860    -3.8780     0.2460 H     1 <1>   0.0800 
 21 H       -0.6710    -0.3310    -1.5950 H     1 <1>   0.0800 
 22 H       -0.1760    -0.4050     0.0740 H     1 <1>   0.0800 
 23 H       -2.6610    -2.1570     1.8620 H     1 <1>   0.0800 
 24 H       -3.2300    -3.4100     0.8010 H     1 <1>   0.0800 
 25 H       -2.7140     0.4010    -0.9330 H     1 <1>   0.0800 
 26 H       -2.2590     0.2350     0.7360 H     1 <1>   0.0800 
 27 H       -3.2790    -1.8970    -0.9970 H     1 <1>   0.4500 
 28 H       -4.9440    -0.2120    -0.2860 H     1 <1>   0.0800 
 29 H       -4.6620    -0.7420     1.3530 H     1 <1>   0.0800 
 30 H       -5.3940    -3.0230     0.7450 H     1 <1>   0.0800 
 31 H       -5.5740    -2.5270    -0.9270 H     1 <1>   0.0800 
 32 H       -7.3150    -0.9040    -0.2480 H     1 <1>   0.0800 
 33 H       -7.1310    -1.4040     1.4180 H     1 <1>   0.0800 
 34 H       -7.8960    -3.6820     0.8240 H     1 <1>   0.0800 
 35 H       -8.0920    -3.1660    -0.8570 H     1 <1>   0.0800 
 36 H       -9.5690    -4.9110    -0.2990 H     1 <1>   0.1500 
 37 H      -11.6570    -1.4400     1.0410 H     1 <1>   0.1500 
 38 H      -13.7810    -2.6850     0.9190 H     1 <1>   0.1500 
 39 H      -13.7880    -5.0270     0.1920 H     1 <1>   0.1500 
 40 H      -10.8870    -6.7450    -1.2590 H     1 <1>   0.0800 
 41 H      -12.6130    -6.8080    -1.0240 H     1 <1>   0.0800 
 42 H      -11.5380    -7.2090     0.2970 H     1 <1>   0.0800 
@<TRIPOS>BOND
  1   1   2  1   
  2   1   3  1   
  3   2   4  1   
  4   2  19  1   
  5   2  20  1   
  6   3   5  1   
  7   3  21  1   
  8   3  22  1   
  9   4   6  1   
 10   4  23  1   
 11   4  24  1   
 12   5   6  1   
 13   5  25  1   
 14   5  26  1   
 15   6   7  1   
 16   6  27  1   
 17   7   8  1   
 18   7  28  1   
 19   7  29  1   
 20   8   9  1   
 21   8  30  1   
 22   8  31  1   
 23   9  10  1   
 24   9  32  1   
 25   9  33  1   
 26  10  11  1   
 27  10  34  1   
 28  10  35  1   
 29  11  12  1   
 30  12  13  ar  
 31  12  14  ar  
 32  13  15  ar  
 33  13  36  1   
 34  14  16  ar  
 35  14  37  1   
 36  15  17  ar  
 37  15  18  1   
 38  16  17  ar  
 39  16  38  1   
 40  17  39  1   
 41  18  40  1   
 42  18  41  1   
 43  18  42  1   
@<TRIPOS>SUBSTRUCTURE
  1 ****  10 GROUP 4 **** **** 0

# MOE 2024.06 (io_trps.svl 2023.06)
