@<TRIPOS>MOLECULE
NONAME
49 51 1 0 0 
SMALL
USER_CHARGES


@<TRIPOS>ATOM
  1 O        0.2730    -1.1640     0.6060 O.3   1 <1>  -0.3630 
  2 C       -1.0180    -1.5320     0.7980 C.ar  1 <1>   0.0830 
  3 C        0.6510    -0.7300    -0.6870 C.3   1 <1>   0.2640 
  4 C       -1.6730    -2.4950     0.0240 C.ar  1 <1>   0.0830 
  5 C       -1.7030    -0.9040     1.8230 C.ar  1 <1>  -0.1500 
  6 C        1.9140     0.1120    -0.5810 C.ar  1 <1>  -0.1440 
  7 O       -1.0580    -3.1900    -0.9600 O.3   1 <1>  -0.3630 
  8 C       -3.0090    -2.7740     0.2570 C.ar  1 <1>  -0.1500 
  9 C       -3.0360    -1.1950     2.0600 C.ar  1 <1>  -0.1500 
 10 C        1.9610     1.3800    -1.1420 C.ar  1 <1>  -0.1500 
 11 C        3.0350    -0.3830     0.0690 C.ar  1 <1>  -0.1500 
 12 C       -0.1090    -4.1490    -0.5420 C.3   1 <1>   0.0400 
 13 C       -3.7010    -2.1230     1.2690 C.ar  1 <1>  -0.1430 
 14 C        3.1140     2.1420    -1.0550 C.ar  1 <1>  -0.1500 
 15 C        4.1880     0.3780     0.1570 C.ar  1 <1>  -0.1500 
 16 C       -5.1690    -2.4230     1.5050 C.3   1 <1>   0.4860 
 17 C        4.2280     1.6410    -0.4050 C.ar  1 <1>  -0.1500 
 18 N       -5.9580    -1.8350     0.3890 N.4   1 <1>  -0.9590 
 19 C       -5.8490    -0.3450     0.3600 C.3   1 <1>   0.3430 
 20 C       -7.3750    -2.2950     0.4190 C.3   1 <1>   0.3430 
 21 C       -6.5540     0.1970    -0.8840 C.3   1 <1>  -0.1600 
 22 C       -8.1070    -1.7880    -0.8250 C.3   1 <1>  -0.1600 
 23 C       -8.0160    -0.2620    -0.9570 C.3   1 <1>  -0.1600 
 24 H       -0.1570    -0.1570    -1.1040 H     1 <1>   0.0800 
 25 H        0.8360    -1.5920    -1.3010 H     1 <1>   0.0800 
 26 H       -1.1830    -0.1830     2.4300 H     1 <1>   0.1500 
 27 H       -3.4840    -3.5130    -0.3640 H     1 <1>   0.1500 
 28 H       -3.5400    -0.6870     2.8660 H     1 <1>   0.1500 
 29 H        1.1020     1.7820    -1.6500 H     1 <1>   0.1500 
 30 H        3.0090    -1.3630     0.5130 H     1 <1>   0.1500 
 31 H        0.2940    -4.6290    -1.4160 H     1 <1>   0.0800 
 32 H       -0.6000    -4.8740     0.0830 H     1 <1>   0.0800 
 33 H        0.6780    -3.6600     0.0040 H     1 <1>   0.0800 
 34 H        3.1430     3.1250    -1.4910 H     1 <1>   0.1500 
 35 H        5.0520    -0.0130     0.6650 H     1 <1>   0.1500 
 36 H       -5.4850    -2.0070     2.4470 H     1 <1>   0.0800 
 37 H       -5.3100    -3.4910     1.5370 H     1 <1>   0.0800 
 38 H        5.1240     2.2330    -0.3370 H     1 <1>   0.1500 
 39 H       -5.5320    -2.1720    -0.4820 H     1 <1>   0.4500 
 40 H       -4.8120    -0.0480     0.3390 H     1 <1>   0.0800 
 41 H       -6.3040     0.0730     1.2430 H     1 <1>   0.0800 
 42 H       -7.8650    -1.9150     1.3010 H     1 <1>   0.0800 
 43 H       -7.4170    -3.3730     0.4440 H     1 <1>   0.0800 
 44 H       -6.0220    -0.1240    -1.7630 H     1 <1>   0.0800 
 45 H       -6.5190     1.2730    -0.8660 H     1 <1>   0.0800 
 46 H       -9.1420    -2.0780    -0.7680 H     1 <1>   0.0800 
 47 H       -7.6920    -2.2580    -1.7010 H     1 <1>   0.0800 
 48 H       -8.4510     0.0510    -1.8920 H     1 <1>   0.0800 
 49 H       -8.5780     0.2020    -0.1640 H     1 <1>   0.0800 
@<TRIPOS>BOND
  1   1   2  1   
  2   1   3  1   
  3   2   4  ar  
  4   2   5  ar  
  5   3   6  1   
  6   3  24  1   
  7   3  25  1   
  8   4   7  1   
  9   4   8  ar  
 10   5   9  ar  
 11   5  26  1   
 12   6  10  ar  
 13   6  11  ar  
 14   7  12  1   
 15   8  13  ar  
 16   8  27  1   
 17   9  13  ar  
 18   9  28  1   
 19  10  14  ar  
 20  10  29  1   
 21  11  15  ar  
 22  11  30  1   
 23  12  31  1   
 24  12  32  1   
 25  12  33  1   
 26  13  16  1   
 27  14  17  ar  
 28  14  34  1   
 29  15  17  ar  
 30  15  35  1   
 31  16  18  1   
 32  16  36  1   
 33  16  37  1   
 34  17  38  1   
 35  18  19  1   
 36  18  20  1   
 37  18  39  1   
 38  19  21  1   
 39  19  40  1   
 40  19  41  1   
 41  20  22  1   
 42  20  42  1   
 43  20  43  1   
 44  21  23  1   
 45  21  44  1   
 46  21  45  1   
 47  22  23  1   
 48  22  46  1   
 49  22  47  1   
 50  23  48  1   
 51  23  49  1   
@<TRIPOS>SUBSTRUCTURE
  1 ****   2 GROUP 4 **** **** 0

# MOE 2024.06 (io_trps.svl 2023.06)
