@<TRIPOS>MOLECULE
NONAME
35 36 1 0 0 
SMALL
USER_CHARGES


@<TRIPOS>ATOM
  1 CL       1.0600     2.3210    -3.2250 Cl    1 <1>  -0.1770 
  2 C        0.3520     2.8230    -1.7120 C.ar  1 <1>   0.1770 
  3 C       -0.9480     3.2860    -1.6940 C.ar  1 <1>  -0.1500 
  4 C        1.1060     2.7460    -0.5570 C.ar  1 <1>  -0.1500 
  5 C       -1.5420     3.6830    -0.4970 C.ar  1 <1>   0.0860 
  6 C        0.5400     3.1490     0.6400 C.ar  1 <1>  -0.1500 
  7 C       -2.9150     4.1570    -0.4700 C.2   1 <1>   0.5440 
  8 C       -0.7640     3.6140     0.6630 C.ar  1 <1>  -0.1500 
  9 O       -3.3350     4.8570    -1.3710 O.2   1 <1>  -0.5700 
 10 N       -3.8020     3.8140     0.5310 N.am  1 <1>  -0.6600 
 11 C       -4.9950     4.6760     0.7830 C.3   1 <1>   0.1400 
 12 C       -3.7620     2.4990     1.2210 C.3   1 <1>   0.1400 
 13 C       -6.0790     4.4510    -0.2880 C.3   1 <1>   0.3430 
 14 C       -5.0670     1.7190     1.0190 C.3   1 <1>  -0.1600 
 15 N       -6.7140     3.0810    -0.2670 N.4   1 <1>  -0.9590 
 16 C       -5.7290     1.9570    -0.3440 C.3   1 <1>   0.3430 
 17 C       -7.6830     2.9790    -1.3990 C.3   1 <1>   0.2630 
 18 H       -1.5020     3.3420    -2.6140 H     1 <1>   0.1500 
 19 H        2.1170     2.3820    -0.5990 H     1 <1>   0.1500 
 20 H        1.1180     3.1050     1.5480 H     1 <1>   0.1500 
 21 H       -1.1880     3.9380     1.5980 H     1 <1>   0.1500 
 22 H       -4.6830     5.7060     0.7360 H     1 <1>   0.0800 
 23 H       -5.3880     4.5000     1.7680 H     1 <1>   0.0800 
 24 H       -3.5760     2.6480     2.2730 H     1 <1>   0.0800 
 25 H       -2.9480     1.9130     0.8260 H     1 <1>   0.0800 
 26 H       -5.6340     4.6270    -1.2540 H     1 <1>   0.0800 
 27 H       -6.8460     5.1950    -0.1500 H     1 <1>   0.0800 
 28 H       -5.7550     1.9320     1.8170 H     1 <1>   0.0800 
 29 H       -4.8240     0.6740     1.0970 H     1 <1>   0.0800 
 30 H       -7.2310     2.9810     0.6160 H     1 <1>   0.4500 
 31 H       -6.2490     1.0560    -0.6260 H     1 <1>   0.0800 
 32 H       -4.9810     2.1610    -1.0940 H     1 <1>   0.0800 
 33 H       -7.1690     3.0800    -2.3410 H     1 <1>   0.0800 
 34 H       -8.4260     3.7580    -1.3280 H     1 <1>   0.0800 
 35 H       -8.1850     2.0250    -1.3790 H     1 <1>   0.0800 
@<TRIPOS>BOND
  1   1   2  1   
  2   2   3  ar  
  3   2   4  ar  
  4   3   5  ar  
  5   3  18  1   
  6   4   6  ar  
  7   4  19  1   
  8   5   7  1   
  9   5   8  ar  
 10   6   8  ar  
 11   6  20  1   
 12   7   9  2   
 13   7  10  am  
 14   8  21  1   
 15  10  11  1   
 16  10  12  1   
 17  11  13  1   
 18  11  22  1   
 19  11  23  1   
 20  12  14  1   
 21  12  24  1   
 22  12  25  1   
 23  13  15  1   
 24  13  26  1   
 25  13  27  1   
 26  14  16  1   
 27  14  28  1   
 28  14  29  1   
 29  15  16  1   
 30  15  17  1   
 31  15  30  1   
 32  16  31  1   
 33  16  32  1   
 34  17  33  1   
 35  17  34  1   
 36  17  35  1   
@<TRIPOS>SUBSTRUCTURE
  1 ****   7 GROUP 4 **** **** 0

# MOE 2024.06 (io_trps.svl 2023.06)
