@<TRIPOS>MOLECULE
NONAME
39 40 1 0 0 
SMALL
USER_CHARGES


@<TRIPOS>ATOM
  1 CL      -1.1230     1.0750     0.2050 Cl    1 <1>  -0.1770 
  2 C       -2.3290    -0.1850     0.2540 C.ar  1 <1>   0.1770 
  3 C       -3.2810    -0.2520    -0.7450 C.ar  1 <1>  -0.1500 
  4 C       -2.3140    -1.0970     1.2930 C.ar  1 <1>  -0.1500 
  5 C       -4.2370    -1.2520    -0.7020 C.ar  1 <1>  -0.1500 
  6 C       -3.2730    -2.0950     1.3310 C.ar  1 <1>  -0.1500 
  7 C       -4.2380    -2.1760     0.3350 C.ar  1 <1>  -0.1430 
  8 C       -5.3040    -3.2670     0.3720 C.3   1 <1>   0.0450 
  9 C       -6.6810    -2.7000     0.6760 C.2   1 <1>   0.4390 
 10 N       -7.6700    -2.9850    -0.0610 N.2   1 <1>  -0.5130 
 11 N       -6.7670    -1.8720     1.7680 N.pl3 1 <1>  -0.8500 
 12 O       -8.8670    -2.4550     0.2560 O.3   1 <1>  -0.0870 
 13 C       -9.9820    -2.6440    -0.4600 C.2   1 <1>   0.6590 
 14 O      -10.0210    -3.2940    -1.4780 O.2   1 <1>  -0.5700 
 15 C      -11.2250    -1.9560     0.1070 C.3   1 <1>  -0.0190 
 16 C      -12.5390    -2.6400    -0.3270 C.3   1 <1>  -0.1600 
 17 C      -11.2490    -0.4610    -0.2720 C.3   1 <1>  -0.1600 
 18 C      -13.7670    -1.9290     0.2590 C.3   1 <1>  -0.1600 
 19 C      -12.4780     0.2510     0.3100 C.3   1 <1>  -0.1600 
 20 C      -13.7770    -0.4420    -0.1190 C.3   1 <1>  -0.1600 
 21 H       -3.2710     0.4680    -1.5430 H     1 <1>   0.1500 
 22 H       -1.5610    -1.0230     2.0560 H     1 <1>   0.1500 
 23 H       -4.9840    -1.3110    -1.4770 H     1 <1>   0.1500 
 24 H       -3.2620    -2.8080     2.1380 H     1 <1>   0.1500 
 25 H       -5.0660    -3.9980     1.1210 H     1 <1>   0.0800 
 26 H       -5.3290    -3.7720    -0.5770 H     1 <1>   0.0800 
 27 H       -7.6160    -1.3100     1.8090 H     1 <1>   0.4000 
 28 H       -5.9130    -1.3630     2.0080 H     1 <1>   0.4000 
 29 H      -11.1620    -2.0290     1.1790 H     1 <1>   0.0800 
 30 H      -12.6080    -2.6330    -1.4020 H     1 <1>   0.0800 
 31 H      -12.5330    -3.6680    -0.0080 H     1 <1>   0.0800 
 32 H      -10.3560     0.0210     0.0870 H     1 <1>   0.0800 
 33 H      -11.2610    -0.3700    -1.3450 H     1 <1>   0.0800 
 34 H      -14.6630    -2.3990    -0.1080 H     1 <1>   0.0800 
 35 H      -13.7600    -2.0250     1.3320 H     1 <1>   0.0800 
 36 H      -12.4160     0.2550     1.3850 H     1 <1>   0.0800 
 37 H      -12.4920     1.2750    -0.0230 H     1 <1>   0.0800 
 38 H      -14.6170     0.0430     0.3480 H     1 <1>   0.0800 
 39 H      -13.8950    -0.3490    -1.1860 H     1 <1>   0.0800 
@<TRIPOS>BOND
  1   1   2  1   
  2   2   3  ar  
  3   2   4  ar  
  4   3   5  ar  
  5   3  21  1   
  6   4   6  ar  
  7   4  22  1   
  8   5   7  ar  
  9   5  23  1   
 10   6   7  ar  
 11   6  24  1   
 12   7   8  1   
 13   8   9  1   
 14   8  25  1   
 15   8  26  1   
 16   9  10  2   
 17   9  11  1   
 18  10  12  1   
 19  11  27  1   
 20  11  28  1   
 21  12  13  1   
 22  13  14  2   
 23  13  15  1   
 24  15  16  1   
 25  15  17  1   
 26  15  29  1   
 27  16  18  1   
 28  16  30  1   
 29  16  31  1   
 30  17  19  1   
 31  17  32  1   
 32  17  33  1   
 33  18  20  1   
 34  18  34  1   
 35  18  35  1   
 36  19  20  1   
 37  19  36  1   
 38  19  37  1   
 39  20  38  1   
 40  20  39  1   
@<TRIPOS>SUBSTRUCTURE
  1 ****  10 GROUP 4 **** **** 0

# MOE 2024.06 (io_trps.svl 2023.06)
