@<TRIPOS>MOLECULE
NONAME
41 42 1 0 0 
SMALL
USER_CHARGES


@<TRIPOS>ATOM
  1 CL      -1.1180     0.4520     2.9510 Cl    1 <1>  -0.1770 
  2 C       -1.6390     1.7140     1.8620 C.ar  1 <1>   0.1770 
  3 C       -2.8410     1.5800     1.1950 C.ar  1 <1>  -0.1500 
  4 C       -0.8360     2.8240     1.6880 C.ar  1 <1>  -0.1500 
  5 C       -3.2660     2.5790     0.3260 C.ar  1 <1>   0.1170 
  6 C       -1.2460     3.8260     0.8250 C.ar  1 <1>  -0.1500 
  7 N       -4.4740     2.5170    -0.3920 N.am  1 <1>  -0.5470 
  8 C       -2.4550     3.7090     0.1440 C.ar  1 <1>   0.0830 
  9 C       -5.5130     1.6430    -0.4230 C.2   1 <1>   0.6900 
 10 O       -2.9130     4.6660    -0.7200 O.3   1 <1>  -0.3630 
 11 O       -5.5350     0.6120     0.2210 O.2   1 <1>  -0.5700 
 12 N       -6.6070     1.9760    -1.1690 N.am  1 <1>  -0.6600 
 13 C       -2.1380     5.8050    -1.0280 C.3   1 <1>   0.0400 
 14 C       -7.4150     0.8650    -1.7500 C.3   1 <1>   0.1400 
 15 C       -7.4360     3.1220    -0.7050 C.3   1 <1>   0.1400 
 16 C       -8.4540     0.3740    -0.7230 C.3   1 <1>   0.3430 
 17 C       -8.4880     2.6340     0.3150 C.3   1 <1>   0.3430 
 18 N       -9.3280     1.4960    -0.2170 N.4   1 <1>  -0.9590 
 19 C      -10.2720     0.9790     0.8070 C.3   1 <1>   0.3430 
 20 C      -11.3870     1.9910     1.0400 C.3   1 <1>  -0.2400 
 21 H       -3.4250     0.6960     1.3620 H     1 <1>   0.1500 
 22 H        0.0950     2.8980     2.2220 H     1 <1>   0.1500 
 23 H       -0.6090     4.6820     0.7020 H     1 <1>   0.1500 
 24 H       -4.5570     3.2790    -1.0630 H     1 <1>   0.3700 
 25 H       -2.6790     6.3960    -1.7450 H     1 <1>   0.0800 
 26 H       -1.2010     5.4880    -1.4510 H     1 <1>   0.0800 
 27 H       -1.9820     6.3760    -0.1290 H     1 <1>   0.0800 
 28 H       -6.7640     0.0480    -2.0150 H     1 <1>   0.0800 
 29 H       -7.9030     1.2010    -2.6480 H     1 <1>   0.0800 
 30 H       -7.9200     3.5840    -1.5480 H     1 <1>   0.0800 
 31 H       -6.8090     3.8640    -0.2380 H     1 <1>   0.0800 
 32 H       -7.9200    -0.0710     0.1020 H     1 <1>   0.0800 
 33 H       -9.0610    -0.3930    -1.1750 H     1 <1>   0.0800 
 34 H       -9.1200     3.4630     0.5890 H     1 <1>   0.0800 
 35 H       -7.9680     2.3100     1.2020 H     1 <1>   0.0800 
 36 H       -9.8790     1.8470    -1.0100 H     1 <1>   0.4500 
 37 H       -9.7490     0.7810     1.7300 H     1 <1>   0.0800 
 38 H      -10.7090     0.0540     0.4640 H     1 <1>   0.0800 
 39 H      -11.0130     2.9000     1.4740 H     1 <1>   0.0800 
 40 H      -12.1010     1.5730     1.7280 H     1 <1>   0.0800 
 41 H      -11.9050     2.2110     0.1230 H     1 <1>   0.0800 
@<TRIPOS>BOND
  1   1   2  1   
  2   2   3  ar  
  3   2   4  ar  
  4   3   5  ar  
  5   3  21  1   
  6   4   6  ar  
  7   4  22  1   
  8   5   7  1   
  9   5   8  ar  
 10   6   8  ar  
 11   6  23  1   
 12   7   9  am  
 13   7  24  1   
 14   8  10  1   
 15   9  11  2   
 16   9  12  am  
 17  10  13  1   
 18  12  14  1   
 19  12  15  1   
 20  13  25  1   
 21  13  26  1   
 22  13  27  1   
 23  14  16  1   
 24  14  28  1   
 25  14  29  1   
 26  15  17  1   
 27  15  30  1   
 28  15  31  1   
 29  16  18  1   
 30  16  32  1   
 31  16  33  1   
 32  17  18  1   
 33  17  34  1   
 34  17  35  1   
 35  18  19  1   
 36  18  36  1   
 37  19  20  1   
 38  19  37  1   
 39  19  38  1   
 40  20  39  1   
 41  20  40  1   
 42  20  41  1   
@<TRIPOS>SUBSTRUCTURE
  1 ****   7 GROUP 4 **** **** 0

# MOE 2024.06 (io_trps.svl 2023.06)
