@<TRIPOS>MOLECULE
NONAME
33 34 1 0 0 
SMALL
USER_CHARGES


@<TRIPOS>ATOM
  1 S       -0.2180    -0.1760    -0.8450 S.o2  1 <1>   1.4470 
  2 O       -0.0690    -0.3370    -2.2730 O.2   1 <1>  -0.6500 
  3 O       -0.3140     1.1440    -0.2680 O.2   1 <1>  -0.6500 
  4 N        1.1840    -0.8670    -0.1760 N.am  1 <1>  -0.8490 
  5 C       -1.5560    -1.2270    -0.2080 C.ar  1 <1>  -0.0090 
  6 C        1.5590    -2.1400    -0.8290 C.3   1 <1>   0.1960 
  7 C        2.3120     0.0930    -0.2470 C.3   1 <1>   0.1960 
  8 C       -1.8170    -1.2830     1.1600 C.ar  1 <1>  -0.1500 
  9 C       -2.3380    -2.0030    -1.0660 C.ar  1 <1>  -0.1500 
 10 C        2.8030    -2.7980    -0.1750 C.3   1 <1>   0.3430 
 11 C        3.6630    -0.5070     0.2190 C.3   1 <1>   0.3430 
 12 C       -2.8260    -2.1000     1.6360 C.ar  1 <1>   0.1900 
 13 C       -3.3540    -2.8210    -0.5910 C.ar  1 <1>  -0.1500 
 14 N        3.4910    -1.8820     0.8040 N.4   1 <1>  -0.9590 
 15 F       -3.0430    -2.1410     2.9240 F     1 <1>  -0.1900 
 16 C       -3.5890    -2.8630     0.7700 C.ar  1 <1>   0.1900 
 17 C        4.7660    -2.4520     1.3350 C.3   1 <1>   0.2630 
 18 F       -4.5400    -3.6360     1.2250 F     1 <1>  -0.1900 
 19 H        1.7720    -1.9690    -1.8730 H     1 <1>   0.0800 
 20 H        0.7360    -2.8340    -0.7830 H     1 <1>   0.0800 
 21 H        2.0900     0.9470     0.3730 H     1 <1>   0.0800 
 22 H        2.4220     0.4580    -1.2560 H     1 <1>   0.0800 
 23 H       -1.2430    -0.6910     1.8510 H     1 <1>   0.1500 
 24 H       -2.1560    -1.9630    -2.1290 H     1 <1>   0.1500 
 25 H        3.4890    -3.0880    -0.9540 H     1 <1>   0.0800 
 26 H        2.4930    -3.6970     0.3310 H     1 <1>   0.0800 
 27 H        4.1040     0.1530     0.9470 H     1 <1>   0.0800 
 28 H        4.3310    -0.5530    -0.6250 H     1 <1>   0.0800 
 29 H       -3.9540    -3.4150    -1.2590 H     1 <1>   0.1500 
 30 H        2.8150    -1.7580     1.5760 H     1 <1>   0.4500 
 31 H        5.4800    -2.5830     0.5370 H     1 <1>   0.0800 
 32 H        4.5850    -3.4100     1.7960 H     1 <1>   0.0800 
 33 H        5.1920    -1.7930     2.0740 H     1 <1>   0.0800 
@<TRIPOS>BOND
  1   1   2  2   
  2   1   3  2   
  3   1   4  am  
  4   1   5  1   
  5   4   6  1   
  6   4   7  1   
  7   5   8  ar  
  8   5   9  ar  
  9   6  10  1   
 10   6  19  1   
 11   6  20  1   
 12   7  11  1   
 13   7  21  1   
 14   7  22  1   
 15   8  12  ar  
 16   8  23  1   
 17   9  13  ar  
 18   9  24  1   
 19  10  14  1   
 20  10  25  1   
 21  10  26  1   
 22  11  14  1   
 23  11  27  1   
 24  11  28  1   
 25  12  15  1   
 26  12  16  ar  
 27  13  16  ar  
 28  13  29  1   
 29  14  17  1   
 30  14  30  1   
 31  16  18  1   
 32  17  31  1   
 33  17  32  1   
 34  17  33  1   
@<TRIPOS>SUBSTRUCTURE
  1 ****   5 GROUP 4 **** **** 0

# MOE 2024.06 (io_trps.svl 2023.06)
