@<TRIPOS>MOLECULE
NONAME
40 41 1 0 0 
SMALL
USER_CHARGES


@<TRIPOS>ATOM
  1 S       -0.0460     0.0980    -1.6750 S.o2  1 <1>   1.4470 
  2 O       -0.5670    -0.9710    -2.5010 O.2   1 <1>  -0.6500 
  3 O        0.5670     1.2450    -2.3080 O.2   1 <1>  -0.6500 
  4 N        1.0970    -0.5990    -0.6320 N.am  1 <1>  -0.8490 
  5 C       -1.3440     0.6870    -0.5520 C.ar  1 <1>  -0.0090 
  6 C        2.3790    -0.8230    -1.3130 C.3   1 <1>   0.1960 
  7 C        0.5670    -1.8160    -0.0040 C.3   1 <1>   0.1960 
  8 C       -2.6830     0.4090    -0.7940 C.ar  1 <1>  -0.1500 
  9 C       -1.0270     1.4360     0.5750 C.ar  1 <1>  -0.1500 
 10 C        3.5310    -0.7940    -0.3040 C.3   1 <1>  -0.1600 
 11 C        1.4430    -2.3430     1.1390 C.3   1 <1>  -0.1600 
 12 C       -3.6940     0.8430     0.0540 C.ar  1 <1>   0.1170 
 13 C       -2.0160     1.8830     1.4330 C.ar  1 <1>  -0.1500 
 14 C        3.8840    -2.1470     0.3350 C.3   1 <1>  -0.1600 
 15 C        2.7010    -3.0720     0.6470 C.3   1 <1>  -0.1600 
 16 N       -5.0230     0.5260    -0.2660 N.am  1 <1>  -0.5470 
 17 C       -3.3400     1.5880     1.1730 C.ar  1 <1>  -0.1500 
 18 C       -6.1390     0.4590     0.5190 C.2   1 <1>   0.5690 
 19 O       -6.1450     0.6480     1.7080 O.2   1 <1>  -0.5700 
 20 C       -7.4400     0.1100    -0.1600 C.3   1 <1>  -0.1790 
 21 H        2.5610    -0.0230    -2.0110 H     1 <1>   0.0800 
 22 H        2.3650    -1.7420    -1.8760 H     1 <1>   0.0800 
 23 H        0.4290    -2.5850    -0.7470 H     1 <1>   0.0800 
 24 H       -0.4010    -1.5970     0.4130 H     1 <1>   0.0800 
 25 H       -2.9410    -0.1680    -1.6650 H     1 <1>   0.1500 
 26 H        0.0050     1.6690     0.7800 H     1 <1>   0.1500 
 27 H        3.2990    -0.0750     0.4630 H     1 <1>   0.0800 
 28 H        4.4100    -0.4340    -0.8090 H     1 <1>   0.0800 
 29 H        0.8500    -3.0550     1.6860 H     1 <1>   0.0800 
 30 H        1.6910    -1.5480     1.8210 H     1 <1>   0.0800 
 31 H       -1.7560     2.4620     2.3030 H     1 <1>   0.1500 
 32 H        4.4220    -1.9500     1.2470 H     1 <1>   0.0800 
 33 H        4.5580    -2.6760    -0.3170 H     1 <1>   0.0800 
 34 H        2.4580    -3.6520    -0.2270 H     1 <1>   0.0800 
 35 H        3.0180    -3.7700     1.4040 H     1 <1>   0.0800 
 36 H       -5.1760     0.2710    -1.2400 H     1 <1>   0.3700 
 37 H       -4.0980     1.9460     1.8460 H     1 <1>   0.1500 
 38 H       -8.2390     0.1220     0.5600 H     1 <1>   0.0800 
 39 H       -7.3750    -0.8710    -0.5900 H     1 <1>   0.0800 
 40 H       -7.6550     0.8300    -0.9280 H     1 <1>   0.0800 
@<TRIPOS>BOND
  1   1   2  2   
  2   1   3  2   
  3   1   4  am  
  4   1   5  1   
  5   4   6  1   
  6   4   7  1   
  7   5   8  ar  
  8   5   9  ar  
  9   6  10  1   
 10   6  21  1   
 11   6  22  1   
 12   7  11  1   
 13   7  23  1   
 14   7  24  1   
 15   8  12  ar  
 16   8  25  1   
 17   9  13  ar  
 18   9  26  1   
 19  10  14  1   
 20  10  27  1   
 21  10  28  1   
 22  11  15  1   
 23  11  29  1   
 24  11  30  1   
 25  12  16  1   
 26  12  17  ar  
 27  13  17  ar  
 28  13  31  1   
 29  14  15  1   
 30  14  32  1   
 31  14  33  1   
 32  15  34  1   
 33  15  35  1   
 34  16  18  am  
 35  16  36  1   
 36  17  37  1   
 37  18  19  2   
 38  18  20  1   
 39  20  38  1   
 40  20  39  1   
 41  20  40  1   
@<TRIPOS>SUBSTRUCTURE
  1 ****   5 GROUP 4 **** **** 0

# MOE 2024.06 (io_trps.svl 2023.06)
