@<TRIPOS>MOLECULE
NONAME
40 41 1 0 0 
SMALL
USER_CHARGES


@<TRIPOS>ATOM
  1 F       -2.1630     1.8550     3.2320 F     1 <1>  -0.3400 
  2 C       -1.4550     1.4940     2.1710 C.3   1 <1>   1.1640 
  3 F       -1.7380     0.2160     1.9510 F     1 <1>  -0.3400 
  4 F       -0.1790     1.5370     2.5340 F     1 <1>  -0.3400 
  5 C       -1.7720     2.3810     0.9530 C.ar  1 <1>  -0.1440 
  6 C       -2.8360     2.0780     0.1080 C.ar  1 <1>  -0.1500 
  7 C       -1.0060     3.5080     0.6760 C.ar  1 <1>  -0.1500 
  8 C       -3.1300     2.8750    -0.9900 C.ar  1 <1>  -0.1440 
  9 C       -1.2890     4.3030    -0.4200 C.ar  1 <1>  -0.1500 
 10 C       -2.3460     3.9870    -1.2520 C.ar  1 <1>  -0.1500 
 11 C       -4.2990     2.5390    -1.8990 C.3   1 <1>   0.4870 
 12 N       -5.5710     2.8710    -1.2060 N.4   1 <1>  -0.9590 
 13 C       -6.7990     2.4760    -1.9700 C.3   1 <1>   0.3430 
 14 C       -5.6660     4.2940    -0.7400 C.3   1 <1>   0.3430 
 15 C       -8.0860     2.7640    -1.1560 C.3   1 <1>   0.1100 
 16 C       -6.9550     4.5240     0.0880 C.3   1 <1>   0.1100 
 17 N       -7.7950     3.3040     0.1980 N.3   1 <1>  -0.8100 
 18 C       -9.0300     3.5950     0.9600 C.3   1 <1>   0.1100 
 19 C       -9.7340     2.3150     1.4260 C.3   1 <1>   0.1200 
 20 O      -10.8520     2.6580     2.1690 O.3   1 <1>  -0.6800 
 21 H       -3.4370     1.2060     0.3140 H     1 <1>   0.1500 
 22 H       -0.1760     3.7760     1.3110 H     1 <1>   0.1500 
 23 H       -0.6800     5.1680    -0.6230 H     1 <1>   0.1500 
 24 H       -2.5410     4.6190    -2.1030 H     1 <1>   0.1500 
 25 H       -4.2720     1.4890    -2.1410 H     1 <1>   0.0800 
 26 H       -4.2190     3.1010    -2.8150 H     1 <1>   0.0800 
 27 H       -5.6280     2.3340    -0.3290 H     1 <1>   0.4500 
 28 H       -6.7650     1.4240    -2.2010 H     1 <1>   0.0800 
 29 H       -6.8450     3.0150    -2.9020 H     1 <1>   0.0800 
 30 H       -5.6640     4.9620    -1.5850 H     1 <1>   0.0800 
 31 H       -4.8140     4.5390    -0.1260 H     1 <1>   0.0800 
 32 H       -8.6430     1.8470    -1.0710 H     1 <1>   0.0800 
 33 H       -8.6990     3.4610    -1.7030 H     1 <1>   0.0800 
 34 H       -7.5230     5.3210    -0.3630 H     1 <1>   0.0800 
 35 H       -6.6740     4.8500     1.0750 H     1 <1>   0.0800 
 36 H       -9.7060     4.1800     0.3590 H     1 <1>   0.0800 
 37 H       -8.7720     4.1660     1.8360 H     1 <1>   0.0800 
 38 H       -9.0850     1.7180     2.0440 H     1 <1>   0.0800 
 39 H      -10.0760     1.7350     0.5880 H     1 <1>   0.0800 
 40 H      -10.5970     3.0080     3.0450 H     1 <1>   0.4000 
@<TRIPOS>BOND
  1   1   2  1   
  2   2   3  1   
  3   2   4  1   
  4   2   5  1   
  5   5   6  ar  
  6   5   7  ar  
  7   6   8  ar  
  8   6  21  1   
  9   7   9  ar  
 10   7  22  1   
 11   8  10  ar  
 12   8  11  1   
 13   9  10  ar  
 14   9  23  1   
 15  10  24  1   
 16  11  12  1   
 17  11  25  1   
 18  11  26  1   
 19  12  13  1   
 20  12  14  1   
 21  12  27  1   
 22  13  15  1   
 23  13  28  1   
 24  13  29  1   
 25  14  16  1   
 26  14  30  1   
 27  14  31  1   
 28  15  17  1   
 29  15  32  1   
 30  15  33  1   
 31  16  17  1   
 32  16  34  1   
 33  16  35  1   
 34  17  18  1   
 35  18  19  1   
 36  18  36  1   
 37  18  37  1   
 38  19  20  1   
 39  19  38  1   
 40  19  39  1   
 41  20  40  1   
@<TRIPOS>SUBSTRUCTURE
  1 ****  12 GROUP 4 **** **** 0

# MOE 2024.06 (io_trps.svl 2023.06)
