@<TRIPOS>MOLECULE
NONAME
45 45 1 0 0 
SMALL
USER_CHARGES


@<TRIPOS>ATOM
  1 N       -0.0480    -0.1300    -0.3050 N.4   1 <1>  -0.9590 
  2 C       -1.2340     0.7470    -0.1170 C.3   1 <1>   0.3430 
  3 C       -0.0780    -1.3210     0.5900 C.3   1 <1>   0.3430 
  4 C        1.2010     0.6650    -0.1080 C.3   1 <1>   0.3430 
  5 C       -2.5240    -0.0390    -0.3750 C.3   1 <1>  -0.1600 
  6 C       -1.3490    -2.1360     0.3420 C.3   1 <1>  -0.1600 
  7 C        2.3870    -0.0800    -0.7100 C.3   1 <1>  -0.2400 
  8 C       -2.6270    -1.2940     0.5110 C.3   1 <1>   0.4230 
  9 N       -3.8580    -2.1080     0.1610 N.4   1 <1>  -0.9590 
 10 C       -5.1580    -1.3170     0.2680 C.3   1 <1>   0.3430 
 11 C       -3.9440    -3.3640     0.9990 C.3   1 <1>   0.2630 
 12 C       -6.4420    -2.0740    -0.2020 C.3   1 <1>   0.3430 
 13 N       -7.7100    -1.2510    -0.1800 N.4   1 <1>  -0.9590 
 14 C       -8.1420    -0.8310     1.1990 C.3   1 <1>   0.2630 
 15 C       -8.8350    -2.0190    -0.8170 C.3   1 <1>   0.2630 
 16 H       -0.0170    -0.4480    -1.2860 H     1 <1>   0.4500 
 17 H       -1.1800     1.5840    -0.7970 H     1 <1>   0.0800 
 18 H       -1.2380     1.1380     0.8890 H     1 <1>   0.0800 
 19 H       -0.0400    -1.0030     1.6200 H     1 <1>   0.0800 
 20 H        0.7850    -1.9430     0.4040 H     1 <1>   0.0800 
 21 H        1.3730     0.8490     0.9410 H     1 <1>   0.0800 
 22 H        1.1100     1.6190    -0.6050 H     1 <1>   0.0800 
 23 H       -2.5590    -0.3070    -1.4160 H     1 <1>   0.0800 
 24 H       -3.3360     0.6330    -0.1700 H     1 <1>   0.0800 
 25 H       -1.3320    -2.9430     1.0520 H     1 <1>   0.0800 
 26 H       -1.3000    -2.5570    -0.6470 H     1 <1>   0.0800 
 27 H        2.5910    -0.9970    -0.1860 H     1 <1>   0.0800 
 28 H        3.2640     0.5380    -0.6290 H     1 <1>   0.0800 
 29 H        2.2270    -0.2840    -1.7540 H     1 <1>   0.0800 
 30 H       -2.6930    -0.9800     1.5420 H     1 <1>   0.0800 
 31 H       -3.7340    -2.4080    -0.8200 H     1 <1>   0.4500 
 32 H       -5.0760    -0.4270    -0.3310 H     1 <1>   0.0800 
 33 H       -5.2960    -1.0150     1.2940 H     1 <1>   0.0800 
 34 H       -3.9910    -3.1190     2.0490 H     1 <1>   0.0800 
 35 H       -3.0840    -3.9940     0.8350 H     1 <1>   0.0800 
 36 H       -4.8180    -3.9410     0.7420 H     1 <1>   0.0800 
 37 H       -6.5860    -2.9400     0.4210 H     1 <1>   0.0800 
 38 H       -6.2790    -2.4160    -1.2120 H     1 <1>   0.0800 
 39 H       -7.5990    -0.3950    -0.7520 H     1 <1>   0.4500 
 40 H       -8.3100    -1.6950     1.8220 H     1 <1>   0.0800 
 41 H       -9.0630    -0.2710     1.1450 H     1 <1>   0.0800 
 42 H       -7.3970    -0.2060     1.6630 H     1 <1>   0.0800 
 43 H       -9.0410    -2.9220    -0.2630 H     1 <1>   0.0800 
 44 H       -8.5870    -2.2870    -1.8320 H     1 <1>   0.0800 
 45 H       -9.7340    -1.4220    -0.8370 H     1 <1>   0.0800 
@<TRIPOS>BOND
  1   1   2  1   
  2   1   3  1   
  3   1   4  1   
  4   1  16  1   
  5   2   5  1   
  6   2  17  1   
  7   2  18  1   
  8   3   6  1   
  9   3  19  1   
 10   3  20  1   
 11   4   7  1   
 12   4  21  1   
 13   4  22  1   
 14   5   8  1   
 15   5  23  1   
 16   5  24  1   
 17   6   8  1   
 18   6  25  1   
 19   6  26  1   
 20   7  27  1   
 21   7  28  1   
 22   7  29  1   
 23   8   9  1   
 24   8  30  1   
 25   9  10  1   
 26   9  11  1   
 27   9  31  1   
 28  10  12  1   
 29  10  32  1   
 30  10  33  1   
 31  11  34  1   
 32  11  35  1   
 33  11  36  1   
 34  12  13  1   
 35  12  37  1   
 36  12  38  1   
 37  13  14  1   
 38  13  15  1   
 39  13  39  1   
 40  14  40  1   
 41  14  41  1   
 42  14  42  1   
 43  15  43  1   
 44  15  44  1   
 45  15  45  1   
@<TRIPOS>SUBSTRUCTURE
  1 ****   8 GROUP 4 **** **** 0

# MOE 2024.06 (io_trps.svl 2023.06)
