@<TRIPOS>MOLECULE
NONAME
47 49 1 0 0 
SMALL
USER_CHARGES


@<TRIPOS>ATOM
  1 S        0.2520    -0.3650    -0.0870 S.3   1 <1>  -0.2860 
  2 C       -1.3230    -1.2040    -0.2790 C.2   1 <1>   0.2420 
  3 C        1.4670    -1.6460    -0.6780 C.3   1 <1>   0.1310 
  4 N       -1.4320    -2.4110    -0.7030 N.2   1 <1>  -0.3380 
  5 N       -2.4890    -0.6280    -0.0010 N.pl3 1 <1>   0.0480 
  6 C        2.9030    -1.1480    -0.6030 C.2   1 <1>   0.5690 
  7 N       -2.7400    -2.6710    -0.7210 N.2   1 <1>  -0.3380 
  8 C       -3.3660    -1.6060    -0.3000 C.2   1 <1>   0.1330 
  9 C       -2.7600     0.7540     0.4560 C.3   1 <1>   0.0960 
 10 O        3.7630    -1.8140    -1.1290 O.2   1 <1>  -0.5700 
 11 N        3.1810     0.0140     0.0480 N.am  1 <1>  -0.5790 
 12 C       -4.7940    -1.4640    -0.1830 C.ar  1 <1>   0.0530 
 13 C       -3.0410     1.6710    -0.7370 C.3   1 <1>  -0.2400 
 14 C        4.5100     0.6210     0.2050 C.3   1 <1>   0.0490 
 15 C       -5.6000    -1.4210    -1.3170 C.ar  1 <1>  -0.1500 
 16 C       -5.4150    -1.3530     1.0600 C.ar  1 <1>  -0.1500 
 17 C        4.7970     1.3620     1.4670 C.3   1 <1>  -0.2000 
 18 C        4.6060     2.1100     0.1810 C.3   1 <1>  -0.2000 
 19 C       -6.9660    -1.2460    -1.2150 C.ar  1 <1>  -0.1500 
 20 C       -6.7820    -1.1800     1.1620 C.ar  1 <1>  -0.1500 
 21 C       -7.5800    -1.1170     0.0240 C.ar  1 <1>   0.1000 
 22 N       -8.9590    -0.9410     0.0980 N.pl3 1 <1>  -0.8380 
 23 C       -9.5430    -0.0180     1.1050 C.3   1 <1>   0.1290 
 24 C       -9.8280    -2.0780    -0.3010 C.3   1 <1>   0.1290 
 25 H        1.2090    -1.8850    -1.6930 H     1 <1>   0.0800 
 26 H        1.3420    -2.5150    -0.0590 H     1 <1>   0.0800 
 27 H       -1.9100     1.1160     1.0060 H     1 <1>   0.0800 
 28 H       -3.6070     0.7450     1.1180 H     1 <1>   0.0800 
 29 H        2.4070     0.5420     0.4530 H     1 <1>   0.3700 
 30 H       -2.1960     1.6930    -1.4030 H     1 <1>   0.0800 
 31 H       -3.2270     2.6720    -0.3910 H     1 <1>   0.0800 
 32 H       -3.9100     1.3330    -1.2750 H     1 <1>   0.0800 
 33 H        5.3000     0.0420    -0.2490 H     1 <1>   0.1000 
 34 H       -5.1430    -1.5250    -2.2860 H     1 <1>   0.1500 
 35 H       -4.8180    -1.4110     1.9520 H     1 <1>   0.1500 
 36 H        5.7890     1.3080     1.8810 H     1 <1>   0.1000 
 37 H        4.0350     1.4160     2.2240 H     1 <1>   0.1000 
 38 H        3.7100     2.6870     0.0370 H     1 <1>   0.1000 
 39 H        5.4680     2.5620    -0.2770 H     1 <1>   0.1000 
 40 H       -7.5760    -1.2040    -2.0980 H     1 <1>   0.1500 
 41 H       -7.2420    -1.1040     2.1280 H     1 <1>   0.1500 
 42 H       -8.8420     0.7660     1.3340 H     1 <1>   0.0800 
 43 H       -9.7810    -0.5560     2.0060 H     1 <1>   0.0800 
 44 H      -10.4390     0.4280     0.7090 H     1 <1>   0.0800 
 45 H       -9.2650    -2.7930    -0.8770 H     1 <1>   0.0800 
 46 H      -10.6450    -1.7160    -0.9000 H     1 <1>   0.0800 
 47 H      -10.2170    -2.5700     0.5730 H     1 <1>   0.0800 
@<TRIPOS>BOND
  1   1   2  1   
  2   1   3  1   
  3   2   4  2   
  4   2   5  1   
  5   3   6  1   
  6   3  25  1   
  7   3  26  1   
  8   4   7  1   
  9   5   8  1   
 10   5   9  1   
 11   6  10  2   
 12   6  11  am  
 13   7   8  2   
 14   8  12  1   
 15   9  13  1   
 16   9  27  1   
 17   9  28  1   
 18  11  14  1   
 19  11  29  1   
 20  12  15  ar  
 21  12  16  ar  
 22  13  30  1   
 23  13  31  1   
 24  13  32  1   
 25  14  17  1   
 26  14  18  1   
 27  14  33  1   
 28  15  19  ar  
 29  15  34  1   
 30  16  20  ar  
 31  16  35  1   
 32  17  18  1   
 33  17  36  1   
 34  17  37  1   
 35  18  38  1   
 36  18  39  1   
 37  19  21  ar  
 38  19  40  1   
 39  20  21  ar  
 40  20  41  1   
 41  21  22  1   
 42  22  23  1   
 43  22  24  1   
 44  23  42  1   
 45  23  43  1   
 46  23  44  1   
 47  24  45  1   
 48  24  46  1   
 49  24  47  1   
@<TRIPOS>SUBSTRUCTURE
  1 ****   5 GROUP 4 **** **** 0

# MOE 2024.06 (io_trps.svl 2023.06)
