@<TRIPOS>MOLECULE
NONAME
41 43 1 0 0 
SMALL
USER_CHARGES


@<TRIPOS>ATOM
  1 BR       0.7710    -0.1610    -1.4750 Br    1 <1>  -0.0580 
  2 C        1.0500     1.7360    -1.3400 C.2   1 <1>   0.1980 
  3 O        2.2390     2.1560    -0.9890 O.3   1 <1>  -0.2800 
  4 C        0.1770     2.7370    -1.5600 C.2   1 <1>  -0.1500 
  5 C        2.1870     3.4920    -0.9650 C.2   1 <1>   0.0550 
  6 C        0.9250     3.8900    -1.3130 C.2   1 <1>  -0.1500 
  7 C        3.3500     4.2700    -0.6120 C.2   1 <1>   0.7150 
  8 O        3.2970     5.4870    -0.5910 O.2   1 <1>  -0.5700 
  9 N        4.5080     3.6120    -0.3010 N.am  1 <1>  -0.5470 
 10 C        5.8050     3.9850     0.0790 C.ar  1 <1>   0.1170 
 11 C        6.7100     2.9380     0.3060 C.ar  1 <1>   0.1000 
 12 C        6.2240     5.2990     0.2370 C.ar  1 <1>  -0.1500 
 13 N        6.2950     1.6020     0.1490 N.pl3 1 <1>  -0.8380 
 14 C        8.0110     3.2390     0.6850 C.ar  1 <1>  -0.1500 
 15 C        7.5260     5.5830     0.6150 C.ar  1 <1>  -0.1500 
 16 C        6.7340     0.8630    -1.0650 C.3   1 <1>   0.2090 
 17 C        6.0410     0.7920     1.3710 C.3   1 <1>   0.2090 
 18 C        8.4200     4.5520     0.8390 C.ar  1 <1>  -0.1500 
 19 C        7.9010    -0.0760    -0.7480 C.3   1 <1>  -0.1600 
 20 C        7.2150    -0.1470     1.6650 C.3   1 <1>  -0.1600 
 21 C        7.5910    -0.9950     0.4420 C.3   1 <1>  -0.0800 
 22 C        8.7910    -1.8950     0.7570 C.3   1 <1>  -0.2400 
 23 H       -0.8550     2.6840    -1.8550 H     1 <1>   0.1500 
 24 H        0.5670     4.9030    -1.3860 H     1 <1>   0.1500 
 25 H        4.4440     2.5900    -0.3490 H     1 <1>   0.3700 
 26 H        5.5410     6.1100     0.0660 H     1 <1>   0.1500 
 27 H        8.7040     2.4390     0.8590 H     1 <1>   0.1500 
 28 H        7.8380     6.6060     0.7340 H     1 <1>   0.1500 
 29 H        7.0290     1.5660    -1.8270 H     1 <1>   0.0800 
 30 H        5.9020     0.2930    -1.4410 H     1 <1>   0.0800 
 31 H        5.1440     0.2160     1.2220 H     1 <1>   0.0800 
 32 H        5.8800     1.4490     2.2100 H     1 <1>   0.0800 
 33 H        9.4310     4.7700     1.1340 H     1 <1>   0.1500 
 34 H        8.7740     0.5160    -0.5400 H     1 <1>   0.0800 
 35 H        8.1120    -0.6700    -1.6190 H     1 <1>   0.0800 
 36 H        6.9450    -0.7890     2.4840 H     1 <1>   0.0800 
 37 H        8.0570     0.4420     1.9800 H     1 <1>   0.0800 
 38 H        6.7520    -1.6200     0.1850 H     1 <1>   0.0800 
 39 H        9.6510    -1.3040     1.0190 H     1 <1>   0.0800 
 40 H        9.0380    -2.5000    -0.0970 H     1 <1>   0.0800 
 41 H        8.5610    -2.5490     1.5800 H     1 <1>   0.0800 
@<TRIPOS>BOND
  1   1   2  1   
  2   2   3  1   
  3   2   4  2   
  4   3   5  1   
  5   4   6  1   
  6   4  23  1   
  7   5   6  2   
  8   5   7  1   
  9   6  24  1   
 10   7   8  2   
 11   7   9  am  
 12   9  10  1   
 13   9  25  1   
 14  10  11  ar  
 15  10  12  ar  
 16  11  13  1   
 17  11  14  ar  
 18  12  15  ar  
 19  12  26  1   
 20  13  16  1   
 21  13  17  1   
 22  14  18  ar  
 23  14  27  1   
 24  15  18  ar  
 25  15  28  1   
 26  16  19  1   
 27  16  29  1   
 28  16  30  1   
 29  17  20  1   
 30  17  31  1   
 31  17  32  1   
 32  18  33  1   
 33  19  21  1   
 34  19  34  1   
 35  19  35  1   
 36  20  21  1   
 37  20  36  1   
 38  20  37  1   
 39  21  22  1   
 40  21  38  1   
 41  22  39  1   
 42  22  40  1   
 43  22  41  1   
@<TRIPOS>SUBSTRUCTURE
  1 ****   9 GROUP 4 **** **** 0

# MOE 2024.06 (io_trps.svl 2023.06)
