@<TRIPOS>MOLECULE
NONAME
26 26 1 0 0 
SMALL
USER_CHARGES


@<TRIPOS>ATOM
  1 F       -0.7260    -1.7560     1.4750 F     1 <1>  -0.3400 
  2 C       -1.1090    -1.6500     0.2100 C.3   1 <1>   1.0200 
  3 F       -0.1330    -1.0120    -0.4210 F     1 <1>  -0.3400 
  4 F       -2.1310    -0.8050     0.2250 F     1 <1>  -0.3400 
  5 C       -1.4750    -2.9850    -0.4390 C.3   1 <1>   0.2000 
  6 O       -2.6630    -3.5700     0.1430 O.3   1 <1>  -0.4300 
  7 C       -0.2930    -3.9430    -0.3430 C.3   1 <1>   1.0200 
  8 C       -3.8690    -3.3250    -0.3590 C.2   1 <1>   0.7800 
  9 F        0.8210    -3.4770    -0.8910 F     1 <1>  -0.3400 
 10 F        0.0190    -4.2940     0.8970 F     1 <1>  -0.3400 
 11 F       -0.5500    -5.0800    -0.9780 F     1 <1>  -0.3400 
 12 O       -3.9710    -2.6350    -1.3500 O.2   1 <1>  -0.5700 
 13 N       -4.9040    -3.9040     0.3040 N.am  1 <1>  -0.5470 
 14 C       -6.2890    -3.8590     0.0890 C.ar  1 <1>   0.1170 
 15 C       -7.0830    -4.8430     0.6670 C.ar  1 <1>  -0.1500 
 16 C       -6.9100    -2.8670    -0.6640 C.ar  1 <1>  -0.1500 
 17 C       -8.4550    -4.8430     0.4950 C.ar  1 <1>  -0.1500 
 18 C       -8.2820    -2.8630    -0.8390 C.ar  1 <1>  -0.1500 
 19 C       -9.0580    -3.8520    -0.2600 C.ar  1 <1>  -0.1500 
 20 H       -1.6480    -2.8130    -1.4840 H     1 <1>   0.0800 
 21 H       -4.6000    -4.4990     1.0700 H     1 <1>   0.3700 
 22 H       -6.6290    -5.6200     1.2540 H     1 <1>   0.1500 
 23 H       -6.3290    -2.0850    -1.1180 H     1 <1>   0.1500 
 24 H       -9.0570    -5.6130     0.9470 H     1 <1>   0.1500 
 25 H       -8.7470    -2.0900    -1.4260 H     1 <1>   0.1500 
 26 H      -10.1250    -3.8490    -0.3960 H     1 <1>   0.1500 
@<TRIPOS>BOND
  1   1   2  1   
  2   2   3  1   
  3   2   4  1   
  4   2   5  1   
  5   5   6  1   
  6   5   7  1   
  7   5  20  1   
  8   6   8  1   
  9   7   9  1   
 10   7  10  1   
 11   7  11  1   
 12   8  12  2   
 13   8  13  am  
 14  13  14  1   
 15  13  21  1   
 16  14  15  ar  
 17  14  16  ar  
 18  15  17  ar  
 19  15  22  1   
 20  16  18  ar  
 21  16  23  1   
 22  17  19  ar  
 23  17  24  1   
 24  18  19  ar  
 25  18  25  1   
 26  19  26  1   
@<TRIPOS>SUBSTRUCTURE
  1 ****   8 GROUP 4 **** **** 0

# MOE 2024.06 (io_trps.svl 2023.06)
