@<TRIPOS>MOLECULE
NONAME
44 46 1 0 0 
SMALL
USER_CHARGES


@<TRIPOS>ATOM
  1 S       -0.1680     0.1220    -1.8260 S.o2  1 <1>   1.4470 
  2 O       -1.0720    -0.8500    -2.4030 O.2   1 <1>  -0.6500 
  3 O        0.3250     1.2070    -2.6470 O.2   1 <1>  -0.6500 
  4 N       -0.9690     0.8140    -0.5020 N.am  1 <1>  -0.8490 
  5 C        1.2470    -0.7170    -1.0560 C.ar  1 <1>  -0.0090 
  6 C       -1.6190    -0.2000     0.3360 C.3   1 <1>   0.1960 
  7 C       -1.9320     1.8300    -0.9360 C.3   1 <1>   0.1960 
  8 C        2.1100    -0.0310    -0.2100 C.ar  1 <1>  -0.1500 
  9 C        1.5060    -2.0640    -1.2830 C.ar  1 <1>  -0.1500 
 10 C       -2.1920     0.4470     1.6010 C.3   1 <1>  -0.1600 
 11 C       -2.5310     2.5490     0.2780 C.3   1 <1>  -0.1600 
 12 C        3.1870    -0.6640     0.3850 C.ar  1 <1>  -0.1500 
 13 C        2.5830    -2.6970    -0.6880 C.ar  1 <1>  -0.1500 
 14 C       -3.1840     1.5620     1.2530 C.3   1 <1>  -0.1600 
 15 C        3.4540    -2.0110     0.1550 C.ar  1 <1>   0.0860 
 16 C        4.5830    -2.6880     0.7680 C.2   1 <1>   0.5440 
 17 O        4.4050    -3.7430     1.3470 O.2   1 <1>  -0.5700 
 18 N        5.8570    -2.1730     0.7060 N.am  1 <1>  -0.6600 
 19 C        7.0130    -2.8550     1.3310 C.3   1 <1>   0.1400 
 20 C        6.3090    -1.1330    -0.2460 C.3   1 <1>   0.1400 
 21 C        8.2310    -2.0540     0.8840 C.3   1 <1>  -0.1600 
 22 C        7.8010    -1.3930    -0.4220 C.3   1 <1>  -0.1600 
 23 H       -0.9030    -0.9510     0.6240 H     1 <1>   0.0800 
 24 H       -2.4100    -0.6830    -0.2160 H     1 <1>   0.0800 
 25 H       -2.7140     1.3690    -1.5180 H     1 <1>   0.0800 
 26 H       -1.4390     2.5600    -1.5570 H     1 <1>   0.0800 
 27 H        1.9270     1.0130    -0.0150 H     1 <1>   0.1500 
 28 H        0.8540    -2.6250    -1.9330 H     1 <1>   0.1500 
 29 H       -1.3800     0.8480     2.1830 H     1 <1>   0.0800 
 30 H       -2.6840    -0.3030     2.1940 H     1 <1>   0.0800 
 31 H       -3.2610     3.2640    -0.0570 H     1 <1>   0.0800 
 32 H       -1.7470     3.0900     0.7780 H     1 <1>   0.0800 
 33 H        3.8310    -0.1100     1.0470 H     1 <1>   0.1500 
 34 H        2.7600    -3.7440    -0.8720 H     1 <1>   0.1500 
 35 H       -3.4910     2.0760     2.1470 H     1 <1>   0.0800 
 36 H       -4.0590     1.1330     0.7940 H     1 <1>   0.0800 
 37 H        7.0660    -3.8660     0.9630 H     1 <1>   0.0800 
 38 H        6.9120    -2.8680     2.4030 H     1 <1>   0.0800 
 39 H        6.1520    -0.1630     0.1920 H     1 <1>   0.0800 
 40 H        5.7830    -1.2040    -1.1830 H     1 <1>   0.0800 
 41 H        9.0960    -2.6810     0.7630 H     1 <1>   0.0800 
 42 H        8.4440    -1.3020     1.6240 H     1 <1>   0.0800 
 43 H        8.3450    -0.4880    -0.6240 H     1 <1>   0.0800 
 44 H        7.9420    -2.0780    -1.2400 H     1 <1>   0.0800 
@<TRIPOS>BOND
  1   1   2  2   
  2   1   3  2   
  3   1   4  am  
  4   1   5  1   
  5   4   6  1   
  6   4   7  1   
  7   5   8  ar  
  8   5   9  ar  
  9   6  10  1   
 10   6  23  1   
 11   6  24  1   
 12   7  11  1   
 13   7  25  1   
 14   7  26  1   
 15   8  12  ar  
 16   8  27  1   
 17   9  13  ar  
 18   9  28  1   
 19  10  14  1   
 20  10  29  1   
 21  10  30  1   
 22  11  14  1   
 23  11  31  1   
 24  11  32  1   
 25  12  15  ar  
 26  12  33  1   
 27  13  15  ar  
 28  13  34  1   
 29  14  35  1   
 30  14  36  1   
 31  15  16  1   
 32  16  17  2   
 33  16  18  am  
 34  18  19  1   
 35  18  20  1   
 36  19  21  1   
 37  19  37  1   
 38  19  38  1   
 39  20  22  1   
 40  20  39  1   
 41  20  40  1   
 42  21  22  1   
 43  21  41  1   
 44  21  42  1   
 45  22  43  1   
 46  22  44  1   
@<TRIPOS>SUBSTRUCTURE
  1 ****   8 GROUP 4 **** **** 0

# MOE 2024.06 (io_trps.svl 2023.06)
