@<TRIPOS>MOLECULE
NONAME
48 51 1 0 0 
SMALL
USER_CHARGES


@<TRIPOS>ATOM
  1 O        1.1560    -3.3090     2.3500 O.2   1 <1>  -0.5700 
  2 C        1.2930    -3.3820     1.1520 C.2   1 <1>   0.5690 
  3 N        0.2570    -3.6250     0.3140 N.am  1 <1>  -0.7300 
  4 C        2.6850    -3.1990     0.5380 C.3   1 <1>   0.1710 
  5 C       -1.1560    -3.8300     0.6850 C.3   1 <1>   0.2200 
  6 N        2.6730    -2.9010    -0.9240 N.3   1 <1>  -0.9000 
  7 C       -1.6330    -5.2230     0.2230 C.3   1 <1>  -0.0800 
  8 C       -2.0410    -2.7430     0.0360 C.3   1 <1>  -0.0800 
  9 C        4.0200    -2.8110    -1.4810 C.3   1 <1>   0.2530 
 10 C       -3.0860    -5.4250     0.6990 C.3   1 <1>  -0.1600 
 11 C       -1.6000    -5.3330    -1.3190 C.3   1 <1>  -0.1600 
 12 C       -3.4940    -2.9480     0.5130 C.3   1 <1>  -0.1600 
 13 C       -2.0070    -2.8550    -1.5050 C.3   1 <1>  -0.1600 
 14 C        4.6900    -1.5360    -0.9960 C.ar  1 <1>  -0.1430 
 15 C       -3.9980    -4.3420     0.0870 C.3   1 <1>  -0.0800 
 16 C       -2.4990    -4.2480    -1.9440 C.3   1 <1>  -0.0800 
 17 C        4.3110    -0.3080    -1.5190 C.ar  1 <1>  -0.1500 
 18 C        5.6830    -1.5850    -0.0290 C.ar  1 <1>  -0.1500 
 19 C       -3.9440    -4.4480    -1.4490 C.3   1 <1>  -0.1600 
 20 C        4.9150     0.8570    -1.0790 C.ar  1 <1>  -0.1500 
 21 C        6.2880    -0.4200     0.4120 C.ar  1 <1>  -0.1500 
 22 C        5.9030     0.8010    -0.1120 C.ar  1 <1>  -0.1500 
 23 H        0.4720    -3.6760    -0.6840 H     1 <1>   0.3700 
 24 H        3.2380    -4.1040     0.7140 H     1 <1>   0.0800 
 25 H        3.1750    -2.4000     1.0680 H     1 <1>   0.0800 
 26 H       -1.2440    -3.7640     1.7570 H     1 <1>   0.0800 
 27 H        2.2530    -1.9680    -1.0320 H     1 <1>   0.3600 
 28 H       -1.0060    -5.9790     0.6640 H     1 <1>   0.0800 
 29 H       -1.6980    -1.7720     0.3490 H     1 <1>   0.0800 
 30 H        3.9540    -2.7870    -2.5550 H     1 <1>   0.0800 
 31 H        4.5950    -3.6790    -1.2050 H     1 <1>   0.0800 
 32 H       -3.1280    -5.3720     1.7730 H     1 <1>   0.0800 
 33 H       -3.4340    -6.4010     0.4070 H     1 <1>   0.0800 
 34 H       -1.9460    -6.3060    -1.6190 H     1 <1>   0.0800 
 35 H       -0.5920    -5.2270    -1.6800 H     1 <1>   0.0800 
 36 H       -4.1270    -2.1870     0.0910 H     1 <1>   0.0800 
 37 H       -3.5420    -2.8550     1.5840 H     1 <1>   0.0800 
 38 H       -2.6380    -2.0960    -1.9360 H     1 <1>   0.0800 
 39 H       -1.0100    -2.6860    -1.8710 H     1 <1>   0.0800 
 40 H       -5.0100    -4.4830     0.4260 H     1 <1>   0.0800 
 41 H       -2.4700    -4.3240    -3.0180 H     1 <1>   0.0800 
 42 H        3.5440    -0.2550    -2.2720 H     1 <1>   0.1500 
 43 H        5.9900    -2.5280     0.3860 H     1 <1>   0.1500 
 44 H       -4.5870    -3.7050    -1.8880 H     1 <1>   0.0800 
 45 H       -4.3050    -5.4140    -1.7590 H     1 <1>   0.0800 
 46 H        4.6160     1.8060    -1.4880 H     1 <1>   0.1500 
 47 H        7.0570    -0.4640     1.1630 H     1 <1>   0.1500 
 48 H        6.3730     1.7070     0.2310 H     1 <1>   0.1500 
@<TRIPOS>BOND
  1   1   2  2   
  2   2   3  am  
  3   2   4  1   
  4   3   5  1   
  5   3  23  1   
  6   4   6  1   
  7   4  24  1   
  8   4  25  1   
  9   5   7  1   
 10   5   8  1   
 11   5  26  1   
 12   6   9  1   
 13   6  27  1   
 14   7  10  1   
 15   7  11  1   
 16   7  28  1   
 17   8  12  1   
 18   8  13  1   
 19   8  29  1   
 20   9  14  1   
 21   9  30  1   
 22   9  31  1   
 23  10  15  1   
 24  10  32  1   
 25  10  33  1   
 26  11  16  1   
 27  11  34  1   
 28  11  35  1   
 29  12  15  1   
 30  12  36  1   
 31  12  37  1   
 32  13  16  1   
 33  13  38  1   
 34  13  39  1   
 35  14  17  ar  
 36  14  18  ar  
 37  15  19  1   
 38  15  40  1   
 39  16  19  1   
 40  16  41  1   
 41  17  20  ar  
 42  17  42  1   
 43  18  21  ar  
 44  18  43  1   
 45  19  44  1   
 46  19  45  1   
 47  20  22  ar  
 48  20  46  1   
 49  21  22  ar  
 50  21  47  1   
 51  22  48  1   
@<TRIPOS>SUBSTRUCTURE
  1 ****   3 GROUP 4 **** **** 0

# MOE 2024.06 (io_trps.svl 2023.06)
