@<TRIPOS>MOLECULE
NONAME
40 42 1 0 0 
SMALL
USER_CHARGES


@<TRIPOS>ATOM
  1 S        0.2420    -0.0270    -0.5110 S.o2  1 <1>   1.5010 
  2 O        0.8390     0.0560    -1.8270 O.2   1 <1>  -0.6500 
  3 O        0.1080     1.1690     0.2910 O.2   1 <1>  -0.6500 
  4 N        1.1690    -1.1260     0.3840 N.am  1 <1>  -0.8490 
  5 C       -1.3480    -0.8550    -0.6220 C.2   1 <1>  -0.0630 
  6 C        2.4210    -0.5040     0.8630 C.3   1 <1>   0.1960 
  7 C        1.4810    -2.3550    -0.3770 C.3   1 <1>   0.1960 
  8 C       -1.9730    -1.1840    -1.8170 C.2   1 <1>   0.1390 
  9 C       -2.2040    -1.3150     0.3250 C.2   1 <1>  -0.3020 
 10 C        3.2500    -1.4690     1.7310 C.3   1 <1>   0.2090 
 11 C        2.2880    -3.3710     0.4540 C.3   1 <1>   0.2090 
 12 N       -3.1040    -1.7960    -1.6420 N.2   1 <1>  -0.7070 
 13 N       -3.2500    -1.8740    -0.3090 N.pl3 1 <1>   0.3140 
 14 N        3.5310    -2.7380     0.9910 N.pl3 1 <1>  -0.8380 
 15 C       -4.4310    -2.5050     0.3170 C.3   1 <1>   0.0960 
 16 C        4.7780    -3.0540     0.4970 C.ar  1 <1>   0.7200 
 17 C       -4.1040    -3.9200     0.8120 C.3   1 <1>  -0.2400 
 18 N        4.9450    -4.2910     0.0320 N.ar  1 <1>  -0.6200 
 19 N        5.7040    -2.0960     0.5220 N.ar  1 <1>  -0.6200 
 20 C        6.1370    -4.5830    -0.4290 C.ar  1 <1>   0.1600 
 21 C        6.8850    -2.4160     0.0520 C.ar  1 <1>   0.1600 
 22 C        7.1600    -3.6670    -0.4420 C.ar  1 <1>  -0.1500 
 23 H        2.1900     0.3670     1.4510 H     1 <1>   0.0800 
 24 H        3.0200    -0.1890     0.0240 H     1 <1>   0.0800 
 25 H        2.0520    -2.1080    -1.2580 H     1 <1>   0.0800 
 26 H        0.5670    -2.8250    -0.6960 H     1 <1>   0.0800 
 27 H       -1.5650    -0.9600    -2.7910 H     1 <1>   0.1500 
 28 H       -2.1130    -1.2700     1.3950 H     1 <1>   0.1500 
 29 H        2.6950    -1.7000     2.6230 H     1 <1>   0.0800 
 30 H        4.1600    -0.9840     2.0390 H     1 <1>   0.0800 
 31 H        2.5180    -4.2210    -0.1630 H     1 <1>   0.0800 
 32 H        1.6870    -3.7180     1.2750 H     1 <1>   0.0800 
 33 H       -5.2170    -2.5450    -0.4160 H     1 <1>   0.0800 
 34 H       -4.7550    -1.8880     1.1340 H     1 <1>   0.0800 
 35 H       -3.7860    -4.5340    -0.0120 H     1 <1>   0.0800 
 36 H       -4.9800    -4.3630     1.2500 H     1 <1>   0.0800 
 37 H       -3.3270    -3.8890     1.5560 H     1 <1>   0.0800 
 38 H        6.3020    -5.5790    -0.8060 H     1 <1>   0.1500 
 39 H        7.6530    -1.6620     0.0630 H     1 <1>   0.1500 
 40 H        8.1310    -3.9190    -0.8220 H     1 <1>   0.1500 
@<TRIPOS>BOND
  1   1   2  2   
  2   1   3  2   
  3   1   4  am  
  4   1   5  1   
  5   4   6  1   
  6   4   7  1   
  7   5   8  1   
  8   5   9  2   
  9   6  10  1   
 10   6  23  1   
 11   6  24  1   
 12   7  11  1   
 13   7  25  1   
 14   7  26  1   
 15   8  12  2   
 16   8  27  1   
 17   9  13  1   
 18   9  28  1   
 19  10  14  1   
 20  10  29  1   
 21  10  30  1   
 22  11  14  1   
 23  11  31  1   
 24  11  32  1   
 25  12  13  1   
 26  13  15  1   
 27  14  16  1   
 28  15  17  1   
 29  15  33  1   
 30  15  34  1   
 31  16  18  ar  
 32  16  19  ar  
 33  17  35  1   
 34  17  36  1   
 35  17  37  1   
 36  18  20  ar  
 37  19  21  ar  
 38  20  22  ar  
 39  20  38  1   
 40  21  22  ar  
 41  21  39  1   
 42  22  40  1   
@<TRIPOS>SUBSTRUCTURE
  1 ****   7 GROUP 4 **** **** 0

# MOE 2024.06 (io_trps.svl 2023.06)
