@<TRIPOS>MOLECULE
NONAME
36 37 1 0 0 
SMALL
USER_CHARGES


@<TRIPOS>ATOM
  1 CL       2.9330     1.6210    -2.3380 Cl    1 <1>  -0.1770 
  2 C        1.6660     2.2680    -1.3170 C.ar  1 <1>   0.1770 
  3 C        1.8880     2.4540     0.0440 C.ar  1 <1>   0.0830 
  4 C        0.4570     2.5960    -1.9000 C.ar  1 <1>  -0.1500 
  5 O        3.1000     2.1150     0.5550 O.3   1 <1>  -0.3630 
  6 C        0.8610     2.9810     0.8230 C.ar  1 <1>  -0.1500 
  7 C       -0.5570     3.1230    -1.1170 C.ar  1 <1>  -0.1500 
  8 C        3.5770     2.7130     1.7530 C.3   1 <1>   0.1810 
  9 C       -0.3520     3.3130     0.2410 C.ar  1 <1>  -0.1500 
 10 C        5.0480     2.3880     2.0170 C.2   1 <1>   0.5690 
 11 O        5.3040     1.9520     3.1180 O.2   1 <1>  -0.5700 
 12 N        6.0350     2.6150     1.0780 N.am  1 <1>  -0.6600 
 13 C        5.7150     3.1970    -0.2640 C.3   1 <1>   0.1400 
 14 C        7.4440     2.2080     1.3730 C.3   1 <1>   0.1400 
 15 C        6.8870     3.8810    -0.9790 C.3   1 <1>  -0.1600 
 16 C        8.0380     1.3110     0.2830 C.3   1 <1>  -0.1600 
 17 C        7.7940     2.8940    -1.7300 C.3   1 <1>  -0.1600 
 18 C        8.7440     2.1030    -0.8260 C.3   1 <1>  -0.1600 
 19 H        0.3140     2.4420    -2.9550 H     1 <1>   0.1500 
 20 H        0.9830     3.1310     1.8790 H     1 <1>   0.1500 
 21 H       -1.5020     3.3820    -1.5610 H     1 <1>   0.1500 
 22 H        2.9860     2.3380     2.5690 H     1 <1>   0.0800 
 23 H        3.4550     3.7770     1.6780 H     1 <1>   0.0800 
 24 H       -1.1440     3.7190     0.8470 H     1 <1>   0.1500 
 25 H        4.9410     3.9340    -0.1420 H     1 <1>   0.0800 
 26 H        5.3190     2.4180    -0.8920 H     1 <1>   0.0800 
 27 H        7.4740     1.6590     2.2990 H     1 <1>   0.0800 
 28 H        8.0490     3.0860     1.5120 H     1 <1>   0.0800 
 29 H        7.4480     4.4950    -0.2960 H     1 <1>   0.0800 
 30 H        6.4620     4.5390    -1.7160 H     1 <1>   0.0800 
 31 H        7.2800     0.6620    -0.1220 H     1 <1>   0.0800 
 32 H        8.7770     0.6840     0.7500 H     1 <1>   0.0800 
 33 H        8.3910     3.4480    -2.4340 H     1 <1>   0.0800 
 34 H        7.1870     2.2100    -2.2980 H     1 <1>   0.0800 
 35 H        9.2950     1.4130    -1.4410 H     1 <1>   0.0800 
 36 H        9.4580     2.7760    -0.3830 H     1 <1>   0.0800 
@<TRIPOS>BOND
  1   1   2  1   
  2   2   3  ar  
  3   2   4  ar  
  4   3   5  1   
  5   3   6  ar  
  6   4   7  ar  
  7   4  19  1   
  8   5   8  1   
  9   6   9  ar  
 10   6  20  1   
 11   7   9  ar  
 12   7  21  1   
 13   8  10  1   
 14   8  22  1   
 15   8  23  1   
 16   9  24  1   
 17  10  11  2   
 18  10  12  am  
 19  12  13  1   
 20  12  14  1   
 21  13  15  1   
 22  13  25  1   
 23  13  26  1   
 24  14  16  1   
 25  14  27  1   
 26  14  28  1   
 27  15  17  1   
 28  15  29  1   
 29  15  30  1   
 30  16  18  1   
 31  16  31  1   
 32  16  32  1   
 33  17  18  1   
 34  17  33  1   
 35  17  34  1   
 36  18  35  1   
 37  18  36  1   
@<TRIPOS>SUBSTRUCTURE
  1 ****   5 GROUP 4 **** **** 0

# MOE 2024.06 (io_trps.svl 2023.06)
