@<TRIPOS>MOLECULE
NONAME
48 49 1 0 0 
SMALL
USER_CHARGES


@<TRIPOS>ATOM
  1 CL       0.2840     0.3540    -0.1470 Cl    1 <1>  -0.1770 
  2 C        1.8920     1.0420    -0.0240 C.ar  1 <1>   0.1770 
  3 C        2.9970     0.2150    -0.1840 C.ar  1 <1>  -0.1440 
  4 C        2.0290     2.4000     0.2320 C.ar  1 <1>  -0.1440 
  5 C        4.2650     0.7660    -0.0850 C.ar  1 <1>  -0.1500 
  6 C        2.8300    -1.2720    -0.4640 C.3   1 <1>  -0.0960 
  7 C        3.3050     2.9310     0.3270 C.ar  1 <1>  -0.1500 
  8 C        0.8130     3.2980     0.4060 C.3   1 <1>  -0.0960 
  9 C        4.4230     2.1260     0.1710 C.ar  1 <1>   0.0830 
 10 O        5.6290     2.7380     0.2810 O.3   1 <1>  -0.3630 
 11 C        6.8330     2.0170     0.1410 C.3   1 <1>   0.1200 
 12 C        7.9910     2.9930     0.3220 C.3   1 <1>   0.1200 
 13 O        9.1940     2.2950     0.1830 O.3   1 <1>  -0.5600 
 14 C       10.3290     3.0800     0.3290 C.3   1 <1>   0.1200 
 15 C       11.5460     2.1600     0.1680 C.3   1 <1>   0.3430 
 16 N       12.8520     2.8720     0.3640 N.4   1 <1>  -0.9590 
 17 C       13.1250     3.8640    -0.7210 C.3   1 <1>   0.3430 
 18 C       13.9590     1.8770     0.4760 C.3   1 <1>   0.3430 
 19 C       14.4140     4.6280    -0.4080 C.3   1 <1>  -0.1600 
 20 C       15.2660     2.5960     0.8170 C.3   1 <1>  -0.1600 
 21 C       15.6040     3.6790    -0.2160 C.3   1 <1>  -0.1600 
 22 H        5.1180     0.1270    -0.2090 H     1 <1>   0.1500 
 23 H        2.2880    -1.7380     0.3400 H     1 <1>   0.0800 
 24 H        3.7820    -1.7600    -0.5600 H     1 <1>   0.0800 
 25 H        2.2810    -1.4140    -1.3780 H     1 <1>   0.0800 
 26 H        3.4490     3.9780     0.5240 H     1 <1>   0.1500 
 27 H        0.2120     3.2790    -0.4850 H     1 <1>   0.0800 
 28 H        1.1080     4.3140     0.5970 H     1 <1>   0.0800 
 29 H        0.2190     2.9550     1.2340 H     1 <1>   0.0800 
 30 H        6.8560     1.5840    -0.8430 H     1 <1>   0.0800 
 31 H        6.8610     1.2550     0.9000 H     1 <1>   0.0800 
 32 H        7.9520     3.4290     1.3050 H     1 <1>   0.0800 
 33 H        7.9450     3.7600    -0.4330 H     1 <1>   0.0800 
 34 H       10.3120     3.5220     1.3110 H     1 <1>   0.0800 
 35 H       10.3120     3.8410    -0.4310 H     1 <1>   0.0800 
 36 H       11.5180     1.7160    -0.8140 H     1 <1>   0.0800 
 37 H       11.4590     1.3700     0.8960 H     1 <1>   0.0800 
 38 H       12.8220     3.3830     1.2560 H     1 <1>   0.4500 
 39 H       12.3100     4.5640    -0.8030 H     1 <1>   0.0800 
 40 H       13.2310     3.3530    -1.6650 H     1 <1>   0.0800 
 41 H       14.0730     1.3490    -0.4570 H     1 <1>   0.0800 
 42 H       13.7360     1.1580     1.2480 H     1 <1>   0.0800 
 43 H       14.2720     5.2240     0.4770 H     1 <1>   0.0800 
 44 H       14.6270     5.3040    -1.2180 H     1 <1>   0.0800 
 45 H       16.0650     1.8750     0.8480 H     1 <1>   0.0800 
 46 H       15.1910     3.0330     1.7980 H     1 <1>   0.0800 
 47 H       16.4690     4.2360     0.1070 H     1 <1>   0.0800 
 48 H       15.8480     3.2140    -1.1570 H     1 <1>   0.0800 
@<TRIPOS>BOND
  1   1   2  1   
  2   2   3  ar  
  3   2   4  ar  
  4   3   5  ar  
  5   3   6  1   
  6   4   7  ar  
  7   4   8  1   
  8   5   9  ar  
  9   5  22  1   
 10   6  23  1   
 11   6  24  1   
 12   6  25  1   
 13   7   9  ar  
 14   7  26  1   
 15   8  27  1   
 16   8  28  1   
 17   8  29  1   
 18   9  10  1   
 19  10  11  1   
 20  11  12  1   
 21  11  30  1   
 22  11  31  1   
 23  12  13  1   
 24  12  32  1   
 25  12  33  1   
 26  13  14  1   
 27  14  15  1   
 28  14  34  1   
 29  14  35  1   
 30  15  16  1   
 31  15  36  1   
 32  15  37  1   
 33  16  17  1   
 34  16  18  1   
 35  16  38  1   
 36  17  19  1   
 37  17  39  1   
 38  17  40  1   
 39  18  20  1   
 40  18  41  1   
 41  18  42  1   
 42  19  21  1   
 43  19  43  1   
 44  19  44  1   
 45  20  21  1   
 46  20  45  1   
 47  20  46  1   
 48  21  47  1   
 49  21  48  1   
@<TRIPOS>SUBSTRUCTURE
  1 ****  11 GROUP 4 **** **** 0

# MOE 2024.06 (io_trps.svl 2023.06)
