@<TRIPOS>MOLECULE
NONAME
30 31 1 0 0 
SMALL
USER_CHARGES


@<TRIPOS>ATOM
  1 CL       0.2990    -0.2620     1.1330 Cl    1 <1>  -0.1770 
  2 C        0.3180    -1.8480     0.4000 C.ar  1 <1>   0.1770 
  3 C        1.4600    -2.3100    -0.2600 C.ar  1 <1>   0.0860 
  4 C       -0.8240    -2.6160     0.5210 C.ar  1 <1>  -0.1500 
  5 C        2.6470    -1.5010    -0.3920 C.2   1 <1>   0.5440 
  6 C        1.4210    -3.6010    -0.7970 C.ar  1 <1>  -0.1500 
  7 C       -0.8160    -3.8820    -0.0300 C.ar  1 <1>   0.1900 
  8 O        2.6330    -0.4670    -1.0280 O.2   1 <1>  -0.5700 
  9 N        3.8180    -1.9190     0.1670 N.am  1 <1>  -0.7300 
 10 C        0.2890    -4.3910    -0.6860 C.ar  1 <1>  -0.1500 
 11 F       -1.8830    -4.6220     0.0750 F     1 <1>  -0.1900 
 12 C        5.1360    -1.2540     0.0430 C.3   1 <1>   0.1400 
 13 C        6.2110    -2.2860    -0.3290 C.3   1 <1>   0.2000 
 14 O        6.1240    -3.4030     0.5040 O.3   1 <1>  -0.5600 
 15 C        7.6400    -1.7910    -0.1610 C.3   1 <1>  -0.1600 
 16 C        7.3590    -4.0430     0.6130 C.3   1 <1>   0.1200 
 17 C        8.4060    -3.0830     0.0510 C.3   1 <1>  -0.1600 
 18 H       -1.6930    -2.2420     1.0300 H     1 <1>   0.1500 
 19 H        2.2900    -3.9790    -1.3090 H     1 <1>   0.1500 
 20 H        3.8810    -2.8220     0.6480 H     1 <1>   0.3700 
 21 H        0.2570    -5.3830    -1.1010 H     1 <1>   0.1500 
 22 H        5.3840    -0.7960     0.9840 H     1 <1>   0.0800 
 23 H        5.0970    -0.4820    -0.7060 H     1 <1>   0.0800 
 24 H        6.0570    -2.6260    -1.3390 H     1 <1>   0.0800 
 25 H        7.7130    -1.1700     0.7150 H     1 <1>   0.0800 
 26 H        7.9800    -1.2410    -1.0200 H     1 <1>   0.0800 
 27 H        7.3200    -4.9610     0.0530 H     1 <1>   0.0800 
 28 H        7.5320    -4.2530     1.6540 H     1 <1>   0.0800 
 29 H        9.2350    -2.9600     0.7250 H     1 <1>   0.0800 
 30 H        8.7700    -3.4660    -0.8870 H     1 <1>   0.0800 
@<TRIPOS>BOND
  1   1   2  1   
  2   2   3  ar  
  3   2   4  ar  
  4   3   5  1   
  5   3   6  ar  
  6   4   7  ar  
  7   4  18  1   
  8   5   8  2   
  9   5   9  am  
 10   6  10  ar  
 11   6  19  1   
 12   7  10  ar  
 13   7  11  1   
 14   9  12  1   
 15   9  20  1   
 16  10  21  1   
 17  12  13  1   
 18  12  22  1   
 19  12  23  1   
 20  13  14  1   
 21  13  15  1   
 22  13  24  1   
 23  14  16  1   
 24  15  17  1   
 25  15  25  1   
 26  15  26  1   
 27  16  17  1   
 28  16  27  1   
 29  16  28  1   
 30  17  29  1   
 31  17  30  1   
@<TRIPOS>SUBSTRUCTURE
  1 ****   9 GROUP 4 **** **** 0

# MOE 2024.06 (io_trps.svl 2023.06)
