@<TRIPOS>MOLECULE
NONAME
43 44 1 0 0 
SMALL
USER_CHARGES


@<TRIPOS>ATOM
  1 S        0.0980    -0.4890    -2.0770 S.3   1 <1>  -0.0800 
  2 C       -1.2290    -1.6340    -2.0350 C.2   1 <1>  -0.1100 
  3 C        0.1720    -0.4440    -0.3270 C.2   1 <1>  -0.1100 
  4 C       -1.5730    -1.9230    -0.7640 C.2   1 <1>  -0.1810 
  5 C       -0.7610    -1.2490     0.2110 C.2   1 <1>  -0.1500 
  6 C       -2.6900    -2.8590    -0.3560 C.3   1 <1>   0.5240 
  7 N       -3.9680    -2.0880    -0.3930 N.4   1 <1>  -0.9590 
  8 C       -3.9510    -1.0270     0.6720 C.3   1 <1>   0.4860 
  9 C       -5.1780    -2.9980    -0.3430 C.3   1 <1>   0.3430 
 10 C       -5.2700    -0.2840     0.6670 C.ar  1 <1>  -0.1430 
 11 C       -6.4130    -2.4940    -1.1570 C.3   1 <1>   0.3430 
 12 C       -5.5530     0.6340    -0.3350 C.ar  1 <1>  -0.1500 
 13 C       -6.2100    -0.5250     1.6610 C.ar  1 <1>  -0.1500 
 14 N       -7.6680    -3.3160    -0.9860 N.4   1 <1>  -0.9590 
 15 C       -6.7770     1.2770    -0.3610 C.ar  1 <1>  -0.1500 
 16 C       -7.4310     0.1240     1.6350 C.ar  1 <1>  -0.1500 
 17 C       -8.7000    -2.8750    -1.9850 C.3   1 <1>   0.2630 
 18 C       -8.2580    -3.1870     0.3890 C.3   1 <1>   0.2630 
 19 C       -7.7180     1.0190     0.6200 C.ar  1 <1>  -0.1500 
 20 H       -1.5990    -1.9620    -2.9920 H     1 <1>   0.1500 
 21 H        0.9260     0.1860     0.1160 H     1 <1>   0.1500 
 22 H       -0.8890    -1.3920     1.2710 H     1 <1>   0.1500 
 23 H       -2.5030    -3.2610     0.6280 H     1 <1>   0.0800 
 24 H       -2.7290    -3.6750    -1.0590 H     1 <1>   0.0800 
 25 H       -3.9320    -1.5780    -1.2860 H     1 <1>   0.4500 
 26 H       -3.1510    -0.3260     0.4890 H     1 <1>   0.0800 
 27 H       -3.7920    -1.4710     1.6420 H     1 <1>   0.0800 
 28 H       -5.4680    -3.1320     0.6860 H     1 <1>   0.0800 
 29 H       -4.9040    -3.9640    -0.7370 H     1 <1>   0.0800 
 30 H       -6.1470    -2.4850    -2.2010 H     1 <1>   0.0800 
 31 H       -6.6420    -1.4820    -0.8700 H     1 <1>   0.0800 
 32 H       -4.8290     0.8700    -1.0990 H     1 <1>   0.1500 
 33 H       -6.0010    -1.2030     2.4730 H     1 <1>   0.1500 
 34 H       -7.4840    -4.3160    -1.1750 H     1 <1>   0.4500 
 35 H       -6.9980     1.9950    -1.1350 H     1 <1>   0.1500 
 36 H       -8.1580    -0.0470     2.4130 H     1 <1>   0.1500 
 37 H       -8.9550    -1.8380    -1.8320 H     1 <1>   0.0800 
 38 H       -9.5970    -3.4660    -1.8830 H     1 <1>   0.0800 
 39 H       -8.3290    -2.9940    -2.9910 H     1 <1>   0.0800 
 40 H       -8.4830    -2.1540     0.6060 H     1 <1>   0.0800 
 41 H       -7.5750    -3.5560     1.1360 H     1 <1>   0.0800 
 42 H       -9.1730    -3.7550     0.4580 H     1 <1>   0.0800 
 43 H       -8.6660     1.5330     0.6040 H     1 <1>   0.1500 
@<TRIPOS>BOND
  1   1   2  1   
  2   1   3  1   
  3   2   4  2   
  4   2  20  1   
  5   3   5  2   
  6   3  21  1   
  7   4   5  1   
  8   4   6  1   
  9   5  22  1   
 10   6   7  1   
 11   6  23  1   
 12   6  24  1   
 13   7   8  1   
 14   7   9  1   
 15   7  25  1   
 16   8  10  1   
 17   8  26  1   
 18   8  27  1   
 19   9  11  1   
 20   9  28  1   
 21   9  29  1   
 22  10  12  ar  
 23  10  13  ar  
 24  11  14  1   
 25  11  30  1   
 26  11  31  1   
 27  12  15  ar  
 28  12  32  1   
 29  13  16  ar  
 30  13  33  1   
 31  14  17  1   
 32  14  18  1   
 33  14  34  1   
 34  15  19  ar  
 35  15  35  1   
 36  16  19  ar  
 37  16  36  1   
 38  17  37  1   
 39  17  38  1   
 40  17  39  1   
 41  18  40  1   
 42  18  41  1   
 43  18  42  1   
 44  19  43  1   
@<TRIPOS>SUBSTRUCTURE
  1 ****   7 GROUP 4 **** **** 0

# MOE 2024.06 (io_trps.svl 2023.06)
