@<TRIPOS>MOLECULE
NONAME
44 46 1 0 0 
SMALL
USER_CHARGES


@<TRIPOS>ATOM
  1 CL       3.0060    -1.3240    -2.2530 Cl    1 <1>  -0.1770 
  2 C        1.6590    -2.2940    -1.7110 C.ar  1 <1>   0.1770 
  3 C        1.4470    -2.4760    -0.3490 C.ar  1 <1>  -0.1440 
  4 C        0.8330    -2.8680    -2.6580 C.ar  1 <1>  -0.1500 
  5 C        0.3720    -3.2520     0.0730 C.ar  1 <1>  -0.1500 
  6 C        2.3800    -1.8290     0.6590 C.3   1 <1>   0.4870 
  7 C       -0.2220    -3.6350    -2.2080 C.ar  1 <1>   0.1900 
  8 C       -0.4690    -3.8370    -0.8620 C.ar  1 <1>  -0.1500 
  9 N        3.6930    -2.5220     0.6420 N.4   1 <1>  -0.9590 
 10 F       -1.0140    -4.1900    -3.0830 F     1 <1>  -0.1900 
 11 C        3.6470    -3.9990     0.9070 C.3   1 <1>   0.3430 
 12 C        4.7450    -1.8480     1.4730 C.3   1 <1>   0.3430 
 13 C        5.0270    -4.6540     0.6390 C.3   1 <1>   0.1100 
 14 C        6.1010    -2.5880     1.3730 C.3   1 <1>   0.1100 
 15 N        6.0680    -3.6480     0.3350 N.3   1 <1>  -0.8100 
 16 C        7.4090    -4.2450     0.0550 C.3   1 <1>   0.1710 
 17 C        8.4950    -3.2880    -0.4790 C.2   1 <1>   0.5690 
 18 O        8.1910    -2.1960    -0.9050 O.2   1 <1>  -0.5700 
 19 N        9.7910    -3.7090    -0.4470 N.am  1 <1>  -0.5790 
 20 C       10.9480    -2.9310    -0.9140 C.3   1 <1>   0.0490 
 21 C       12.0820    -3.6710    -1.5420 C.3   1 <1>  -0.2000 
 22 C       12.2360    -3.0770    -0.1730 C.3   1 <1>  -0.2000 
 23 H        1.0020    -2.7240    -3.7100 H     1 <1>   0.1500 
 24 H        0.1720    -3.4060     1.1210 H     1 <1>   0.1500 
 25 H        1.9470    -1.8820     1.6440 H     1 <1>   0.0800 
 26 H        2.5120    -0.7900     0.4010 H     1 <1>   0.0800 
 27 H       -1.3090    -4.4400    -0.5600 H     1 <1>   0.1500 
 28 H        4.0790    -2.4600    -0.3170 H     1 <1>   0.4500 
 29 H        2.9130    -4.4690     0.2720 H     1 <1>   0.0800 
 30 H        3.3610    -4.1800     1.9290 H     1 <1>   0.0800 
 31 H        4.4400    -1.8060     2.5050 H     1 <1>   0.0800 
 32 H        4.8840    -0.8360     1.1280 H     1 <1>   0.0800 
 33 H        4.9330    -5.3260    -0.1970 H     1 <1>   0.0800 
 34 H        5.3150    -5.2390     1.4960 H     1 <1>   0.0800 
 35 H        6.3470    -3.0190     2.3280 H     1 <1>   0.0800 
 36 H        6.8610    -1.8610     1.1440 H     1 <1>   0.0800 
 37 H        7.2880    -5.0160    -0.6860 H     1 <1>   0.0800 
 38 H        7.7800    -4.7080     0.9520 H     1 <1>   0.0800 
 39 H       10.0260    -4.6390    -0.1030 H     1 <1>   0.3700 
 40 H       10.6840    -1.9610    -1.3080 H     1 <1>   0.1000 
 41 H       12.6090    -3.2080    -2.3570 H     1 <1>   0.1000 
 42 H       12.0190    -4.7390    -1.6450 H     1 <1>   0.1000 
 43 H       12.2790    -3.7310     0.6790 H     1 <1>   0.1000 
 44 H       12.8680    -2.2130    -0.0650 H     1 <1>   0.1000 
@<TRIPOS>BOND
  1   1   2  1   
  2   2   3  ar  
  3   2   4  ar  
  4   3   5  ar  
  5   3   6  1   
  6   4   7  ar  
  7   4  23  1   
  8   5   8  ar  
  9   5  24  1   
 10   6   9  1   
 11   6  25  1   
 12   6  26  1   
 13   7   8  ar  
 14   7  10  1   
 15   8  27  1   
 16   9  11  1   
 17   9  12  1   
 18   9  28  1   
 19  11  13  1   
 20  11  29  1   
 21  11  30  1   
 22  12  14  1   
 23  12  31  1   
 24  12  32  1   
 25  13  15  1   
 26  13  33  1   
 27  13  34  1   
 28  14  15  1   
 29  14  35  1   
 30  14  36  1   
 31  15  16  1   
 32  16  17  1   
 33  16  37  1   
 34  16  38  1   
 35  17  18  2   
 36  17  19  am  
 37  19  20  1   
 38  19  39  1   
 39  20  21  1   
 40  20  22  1   
 41  20  40  1   
 42  21  22  1   
 43  21  41  1   
 44  21  42  1   
 45  22  43  1   
 46  22  44  1   
@<TRIPOS>SUBSTRUCTURE
  1 ****  15 GROUP 4 **** **** 0

# MOE 2024.06 (io_trps.svl 2023.06)
