@<TRIPOS>MOLECULE
NONAME
48 50 1 0 0 
SMALL
USER_CHARGES


@<TRIPOS>ATOM
  1 O        0.4170    -4.5270     1.4880 O.2   1 <1>  -0.5700 
  2 C        0.5330    -3.8500     0.4890 C.2   1 <1>   0.5690 
  3 N        1.7430    -3.2640     0.1840 N.am  1 <1>  -0.6600 
  4 C       -0.6970    -3.6780    -0.4420 C.3   1 <1>   0.2610 
  5 C        1.9940    -2.3670    -0.9880 C.3   1 <1>   0.1400 
  6 C        2.9370    -3.4240     1.0710 C.3   1 <1>   0.1400 
  7 O       -1.0730    -2.3300    -0.5510 O.3   1 <1>  -0.5600 
  8 C       -1.9870    -4.3520     0.0280 C.3   1 <1>  -0.1600 
  9 C        3.2230    -2.8270    -1.7870 C.3   1 <1>   0.1400 
 10 C        4.1660    -3.8860     0.2740 C.3   1 <1>   0.1400 
 11 C       -1.9280    -1.9940     0.4960 C.3   1 <1>   0.1200 
 12 C       -2.6520    -3.2820     0.8820 C.3   1 <1>  -0.1600 
 13 N        4.4170    -2.9930    -0.9020 N.am  1 <1>  -0.6600 
 14 C        5.6240    -2.4140    -1.2130 C.2   1 <1>   0.5690 
 15 O        5.7490    -1.7110    -2.1910 O.2   1 <1>  -0.5700 
 16 C        6.8610    -2.6180    -0.3460 C.3   1 <1>   0.0440 
 17 C        7.3930    -4.0530    -0.4010 C.ar  1 <1>  -0.1440 
 18 C        7.6030    -4.8130     0.7500 C.ar  1 <1>   0.0820 
 19 C        7.6800    -4.6030    -1.6410 C.ar  1 <1>  -0.1500 
 20 O        7.3170    -4.2460     1.9530 O.3   1 <1>  -0.3630 
 21 C        8.0890    -6.1140     0.6360 C.ar  1 <1>  -0.1500 
 22 C        8.1640    -5.8940    -1.7470 C.ar  1 <1>  -0.1500 
 23 C        7.6260    -4.8900     3.1700 C.3   1 <1>   0.0400 
 24 C        8.3670    -6.6500    -0.6080 C.ar  1 <1>  -0.1500 
 25 H       -0.4320    -4.0310    -1.4220 H     1 <1>   0.0800 
 26 H        2.1610    -1.3650    -0.6330 H     1 <1>   0.0800 
 27 H        1.1480    -2.3390    -1.6490 H     1 <1>   0.0800 
 28 H        2.7400    -4.1390     1.8500 H     1 <1>   0.0800 
 29 H        3.1540    -2.4810     1.5400 H     1 <1>   0.0800 
 30 H       -1.8120    -5.2670     0.5650 H     1 <1>   0.0800 
 31 H       -2.5980    -4.5660    -0.8320 H     1 <1>   0.0800 
 32 H        3.4230    -2.1090    -2.5630 H     1 <1>   0.0800 
 33 H        3.0070    -3.7680    -2.2610 H     1 <1>   0.0800 
 34 H        4.0040    -4.8910    -0.0760 H     1 <1>   0.0800 
 35 H        5.0090    -3.9040     0.9350 H     1 <1>   0.0800 
 36 H       -2.6050    -1.2300     0.1560 H     1 <1>   0.0800 
 37 H       -1.3300    -1.6250     1.3120 H     1 <1>   0.0800 
 38 H       -2.5020    -3.4790     1.9290 H     1 <1>   0.0800 
 39 H       -3.7070    -3.2130     0.6830 H     1 <1>   0.0800 
 40 H        6.6260    -2.3100     0.6530 H     1 <1>   0.0800 
 41 H        7.6340    -1.9610    -0.6980 H     1 <1>   0.0800 
 42 H        7.5270    -4.0230    -2.5370 H     1 <1>   0.1500 
 43 H        8.2570    -6.7270     1.5000 H     1 <1>   0.1500 
 44 H        8.3810    -6.3080    -2.7170 H     1 <1>   0.1500 
 45 H        7.3640    -4.2280     3.9750 H     1 <1>   0.0800 
 46 H        8.6810    -5.0980     3.1970 H     1 <1>   0.0800 
 47 H        7.0520    -5.7970     3.2420 H     1 <1>   0.0800 
 48 H        8.7420    -7.6550    -0.6920 H     1 <1>   0.1500 
@<TRIPOS>BOND
  1   1   2  2   
  2   2   3  am  
  3   2   4  1   
  4   3   5  1   
  5   3   6  1   
  6   4   7  1   
  7   4   8  1   
  8   4  25  1   
  9   5   9  1   
 10   5  26  1   
 11   5  27  1   
 12   6  10  1   
 13   6  28  1   
 14   6  29  1   
 15   7  11  1   
 16   8  12  1   
 17   8  30  1   
 18   8  31  1   
 19   9  13  1   
 20   9  32  1   
 21   9  33  1   
 22  10  13  1   
 23  10  34  1   
 24  10  35  1   
 25  11  12  1   
 26  11  36  1   
 27  11  37  1   
 28  12  38  1   
 29  12  39  1   
 30  13  14  am  
 31  14  15  2   
 32  14  16  1   
 33  16  17  1   
 34  16  40  1   
 35  16  41  1   
 36  17  18  ar  
 37  17  19  ar  
 38  18  20  1   
 39  18  21  ar  
 40  19  22  ar  
 41  19  42  1   
 42  20  23  1   
 43  21  24  ar  
 44  21  43  1   
 45  22  24  ar  
 46  22  44  1   
 47  23  45  1   
 48  23  46  1   
 49  23  47  1   
 50  24  48  1   
@<TRIPOS>SUBSTRUCTURE
  1 ****  10 GROUP 4 **** **** 0

# MOE 2024.06 (io_trps.svl 2023.06)
