@<TRIPOS>MOLECULE
NONAME
38 38 1 0 0 
SMALL
USER_CHARGES


@<TRIPOS>ATOM
  1 CL      -0.0850     0.1880     2.4490 Cl    1 <1>  -0.1770 
  2 C        1.3490    -0.5690     1.7820 C.ar  1 <1>   0.1770 
  3 C        1.2240    -1.7590     1.0670 C.ar  1 <1>   0.1170 
  4 C        2.5720     0.0380     1.9840 C.ar  1 <1>  -0.1500 
  5 N       -0.0550    -2.3270     0.8930 N.am  1 <1>  -0.5470 
  6 C        2.3900    -2.3290     0.5660 C.ar  1 <1>  -0.1500 
  7 C        3.7130    -0.5480     1.4660 C.ar  1 <1>  -0.1500 
  8 C       -0.5150    -3.3190     0.0740 C.2   1 <1>   0.5690 
  9 C        3.6350    -1.7420     0.7530 C.ar  1 <1>   0.1170 
 10 O        0.1790    -3.9290    -0.7000 O.2   1 <1>  -0.5700 
 11 C       -1.9920    -3.6580     0.1490 C.3   1 <1>  -0.0990 
 12 N        4.7560    -2.3810     0.1970 N.am  1 <1>  -0.5470 
 13 C       -2.8760    -2.5540    -0.4550 C.3   1 <1>  -0.1600 
 14 C        6.0950    -2.2410     0.4340 C.2   1 <1>   0.5690 
 15 C       -4.3620    -2.9270    -0.3770 C.3   1 <1>  -0.1600 
 16 O        6.5630    -1.4830     1.2460 O.2   1 <1>  -0.5700 
 17 C        7.0410    -3.1130    -0.3730 C.3   1 <1>  -0.0990 
 18 C       -5.2360    -1.8240    -0.9790 C.3   1 <1>  -0.2400 
 19 C        7.0660    -2.7470    -1.8660 C.3   1 <1>  -0.2400 
 20 H        2.6320     0.9580     2.5380 H     1 <1>   0.1500 
 21 H       -0.7820    -1.8600     1.4380 H     1 <1>   0.3700 
 22 H        2.3370    -3.2520     0.0230 H     1 <1>   0.1500 
 23 H        4.6620    -0.0670     1.6190 H     1 <1>   0.1500 
 24 H       -2.2570    -3.8240     1.1770 H     1 <1>   0.0800 
 25 H       -2.1560    -4.5780    -0.3840 H     1 <1>   0.0800 
 26 H        4.5260    -3.0940    -0.4930 H     1 <1>   0.3700 
 27 H       -2.5980    -2.4060    -1.4850 H     1 <1>   0.0800 
 28 H       -2.7130    -1.6280     0.0690 H     1 <1>   0.0800 
 29 H       -4.6470    -3.0810     0.6500 H     1 <1>   0.0800 
 30 H       -4.5340    -3.8450    -0.9130 H     1 <1>   0.0800 
 31 H        6.7540    -4.1410    -0.2530 H     1 <1>   0.0800 
 32 H        8.0320    -3.0030     0.0320 H     1 <1>   0.0800 
 33 H       -5.1010    -0.9000    -0.4450 H     1 <1>   0.0800 
 34 H       -6.2730    -2.1030    -0.9200 H     1 <1>   0.0800 
 35 H       -4.9850    -1.6670    -2.0140 H     1 <1>   0.0800 
 36 H        6.0960    -2.8830    -2.3110 H     1 <1>   0.0800 
 37 H        7.7730    -3.3690    -2.3870 H     1 <1>   0.0800 
 38 H        7.3610    -1.7190    -1.9880 H     1 <1>   0.0800 
@<TRIPOS>BOND
  1   1   2  1   
  2   2   3  ar  
  3   2   4  ar  
  4   3   5  1   
  5   3   6  ar  
  6   4   7  ar  
  7   4  20  1   
  8   5   8  am  
  9   5  21  1   
 10   6   9  ar  
 11   6  22  1   
 12   7   9  ar  
 13   7  23  1   
 14   8  10  2   
 15   8  11  1   
 16   9  12  1   
 17  11  13  1   
 18  11  24  1   
 19  11  25  1   
 20  12  14  am  
 21  12  26  1   
 22  13  15  1   
 23  13  27  1   
 24  13  28  1   
 25  14  16  2   
 26  14  17  1   
 27  15  18  1   
 28  15  29  1   
 29  15  30  1   
 30  17  19  1   
 31  17  31  1   
 32  17  32  1   
 33  18  33  1   
 34  18  34  1   
 35  18  35  1   
 36  19  36  1   
 37  19  37  1   
 38  19  38  1   
@<TRIPOS>SUBSTRUCTURE
  1 ****   6 GROUP 4 **** **** 0

# MOE 2024.06 (io_trps.svl 2023.06)
