@<TRIPOS>MOLECULE
NONAME
46 48 1 0 0 
SMALL
USER_CHARGES


@<TRIPOS>ATOM
  1 O        0.6300    -0.8660     0.6350 O.2   1 <1>  -0.5700 
  2 C        1.3140    -1.8500     0.4440 C.2   1 <1>   0.5690 
  3 N        2.5160    -1.7390    -0.2200 N.am  1 <1>  -0.6600 
  4 C        0.8220    -3.2180     0.9890 C.3   1 <1>   0.2610 
  5 C        2.9990    -0.4410    -0.7740 C.3   1 <1>   0.1400 
  6 C        3.4450    -2.8670    -0.5280 C.3   1 <1>   0.1400 
  7 O        0.6850    -4.1630    -0.0390 O.3   1 <1>  -0.5600 
  8 C       -0.5670    -3.2170     1.6300 C.3   1 <1>  -0.1600 
  9 C        4.4330    -0.1510    -0.3030 C.3   1 <1>   0.1100 
 10 C        4.8790    -2.5380    -0.0740 C.3   1 <1>   0.1100 
 11 C       -0.5710    -4.0410    -0.6280 C.3   1 <1>   0.1200 
 12 C       -1.4950    -3.4880     0.4550 C.3   1 <1>  -0.1600 
 13 N        5.3620    -1.2550    -0.6330 N.3   1 <1>  -0.8100 
 14 C        6.7540    -0.8990    -0.2290 C.3   1 <1>   0.1710 
 15 C        7.8640    -1.8720    -0.6550 C.2   1 <1>   0.5690 
 16 O        8.5500    -1.5870    -1.6080 O.2   1 <1>  -0.5700 
 17 N        8.0620    -2.9950     0.1080 N.am  1 <1>  -0.5470 
 18 C        8.9620    -4.0630    -0.0290 C.ar  1 <1>   0.1170 
 19 C        9.5870    -4.3830    -1.2310 C.ar  1 <1>  -0.1500 
 20 C        9.2300    -4.8530     1.0840 C.ar  1 <1>  -0.1500 
 21 C       10.4560    -5.4560    -1.3160 C.ar  1 <1>  -0.1500 
 22 C       10.0980    -5.9280     1.0030 C.ar  1 <1>  -0.1500 
 23 C       10.7140    -6.2300    -0.1980 C.ar  1 <1>  -0.1500 
 24 H        1.5500    -3.5870     1.6860 H     1 <1>   0.0800 
 25 H        2.3570     0.3660    -0.4690 H     1 <1>   0.0800 
 26 H        2.9830    -0.4890    -1.8490 H     1 <1>   0.0800 
 27 H        3.4440    -3.0410    -1.5900 H     1 <1>   0.0800 
 28 H        3.1300    -3.7750    -0.0480 H     1 <1>   0.0800 
 29 H       -0.7960    -2.2980     2.1400 H     1 <1>   0.0800 
 30 H       -0.6220    -4.0270     2.3350 H     1 <1>   0.0800 
 31 H        4.4210     0.0140     0.7610 H     1 <1>   0.0800 
 32 H        4.7710     0.7530    -0.7790 H     1 <1>   0.0800 
 33 H        5.5160    -3.3370    -0.4070 H     1 <1>   0.0800 
 34 H        4.9050    -2.5020     1.0010 H     1 <1>   0.0800 
 35 H       -0.8840    -5.0100    -0.9780 H     1 <1>   0.0800 
 36 H       -0.4890    -3.3560    -1.4560 H     1 <1>   0.0800 
 37 H       -1.9510    -2.5770     0.1080 H     1 <1>   0.0800 
 38 H       -2.2660    -4.1940     0.7110 H     1 <1>   0.0800 
 39 H        6.7960    -0.7800     0.8380 H     1 <1>   0.0800 
 40 H        6.9980     0.0530    -0.6660 H     1 <1>   0.0800 
 41 H        7.4590    -3.0610     0.9220 H     1 <1>   0.3700 
 42 H        9.3950    -3.7980    -2.1110 H     1 <1>   0.1500 
 43 H        8.7630    -4.6280     2.0240 H     1 <1>   0.1500 
 44 H       10.9320    -5.6870    -2.2530 H     1 <1>   0.1500 
 45 H       10.2980    -6.5290     1.8730 H     1 <1>   0.1500 
 46 H       11.3900    -7.0650    -0.2650 H     1 <1>   0.1500 
@<TRIPOS>BOND
  1   1   2  2   
  2   2   3  am  
  3   2   4  1   
  4   3   5  1   
  5   3   6  1   
  6   4   7  1   
  7   4   8  1   
  8   4  24  1   
  9   5   9  1   
 10   5  25  1   
 11   5  26  1   
 12   6  10  1   
 13   6  27  1   
 14   6  28  1   
 15   7  11  1   
 16   8  12  1   
 17   8  29  1   
 18   8  30  1   
 19   9  13  1   
 20   9  31  1   
 21   9  32  1   
 22  10  13  1   
 23  10  33  1   
 24  10  34  1   
 25  11  12  1   
 26  11  35  1   
 27  11  36  1   
 28  12  37  1   
 29  12  38  1   
 30  13  14  1   
 31  14  15  1   
 32  14  39  1   
 33  14  40  1   
 34  15  16  2   
 35  15  17  am  
 36  17  18  1   
 37  17  41  1   
 38  18  19  ar  
 39  18  20  ar  
 40  19  21  ar  
 41  19  42  1   
 42  20  22  ar  
 43  20  43  1   
 44  21  23  ar  
 45  21  44  1   
 46  22  23  ar  
 47  22  45  1   
 48  23  46  1   
@<TRIPOS>SUBSTRUCTURE
  1 ****  10 GROUP 4 **** **** 0

# MOE 2024.06 (io_trps.svl 2023.06)
