@<TRIPOS>MOLECULE
NONAME
41 42 1 0 0 
SMALL
USER_CHARGES


@<TRIPOS>ATOM
  1 S        0.1830    -0.3020    -1.0930 S.o2  1 <1>   1.4470 
  2 O       -0.4560     0.9900    -0.9620 O.2   1 <1>  -0.6500 
  3 O        0.1100    -1.0010    -2.3580 O.2   1 <1>  -0.6500 
  4 N       -0.5010    -1.3250     0.0730 N.am  1 <1>  -0.8490 
  5 C        1.9100    -0.1510    -0.5500 C.ar  1 <1>  -0.0090 
  6 C       -0.0390    -2.7110    -0.0680 C.3   1 <1>   0.1960 
  7 C       -1.9660    -1.2590     0.0390 C.3   1 <1>   0.1960 
  8 C        2.9140    -0.9320    -1.1000 C.ar  1 <1>  -0.1500 
  9 C        2.2660     0.7350     0.4560 C.ar  1 <1>  -0.1500 
 10 C       -0.5610    -3.5670     1.0910 C.3   1 <1>  -0.1600 
 11 C       -2.5660    -2.0690     1.1940 C.3   1 <1>  -0.1600 
 12 C        4.2490    -0.8710    -0.6910 C.ar  1 <1>   0.0860 
 13 C        3.5730     0.8380     0.8870 C.ar  1 <1>  -0.1500 
 14 C       -2.0910    -3.5260     1.1670 C.3   1 <1>  -0.1600 
 15 C        4.5710     0.0450     0.3260 C.ar  1 <1>   0.0830 
 16 C        5.2130    -1.7570    -1.3290 C.2   1 <1>   0.5440 
 17 O        5.8580     0.1340     0.7490 O.3   1 <1>  -0.3630 
 18 O        4.8590    -2.7700    -1.8940 O.2   1 <1>  -0.5700 
 19 N        6.5420    -1.5160    -1.3450 N.am  1 <1>  -0.8000 
 20 C        6.2740     0.9730     1.8030 C.3   1 <1>   0.1200 
 21 C        7.7740     0.7740     1.9990 C.3   1 <1>  -0.2400 
 22 H        1.0370    -2.7420    -0.0610 H     1 <1>   0.0800 
 23 H       -0.3800    -3.1210    -1.0050 H     1 <1>   0.0800 
 24 H       -2.3260    -1.6340    -0.9050 H     1 <1>   0.0800 
 25 H       -2.2880    -0.2350     0.1370 H     1 <1>   0.0800 
 26 H        2.6520    -1.6240    -1.8850 H     1 <1>   0.1500 
 27 H        1.5020     1.3520     0.9040 H     1 <1>   0.1500 
 28 H       -0.1390    -3.1990     2.0100 H     1 <1>   0.0800 
 29 H       -0.2320    -4.5820     0.9610 H     1 <1>   0.0800 
 30 H       -3.6390    -2.0360     1.1320 H     1 <1>   0.0800 
 31 H       -2.2760    -1.6090     2.1230 H     1 <1>   0.0800 
 32 H        3.7890     1.5450     1.6660 H     1 <1>   0.1500 
 33 H       -2.4320    -4.0420     2.0480 H     1 <1>   0.0800 
 34 H       -2.5050    -4.0220     0.3050 H     1 <1>   0.0800 
 35 H        7.1730    -2.2090    -1.7460 H     1 <1>   0.3700 
 36 H        6.9450    -0.7970    -0.7390 H     1 <1>   0.3700 
 37 H        5.7350     0.6960     2.6930 H     1 <1>   0.0800 
 38 H        6.0580     1.9930     1.5360 H     1 <1>   0.0800 
 39 H        7.9830    -0.2520     2.2460 H     1 <1>   0.0800 
 40 H        8.1210     1.3960     2.8040 H     1 <1>   0.0800 
 41 H        8.3060     1.0460     1.1040 H     1 <1>   0.0800 
@<TRIPOS>BOND
  1   1   2  2   
  2   1   3  2   
  3   1   4  am  
  4   1   5  1   
  5   4   6  1   
  6   4   7  1   
  7   5   8  ar  
  8   5   9  ar  
  9   6  10  1   
 10   6  22  1   
 11   6  23  1   
 12   7  11  1   
 13   7  24  1   
 14   7  25  1   
 15   8  12  ar  
 16   8  26  1   
 17   9  13  ar  
 18   9  27  1   
 19  10  14  1   
 20  10  28  1   
 21  10  29  1   
 22  11  14  1   
 23  11  30  1   
 24  11  31  1   
 25  12  15  ar  
 26  12  16  1   
 27  13  15  ar  
 28  13  32  1   
 29  14  33  1   
 30  14  34  1   
 31  15  17  1   
 32  16  18  2   
 33  16  19  am  
 34  17  20  1   
 35  19  35  1   
 36  19  36  1   
 37  20  21  1   
 38  20  37  1   
 39  20  38  1   
 40  21  39  1   
 41  21  40  1   
 42  21  41  1   
@<TRIPOS>SUBSTRUCTURE
  1 ****   5 GROUP 4 **** **** 0

# MOE 2024.06 (io_trps.svl 2023.06)
