@<TRIPOS>MOLECULE
NONAME
39 40 1 0 0 
SMALL
USER_CHARGES


@<TRIPOS>ATOM
  1 BR       2.5930    -2.1490    -2.7430 Br    1 <1>  -0.1110 
  2 C        1.3580    -2.6590    -1.3500 C.ar  1 <1>   0.1110 
  3 C        1.8040    -2.7510    -0.0380 C.ar  1 <1>   0.0830 
  4 C        0.0530    -2.9340    -1.7110 C.ar  1 <1>  -0.1500 
  5 O        3.1050    -2.4680     0.2310 O.3   1 <1>  -0.3630 
  6 C        0.8890    -3.1340     0.9380 C.ar  1 <1>  -0.1500 
  7 C       -0.8490    -3.3170    -0.7300 C.ar  1 <1>  -0.1430 
  8 C        3.7380    -3.0090     1.3820 C.3   1 <1>   0.1810 
  9 C       -0.4240    -3.4140     0.5870 C.ar  1 <1>  -0.1500 
 10 C       -2.2910    -3.6280    -1.0910 C.3   1 <1>  -0.0960 
 11 C        5.2490    -2.7620     1.3740 C.2   1 <1>   0.5690 
 12 O        5.7480    -2.4310     2.4230 O.2   1 <1>  -0.5700 
 13 N        6.0350    -2.9190     0.2500 N.am  1 <1>  -0.6600 
 14 C        7.4440    -2.4070     0.2430 C.3   1 <1>   0.1400 
 15 C        5.5400    -3.4340    -1.0680 C.3   1 <1>   0.1400 
 16 C        8.4090    -3.3950    -0.4330 C.3   1 <1>   0.3430 
 17 C        6.5540    -4.3800    -1.7400 C.3   1 <1>   0.3430 
 18 N        7.9360    -3.7890    -1.8070 N.4   1 <1>  -0.9590 
 19 C        8.8970    -4.7290    -2.4600 C.3   1 <1>   0.2630 
 20 H       -0.2460    -2.8500    -2.7400 H     1 <1>   0.1500 
 21 H        1.1710    -3.2100     1.9710 H     1 <1>   0.1500 
 22 H        3.5460    -4.0650     1.4160 H     1 <1>   0.0800 
 23 H        3.3120    -2.5360     2.2490 H     1 <1>   0.0800 
 24 H       -1.1220    -3.7090     1.3520 H     1 <1>   0.1500 
 25 H       -2.5570    -3.1700    -2.0270 H     1 <1>   0.0800 
 26 H       -2.9540    -3.2550    -0.3310 H     1 <1>   0.0800 
 27 H       -2.4240    -4.6920    -1.1760 H     1 <1>   0.0800 
 28 H        7.7870    -2.2290     1.2480 H     1 <1>   0.0800 
 29 H        7.4700    -1.4630    -0.2740 H     1 <1>   0.0800 
 30 H        5.3390    -2.5990    -1.7160 H     1 <1>   0.0800 
 31 H        4.6210    -3.9770    -0.9390 H     1 <1>   0.0800 
 32 H        8.4900    -4.2710     0.1900 H     1 <1>   0.0800 
 33 H        9.3850    -2.9430    -0.4960 H     1 <1>   0.0800 
 34 H        6.2070    -4.6140    -2.7340 H     1 <1>   0.0800 
 35 H        6.5830    -5.2990    -1.1780 H     1 <1>   0.0800 
 36 H        7.8760    -2.9280    -2.3710 H     1 <1>   0.4500 
 37 H        8.9790    -5.6400    -1.8870 H     1 <1>   0.0800 
 38 H        9.8740    -4.2780    -2.5300 H     1 <1>   0.0800 
 39 H        8.5620    -4.9770    -3.4550 H     1 <1>   0.0800 
@<TRIPOS>BOND
  1   1   2  1   
  2   2   3  ar  
  3   2   4  ar  
  4   3   5  1   
  5   3   6  ar  
  6   4   7  ar  
  7   4  20  1   
  8   5   8  1   
  9   6   9  ar  
 10   6  21  1   
 11   7   9  ar  
 12   7  10  1   
 13   8  11  1   
 14   8  22  1   
 15   8  23  1   
 16   9  24  1   
 17  10  25  1   
 18  10  26  1   
 19  10  27  1   
 20  11  12  2   
 21  11  13  am  
 22  13  14  1   
 23  13  15  1   
 24  14  16  1   
 25  14  28  1   
 26  14  29  1   
 27  15  17  1   
 28  15  30  1   
 29  15  31  1   
 30  16  18  1   
 31  16  32  1   
 32  16  33  1   
 33  17  18  1   
 34  17  34  1   
 35  17  35  1   
 36  18  19  1   
 37  18  36  1   
 38  19  37  1   
 39  19  38  1   
 40  19  39  1   
@<TRIPOS>SUBSTRUCTURE
  1 ****   5 GROUP 4 **** **** 0

# MOE 2024.06 (io_trps.svl 2023.06)
