@<TRIPOS>MOLECULE
NONAME
55 55 1 0 0 
SMALL
USER_CHARGES


@<TRIPOS>ATOM
  1 O       -0.1970    -0.2440    -0.7450 O.3   1 <1>  -0.8500 
  2 C       -0.0340    -1.4190    -0.3920 C.2   1 <1>  -0.1500 
  3 C       -1.2380    -2.2170    -0.2690 C.2   1 <1>  -0.1380 
  4 C        1.2750    -1.8900    -0.1810 C.2   1 <1>  -0.1240 
  5 C       -2.4870    -1.6760    -0.2770 C.2   1 <1>  -0.1500 
  6 C       -1.0400    -3.7200    -0.1400 C.3   1 <1>  -0.0220 
  7 C        2.4720    -1.1360    -0.1570 C.2   1 <1>   0.5410 
  8 C        1.4220    -3.4020     0.0360 C.3   1 <1>  -0.0220 
  9 C       -3.7780    -2.2900    -0.2000 C.2   1 <1>  -0.1500 
 10 C        0.1950    -4.0270     0.6980 C.3   1 <1>  -0.1600 
 11 O        2.5470     0.0790     0.1060 O.2   1 <1>  -0.5700 
 12 C        3.7530    -1.7520    -0.4020 C.2   1 <1>  -0.1360 
 13 C       -4.9620    -1.6320    -0.1560 C.2   1 <1>  -0.1500 
 14 C        4.9750    -1.3080    -0.0190 C.2   1 <1>  -0.1500 
 15 C       -6.2560    -2.2240    -0.0830 C.2   1 <1>  -0.1500 
 16 C        6.2260    -1.9390    -0.2820 C.2   1 <1>  -0.1500 
 17 C       -7.4340    -1.5580    -0.0330 C.2   1 <1>  -0.0500 
 18 C        7.4400    -1.4910     0.1170 C.2   1 <1>  -0.1500 
 19 N       -8.7040    -2.1100     0.0360 N.pl3 1 <1>  -0.8380 
 20 C        8.6930    -2.1170    -0.1400 C.2   1 <1>  -0.1500 
 21 C       -9.9030    -1.2460     0.1930 C.3   1 <1>   0.1290 
 22 C       -8.9540    -3.5750     0.0010 C.3   1 <1>   0.1290 
 23 C        9.9030    -1.6660     0.2690 C.2   1 <1>  -0.0500 
 24 N       11.1330    -2.2550     0.0310 N.pl3 1 <1>  -0.8380 
 25 C       11.3000    -3.4830    -0.7910 C.3   1 <1>   0.1290 
 26 C       12.3720    -1.6990     0.6330 C.3   1 <1>   0.1290 
 27 H       -2.5250    -0.6030    -0.3600 H     1 <1>   0.1500 
 28 H       -1.8860    -4.1820     0.3300 H     1 <1>   0.0800 
 29 H       -0.9270    -4.1340    -1.1250 H     1 <1>   0.0800 
 30 H        1.5850    -3.8690    -0.9180 H     1 <1>   0.0800 
 31 H        2.2650    -3.6090     0.6700 H     1 <1>   0.0800 
 32 H       -3.7900    -3.3610    -0.1830 H     1 <1>   0.1500 
 33 H        0.3250    -5.0890     0.7900 H     1 <1>   0.0800 
 34 H        0.0670    -3.6050     1.6800 H     1 <1>   0.0800 
 35 H        3.6960    -2.6570    -0.9700 H     1 <1>   0.1500 
 36 H       -4.9480    -0.5560    -0.1770 H     1 <1>   0.1500 
 37 H        5.0290    -0.3870     0.5400 H     1 <1>   0.1500 
 38 H       -6.2560    -3.2970    -0.0650 H     1 <1>   0.1500 
 39 H        6.1680    -2.8510    -0.8500 H     1 <1>   0.1500 
 40 H       -7.4050    -0.4800    -0.0450 H     1 <1>   0.1500 
 41 H        7.4950    -0.5780     0.6850 H     1 <1>   0.1500 
 42 H        8.6370    -3.0250    -0.7080 H     1 <1>   0.1500 
 43 H      -10.4300    -1.5160     1.0910 H     1 <1>   0.0800 
 44 H      -10.5540    -1.3710    -0.6540 H     1 <1>   0.0800 
 45 H       -9.6130    -0.2120     0.2590 H     1 <1>   0.0800 
 46 H       -9.9590    -3.7740    -0.3280 H     1 <1>   0.0800 
 47 H       -8.8150    -3.9880     0.9840 H     1 <1>   0.0800 
 48 H       -8.2740    -4.0500    -0.6840 H     1 <1>   0.0800 
 49 H        9.9380    -0.7560     0.8460 H     1 <1>   0.1500 
 50 H       12.3150    -3.5640    -1.1400 H     1 <1>   0.0800 
 51 H       10.6500    -3.4450    -1.6470 H     1 <1>   0.0800 
 52 H       11.0610    -4.3490    -0.1990 H     1 <1>   0.0800 
 53 H       12.8460    -2.4460     1.2440 H     1 <1>   0.0800 
 54 H       12.1420    -0.8450     1.2460 H     1 <1>   0.0800 
 55 H       13.0490    -1.3940    -0.1460 H     1 <1>   0.0800 
@<TRIPOS>BOND
  1   1   2  1   
  2   2   3  1   
  3   2   4  2   
  4   3   5  2   
  5   3   6  1   
  6   4   7  1   
  7   4   8  1   
  8   5   9  1   
  9   5  27  1   
 10   6  10  1   
 11   6  28  1   
 12   6  29  1   
 13   7  11  2   
 14   7  12  1   
 15   8  10  1   
 16   8  30  1   
 17   8  31  1   
 18   9  13  2   
 19   9  32  1   
 20  10  33  1   
 21  10  34  1   
 22  12  14  2   
 23  12  35  1   
 24  13  15  1   
 25  13  36  1   
 26  14  16  1   
 27  14  37  1   
 28  15  17  2   
 29  15  38  1   
 30  16  18  2   
 31  16  39  1   
 32  17  19  1   
 33  17  40  1   
 34  18  20  1   
 35  18  41  1   
 36  19  21  1   
 37  19  22  1   
 38  20  23  2   
 39  20  42  1   
 40  21  43  1   
 41  21  44  1   
 42  21  45  1   
 43  22  46  1   
 44  22  47  1   
 45  22  48  1   
 46  23  24  1   
 47  23  49  1   
 48  24  25  1   
 49  24  26  1   
 50  25  50  1   
 51  25  51  1   
 52  25  52  1   
 53  26  53  1   
 54  26  54  1   
 55  26  55  1   
@<TRIPOS>SUBSTRUCTURE
  1 ****   4 GROUP 4 **** **** 0

# MOE 2024.06 (io_trps.svl 2023.06)
