@<TRIPOS>MOLECULE
NONAME
53 55 1 0 0 
SMALL
USER_CHARGES


@<TRIPOS>ATOM
  1 S       -0.9860    -0.8060    -0.5930 S.3   1 <1>  -0.4600 
  2 C       -2.3070    -0.0240    -1.5550 C.3   1 <1>   0.0700 
  3 C       -1.2030    -0.0810     1.0530 C.3   1 <1>   0.0700 
  4 C       -3.6390    -0.1940    -0.8140 C.3   1 <1>   0.3430 
  5 C       -2.6650    -0.2550     1.4860 C.3   1 <1>   0.3430 
  6 N       -3.6270     0.4320     0.5570 N.4   1 <1>  -0.9590 
  7 C       -5.0040     0.4240     1.1290 C.3   1 <1>   0.4810 
  8 C       -5.8260     1.5370     0.4700 C.2   1 <1>  -0.0290 
  9 N       -5.5050     2.8240     0.8790 N.am  1 <1>  -0.5390 
 10 C       -6.8020     1.3390    -0.4630 C.2   1 <1>  -0.1240 
 11 C       -6.0440     3.9450     0.3390 C.2   1 <1>   0.6900 
 12 C       -7.1820     0.0870    -1.0470 C.2   1 <1>   0.7060 
 13 C       -7.6000     2.5410    -0.9890 C.3   1 <1>   0.5020 
 14 O       -5.7050     5.0250     0.7520 O.2   1 <1>  -0.5700 
 15 N       -6.9540     3.8190    -0.6370 N.am  1 <1>  -0.7300 
 16 O       -6.5750    -0.9420    -0.8160 O.2   1 <1>  -0.5700 
 17 O       -8.1950     0.0480    -1.9120 O.3   1 <1>  -0.4300 
 18 C       -9.0180     2.5590    -0.4250 C.ar  1 <1>  -0.1430 
 19 C       -8.6540    -1.1590    -2.4810 C.3   1 <1>   0.1200 
 20 C      -10.1050     2.4270    -1.2790 C.ar  1 <1>  -0.1500 
 21 C       -9.2500     2.7030     0.9380 C.ar  1 <1>  -0.1500 
 22 C       -9.8670    -0.8370    -3.3470 C.3   1 <1>  -0.2400 
 23 C      -11.3950     2.4320    -0.7790 C.ar  1 <1>  -0.1500 
 24 C      -10.5400     2.7080     1.4400 C.ar  1 <1>  -0.1500 
 25 C      -11.6230     2.5700     0.5790 C.ar  1 <1>   0.0820 
 26 O      -12.9170     2.5640     0.9850 O.3   1 <1>  -0.3620 
 27 C      -13.2620     2.7300     2.3420 C.3   1 <1>   0.0400 
 28 H       -2.3310    -0.5170    -2.5120 H     1 <1>   0.0800 
 29 H       -2.0510     1.0120    -1.6910 H     1 <1>   0.0800 
 30 H       -0.9170     0.9550     1.0000 H     1 <1>   0.0800 
 31 H       -0.5370    -0.6050     1.7150 H     1 <1>   0.0800 
 32 H       -3.8640    -1.2460    -0.7330 H     1 <1>   0.0800 
 33 H       -4.4160     0.2570    -1.4100 H     1 <1>   0.0800 
 34 H       -2.7740     0.1450     2.4810 H     1 <1>   0.0800 
 35 H       -2.8900    -1.3100     1.5270 H     1 <1>   0.0800 
 36 H       -3.3520     1.4160     0.4490 H     1 <1>   0.4500 
 37 H       -4.9650     0.6150     2.1890 H     1 <1>   0.0800 
 38 H       -5.4600    -0.5410     0.9920 H     1 <1>   0.0800 
 39 H       -4.8890     3.0530     1.6630 H     1 <1>   0.3700 
 40 H       -7.6420     2.4930    -2.0640 H     1 <1>   0.0800 
 41 H       -7.4800     4.6610    -0.8720 H     1 <1>   0.3700 
 42 H       -8.9220    -1.8350    -1.6850 H     1 <1>   0.0800 
 43 H       -7.8610    -1.5880    -3.0710 H     1 <1>   0.0800 
 44 H       -9.9620     2.3150    -2.3400 H     1 <1>   0.1500 
 45 H       -8.4270     2.8170     1.6210 H     1 <1>   0.1500 
 46 H      -10.6480    -0.4060    -2.7460 H     1 <1>   0.0800 
 47 H      -10.2430    -1.7390    -3.7940 H     1 <1>   0.0800 
 48 H       -9.5970    -0.1540    -4.1330 H     1 <1>   0.0800 
 49 H      -12.2370     2.3270    -1.4400 H     1 <1>   0.1500 
 50 H      -10.6830     2.8230     2.4980 H     1 <1>   0.1500 
 51 H      -14.3340     2.7020     2.4190 H     1 <1>   0.0800 
 52 H      -12.8960     3.6830     2.6810 H     1 <1>   0.0800 
 53 H      -12.8340     1.9250     2.9120 H     1 <1>   0.0800 
@<TRIPOS>BOND
  1   1   2  1   
  2   1   3  1   
  3   2   4  1   
  4   2  28  1   
  5   2  29  1   
  6   3   5  1   
  7   3  30  1   
  8   3  31  1   
  9   4   6  1   
 10   4  32  1   
 11   4  33  1   
 12   5   6  1   
 13   5  34  1   
 14   5  35  1   
 15   6   7  1   
 16   6  36  1   
 17   7   8  1   
 18   7  37  1   
 19   7  38  1   
 20   8   9  1   
 21   8  10  2   
 22   9  11  am  
 23   9  39  1   
 24  10  12  1   
 25  10  13  1   
 26  11  14  2   
 27  11  15  am  
 28  12  16  2   
 29  12  17  1   
 30  13  15  1   
 31  13  18  1   
 32  13  40  1   
 33  15  41  1   
 34  17  19  1   
 35  18  20  ar  
 36  18  21  ar  
 37  19  22  1   
 38  19  42  1   
 39  19  43  1   
 40  20  23  ar  
 41  20  44  1   
 42  21  24  ar  
 43  21  45  1   
 44  22  46  1   
 45  22  47  1   
 46  22  48  1   
 47  23  25  ar  
 48  23  49  1   
 49  24  25  ar  
 50  24  50  1   
 51  25  26  1   
 52  26  27  1   
 53  27  51  1   
 54  27  52  1   
 55  27  53  1   
@<TRIPOS>SUBSTRUCTURE
  1 ****  10 GROUP 4 **** **** 0

# MOE 2024.06 (io_trps.svl 2023.06)
