@<TRIPOS>MOLECULE
NONAME
47 49 1 0 0 
SMALL
USER_CHARGES


@<TRIPOS>ATOM
  1 S        0.4980     0.6980     0.3830 S.3   1 <1>  -0.3320 
  2 C       -1.1720     1.3170     0.3870 C.ar  1 <1>   0.7220 
  3 C        1.3770     1.7800    -0.8510 C.3   1 <1>   0.1310 
  4 N       -1.9880     0.6900     1.2040 N.ar  1 <1>  -0.6200 
  5 N       -1.4140     2.3270    -0.4190 N.ar  1 <1>  -0.6200 
  6 C        2.8450     1.4080    -0.9960 C.2   1 <1>   0.5690 
  7 C       -3.2410     1.1320     1.2270 C.ar  1 <1>   0.1660 
  8 C       -2.6510     2.7630    -0.3990 C.ar  1 <1>   0.1660 
  9 O        3.5150     2.0340    -1.7810 O.2   1 <1>  -0.5700 
 10 N        3.3660     0.3960    -0.2540 N.am  1 <1>  -0.7300 
 11 C       -3.6240     2.1940     0.4080 C.ar  1 <1>  -0.1430 
 12 C       -4.2490     0.4310     2.1880 C.3   1 <1>   1.1640 
 13 C       -2.9340     3.9290    -1.3390 C.3   1 <1>  -0.0170 
 14 C        4.7590    -0.0720    -0.2870 C.3   1 <1>   0.2200 
 15 C       -5.0590     2.7440     0.3930 C.3   1 <1>  -0.0160 
 16 F       -3.6940    -0.4490     3.0170 F     1 <1>  -0.3400 
 17 F       -4.8960     1.2940     2.9680 F     1 <1>  -0.3400 
 18 F       -5.1900    -0.2400     1.5290 F     1 <1>  -0.3400 
 19 C       -4.2570     4.6410    -1.0450 C.3   1 <1>  -0.1600 
 20 C        4.7770    -1.5400    -0.7230 C.3   1 <1>  -0.1600 
 21 C        5.3740     0.1040     1.1050 C.3   1 <1>  -0.1600 
 22 C       -5.3670     3.6130    -0.8310 C.3   1 <1>  -0.1600 
 23 C        6.2000    -2.1170    -0.6720 C.3   1 <1>  -0.1600 
 24 C        6.7980    -0.4700     1.1590 C.3   1 <1>  -0.1600 
 25 C        6.8200    -1.9400     0.7200 C.3   1 <1>  -0.1600 
 26 H        1.2860     2.7940    -0.5100 H     1 <1>   0.0800 
 27 H        0.8730     1.6660    -1.7930 H     1 <1>   0.0800 
 28 H        2.7470    -0.0990     0.3930 H     1 <1>   0.3700 
 29 H       -2.9520     3.5460    -2.3440 H     1 <1>   0.0800 
 30 H       -2.1300     4.6410    -1.2770 H     1 <1>   0.0800 
 31 H        5.3210     0.5140    -0.9980 H     1 <1>   0.0800 
 32 H       -5.2070     3.3390     1.2780 H     1 <1>   0.0800 
 33 H       -5.7780     1.9450     0.4100 H     1 <1>   0.0800 
 34 H       -4.5080     5.2910    -1.8660 H     1 <1>   0.0800 
 35 H       -4.1510     5.2470    -0.1610 H     1 <1>   0.0800 
 36 H        4.3990    -1.6160    -1.7270 H     1 <1>   0.0800 
 37 H        4.1430    -2.1170    -0.0740 H     1 <1>   0.0800 
 38 H        4.7650    -0.4010     1.8340 H     1 <1>   0.0800 
 39 H        5.4030     1.1510     1.3490 H     1 <1>   0.0800 
 40 H       -6.3080     4.1150    -0.6880 H     1 <1>   0.0800 
 41 H       -5.4540     2.9890    -1.7050 H     1 <1>   0.0800 
 42 H        6.8140    -1.6150    -1.4010 H     1 <1>   0.0800 
 43 H        6.1760    -3.1630    -0.9270 H     1 <1>   0.0800 
 44 H        7.1840    -0.3850     2.1610 H     1 <1>   0.0800 
 45 H        7.4380     0.1050     0.5100 H     1 <1>   0.0800 
 46 H        7.8360    -2.2980     0.7100 H     1 <1>   0.0800 
 47 H        6.2710    -2.5330     1.4330 H     1 <1>   0.0800 
@<TRIPOS>BOND
  1   1   2  1   
  2   1   3  1   
  3   2   4  ar  
  4   2   5  ar  
  5   3   6  1   
  6   3  26  1   
  7   3  27  1   
  8   4   7  ar  
  9   5   8  ar  
 10   6   9  2   
 11   6  10  am  
 12   7  11  ar  
 13   7  12  1   
 14   8  11  ar  
 15   8  13  1   
 16  10  14  1   
 17  10  28  1   
 18  11  15  1   
 19  12  16  1   
 20  12  17  1   
 21  12  18  1   
 22  13  19  1   
 23  13  29  1   
 24  13  30  1   
 25  14  20  1   
 26  14  21  1   
 27  14  31  1   
 28  15  22  1   
 29  15  32  1   
 30  15  33  1   
 31  19  22  1   
 32  19  34  1   
 33  19  35  1   
 34  20  23  1   
 35  20  36  1   
 36  20  37  1   
 37  21  24  1   
 38  21  38  1   
 39  21  39  1   
 40  22  40  1   
 41  22  41  1   
 42  23  25  1   
 43  23  42  1   
 44  23  43  1   
 45  24  25  1   
 46  24  44  1   
 47  24  45  1   
 48  25  46  1   
 49  25  47  1   
@<TRIPOS>SUBSTRUCTURE
  1 ****   1 GROUP 4 **** **** 0

# MOE 2024.06 (io_trps.svl 2023.06)
