@<TRIPOS>MOLECULE
NONAME
36 39 1 0 0 
SMALL
USER_CHARGES


@<TRIPOS>ATOM
  1 S       -0.2870     0.2110     1.2370 S.3   1 <1>  -0.0800 
  2 C        0.8970     1.3130     0.6200 C.2   1 <1>   0.4620 
  3 C       -1.3940     0.8490     0.0580 C.2   1 <1>   0.1980 
  4 N        0.4430     2.0310    -0.3440 N.2   1 <1>  -0.3380 
  5 N        2.1410     1.3080     1.1940 N.pl3 1 <1>  -0.8530 
  6 N       -0.8600     1.7610    -0.6560 N.2   1 <1>  -0.3380 
  7 C       -2.8180     0.2810     0.0040 C.3   1 <1>   0.1800 
  8 C        3.2550     2.1920     0.7740 C.3   1 <1>   0.1290 
  9 C       -3.5460     0.5030     1.3510 C.3   1 <1>  -0.1600 
 10 C       -2.7890    -1.2360    -0.3010 C.3   1 <1>  -0.1600 
 11 C       -3.6400     0.9790    -1.1080 C.3   1 <1>  -0.1600 
 12 C       -4.9780    -0.0650     1.3000 C.3   1 <1>  -0.0800 
 13 C       -4.2180    -1.8110    -0.3590 C.3   1 <1>  -0.0800 
 14 C       -5.0730     0.4190    -1.1740 C.3   1 <1>  -0.0800 
 15 C       -4.9130    -1.5730     0.9950 C.3   1 <1>  -0.1600 
 16 C       -5.7650     0.6450     0.1830 C.3   1 <1>  -0.1600 
 17 C       -5.0090    -1.0910    -1.4670 C.3   1 <1>  -0.1600 
 18 H        2.3240     0.6580     1.9620 H     1 <1>   0.4000 
 19 H        2.9430     2.8280    -0.0380 H     1 <1>   0.0800 
 20 H        4.0890     1.5970     0.4470 H     1 <1>   0.0800 
 21 H        3.5610     2.8110     1.6000 H     1 <1>   0.0800 
 22 H       -3.5810     1.5550     1.5720 H     1 <1>   0.0800 
 23 H       -3.0080     0.0210     2.1480 H     1 <1>   0.0800 
 24 H       -2.2330    -1.7570     0.4580 H     1 <1>   0.0800 
 25 H       -2.2920    -1.4040    -1.2410 H     1 <1>   0.0800 
 26 H       -3.1550     0.8390    -2.0580 H     1 <1>   0.0800 
 27 H       -3.6770     2.0380    -0.9190 H     1 <1>   0.0800 
 28 H       -5.4670     0.0950     2.2460 H     1 <1>   0.0800 
 29 H       -4.1780    -2.8660    -0.5680 H     1 <1>   0.0800 
 30 H       -5.6240     0.9190    -1.9520 H     1 <1>   0.0800 
 31 H       -5.9090    -1.9810     0.9680 H     1 <1>   0.0800 
 32 H       -4.3750    -2.0810     1.7760 H     1 <1>   0.0800 
 33 H       -5.8240     1.6990     0.3900 H     1 <1>   0.0800 
 34 H       -6.7700     0.2630     0.1460 H     1 <1>   0.0800 
 35 H       -4.5370    -1.2580    -2.4200 H     1 <1>   0.0800 
 36 H       -6.0050    -1.4930    -1.5230 H     1 <1>   0.0800 
@<TRIPOS>BOND
  1   1   2  1   
  2   1   3  1   
  3   2   4  2   
  4   2   5  1   
  5   3   6  2   
  6   3   7  1   
  7   4   6  1   
  8   5   8  1   
  9   5  18  1   
 10   7   9  1   
 11   7  10  1   
 12   7  11  1   
 13   8  19  1   
 14   8  20  1   
 15   8  21  1   
 16   9  12  1   
 17   9  22  1   
 18   9  23  1   
 19  10  13  1   
 20  10  24  1   
 21  10  25  1   
 22  11  14  1   
 23  11  26  1   
 24  11  27  1   
 25  12  15  1   
 26  12  16  1   
 27  12  28  1   
 28  13  15  1   
 29  13  17  1   
 30  13  29  1   
 31  14  16  1   
 32  14  17  1   
 33  14  30  1   
 34  15  31  1   
 35  15  32  1   
 36  16  33  1   
 37  16  34  1   
 38  17  35  1   
 39  17  36  1   
@<TRIPOS>SUBSTRUCTURE
  1 ****   7 GROUP 4 **** **** 0

# MOE 2024.06 (io_trps.svl 2023.06)
