@<TRIPOS>MOLECULE
NONAME
51 53 1 0 0 
SMALL
USER_CHARGES


@<TRIPOS>ATOM
  1 S        0.1130    -0.2200    -0.2660 S.3   1 <1>  -0.0800 
  2 C        0.8690     1.3650    -0.3890 C.2   1 <1>   0.1040 
  3 C       -1.4610     0.4990     0.0030 C.2   1 <1>  -0.1400 
  4 N        2.2250     1.4560    -0.6910 N.am  1 <1>  -0.4940 
  5 C       -0.0570     2.3590    -0.2030 C.2   1 <1>  -0.0860 
  6 C       -1.3840     1.8360     0.0150 C.2   1 <1>  -0.1810 
  7 C       -2.6810    -0.3750     0.1870 C.3   1 <1>   0.0200 
  8 C        3.2430     0.5500    -0.5660 C.2   1 <1>   0.5690 
  9 C        0.2610     3.7600    -0.2080 C.2   1 <1>   0.7160 
 10 C       -2.6260     2.6870     0.2420 C.3   1 <1>   0.0210 
 11 C       -3.9490     0.4950     0.0530 C.3   1 <1>  -0.0800 
 12 O        3.1590    -0.4900     0.0340 O.2   1 <1>  -0.5700 
 13 C        4.5670     0.8970    -1.2010 C.3   1 <1>  -0.1790 
 14 O       -0.4800     4.5910    -0.7010 O.2   1 <1>  -0.5700 
 15 N        1.4510     4.1420     0.3520 N.am  1 <1>  -0.5470 
 16 C       -3.7900     1.8400     0.7970 C.3   1 <1>  -0.1600 
 17 C       -5.1840    -0.2630     0.5570 C.3   1 <1>  -0.2400 
 18 C        2.3010     5.2330     0.1090 C.ar  1 <1>   0.1170 
 19 C        3.6780     5.0360     0.2540 C.ar  1 <1>   0.0830 
 20 C        1.8300     6.4880    -0.2570 C.ar  1 <1>  -0.1500 
 21 O        4.0990     3.7840     0.6110 O.3   1 <1>  -0.3630 
 22 C        4.5610     6.0860     0.0280 C.ar  1 <1>  -0.1500 
 23 C        2.7140     7.5360    -0.4860 C.ar  1 <1>   0.0830 
 24 C        5.3550     3.6110     1.2340 C.3   1 <1>   0.0400 
 25 C        4.0750     7.3280    -0.3400 C.ar  1 <1>  -0.1500 
 26 O        2.3260     8.7850    -0.8540 O.3   1 <1>  -0.3620 
 27 C        0.9660     9.0810    -1.0920 C.3   1 <1>   0.0400 
 28 H        2.5290     2.3560    -1.0640 H     1 <1>   0.3700 
 29 H       -2.6330    -0.8290     1.1610 H     1 <1>   0.0800 
 30 H       -2.6910    -1.1530    -0.5550 H     1 <1>   0.0800 
 31 H       -2.9140     3.1310    -0.6960 H     1 <1>   0.0800 
 32 H       -2.4080     3.4820     0.9330 H     1 <1>   0.0800 
 33 H       -4.0910     0.7120    -0.9930 H     1 <1>   0.0800 
 34 H        4.6270     1.9450    -1.4250 H     1 <1>   0.0800 
 35 H        4.6800     0.3330    -2.1070 H     1 <1>   0.0800 
 36 H        5.3620     0.6360    -0.5290 H     1 <1>   0.0800 
 37 H        1.9210     3.3840     0.8520 H     1 <1>   0.3700 
 38 H       -4.7000     2.4100     0.7260 H     1 <1>   0.0800 
 39 H       -3.6060     1.6420     1.8390 H     1 <1>   0.0800 
 40 H       -5.0910    -0.4860     1.6060 H     1 <1>   0.0800 
 41 H       -5.3010    -1.1860     0.0180 H     1 <1>   0.0800 
 42 H       -6.0700     0.3290     0.4100 H     1 <1>   0.0800 
 43 H        0.7730     6.6340    -0.3530 H     1 <1>   0.1500 
 44 H        5.6220     5.9590     0.1250 H     1 <1>   0.1500 
 45 H        5.4360     4.2990     2.0580 H     1 <1>   0.0800 
 46 H        6.1330     3.7830     0.5120 H     1 <1>   0.0800 
 47 H        5.4120     2.6010     1.5970 H     1 <1>   0.0800 
 48 H        4.7490     8.1480    -0.5190 H     1 <1>   0.1500 
 49 H        0.8970    10.1080    -1.4000 H     1 <1>   0.0800 
 50 H        0.4120     8.9340    -0.1820 H     1 <1>   0.0800 
 51 H        0.6000     8.4390    -1.8740 H     1 <1>   0.0800 
@<TRIPOS>BOND
  1   1   2  1   
  2   1   3  1   
  3   2   4  1   
  4   2   5  2   
  5   3   6  2   
  6   3   7  1   
  7   4   8  am  
  8   4  28  1   
  9   5   6  1   
 10   5   9  1   
 11   6  10  1   
 12   7  11  1   
 13   7  29  1   
 14   7  30  1   
 15   8  12  2   
 16   8  13  1   
 17   9  14  2   
 18   9  15  am  
 19  10  16  1   
 20  10  31  1   
 21  10  32  1   
 22  11  16  1   
 23  11  17  1   
 24  11  33  1   
 25  13  34  1   
 26  13  35  1   
 27  13  36  1   
 28  15  18  1   
 29  15  37  1   
 30  16  38  1   
 31  16  39  1   
 32  17  40  1   
 33  17  41  1   
 34  17  42  1   
 35  18  19  ar  
 36  18  20  ar  
 37  19  21  1   
 38  19  22  ar  
 39  20  23  ar  
 40  20  43  1   
 41  21  24  1   
 42  22  25  ar  
 43  22  44  1   
 44  23  25  ar  
 45  23  26  1   
 46  24  45  1   
 47  24  46  1   
 48  24  47  1   
 49  25  48  1   
 50  26  27  1   
 51  27  49  1   
 52  27  50  1   
 53  27  51  1   
@<TRIPOS>SUBSTRUCTURE
  1 ****   9 GROUP 4 **** **** 0

# MOE 2024.06 (io_trps.svl 2023.06)
