@<TRIPOS>MOLECULE
NONAME
39 39 1 0 0 
SMALL
USER_CHARGES


@<TRIPOS>ATOM
  1 O       -0.1320     1.3580     2.1580 O.2   1 <1>  -0.5700 
  2 C       -0.1760     2.0130     1.1370 C.2   1 <1>   0.5440 
  3 N        1.0390     2.3830     0.6410 N.am  1 <1>  -0.7300 
  4 C       -1.4560     2.3550     0.5650 C.ar  1 <1>   0.0860 
  5 C        1.5090     3.2610    -0.4450 C.3   1 <1>   0.3000 
  6 C       -2.0600     1.6550    -0.4950 C.ar  1 <1>   0.0830 
  7 C       -2.1400     3.4570     1.0830 C.ar  1 <1>  -0.1500 
  8 C        2.0150     4.5850     0.1650 C.3   1 <1>  -0.1600 
  9 C        2.6850     2.5250    -1.0880 C.3   1 <1>  -0.2400 
 10 C        0.4550     3.5080    -1.5290 C.3   1 <1>  -0.2400 
 11 O       -1.5380     0.5470    -1.0750 O.3   1 <1>  -0.3630 
 12 C       -3.2600     2.0960    -1.0280 C.ar  1 <1>  -0.1500 
 13 C       -3.3440     3.8830     0.5570 C.ar  1 <1>  -0.1500 
 14 C        0.9850     5.3800     0.9870 C.3   1 <1>  -0.2400 
 15 C       -0.9510    -0.4790    -0.3010 C.3   1 <1>   0.0400 
 16 C       -3.9100     3.2030    -0.5160 C.ar  1 <1>   0.0830 
 17 O       -5.0780     3.5580    -1.1000 O.3   1 <1>  -0.3630 
 18 C       -5.8290     4.6620    -0.6490 C.3   1 <1>   0.0400 
 19 H        1.8060     2.0560     1.2270 H     1 <1>   0.3700 
 20 H       -1.7070     3.9850     1.9140 H     1 <1>   0.1500 
 21 H        2.3710     5.2160    -0.6310 H     1 <1>   0.0800 
 22 H        2.8600     4.3760     0.7980 H     1 <1>   0.0800 
 23 H        2.3570     1.5880    -1.5020 H     1 <1>   0.0800 
 24 H        3.4600     2.3350    -0.3670 H     1 <1>   0.0800 
 25 H        3.1050     3.1150    -1.8830 H     1 <1>   0.0800 
 26 H        0.1240     2.5760    -1.9510 H     1 <1>   0.0800 
 27 H        0.8790     4.0950    -2.3240 H     1 <1>   0.0800 
 28 H       -0.3900     4.0480    -1.1500 H     1 <1>   0.0800 
 29 H       -3.6990     1.5640    -1.8520 H     1 <1>   0.1500 
 30 H       -3.8260     4.7400     0.9900 H     1 <1>   0.1500 
 31 H        0.1340     5.6490     0.3890 H     1 <1>   0.0800 
 32 H        1.4350     6.2840     1.3560 H     1 <1>   0.0800 
 33 H        0.6520     4.8050     1.8320 H     1 <1>   0.0800 
 34 H       -1.4700    -0.5590     0.6380 H     1 <1>   0.0800 
 35 H        0.0870    -0.2500    -0.1440 H     1 <1>   0.0800 
 36 H       -1.0390    -1.4010    -0.8470 H     1 <1>   0.0800 
 37 H       -5.2340     5.5530    -0.7460 H     1 <1>   0.0800 
 38 H       -6.1130     4.4960     0.3750 H     1 <1>   0.0800 
 39 H       -6.7080     4.7410    -1.2630 H     1 <1>   0.0800 
@<TRIPOS>BOND
  1   1   2  2   
  2   2   3  am  
  3   2   4  1   
  4   3   5  1   
  5   3  19  1   
  6   4   6  ar  
  7   4   7  ar  
  8   5   8  1   
  9   5   9  1   
 10   5  10  1   
 11   6  11  1   
 12   6  12  ar  
 13   7  13  ar  
 14   7  20  1   
 15   8  14  1   
 16   8  21  1   
 17   8  22  1   
 18   9  23  1   
 19   9  24  1   
 20   9  25  1   
 21  10  26  1   
 22  10  27  1   
 23  10  28  1   
 24  11  15  1   
 25  12  16  ar  
 26  12  29  1   
 27  13  16  ar  
 28  13  30  1   
 29  14  31  1   
 30  14  32  1   
 31  14  33  1   
 32  15  34  1   
 33  15  35  1   
 34  15  36  1   
 35  16  17  1   
 36  17  18  1   
 37  18  37  1   
 38  18  38  1   
 39  18  39  1   
@<TRIPOS>SUBSTRUCTURE
  1 ****   4 GROUP 4 **** **** 0

# MOE 2024.06 (io_trps.svl 2023.06)
