@<TRIPOS>MOLECULE
NONAME
36 36 1 0 0 
SMALL
USER_CHARGES


@<TRIPOS>ATOM
  1 O       -0.2420    -0.4800     1.1550 O.2   1 <1>  -0.5700 
  2 C       -0.0330    -1.3120     0.2910 C.2   1 <1>   0.6900 
  3 N       -1.0580    -2.0340    -0.2720 N.am  1 <1>  -0.6600 
  4 N        1.2360    -1.5390    -0.1110 N.am  1 <1>  -0.7300 
  5 C       -0.8600    -2.9700    -1.4120 C.3   1 <1>   0.1400 
  6 C       -2.4730    -1.7390     0.0880 C.3   1 <1>   0.1400 
  7 C        2.4270    -1.0600     0.6000 C.3   1 <1>   0.2840 
  8 C       -0.3550    -4.3230    -0.9070 C.3   1 <1>  -0.2400 
  9 C       -3.0300    -2.8450     0.9790 C.3   1 <1>  -0.2400 
 10 C        3.5030    -2.1190     0.4480 C.ar  1 <1>  -0.1430 
 11 C        4.4950    -1.9860    -0.5110 C.ar  1 <1>  -0.1500 
 12 C        3.4930    -3.2400     1.2630 C.ar  1 <1>  -0.1500 
 13 C        5.4660    -2.9620    -0.6500 C.ar  1 <1>  -0.1500 
 14 C        4.4640    -4.2160     1.1220 C.ar  1 <1>  -0.1500 
 15 C        5.4550    -4.0830     0.1640 C.ar  1 <1>  -0.1430 
 16 C        6.5230    -5.1510     0.0110 C.3   1 <1>  -0.0970 
 17 H        1.4000    -2.3690    -0.6720 H     1 <1>   0.3700 
 18 H       -0.1530    -2.5480    -2.1060 H     1 <1>   0.0800 
 19 H       -1.7890    -3.1070    -1.9370 H     1 <1>   0.0800 
 20 H       -3.0640    -1.6470    -0.8070 H     1 <1>   0.0800 
 21 H       -2.5350    -0.7990     0.6120 H     1 <1>   0.0800 
 22 H        2.2000    -0.9040     1.6420 H     1 <1>   0.0800 
 23 H        2.7460    -0.1250     0.1740 H     1 <1>   0.0800 
 24 H        0.5850    -4.2190    -0.3970 H     1 <1>   0.0800 
 25 H       -0.2160    -4.9890    -1.7390 H     1 <1>   0.0800 
 26 H       -1.0690    -4.7650    -0.2370 H     1 <1>   0.0800 
 27 H       -3.0870    -3.7730     0.4420 H     1 <1>   0.0800 
 28 H       -4.0190    -2.5810     1.3040 H     1 <1>   0.0800 
 29 H       -2.4050    -2.9650     1.8460 H     1 <1>   0.0800 
 30 H        4.5150    -1.1240    -1.1540 H     1 <1>   0.1500 
 31 H        2.7250    -3.3560     2.0080 H     1 <1>   0.1500 
 32 H        6.2320    -2.8450    -1.3970 H     1 <1>   0.1500 
 33 H        4.4440    -5.0790     1.7640 H     1 <1>   0.1500 
 34 H        6.8360    -5.2230    -1.0150 H     1 <1>   0.0800 
 35 H        6.1430    -6.1090     0.3170 H     1 <1>   0.0800 
 36 H        7.3740    -4.9040     0.6180 H     1 <1>   0.0800 
@<TRIPOS>BOND
  1   1   2  2   
  2   2   3  am  
  3   2   4  am  
  4   3   5  1   
  5   3   6  1   
  6   4   7  1   
  7   4  17  1   
  8   5   8  1   
  9   5  18  1   
 10   5  19  1   
 11   6   9  1   
 12   6  20  1   
 13   6  21  1   
 14   7  10  1   
 15   7  22  1   
 16   7  23  1   
 17   8  24  1   
 18   8  25  1   
 19   8  26  1   
 20   9  27  1   
 21   9  28  1   
 22   9  29  1   
 23  10  11  ar  
 24  10  12  ar  
 25  11  13  ar  
 26  11  30  1   
 27  12  14  ar  
 28  12  31  1   
 29  13  15  ar  
 30  13  32  1   
 31  14  15  ar  
 32  14  33  1   
 33  15  16  1   
 34  16  34  1   
 35  16  35  1   
 36  16  36  1   
@<TRIPOS>SUBSTRUCTURE
  1 ****   4 GROUP 4 **** **** 0

# MOE 2024.06 (io_trps.svl 2023.06)
