@<TRIPOS>MOLECULE
NONAME
40 41 1 0 0 
SMALL
USER_CHARGES


@<TRIPOS>ATOM
  1 S       -0.4240    -0.4810     0.5630 S.o2  1 <1>   1.3330 
  2 O        0.1950     0.4580     1.4700 O.2   1 <1>  -0.6500 
  3 O       -0.9960    -1.7100     1.0650 O.2   1 <1>  -0.6500 
  4 N       -1.6390     0.3360    -0.2860 N.am  1 <1>  -0.8490 
  5 C        0.7550    -0.8590    -0.7160 C.3   1 <1>  -0.1350 
  6 C       -2.2740     1.3830     0.5510 C.3   1 <1>   0.1960 
  7 C       -2.6130    -0.5630    -0.9460 C.3   1 <1>   0.1960 
  8 C       -3.7290     1.6970     0.1620 C.3   1 <1>   0.1400 
  9 C       -3.8720    -0.8190    -0.0970 C.3   1 <1>   0.1400 
 10 N       -4.5750     0.4650     0.2200 N.am  1 <1>  -0.6600 
 11 C       -5.9340     0.5720     0.3390 C.2   1 <1>   0.6900 
 12 O       -6.4730     1.6530     0.1950 O.2   1 <1>  -0.5700 
 13 N       -6.6510    -0.5470     0.6500 N.am  1 <1>  -0.5470 
 14 C       -8.0330    -0.7790     0.6470 C.ar  1 <1>   0.1170 
 15 C       -8.9070    -0.0820    -0.1780 C.ar  1 <1>  -0.1500 
 16 C       -8.5520    -1.7610     1.4840 C.ar  1 <1>  -0.1500 
 17 C      -10.2640    -0.3530    -0.1760 C.ar  1 <1>   0.0820 
 18 C       -9.9070    -2.0390     1.4970 C.ar  1 <1>  -0.1500 
 19 O      -11.0350     0.3780    -1.0210 O.3   1 <1>  -0.3630 
 20 C      -10.7670    -1.3390     0.6690 C.ar  1 <1>  -0.1500 
 21 C      -12.4360     0.2300    -1.0490 C.3   1 <1>   0.0400 
 22 H        1.0980     0.0460    -1.1760 H     1 <1>   0.0800 
 23 H        0.3090    -1.4830    -1.4640 H     1 <1>   0.0800 
 24 H        1.5970    -1.3720    -0.2960 H     1 <1>   0.0800 
 25 H       -1.6820     2.2810     0.4970 H     1 <1>   0.0800 
 26 H       -2.2850     1.0680     1.5820 H     1 <1>   0.0800 
 27 H       -2.1500    -1.5020    -1.1960 H     1 <1>   0.0800 
 28 H       -2.9240    -0.1100    -1.8720 H     1 <1>   0.0800 
 29 H       -3.7590     2.1070    -0.8330 H     1 <1>   0.0800 
 30 H       -4.1260     2.4360     0.8370 H     1 <1>   0.0800 
 31 H       -3.5920    -1.3110     0.8180 H     1 <1>   0.0800 
 32 H       -4.5320    -1.4690    -0.6450 H     1 <1>   0.0800 
 33 H       -6.0810    -1.2750     1.0630 H     1 <1>   0.3700 
 34 H       -8.5350     0.6810    -0.8360 H     1 <1>   0.1500 
 35 H       -7.8940    -2.3100     2.1320 H     1 <1>   0.1500 
 36 H      -10.2950    -2.8000     2.1510 H     1 <1>   0.1500 
 37 H      -11.8140    -1.5720     0.6950 H     1 <1>   0.1500 
 38 H      -12.8300     0.9250    -1.7690 H     1 <1>   0.0800 
 39 H      -12.8290     0.4520    -0.0730 H     1 <1>   0.0800 
 40 H      -12.6750    -0.7770    -1.3440 H     1 <1>   0.0800 
@<TRIPOS>BOND
  1   1   2  2   
  2   1   3  2   
  3   1   4  am  
  4   1   5  1   
  5   4   6  1   
  6   4   7  1   
  7   5  22  1   
  8   5  23  1   
  9   5  24  1   
 10   6   8  1   
 11   6  25  1   
 12   6  26  1   
 13   7   9  1   
 14   7  27  1   
 15   7  28  1   
 16   8  10  1   
 17   8  29  1   
 18   8  30  1   
 19   9  10  1   
 20   9  31  1   
 21   9  32  1   
 22  10  11  am  
 23  11  12  2   
 24  11  13  am  
 25  13  14  1   
 26  13  33  1   
 27  14  15  ar  
 28  14  16  ar  
 29  15  17  ar  
 30  15  34  1   
 31  16  18  ar  
 32  16  35  1   
 33  17  19  1   
 34  17  20  ar  
 35  18  20  ar  
 36  18  36  1   
 37  19  21  1   
 38  20  37  1   
 39  21  38  1   
 40  21  39  1   
 41  21  40  1   
@<TRIPOS>SUBSTRUCTURE
  1 ****  11 GROUP 4 **** **** 0

# MOE 2024.06 (io_trps.svl 2023.06)
