@<TRIPOS>MOLECULE
NONAME
36 38 1 0 0 
SMALL
USER_CHARGES


@<TRIPOS>ATOM
  1 CL       0.0160     0.4180    -0.4160 Cl    1 <1>  -0.1770 
  2 C       -0.9620     1.8350    -0.1280 C.ar  1 <1>   0.1770 
  3 C       -0.3870     3.0860    -0.2080 C.ar  1 <1>  -0.1500 
  4 C       -2.3000     1.6780     0.1750 C.ar  1 <1>  -0.1500 
  5 C       -1.1590     4.2180     0.0090 C.ar  1 <1>   0.1170 
  6 C       -3.0730     2.8030     0.4100 C.ar  1 <1>  -0.1500 
  7 N       -0.5310     5.4640    -0.0930 N.am  1 <1>  -0.5470 
  8 C       -2.5110     4.0700     0.3380 C.ar  1 <1>  -0.1430 
  9 C       -0.7620     6.4750    -0.9780 C.2   1 <1>   0.5690 
 10 C       -3.3880     5.2780     0.6360 C.3   1 <1>  -0.0960 
 11 O       -1.6240     6.3800    -1.8230 O.2   1 <1>  -0.5700 
 12 C        0.0750     7.7620    -0.9880 C.3   1 <1>  -0.0190 
 13 C        0.9880     8.2300     0.1790 C.3   1 <1>  -0.1860 
 14 C       -0.8300     9.0020    -1.1360 C.3   1 <1>   0.2000 
 15 C        1.3090     7.3200     1.3410 C.2   1 <1>   0.9060 
 16 C        0.3380     9.5620     0.5510 C.3   1 <1>   0.2000 
 17 O        0.0050    10.0190    -0.7110 O.3   1 <1>  -0.5600 
 18 C       -1.9080     9.0760    -0.0500 C.3   1 <1>  -0.1600 
 19 O        1.7770     6.2070     1.0800 O.co2 1 <1>  -0.9000 
 20 O        1.1240     7.6870     2.5010 O.co2 1 <1>  -0.9000 
 21 C       -1.0590     9.4130     1.1750 C.3   1 <1>  -0.1600 
 22 H        0.6570     3.1880    -0.4390 H     1 <1>   0.1500 
 23 H       -2.7260     0.6930     0.2290 H     1 <1>   0.1500 
 24 H       -4.1140     2.6860     0.6530 H     1 <1>   0.1500 
 25 H        0.3430     5.5610     0.4610 H     1 <1>   0.3700 
 26 H       -4.2840     4.9880     1.1520 H     1 <1>   0.0800 
 27 H       -2.8550     5.9760     1.2570 H     1 <1>   0.0800 
 28 H       -3.6610     5.7660    -0.2820 H     1 <1>   0.0800 
 29 H        0.6830     7.7010    -1.8710 H     1 <1>   0.0800 
 30 H        1.9480     8.4710    -0.2370 H     1 <1>   0.0800 
 31 H       -1.1880     9.1770    -2.1360 H     1 <1>   0.0800 
 32 H        0.9910    10.2470     1.0640 H     1 <1>   0.0800 
 33 H       -2.4630     8.1640     0.0650 H     1 <1>   0.0800 
 34 H       -2.5880     9.8770    -0.2740 H     1 <1>   0.0800 
 35 H       -1.3640    10.3440     1.6150 H     1 <1>   0.0800 
 36 H       -1.0930     8.6420     1.9230 H     1 <1>   0.0800 
@<TRIPOS>BOND
  1   1   2  1   
  2   2   3  ar  
  3   2   4  ar  
  4   3   5  ar  
  5   3  22  1   
  6   4   6  ar  
  7   4  23  1   
  8   5   7  1   
  9   5   8  ar  
 10   6   8  ar  
 11   6  24  1   
 12   7   9  am  
 13   7  25  1   
 14   8  10  1   
 15   9  11  2   
 16   9  12  1   
 17  10  26  1   
 18  10  27  1   
 19  10  28  1   
 20  12  13  1   
 21  12  14  1   
 22  12  29  1   
 23  13  15  1   
 24  13  16  1   
 25  13  30  1   
 26  14  17  1   
 27  14  18  1   
 28  14  31  1   
 29  15  19  ar  
 30  15  20  ar  
 31  16  17  1   
 32  16  21  1   
 33  16  32  1   
 34  18  21  1   
 35  18  33  1   
 36  18  34  1   
 37  21  35  1   
 38  21  36  1   
@<TRIPOS>SUBSTRUCTURE
  1 ****   7 GROUP 4 **** **** 0

# MOE 2024.06 (io_trps.svl 2023.06)
