@<TRIPOS>MOLECULE
NONAME
54 56 1 0 0 
SMALL
USER_CHARGES


@<TRIPOS>ATOM
  1 O       -9.4410     2.1770    -0.1470 O.3   1 <1>  -0.3630 
  2 C      -10.7760     2.1560     0.0940 C.ar  1 <1>   0.0820 
  3 C       -8.7900     0.9260    -0.2940 C.3   1 <1>   0.2000 
  4 C      -11.4210     0.9820     0.4900 C.ar  1 <1>   0.0820 
  5 C      -11.5020     3.3240    -0.0630 C.ar  1 <1>  -0.1500 
  6 C       -9.3200    -0.0700     0.7510 C.3   1 <1>   0.1200 
  7 C       -7.2850     1.1710    -0.1600 C.3   1 <1>   0.1200 
  8 O      -10.7310    -0.1710     0.6740 O.3   1 <1>  -0.3630 
  9 C      -12.7880     0.9840     0.7080 C.ar  1 <1>  -0.1500 
 10 C      -12.8700     3.3220     0.1620 C.ar  1 <1>  -0.1500 
 11 O       -6.5980    -0.0440    -0.2490 O.3   1 <1>  -0.5600 
 12 C      -13.5120     2.1540     0.5440 C.ar  1 <1>  -0.1500 
 13 C       -5.2070     0.0870    -0.1580 C.3   1 <1>   0.1200 
 14 C       -4.5540    -1.3010    -0.2560 C.3   1 <1>   0.2000 
 15 O       -5.2210    -2.1450     0.6200 O.3   1 <1>  -0.6800 
 16 C       -3.0360    -1.2550     0.0480 C.3   1 <1>   0.1100 
 17 N       -2.3860    -2.5720     0.2710 N.3   1 <1>  -0.8100 
 18 C       -0.9770    -2.4400     0.6770 C.3   1 <1>   0.1100 
 19 C       -2.5660    -3.5330    -0.8340 C.3   1 <1>   0.1100 
 20 C       -0.3790    -3.8110     1.0500 C.3   1 <1>   0.3430 
 21 C       -1.9760    -4.9090    -0.4660 C.3   1 <1>   0.3430 
 22 N       -0.5270    -4.8120    -0.0680 N.4   1 <1>  -0.9590 
 23 C       -0.0040    -6.1660     0.3020 C.3   1 <1>   0.3430 
 24 C        1.5210    -6.1880     0.4870 C.3   1 <1>   0.1200 
 25 O        1.8970    -7.4960     0.7360 O.3   1 <1>  -0.6800 
 26 H       -9.0070     0.5650    -1.2840 H     1 <1>   0.0800 
 27 H      -10.9970     4.2240    -0.3610 H     1 <1>   0.1500 
 28 H       -9.0620     0.2530     1.7430 H     1 <1>   0.0800 
 29 H       -8.9110    -1.0500     0.5820 H     1 <1>   0.0800 
 30 H       -7.0690     1.6160     0.7960 H     1 <1>   0.0800 
 31 H       -6.9500     1.8150    -0.9540 H     1 <1>   0.0800 
 32 H      -13.2760     0.0740     1.0060 H     1 <1>   0.1500 
 33 H      -13.4340     4.2300     0.0380 H     1 <1>   0.1500 
 34 H      -14.5740     2.1560     0.7140 H     1 <1>   0.1500 
 35 H       -4.9650     0.5430     0.7870 H     1 <1>   0.0800 
 36 H       -4.8620     0.7170    -0.9600 H     1 <1>   0.0800 
 37 H       -4.7110    -1.6780    -1.2510 H     1 <1>   0.0800 
 38 H       -6.1690    -1.8940     0.5910 H     1 <1>   0.4000 
 39 H       -2.9000    -0.6600     0.9350 H     1 <1>   0.0800 
 40 H       -2.5400    -0.7450    -0.7590 H     1 <1>   0.0800 
 41 H       -0.9170    -1.7940     1.5380 H     1 <1>   0.0800 
 42 H       -0.4040    -1.9920    -0.1160 H     1 <1>   0.0800 
 43 H       -2.1050    -3.1590    -1.7310 H     1 <1>   0.0800 
 44 H       -3.6170    -3.6670    -1.0250 H     1 <1>   0.0800 
 45 H       -0.8900    -4.1720     1.9280 H     1 <1>   0.0800 
 46 H        0.6610    -3.6840     1.3000 H     1 <1>   0.0800 
 47 H       -2.0840    -5.5750    -1.3060 H     1 <1>   0.0800 
 48 H       -2.5510    -5.3100     0.3520 H     1 <1>   0.0800 
 49 H       -0.0150    -4.4570    -0.8840 H     1 <1>   0.4500 
 50 H       -0.2520    -6.8680    -0.4770 H     1 <1>   0.0800 
 51 H       -0.4710    -6.4980     1.2150 H     1 <1>   0.0800 
 52 H        1.8250    -5.5910     1.3290 H     1 <1>   0.0800 
 53 H        2.0240    -5.8640    -0.4080 H     1 <1>   0.0800 
 54 H        2.8670    -7.5830     0.8550 H     1 <1>   0.4000 
@<TRIPOS>BOND
  1   1   2  1   
  2   1   3  1   
  3   2   4  ar  
  4   2   5  ar  
  5   3   6  1   
  6   3   7  1   
  7   3  26  1   
  8   4   8  1   
  9   4   9  ar  
 10   5  10  ar  
 11   5  27  1   
 12   6   8  1   
 13   6  28  1   
 14   6  29  1   
 15   7  11  1   
 16   7  30  1   
 17   7  31  1   
 18   9  12  ar  
 19   9  32  1   
 20  10  12  ar  
 21  10  33  1   
 22  11  13  1   
 23  12  34  1   
 24  13  14  1   
 25  13  35  1   
 26  13  36  1   
 27  14  15  1   
 28  14  16  1   
 29  14  37  1   
 30  15  38  1   
 31  16  17  1   
 32  16  39  1   
 33  16  40  1   
 34  17  18  1   
 35  17  19  1   
 36  18  20  1   
 37  18  41  1   
 38  18  42  1   
 39  19  21  1   
 40  19  43  1   
 41  19  44  1   
 42  20  22  1   
 43  20  45  1   
 44  20  46  1   
 45  21  22  1   
 46  21  47  1   
 47  21  48  1   
 48  22  23  1   
 49  22  49  1   
 50  23  24  1   
 51  23  50  1   
 52  23  51  1   
 53  24  25  1   
 54  24  52  1   
 55  24  53  1   
 56  25  54  1   
@<TRIPOS>SUBSTRUCTURE
  1 ****  15 GROUP 4 **** **** 0

# MOE 2024.06 (io_trps.svl 2023.06)
