@<TRIPOS>MOLECULE
NONAME
30 30 1 0 0 
SMALL
USER_CHARGES


@<TRIPOS>ATOM
  1 F        0.3420     0.3950    -0.0450 F     1 <1>  -0.1900 
  2 C        0.1430     1.6860    -0.0270 C.ar  1 <1>   0.1900 
  3 C       -1.1390     2.1630     0.1410 C.ar  1 <1>  -0.1500 
  4 C        1.2300     2.5240    -0.1720 C.ar  1 <1>  -0.1500 
  5 C       -1.3610     3.5360     0.1650 C.ar  1 <1>   0.1170 
  6 C        1.0140     3.8900    -0.1470 C.ar  1 <1>  -0.1500 
  7 N       -2.6480     4.0650     0.3540 N.am  1 <1>  -0.5470 
  8 C       -0.2680     4.4000     0.0200 C.ar  1 <1>  -0.1430 
  9 C       -3.8750     3.5590     0.0470 C.2   1 <1>   0.6900 
 10 C       -0.4540     5.9130     0.0330 C.3   1 <1>  -0.0960 
 11 O       -4.0120     2.5350    -0.5900 O.2   1 <1>  -0.5700 
 12 N       -4.9580     4.2550     0.4720 N.am  1 <1>  -0.7300 
 13 C       -6.3580     3.8690     0.2000 C.3   1 <1>   0.1400 
 14 C       -7.1900     5.1310    -0.0250 C.3   1 <1>  -0.1600 
 15 C       -8.6550     4.7870    -0.3140 C.3   1 <1>  -0.2400 
 16 H       -1.9500     1.4680     0.2530 H     1 <1>   0.1500 
 17 H        2.2150     2.1140    -0.3010 H     1 <1>   0.1500 
 18 H        1.8550     4.5530    -0.2600 H     1 <1>   0.1500 
 19 H       -2.6690     5.0350     0.6410 H     1 <1>   0.3700 
 20 H       -0.8030     6.2340     0.9980 H     1 <1>   0.0800 
 21 H       -1.1660     6.2030    -0.7190 H     1 <1>   0.0800 
 22 H        0.4730     6.4170    -0.1750 H     1 <1>   0.0800 
 23 H       -4.8350     4.9800     1.1740 H     1 <1>   0.3700 
 24 H       -6.7410     3.3120     1.0380 H     1 <1>   0.0800 
 25 H       -6.4000     3.2400    -0.6740 H     1 <1>   0.0800 
 26 H       -6.7870     5.6750    -0.8620 H     1 <1>   0.0800 
 27 H       -7.1430     5.7560     0.8490 H     1 <1>   0.0800 
 28 H       -8.7310     4.1760    -1.1970 H     1 <1>   0.0800 
 29 H       -9.2210     5.6880    -0.4740 H     1 <1>   0.0800 
 30 H       -9.0880     4.2540     0.5140 H     1 <1>   0.0800 
@<TRIPOS>BOND
  1   1   2  1   
  2   2   3  ar  
  3   2   4  ar  
  4   3   5  ar  
  5   3  16  1   
  6   4   6  ar  
  7   4  17  1   
  8   5   7  1   
  9   5   8  ar  
 10   6   8  ar  
 11   6  18  1   
 12   7   9  am  
 13   7  19  1   
 14   8  10  1   
 15   9  11  2   
 16   9  12  am  
 17  10  20  1   
 18  10  21  1   
 19  10  22  1   
 20  12  13  1   
 21  12  23  1   
 22  13  14  1   
 23  13  24  1   
 24  13  25  1   
 25  14  15  1   
 26  14  26  1   
 27  14  27  1   
 28  15  28  1   
 29  15  29  1   
 30  15  30  1   
@<TRIPOS>SUBSTRUCTURE
  1 ****   7 GROUP 4 **** **** 0

# MOE 2024.06 (io_trps.svl 2023.06)
