@<TRIPOS>MOLECULE
NONAME
51 54 1 0 0 
SMALL
USER_CHARGES


@<TRIPOS>ATOM
  1 N       -0.1310     0.1100     0.9870 N.pl3 1 <1>  -0.8380 
  2 C       -1.4770     0.0040     0.6420 C.ar  1 <1>   0.1000 
  3 C        0.7430    -1.1030     1.0030 C.3   1 <1>   0.2090 
  4 C        0.5460     1.4190     0.7460 C.3   1 <1>   0.2090 
  5 C       -2.4300     0.6870     1.3870 C.ar  1 <1>  -0.1500 
  6 C       -1.9050    -0.7600    -0.4410 C.ar  1 <1>  -0.1500 
  7 C        1.7170    -1.1210    -0.1930 C.3   1 <1>   0.3430 
  8 C        1.5050     1.3400    -0.4600 C.3   1 <1>   0.3430 
  9 C       -3.7720     0.6170     1.0630 C.ar  1 <1>  -0.1500 
 10 C       -3.2470    -0.8330    -0.7690 C.ar  1 <1>  -0.1500 
 11 N        2.4630     0.1820    -0.3600 N.4   1 <1>  -0.9590 
 12 C       -4.1830    -0.1430    -0.0180 C.ar  1 <1>  -0.1500 
 13 C        3.3870     0.1270    -1.5160 C.3   1 <1>   0.4810 
 14 C        4.4070    -0.9570    -1.2480 C.2   1 <1>  -0.2540 
 15 C        4.4130    -2.1880    -1.9620 C.2   1 <1>  -0.2880 
 16 C        5.5320    -0.5290    -0.0170 C.3   1 <1>   0.1160 
 17 C        5.6800    -3.2300    -1.4780 C.3   1 <1>  -0.0220 
 18 C        6.9140    -1.2450     0.7140 C.3   1 <1>   0.0000 
 19 C        5.9170    -1.7130    -0.3790 C.3   1 <1>   0.0000 
 20 C        6.7720    -2.6600    -0.2510 C.3   1 <1>   0.0000 
 21 C        6.7780    -1.5310     2.2330 C.3   1 <1>  -0.2400 
 22 C        8.2160    -0.4350     0.4840 C.3   1 <1>  -0.2400 
 23 H        0.1320    -1.9900     0.9860 H     1 <1>   0.0800 
 24 H        1.3010    -1.1180     1.9230 H     1 <1>   0.0800 
 25 H        1.0900     1.7030     1.6300 H     1 <1>   0.0800 
 26 H       -0.1940     2.1800     0.5600 H     1 <1>   0.0800 
 27 H       -2.1130     1.2700     2.2320 H     1 <1>   0.1500 
 28 H       -1.1950    -1.2970    -1.0360 H     1 <1>   0.1500 
 29 H        1.1490    -1.3240    -1.0850 H     1 <1>   0.0800 
 30 H        2.4160    -1.9300    -0.0600 H     1 <1>   0.0800 
 31 H        2.0510     2.2660    -0.5320 H     1 <1>   0.0800 
 32 H        0.9080     1.2380    -1.3510 H     1 <1>   0.0800 
 33 H       -4.4980     1.1510     1.6510 H     1 <1>   0.1500 
 34 H       -3.5690    -1.4260    -1.6070 H     1 <1>   0.1500 
 35 H        3.0390     0.3060     0.4800 H     1 <1>   0.4500 
 36 H       -5.2280    -0.2000    -0.2710 H     1 <1>   0.1500 
 37 H        3.8880     1.0720    -1.6510 H     1 <1>   0.0800 
 38 H        2.8380    -0.1050    -2.4150 H     1 <1>   0.0800 
 39 H        3.7560    -2.5340    -2.7440 H     1 <1>   0.1500 
 40 H        4.8970    -0.3890     0.8430 H     1 <1>   0.0000 
 41 H        6.2610    -3.4790    -2.3520 H     1 <1>   0.0800 
 42 H        5.2480    -4.1570    -1.1380 H     1 <1>   0.0800 
 43 H        6.4430    -1.2830    -1.3310 H     1 <1>   0.0000 
 44 H        5.1060    -2.2490     0.2610 H     1 <1>   0.0000 
 45 H        7.7170    -2.6500    -0.7740 H     1 <1>   0.0000 
 46 H        5.8920    -2.1030     2.4470 H     1 <1>   0.0800 
 47 H        6.7320    -0.6090     2.7860 H     1 <1>   0.0800 
 48 H        7.6280    -2.0930     2.5780 H     1 <1>   0.0800 
 49 H        8.3540    -0.2090    -0.5590 H     1 <1>   0.0800 
 50 H        9.0680    -0.9990     0.8210 H     1 <1>   0.0800 
 51 H        8.1810     0.4920     1.0280 H     1 <1>   0.0800 
@<TRIPOS>BOND
  1   1   2  1   
  2   1   3  1   
  3   1   4  1   
  4   2   5  ar  
  5   2   6  ar  
  6   3   7  1   
  7   3  23  1   
  8   3  24  1   
  9   4   8  1   
 10   4  25  1   
 11   4  26  1   
 12   5   9  ar  
 13   5  27  1   
 14   6  10  ar  
 15   6  28  1   
 16   7  11  1   
 17   7  29  1   
 18   7  30  1   
 19   8  11  1   
 20   8  31  1   
 21   8  32  1   
 22   9  12  ar  
 23   9  33  1   
 24  10  12  ar  
 25  10  34  1   
 26  11  13  1   
 27  11  35  1   
 28  12  36  1   
 29  13  14  1   
 30  13  37  1   
 31  13  38  1   
 32  14  15  2   
 33  14  16  1   
 34  15  17  1   
 35  15  39  1   
 36  16  18  1   
 37  16  19  1   
 38  16  40  1   
 39  17  20  1   
 40  17  41  1   
 41  17  42  1   
 42  18  20  1   
 43  18  21  1   
 44  18  22  1   
 45  19  20  1   
 46  19  43  1   
 47  19  44  1   
 48  20  45  1   
 49  21  46  1   
 50  21  47  1   
 51  21  48  1   
 52  22  49  1   
 53  22  50  1   
 54  22  51  1   
@<TRIPOS>SUBSTRUCTURE
  1 ****   7 GROUP 4 **** **** 0

# MOE 2024.06 (io_trps.svl 2023.06)
