@<TRIPOS>MOLECULE
NONAME
62 65 1 0 0 
SMALL
USER_CHARGES


@<TRIPOS>ATOM
  1 O        0.4030    -0.7010    -0.1490 O.2   1 <1>  -0.5700 
  2 C       -0.6810    -1.3040    -0.0210 C.2   1 <1>   0.6160 
  3 N       -1.8720    -0.7450     0.3620 N.am  1 <1>  -0.1570 
  4 C       -0.9000    -2.6730    -0.3080 C.2   1 <1>   0.1230 
  5 N       -2.8490    -1.7970     0.3160 N.pl3 1 <1>  -0.4890 
  6 C       -2.2230     0.5920     0.0850 C.ar  1 <1>   0.1170 
  7 N        0.1220    -3.5640    -0.7520 N.am  1 <1>  -0.5390 
  8 C       -2.2160    -2.9360    -0.0830 C.2   1 <1>  -0.0380 
  9 C       -4.0020    -1.7460     1.2490 C.3   1 <1>   0.1290 
 10 C       -3.2160     0.9050    -0.8390 C.ar  1 <1>  -0.1500 
 11 C       -1.5740     1.6340     0.7400 C.ar  1 <1>  -0.1500 
 12 C        1.2810    -3.7240    -0.0550 C.2   1 <1>   0.5690 
 13 C       -2.9390    -4.2660    -0.1980 C.3   1 <1>  -0.1020 
 14 C       -3.5560     2.2210    -1.0960 C.ar  1 <1>  -0.1500 
 15 C       -1.9110     2.9510     0.4850 C.ar  1 <1>  -0.1500 
 16 O        1.3110    -3.7070     1.1530 O.2   1 <1>  -0.5700 
 17 C        2.6260    -3.8370    -0.7870 C.3   1 <1>   0.4040 
 18 C       -2.9040     3.2460    -0.4330 C.ar  1 <1>  -0.1500 
 19 N        3.7240    -3.0320    -0.1260 N.4   1 <1>  -0.9590 
 20 C        3.3640    -1.5810    -0.0400 C.3   1 <1>   0.3430 
 21 C        5.0540    -3.2630    -0.7530 C.3   1 <1>   0.3430 
 22 C        4.4330    -0.8230     0.7480 C.3   1 <1>  -0.1600 
 23 C        6.1350    -2.5330     0.0400 C.3   1 <1>  -0.1600 
 24 C        5.8380    -1.0270     0.1580 C.3   1 <1>  -0.0800 
 25 C        6.8970    -0.2950     1.0040 C.3   1 <1>  -0.0170 
 26 C        8.2920    -0.4610     0.4190 C.ar  1 <1>  -0.1430 
 27 C        8.6600     0.2440    -0.7170 C.ar  1 <1>  -0.1500 
 28 C        9.2060    -1.3210     1.0100 C.ar  1 <1>  -0.1500 
 29 C        9.9220     0.0840    -1.2620 C.ar  1 <1>  -0.1500 
 30 C       10.4680    -1.4810     0.4660 C.ar  1 <1>  -0.1500 
 31 C       10.8260    -0.7800    -0.6720 C.ar  1 <1>  -0.1500 
 32 H        0.0770    -3.7840    -1.7490 H     1 <1>   0.3700 
 33 H       -3.6700    -1.9840     2.2440 H     1 <1>   0.0800 
 34 H       -4.7540    -2.4500     0.9440 H     1 <1>   0.0800 
 35 H       -4.4280    -0.7580     1.2470 H     1 <1>   0.0800 
 36 H       -3.7220     0.1120    -1.3580 H     1 <1>   0.1500 
 37 H       -0.8010     1.4060     1.4520 H     1 <1>   0.1500 
 38 H       -3.7680    -4.1740    -0.8760 H     1 <1>   0.0800 
 39 H       -3.3060    -4.5690     0.7660 H     1 <1>   0.0800 
 40 H       -2.2760    -5.0280    -0.5630 H     1 <1>   0.0800 
 41 H       -4.3260     2.4500    -1.8120 H     1 <1>   0.1500 
 42 H       -1.4000     3.7470     1.0000 H     1 <1>   0.1500 
 43 H        2.4980    -3.5020    -1.8010 H     1 <1>   0.0800 
 44 H        2.9060    -4.8760    -0.8050 H     1 <1>   0.0800 
 45 H       -3.1660     4.2710    -0.6330 H     1 <1>   0.1500 
 46 H        3.7560    -3.3570     0.8540 H     1 <1>   0.4500 
 47 H        2.4190    -1.4650     0.4670 H     1 <1>   0.0800 
 48 H        3.2730    -1.1600    -1.0280 H     1 <1>   0.0800 
 49 H        5.0480    -2.8970    -1.7670 H     1 <1>   0.0800 
 50 H        5.2770    -4.3180    -0.7720 H     1 <1>   0.0800 
 51 H        4.4070    -1.1470     1.7740 H     1 <1>   0.0800 
 52 H        4.1850     0.2240     0.7360 H     1 <1>   0.0800 
 53 H        7.0740    -2.6780    -0.4660 H     1 <1>   0.0800 
 54 H        6.2250    -2.9740     1.0170 H     1 <1>   0.0800 
 55 H        5.8540    -0.6000    -0.8320 H     1 <1>   0.0800 
 56 H        6.8830    -0.6650     2.0140 H     1 <1>   0.0800 
 57 H        6.6660     0.7550     1.0460 H     1 <1>   0.0800 
 58 H        7.9680     0.9230    -1.1830 H     1 <1>   0.1500 
 59 H        8.9430    -1.8700     1.8960 H     1 <1>   0.1500 
 60 H       10.2020     0.6340    -2.1440 H     1 <1>   0.1500 
 61 H       11.1740    -2.1500     0.9280 H     1 <1>   0.1500 
 62 H       11.8080    -0.9040    -1.0950 H     1 <1>   0.1500 
@<TRIPOS>BOND
  1   1   2  2   
  2   2   3  am  
  3   2   4  1   
  4   3   5  1   
  5   3   6  1   
  6   4   7  1   
  7   4   8  2   
  8   5   8  1   
  9   5   9  1   
 10   6  10  ar  
 11   6  11  ar  
 12   7  12  am  
 13   7  32  1   
 14   8  13  1   
 15   9  33  1   
 16   9  34  1   
 17   9  35  1   
 18  10  14  ar  
 19  10  36  1   
 20  11  15  ar  
 21  11  37  1   
 22  12  16  2   
 23  12  17  1   
 24  13  38  1   
 25  13  39  1   
 26  13  40  1   
 27  14  18  ar  
 28  14  41  1   
 29  15  18  ar  
 30  15  42  1   
 31  17  19  1   
 32  17  43  1   
 33  17  44  1   
 34  18  45  1   
 35  19  20  1   
 36  19  21  1   
 37  19  46  1   
 38  20  22  1   
 39  20  47  1   
 40  20  48  1   
 41  21  23  1   
 42  21  49  1   
 43  21  50  1   
 44  22  24  1   
 45  22  51  1   
 46  22  52  1   
 47  23  24  1   
 48  23  53  1   
 49  23  54  1   
 50  24  25  1   
 51  24  55  1   
 52  25  26  1   
 53  25  56  1   
 54  25  57  1   
 55  26  27  ar  
 56  26  28  ar  
 57  27  29  ar  
 58  27  58  1   
 59  28  30  ar  
 60  28  59  1   
 61  29  31  ar  
 62  29  60  1   
 63  30  31  ar  
 64  30  61  1   
 65  31  62  1   
@<TRIPOS>SUBSTRUCTURE
  1 ****  20 GROUP 4 **** **** 0

# MOE 2024.06 (io_trps.svl 2023.06)
