@<TRIPOS>MOLECULE
NONAME
56 58 1 0 0 
SMALL
USER_CHARGES


@<TRIPOS>ATOM
  1 O       -2.0340    -0.4270    -0.6480 O.2   1 <1>  -0.5700 
  2 C       -2.4810    -0.7820     0.4250 C.2   1 <1>   0.7800 
  3 O       -2.9900    -1.9920     0.6250 O.3   1 <1>  -0.4300 
  4 N       -2.5030     0.0350     1.4940 N.am  1 <1>  -0.7300 
  5 C       -3.2230    -2.9800    -0.3540 C.3   1 <1>   0.2800 
  6 C       -2.5260     1.5240     1.3710 C.3   1 <1>   0.2810 
  7 C       -4.1970    -2.4520    -1.4140 C.3   1 <1>  -0.2400 
  8 C       -3.8780    -4.1390     0.3970 C.3   1 <1>  -0.2400 
  9 C       -1.8960    -3.4540    -0.9600 C.3   1 <1>  -0.2400 
 10 C       -1.2840     2.1980     1.9940 C.2   1 <1>   0.5690 
 11 C       -3.8460     2.0670     1.9500 C.3   1 <1>   0.0210 
 12 O       -1.3880     2.8310     3.0170 O.2   1 <1>  -0.5700 
 13 N       -0.0630     2.1080     1.4110 N.am  1 <1>  -0.7300 
 14 C       -5.0680     1.2750     1.5030 C.2   1 <1>  -0.1810 
 15 C        0.3290     1.3450     0.2130 C.3   1 <1>   0.2840 
 16 C       -5.4930     1.0780     0.1670 C.ar  1 <1>   0.0000 
 17 C       -5.9350     0.6200     2.3100 C.2   1 <1>  -0.3020 
 18 C        1.7420     1.7540    -0.1570 C.ar  1 <1>  -0.1440 
 19 C       -6.6320     0.2810     0.2360 C.ar  1 <1>  -0.1520 
 20 C       -5.0250     1.4890    -1.0870 C.ar  1 <1>  -0.1500 
 21 N       -6.8940     0.0110     1.5530 N.pl3 1 <1>   0.0330 
 22 C        1.9640     2.8960    -0.9120 C.ar  1 <1>  -0.1500 
 23 C        2.8250     0.9960     0.2630 C.ar  1 <1>  -0.1500 
 24 C       -7.3100    -0.1150    -0.9200 C.ar  1 <1>  -0.1500 
 25 C       -5.6890     1.0950    -2.2260 C.ar  1 <1>  -0.1500 
 26 C        3.2520     3.2740    -1.2470 C.ar  1 <1>  -0.1500 
 27 C        4.1140     1.3720    -0.0720 C.ar  1 <1>  -0.1500 
 28 C       -6.8330     0.2930    -2.1430 C.ar  1 <1>  -0.1500 
 29 C        4.3280     2.5120    -0.8270 C.ar  1 <1>  -0.1500 
 30 H       -3.0090    -0.3270     2.3000 H     1 <1>   0.3700 
 31 H       -2.5150     1.7760     0.3270 H     1 <1>   0.0800 
 32 H       -3.7470    -1.6750    -2.0060 H     1 <1>   0.0800 
 33 H       -5.0830    -2.0630    -0.9450 H     1 <1>   0.0800 
 34 H       -4.4830    -3.2440    -2.0810 H     1 <1>   0.0800 
 35 H       -4.7990    -3.8160     0.8490 H     1 <1>   0.0800 
 36 H       -3.2200    -4.5060     1.1640 H     1 <1>   0.0800 
 37 H       -4.0970    -4.9470    -0.2780 H     1 <1>   0.0800 
 38 H       -1.4470    -2.6850    -1.5600 H     1 <1>   0.0800 
 39 H       -2.0670    -4.3020    -1.5970 H     1 <1>   0.0800 
 40 H       -1.2130    -3.7430    -0.1820 H     1 <1>   0.0800 
 41 H       -3.9620     3.0950     1.6560 H     1 <1>   0.0800 
 42 H       -3.8000     2.0460     3.0240 H     1 <1>   0.0800 
 43 H        0.7130     2.5720     1.8860 H     1 <1>   0.3700 
 44 H       -0.3420     1.5570    -0.6010 H     1 <1>   0.0800 
 45 H        0.2910     0.2900     0.4270 H     1 <1>   0.0800 
 46 H       -5.9320     0.5460     3.3840 H     1 <1>   0.1500 
 47 H       -4.1500     2.1050    -1.1520 H     1 <1>   0.1500 
 48 H       -7.6790    -0.5500     1.8950 H     1 <1>   0.2700 
 49 H        1.1320     3.4950    -1.2400 H     1 <1>   0.1500 
 50 H        2.6680     0.1090     0.8530 H     1 <1>   0.1500 
 51 H       -8.1890    -0.7300    -0.8450 H     1 <1>   0.1500 
 52 H       -5.3330     1.4010    -3.1940 H     1 <1>   0.1500 
 53 H        3.4190     4.1600    -1.8340 H     1 <1>   0.1500 
 54 H        4.9500     0.7800     0.2560 H     1 <1>   0.1500 
 55 H       -7.3340     0.0000    -3.0490 H     1 <1>   0.1500 
 56 H        5.3300     2.8050    -1.0870 H     1 <1>   0.1500 
@<TRIPOS>BOND
  1   1   2  2   
  2   2   3  1   
  3   2   4  am  
  4   3   5  1   
  5   4   6  1   
  6   4  30  1   
  7   5   7  1   
  8   5   8  1   
  9   5   9  1   
 10   6  10  1   
 11   6  11  1   
 12   6  31  1   
 13   7  32  1   
 14   7  33  1   
 15   7  34  1   
 16   8  35  1   
 17   8  36  1   
 18   8  37  1   
 19   9  38  1   
 20   9  39  1   
 21   9  40  1   
 22  10  12  2   
 23  10  13  am  
 24  11  14  1   
 25  11  41  1   
 26  11  42  1   
 27  13  15  1   
 28  13  43  1   
 29  14  16  1   
 30  14  17  2   
 31  15  18  1   
 32  15  44  1   
 33  15  45  1   
 34  16  19  ar  
 35  16  20  ar  
 36  17  21  1   
 37  17  46  1   
 38  18  22  ar  
 39  18  23  ar  
 40  19  21  1   
 41  19  24  ar  
 42  20  25  ar  
 43  20  47  1   
 44  21  48  1   
 45  22  26  ar  
 46  22  49  1   
 47  23  27  ar  
 48  23  50  1   
 49  24  28  ar  
 50  24  51  1   
 51  25  28  ar  
 52  25  52  1   
 53  26  29  ar  
 54  26  53  1   
 55  27  29  ar  
 56  27  54  1   
 57  28  55  1   
 58  29  56  1   
@<TRIPOS>SUBSTRUCTURE
  1 ****   1 GROUP 4 **** **** 0

# MOE 2024.06 (io_trps.svl 2023.06)
