@<TRIPOS>MOLECULE
NONAME
41 42 1 0 0 
SMALL
USER_CHARGES


@<TRIPOS>ATOM
  1 S       -0.5090     0.2370     1.1240 S.3   1 <1>  -0.3320 
  2 C       -1.6200     1.2330     0.1350 C.ar  1 <1>   0.4120 
  3 C       -0.2290    -1.3330     0.1650 C.3   1 <1>   0.2110 
  4 N       -1.9980     0.7320    -1.0310 N.ar  1 <1>  -0.6200 
  5 C       -2.0150     2.4510     0.6600 C.ar  1 <1>  -0.1500 
  6 C       -1.3970    -2.3030     0.4020 C.2   1 <1>   0.5690 
  7 C        1.1500    -1.8580     0.5930 C.3   1 <1>  -0.2400 
  8 C       -2.8220     1.5090    -1.7190 C.ar  1 <1>   0.1600 
  9 C       -2.8770     3.2400    -0.0700 C.ar  1 <1>  -0.1500 
 10 O       -1.2160    -3.3240     1.0250 O.2   1 <1>  -0.5700 
 11 N       -2.6140    -1.9650    -0.1190 N.am  1 <1>  -0.5470 
 12 C       -3.2840     2.7450    -1.2930 C.ar  1 <1>  -0.1500 
 13 C       -3.8590    -2.5930     0.0340 C.ar  1 <1>   0.1170 
 14 C       -4.8810    -1.9130     0.7010 C.ar  1 <1>  -0.1430 
 15 C       -4.1120    -3.8630    -0.4900 C.ar  1 <1>  -0.1430 
 16 C       -6.1270    -2.5010     0.8400 C.ar  1 <1>  -0.1500 
 17 C       -4.6510    -0.5280     1.2940 C.3   1 <1>  -0.0970 
 18 C       -5.3640    -4.4340    -0.3340 C.ar  1 <1>  -0.1500 
 19 C       -3.0460    -4.6520    -1.2400 C.3   1 <1>  -0.0970 
 20 C       -6.3770    -3.7610     0.3250 C.ar  1 <1>  -0.1430 
 21 C       -7.7430    -4.4010     0.4890 C.3   1 <1>  -0.0970 
 22 H       -0.1950    -1.0650    -0.8740 H     1 <1>   0.0800 
 23 H       -1.6490     2.7640     1.6200 H     1 <1>   0.1500 
 24 H        1.1500    -2.0800     1.6460 H     1 <1>   0.0800 
 25 H        1.9090    -1.1260     0.3860 H     1 <1>   0.0800 
 26 H        1.3800    -2.7600     0.0550 H     1 <1>   0.0800 
 27 H       -3.1510     1.1430    -2.6780 H     1 <1>   0.1500 
 28 H       -3.2140     4.1960     0.2940 H     1 <1>   0.1500 
 29 H       -2.6550    -1.0200    -0.5170 H     1 <1>   0.3700 
 30 H       -3.9550     3.3120    -1.9130 H     1 <1>   0.1500 
 31 H       -6.9120    -1.9790     1.3560 H     1 <1>   0.1500 
 32 H       -3.7740    -0.5350     1.9170 H     1 <1>   0.0800 
 33 H       -5.4870    -0.2220     1.8960 H     1 <1>   0.0800 
 34 H       -4.5170     0.1910     0.5060 H     1 <1>   0.0800 
 35 H       -5.5560    -5.4160    -0.7290 H     1 <1>   0.1500 
 36 H       -2.4920    -4.0060    -1.8960 H     1 <1>   0.0800 
 37 H       -3.4890    -5.4310    -1.8330 H     1 <1>   0.0800 
 38 H       -2.3670    -5.1010    -0.5370 H     1 <1>   0.0800 
 39 H       -8.5070    -3.6470     0.5510 H     1 <1>   0.0800 
 40 H       -7.7610    -4.9900     1.3880 H     1 <1>   0.0800 
 41 H       -7.9620    -5.0370    -0.3500 H     1 <1>   0.0800 
@<TRIPOS>BOND
  1   1   2  1   
  2   1   3  1   
  3   2   4  ar  
  4   2   5  ar  
  5   3   6  1   
  6   3   7  1   
  7   3  22  1   
  8   4   8  ar  
  9   5   9  ar  
 10   5  23  1   
 11   6  10  2   
 12   6  11  am  
 13   7  24  1   
 14   7  25  1   
 15   7  26  1   
 16   8  12  ar  
 17   8  27  1   
 18   9  12  ar  
 19   9  28  1   
 20  11  13  1   
 21  11  29  1   
 22  12  30  1   
 23  13  14  ar  
 24  13  15  ar  
 25  14  16  ar  
 26  14  17  1   
 27  15  18  ar  
 28  15  19  1   
 29  16  20  ar  
 30  16  31  1   
 31  17  32  1   
 32  17  33  1   
 33  17  34  1   
 34  18  20  ar  
 35  18  35  1   
 36  19  36  1   
 37  19  37  1   
 38  19  38  1   
 39  20  21  1   
 40  21  39  1   
 41  21  40  1   
 42  21  41  1   
@<TRIPOS>SUBSTRUCTURE
  1 ****  11 GROUP 4 **** **** 0

# MOE 2024.06 (io_trps.svl 2023.06)
