@<TRIPOS>MOLECULE
NONAME
43 44 1 0 0 
SMALL
USER_CHARGES


@<TRIPOS>ATOM
  1 O       -1.7600    -0.3170     2.4240 O.2   1 <1>  -0.5700 
  2 C       -2.4910    -0.9990     1.7360 C.2   1 <1>   0.7060 
  3 O       -3.7140    -0.5460     1.4640 O.3   1 <1>  -0.2320 
  4 C       -2.1060    -2.2650     1.2030 C.2   1 <1>  -0.1360 
  5 C       -4.5950    -1.2400     0.7100 C.ar  1 <1>   0.0830 
  6 C       -2.9380    -3.0130     0.4390 C.2   1 <1>  -0.1670 
  7 C       -4.2530    -2.4910     0.1690 C.ar  1 <1>   0.0280 
  8 C       -5.8410    -0.6770     0.4910 C.ar  1 <1>  -0.1500 
  9 C       -2.5540    -4.3760    -0.1480 C.3   1 <1>  -0.0220 
 10 C       -5.2270    -3.1400    -0.5990 C.ar  1 <1>  -0.1500 
 11 C       -6.7870    -1.3390    -0.2670 C.ar  1 <1>   0.0830 
 12 C       -1.1340    -4.8560     0.1900 C.3   1 <1>  -0.1600 
 13 C       -6.4700    -2.5800    -0.8160 C.ar  1 <1>  -0.1500 
 14 O       -7.9820    -0.7280    -0.4250 O.3   1 <1>  -0.3630 
 15 C       -0.8430    -6.2250    -0.4390 C.3   1 <1>  -0.1600 
 16 C       -9.0710    -1.3680    -1.0750 C.3   1 <1>   0.1810 
 17 C        0.5730    -6.6960    -0.0980 C.3   1 <1>  -0.2400 
 18 C      -10.3390    -0.5160    -1.0290 C.2   1 <1>   0.5690 
 19 O      -10.8660    -0.2680    -2.0900 O.2   1 <1>  -0.5700 
 20 N      -10.8770    -0.0790     0.1640 N.am  1 <1>  -0.6600 
 21 C      -10.2920    -0.3630     1.5040 C.3   1 <1>   0.0600 
 22 C      -12.0730     0.8100     0.1980 C.3   1 <1>   0.0600 
 23 H       -1.1090    -2.5600     1.4640 H     1 <1>   0.1500 
 24 H       -6.0760     0.2830     0.9130 H     1 <1>   0.1500 
 25 H       -2.6470    -4.3250    -1.2190 H     1 <1>   0.0800 
 26 H       -3.2530    -5.1120     0.2110 H     1 <1>   0.0800 
 27 H       -5.0160    -4.0970    -1.0380 H     1 <1>   0.1500 
 28 H       -1.0270    -4.9310     1.2590 H     1 <1>   0.0800 
 29 H       -0.4180    -4.1410    -0.1770 H     1 <1>   0.0800 
 30 H       -7.1790    -3.1170    -1.4170 H     1 <1>   0.1500 
 31 H       -0.9450    -6.1620    -1.5100 H     1 <1>   0.0800 
 32 H       -1.5520    -6.9500    -0.0780 H     1 <1>   0.0800 
 33 H       -9.2570    -2.3070    -0.5880 H     1 <1>   0.0800 
 34 H       -8.7950    -1.5360    -2.0990 H     1 <1>   0.0800 
 35 H        1.3030    -5.9980    -0.4700 H     1 <1>   0.0800 
 36 H        0.7600    -7.6560    -0.5470 H     1 <1>   0.0800 
 37 H        0.6930    -6.7890     0.9670 H     1 <1>   0.0800 
 38 H      -11.0780    -0.5000     2.2260 H     1 <1>   0.0800 
 39 H       -9.6750     0.4640     1.8080 H     1 <1>   0.0800 
 40 H       -9.6940    -1.2560     1.4850 H     1 <1>   0.0800 
 41 H      -12.4120     1.0390    -0.7980 H     1 <1>   0.0800 
 42 H      -11.8250     1.7320     0.6930 H     1 <1>   0.0800 
 43 H      -12.8720     0.3230     0.7280 H     1 <1>   0.0800 
@<TRIPOS>BOND
  1   1   2  2   
  2   2   3  1   
  3   2   4  1   
  4   3   5  1   
  5   4   6  2   
  6   4  23  1   
  7   5   7  ar  
  8   5   8  ar  
  9   6   7  1   
 10   6   9  1   
 11   7  10  ar  
 12   8  11  ar  
 13   8  24  1   
 14   9  12  1   
 15   9  25  1   
 16   9  26  1   
 17  10  13  ar  
 18  10  27  1   
 19  11  13  ar  
 20  11  14  1   
 21  12  15  1   
 22  12  28  1   
 23  12  29  1   
 24  13  30  1   
 25  14  16  1   
 26  15  17  1   
 27  15  31  1   
 28  15  32  1   
 29  16  18  1   
 30  16  33  1   
 31  16  34  1   
 32  17  35  1   
 33  17  36  1   
 34  17  37  1   
 35  18  19  2   
 36  18  20  am  
 37  20  21  1   
 38  20  22  1   
 39  21  38  1   
 40  21  39  1   
 41  21  40  1   
 42  22  41  1   
 43  22  42  1   
 44  22  43  1   
@<TRIPOS>SUBSTRUCTURE
  1 ****   5 GROUP 4 **** **** 0

# MOE 2024.06 (io_trps.svl 2023.06)
