@<TRIPOS>MOLECULE
NONAME
37 38 1 0 0 
SMALL
USER_CHARGES


@<TRIPOS>ATOM
  1 CL      -2.4350    -4.6150    -2.2940 Cl    1 <1>  -0.1770 
  2 C       -3.3350    -3.3480    -1.4990 C.ar  1 <1>   0.1770 
  3 C       -3.6700    -2.2090    -2.2070 C.ar  1 <1>  -0.1500 
  4 C       -3.6990    -3.5030    -0.1740 C.ar  1 <1>  -0.1500 
  5 C       -4.3870    -1.2080    -1.5730 C.ar  1 <1>  -0.1500 
  6 C       -4.4150    -2.5000     0.4580 C.ar  1 <1>  -0.1500 
  7 C       -4.7680    -1.3490    -0.2460 C.ar  1 <1>   0.0830 
  8 O       -5.4850    -0.3250     0.2840 O.3   1 <1>  -0.3630 
  9 C       -6.1260    -0.4140     1.5540 C.3   1 <1>   0.2610 
 10 C       -7.1750    -1.5440     1.6180 C.2   1 <1>   0.5690 
 11 C       -6.7260     0.9610     1.9060 C.3   1 <1>  -0.1600 
 12 O       -7.1000    -2.2790     2.5780 O.2   1 <1>  -0.5700 
 13 N       -8.1480    -1.7420     0.6610 N.am  1 <1>  -0.6600 
 14 C       -5.6870     2.0920     1.9160 C.3   1 <1>  -0.2400 
 15 C       -9.0220    -2.9540     0.6820 C.3   1 <1>   0.1400 
 16 C       -8.3370    -0.9510    -0.5930 C.3   1 <1>   0.1400 
 17 C       -8.8300    -3.7650    -0.6120 C.3   1 <1>   0.1200 
 18 C       -8.1630    -1.8630    -1.8190 C.3   1 <1>   0.1200 
 19 O       -9.0330    -2.9580    -1.7390 O.3   1 <1>  -0.5600 
 20 H       -3.3710    -2.1110    -3.2350 H     1 <1>   0.1500 
 21 H       -3.4220    -4.3980     0.3540 H     1 <1>   0.1500 
 22 H       -4.6540    -0.3130    -2.1050 H     1 <1>   0.1500 
 23 H       -4.6830    -2.6380     1.4890 H     1 <1>   0.1500 
 24 H       -5.3580    -0.6310     2.2740 H     1 <1>   0.0800 
 25 H       -7.1690     0.8910     2.8850 H     1 <1>   0.0800 
 26 H       -7.5150     1.2010     1.2170 H     1 <1>   0.0800 
 27 H       -4.8950     1.8700     2.6110 H     1 <1>   0.0800 
 28 H       -6.1510     3.0170     2.2110 H     1 <1>   0.0800 
 29 H       -5.2590     2.2230     0.9370 H     1 <1>   0.0800 
 30 H      -10.0500    -2.6510     0.7630 H     1 <1>   0.0800 
 31 H       -8.7950    -3.5800     1.5270 H     1 <1>   0.0800 
 32 H       -7.6480    -0.1320    -0.6590 H     1 <1>   0.0800 
 33 H       -9.3310    -0.5400    -0.6030 H     1 <1>   0.0800 
 34 H       -9.5400    -4.5720    -0.6530 H     1 <1>   0.0800 
 35 H       -7.8360    -4.1750    -0.6550 H     1 <1>   0.0800 
 36 H       -7.1520    -2.2280    -1.8810 H     1 <1>   0.0800 
 37 H       -8.3950    -1.3250    -2.7200 H     1 <1>   0.0800 
@<TRIPOS>BOND
  1   1   2  1   
  2   2   3  ar  
  3   2   4  ar  
  4   3   5  ar  
  5   3  20  1   
  6   4   6  ar  
  7   4  21  1   
  8   5   7  ar  
  9   5  22  1   
 10   6   7  ar  
 11   6  23  1   
 12   7   8  1   
 13   8   9  1   
 14   9  10  1   
 15   9  11  1   
 16   9  24  1   
 17  10  12  2   
 18  10  13  am  
 19  11  14  1   
 20  11  25  1   
 21  11  26  1   
 22  13  15  1   
 23  13  16  1   
 24  14  27  1   
 25  14  28  1   
 26  14  29  1   
 27  15  17  1   
 28  15  30  1   
 29  15  31  1   
 30  16  18  1   
 31  16  32  1   
 32  16  33  1   
 33  17  19  1   
 34  17  34  1   
 35  17  35  1   
 36  18  19  1   
 37  18  36  1   
 38  18  37  1   
@<TRIPOS>SUBSTRUCTURE
  1 ****   7 GROUP 4 **** **** 0

# MOE 2024.06 (io_trps.svl 2023.06)
