@<TRIPOS>MOLECULE
NONAME
35 35 1 0 0 
SMALL
USER_CHARGES


@<TRIPOS>ATOM
  1 S       -0.3260    -0.3430     1.0880 S.o2  1 <1>   1.3330 
  2 O        0.2300     0.8360     1.7120 O.2   1 <1>  -0.6500 
  3 O       -0.7630    -1.4560     1.8980 O.2   1 <1>  -0.6500 
  4 N       -1.6250     0.1430     0.1180 N.am  1 <1>  -0.8490 
  5 C        0.8550    -0.9240    -0.1100 C.3   1 <1>  -0.1350 
  6 C       -2.5100    -0.9810    -0.2520 C.3   1 <1>   0.1960 
  7 C       -2.4210     1.1990     0.7710 C.3   1 <1>   0.1960 
  8 C       -3.6230    -0.5310    -1.2110 C.3   1 <1>   0.1400 
  9 C       -3.5590     1.7130    -0.1310 C.3   1 <1>   0.1400 
 10 N       -4.4130     0.5860    -0.6140 N.am  1 <1>  -0.6600 
 11 C       -5.7020     0.3910    -0.2010 C.2   1 <1>   0.6900 
 12 O       -6.1620    -0.7320    -0.1130 O.2   1 <1>  -0.5700 
 13 N       -6.4670     1.4680     0.1000 N.am  1 <1>  -0.7300 
 14 C       -7.8780     1.4220     0.5320 C.3   1 <1>   0.1400 
 15 C       -8.7460     2.1130    -0.5200 C.3   1 <1>  -0.1600 
 16 C      -10.2250     2.1020    -0.1160 C.3   1 <1>  -0.2400 
 17 H        1.0980    -0.1380    -0.7970 H     1 <1>   0.0800 
 18 H        0.4560    -1.7540    -0.6570 H     1 <1>   0.0800 
 19 H        1.7530    -1.2380     0.3850 H     1 <1>   0.0800 
 20 H       -2.9640    -1.4040     0.6300 H     1 <1>   0.0800 
 21 H       -1.9350    -1.7550    -0.7290 H     1 <1>   0.0800 
 22 H       -1.7860     2.0330     1.0150 H     1 <1>   0.0800 
 23 H       -2.8380     0.8230     1.6910 H     1 <1>   0.0800 
 24 H       -4.2620    -1.3680    -1.4350 H     1 <1>   0.0800 
 25 H       -3.1840    -0.1980    -2.1350 H     1 <1>   0.0800 
 26 H       -3.1340     2.2200    -0.9790 H     1 <1>   0.0800 
 27 H       -4.1440     2.4230     0.4250 H     1 <1>   0.0800 
 28 H       -6.1230     2.3730    -0.2080 H     1 <1>   0.3700 
 29 H       -7.9720     1.9230     1.4810 H     1 <1>   0.0800 
 30 H       -8.1950     0.4000     0.6570 H     1 <1>   0.0800 
 31 H       -8.6350     1.5990    -1.4590 H     1 <1>   0.0800 
 32 H       -8.4230     3.1320    -0.6430 H     1 <1>   0.0800 
 33 H      -10.5760     1.0900    -0.0060 H     1 <1>   0.0800 
 34 H      -10.8160     2.5870    -0.8730 H     1 <1>   0.0800 
 35 H      -10.3670     2.6220     0.8150 H     1 <1>   0.0800 
@<TRIPOS>BOND
  1   1   2  2   
  2   1   3  2   
  3   1   4  am  
  4   1   5  1   
  5   4   6  1   
  6   4   7  1   
  7   5  17  1   
  8   5  18  1   
  9   5  19  1   
 10   6   8  1   
 11   6  20  1   
 12   6  21  1   
 13   7   9  1   
 14   7  22  1   
 15   7  23  1   
 16   8  10  1   
 17   8  24  1   
 18   8  25  1   
 19   9  10  1   
 20   9  26  1   
 21   9  27  1   
 22  10  11  am  
 23  11  12  2   
 24  11  13  am  
 25  13  14  1   
 26  13  28  1   
 27  14  15  1   
 28  14  29  1   
 29  14  30  1   
 30  15  16  1   
 31  15  31  1   
 32  15  32  1   
 33  16  33  1   
 34  16  34  1   
 35  16  35  1   
@<TRIPOS>SUBSTRUCTURE
  1 ****  10 GROUP 4 **** **** 0

# MOE 2024.06 (io_trps.svl 2023.06)
