@<TRIPOS>MOLECULE
NONAME
42 43 1 0 0 
SMALL
USER_CHARGES


@<TRIPOS>ATOM
  1 CL       1.7110     0.9170    -2.6710 Cl    1 <1>  -0.1770 
  2 C        2.5480     1.5840    -1.2860 C.ar  1 <1>   0.1770 
  3 C        2.2550     2.8640    -0.8300 C.ar  1 <1>   0.0820 
  4 C        3.5000     0.7930    -0.6700 C.ar  1 <1>  -0.1500 
  5 O        1.2980     3.5900    -1.4590 O.3   1 <1>  -0.3630 
  6 C        2.9660     3.3610     0.2710 C.ar  1 <1>   0.0830 
  7 C        4.1900     1.2800     0.4310 C.ar  1 <1>  -0.1440 
  8 C       -0.0220     3.3890    -1.0040 C.3   1 <1>   0.0400 
  9 O        2.8160     4.5990     0.8120 O.3   1 <1>  -0.3630 
 10 C        3.9090     2.5580     0.8930 C.ar  1 <1>  -0.1500 
 11 C        5.2460     0.4410     1.1160 C.3   1 <1>   0.4860 
 12 C        2.5180     5.7120    -0.0020 C.3   1 <1>   0.1200 
 13 N        6.5400     0.8310     0.5280 N.4   1 <1>  -0.9060 
 14 C        2.9530     6.9710     0.7430 C.3   1 <1>  -0.2400 
 15 C        7.7130     0.1470     1.1020 C.3   1 <1>   0.4860 
 16 C        8.9150     0.6850     0.3630 C.ar  1 <1>  -0.1430 
 17 C        9.5700     1.8170     0.8260 C.ar  1 <1>  -0.1500 
 18 C        9.3640     0.0570    -0.7910 C.ar  1 <1>  -0.1500 
 19 C       10.6580     2.3210     0.1370 C.ar  1 <1>  -0.1500 
 20 C       10.4530     0.5640    -1.4780 C.ar  1 <1>  -0.1500 
 21 C       11.0990     1.6960    -1.0160 C.ar  1 <1>  -0.1500 
 22 H        3.6790    -0.1920    -1.0650 H     1 <1>   0.1500 
 23 H       -0.6730     4.0380    -1.5630 H     1 <1>   0.0800 
 24 H       -0.0720     3.6300     0.0430 H     1 <1>   0.0800 
 25 H       -0.3000     2.3630    -1.1690 H     1 <1>   0.0800 
 26 H        4.4180     2.9670     1.7500 H     1 <1>   0.1500 
 27 H        5.0520    -0.6070     0.9500 H     1 <1>   0.0800 
 28 H        5.2360     0.6360     2.1770 H     1 <1>   0.0800 
 29 H        1.4580     5.7310    -0.1830 H     1 <1>   0.0800 
 30 H        3.0490     5.6160    -0.9340 H     1 <1>   0.0800 
 31 H        6.6690     1.8440     0.6260 H     1 <1>   0.4500 
 32 H        6.5250     0.6680    -0.4850 H     1 <1>   0.4500 
 33 H        2.4230     7.0510     1.6740 H     1 <1>   0.0800 
 34 H        2.7330     7.8380     0.1470 H     1 <1>   0.0800 
 35 H        4.0110     6.9440     0.9300 H     1 <1>   0.0800 
 36 H        7.6420    -0.9200     0.9610 H     1 <1>   0.0800 
 37 H        7.8030     0.3590     2.1550 H     1 <1>   0.0800 
 38 H        9.2520     2.3210     1.7240 H     1 <1>   0.1500 
 39 H        8.8840    -0.8290    -1.1700 H     1 <1>   0.1500 
 40 H       11.1690     3.2000     0.4940 H     1 <1>   0.1500 
 41 H       10.8050     0.0780    -2.3730 H     1 <1>   0.1500 
 42 H       11.9470     2.0890    -1.5510 H     1 <1>   0.1500 
@<TRIPOS>BOND
  1   1   2  1   
  2   2   3  ar  
  3   2   4  ar  
  4   3   5  1   
  5   3   6  ar  
  6   4   7  ar  
  7   4  22  1   
  8   5   8  1   
  9   6   9  1   
 10   6  10  ar  
 11   7  10  ar  
 12   7  11  1   
 13   8  23  1   
 14   8  24  1   
 15   8  25  1   
 16   9  12  1   
 17  10  26  1   
 18  11  13  1   
 19  11  27  1   
 20  11  28  1   
 21  12  14  1   
 22  12  29  1   
 23  12  30  1   
 24  13  15  1   
 25  13  31  1   
 26  13  32  1   
 27  14  33  1   
 28  14  34  1   
 29  14  35  1   
 30  15  16  1   
 31  15  36  1   
 32  15  37  1   
 33  16  17  ar  
 34  16  18  ar  
 35  17  19  ar  
 36  17  38  1   
 37  18  20  ar  
 38  18  39  1   
 39  19  21  ar  
 40  19  40  1   
 41  20  21  ar  
 42  20  41  1   
 43  21  42  1   
@<TRIPOS>SUBSTRUCTURE
  1 ****   7 GROUP 4 **** **** 0

# MOE 2024.06 (io_trps.svl 2023.06)
