@<TRIPOS>MOLECULE
NONAME
32 33 1 0 0 
SMALL
USER_CHARGES


@<TRIPOS>ATOM
  1 BR      -0.4430    -0.1440    -0.4190 Br    1 <1>  -0.1110 
  2 C       -0.2770     1.7800    -0.3000 C.ar  1 <1>   0.1110 
  3 C        1.0100     2.3470    -0.1390 C.ar  1 <1>  -0.1710 
  4 C       -1.4220     2.5190    -0.3790 C.ar  1 <1>  -0.1500 
  5 O        2.0070     1.5880    -0.0840 O.3   1 <1>  -0.8290 
  6 C        1.1290     3.7700    -0.0480 C.ar  1 <1>   0.0860 
  7 C       -1.2830     3.8980    -0.2920 C.ar  1 <1>   0.1110 
  8 C        2.3670     4.4730     0.1220 C.2   1 <1>   0.4230 
  9 C       -0.0660     4.5110    -0.1340 C.ar  1 <1>  -0.1500 
 10 BR      -2.8820     4.9790    -0.4020 Br    1 <1>  -0.1110 
 11 O        2.4340     5.6930     0.1480 O.2   1 <1>  -0.5700 
 12 C        3.6610     3.6860     0.2750 C.3   1 <1>   0.1310 
 13 S        5.1870     4.6760     0.6600 S.3   1 <1>  -0.3710 
 14 C        6.5920     3.7140     0.1500 C.2   1 <1>   0.5810 
 15 S        7.8780     4.6130    -0.2030 S.2   1 <1>  -0.3800 
 16 N        6.5930     2.3610     0.0750 N.am  1 <1>  -0.6600 
 17 C        7.7710     1.6120    -0.4290 C.3   1 <1>   0.1400 
 18 C        5.5760     1.3980     0.5770 C.3   1 <1>   0.1400 
 19 C        7.3790     0.1400    -0.3820 C.3   1 <1>  -0.1600 
 20 C        6.3080     0.0700     0.6980 C.3   1 <1>  -0.1600 
 21 H       -2.3860     2.0640    -0.5020 H     1 <1>   0.1500 
 22 H       -0.0220     5.5830    -0.0730 H     1 <1>   0.1500 
 23 H        3.8540     3.1620    -0.6420 H     1 <1>   0.0800 
 24 H        3.5390     2.9950     1.0860 H     1 <1>   0.0800 
 25 H        8.6090     1.7940     0.2230 H     1 <1>   0.0800 
 26 H        8.0190     1.9200    -1.4300 H     1 <1>   0.0800 
 27 H        4.7790     1.2950    -0.1430 H     1 <1>   0.0800 
 28 H        5.1780     1.7040     1.5290 H     1 <1>   0.0800 
 29 H        8.2210    -0.4940    -0.1700 H     1 <1>   0.0800 
 30 H        6.9560    -0.1390    -1.3320 H     1 <1>   0.0800 
 31 H        5.6390    -0.7620     0.5640 H     1 <1>   0.0800 
 32 H        6.7630     0.0060     1.6710 H     1 <1>   0.0800 
@<TRIPOS>BOND
  1   1   2  1   
  2   2   3  ar  
  3   2   4  ar  
  4   3   5  1   
  5   3   6  ar  
  6   4   7  ar  
  7   4  21  1   
  8   6   8  1   
  9   6   9  ar  
 10   7   9  ar  
 11   7  10  1   
 12   8  11  2   
 13   8  12  1   
 14   9  22  1   
 15  12  13  1   
 16  12  23  1   
 17  12  24  1   
 18  13  14  1   
 19  14  15  2   
 20  14  16  am  
 21  16  17  1   
 22  16  18  1   
 23  17  19  1   
 24  17  25  1   
 25  17  26  1   
 26  18  20  1   
 27  18  27  1   
 28  18  28  1   
 29  19  20  1   
 30  19  29  1   
 31  19  30  1   
 32  20  31  1   
 33  20  32  1   
@<TRIPOS>SUBSTRUCTURE
  1 ****  12 GROUP 4 **** **** 0

# MOE 2024.06 (io_trps.svl 2023.06)
