@<TRIPOS>MOLECULE
NONAME
40 42 1 0 0 
SMALL
USER_CHARGES


@<TRIPOS>ATOM
  1 F       -0.6970    -1.9910    -2.2500 F     1 <1>  -0.1900 
  2 C       -1.5390    -1.9060    -1.2460 C.ar  1 <1>   0.1900 
  3 C       -1.1920    -2.4580    -0.0060 C.ar  1 <1>   0.1000 
  4 C       -2.7420    -1.2660    -1.4720 C.ar  1 <1>  -0.1500 
  5 N        0.0180    -3.1140     0.2620 N.pl3 1 <1>  -0.8380 
  6 C       -2.1240    -2.3360     1.0170 C.ar  1 <1>  -0.1500 
  7 C       -3.6490    -1.1620    -0.4300 C.ar  1 <1>  -0.1500 
  8 C        1.2300    -2.2410     0.2330 C.3   1 <1>   0.2090 
  9 C        0.1980    -4.4180    -0.4450 C.3   1 <1>   0.2090 
 10 C       -3.3360    -1.6980     0.8100 C.ar  1 <1>  -0.1500 
 11 C        2.4700    -2.9980     0.7510 C.3   1 <1>   0.3430 
 12 C        1.4440    -5.1640     0.0780 C.3   1 <1>   0.3430 
 13 N        2.6870    -4.3110     0.0340 N.4   1 <1>  -0.9590 
 14 C        3.8780    -5.0420     0.5420 C.3   1 <1>   0.4860 
 15 C        5.1220    -4.2170     0.2750 C.ar  1 <1>  -0.1430 
 16 C        5.5410    -3.9710    -1.0270 C.ar  1 <1>   0.1900 
 17 C        5.8770    -3.6880     1.3140 C.ar  1 <1>  -0.1500 
 18 F        4.8310    -4.4530    -2.0130 F     1 <1>  -0.1900 
 19 C        6.6690    -3.2280    -1.3310 C.ar  1 <1>  -0.1500 
 20 C        7.0040    -2.9420     1.0090 C.ar  1 <1>   0.1900 
 21 C        7.4170    -2.7010    -0.2900 C.ar  1 <1>  -0.1500 
 22 F        7.7020    -2.4440     1.9920 F     1 <1>  -0.1900 
 23 H       -2.9640    -0.8580    -2.4410 H     1 <1>   0.1500 
 24 H       -1.8930    -2.7470     1.9830 H     1 <1>   0.1500 
 25 H       -4.5930    -0.6680    -0.5830 H     1 <1>   0.1500 
 26 H        1.0560    -1.3770     0.8520 H     1 <1>   0.0800 
 27 H        1.4100    -1.8960    -0.7710 H     1 <1>   0.0800 
 28 H        0.2940    -4.2500    -1.5040 H     1 <1>   0.0800 
 29 H       -0.6750    -5.0280    -0.2870 H     1 <1>   0.0800 
 30 H       -4.0430    -1.6160     1.6190 H     1 <1>   0.1500 
 31 H        2.3330    -3.1800     1.8040 H     1 <1>   0.0800 
 32 H        3.3360    -2.3670     0.6340 H     1 <1>   0.0800 
 33 H        1.5880    -6.0560    -0.5090 H     1 <1>   0.0800 
 34 H        1.2470    -5.4640     1.0940 H     1 <1>   0.0800 
 35 H        2.8800    -4.0900    -0.9540 H     1 <1>   0.4500 
 36 H        3.9710    -5.9900     0.0360 H     1 <1>   0.0800 
 37 H        3.7770    -5.2280     1.5990 H     1 <1>   0.0800 
 38 H        5.6200    -3.8410     2.3490 H     1 <1>   0.1500 
 39 H        6.9560    -3.0660    -2.3560 H     1 <1>   0.1500 
 40 H        8.3020    -2.1170    -0.4770 H     1 <1>   0.1500 
@<TRIPOS>BOND
  1   1   2  1   
  2   2   3  ar  
  3   2   4  ar  
  4   3   5  1   
  5   3   6  ar  
  6   4   7  ar  
  7   4  23  1   
  8   5   8  1   
  9   5   9  1   
 10   6  10  ar  
 11   6  24  1   
 12   7  10  ar  
 13   7  25  1   
 14   8  11  1   
 15   8  26  1   
 16   8  27  1   
 17   9  12  1   
 18   9  28  1   
 19   9  29  1   
 20  10  30  1   
 21  11  13  1   
 22  11  31  1   
 23  11  32  1   
 24  12  13  1   
 25  12  33  1   
 26  12  34  1   
 27  13  14  1   
 28  13  35  1   
 29  14  15  1   
 30  14  36  1   
 31  14  37  1   
 32  15  16  ar  
 33  15  17  ar  
 34  16  18  1   
 35  16  19  ar  
 36  17  20  ar  
 37  17  38  1   
 38  19  21  ar  
 39  19  39  1   
 40  20  21  ar  
 41  20  22  1   
 42  21  40  1   
@<TRIPOS>SUBSTRUCTURE
  1 ****  11 GROUP 4 **** **** 0

# MOE 2024.06 (io_trps.svl 2023.06)
