@<TRIPOS>MOLECULE
NONAME
33 35 1 0 0 
SMALL
USER_CHARGES


@<TRIPOS>ATOM
  1 S       -0.0120     0.3980     0.7470 S.3   1 <1>   0.1810 
  2 N       -0.3810     1.0590    -0.7840 N.2   1 <1>  -0.2210 
  3 C        1.6260     0.9790     0.7050 C.ar  1 <1>   0.0400 
  4 N        0.6120     1.6540    -1.2750 N.2   1 <1>  -0.2270 
  5 C        1.7580     1.6430    -0.4890 C.ar  1 <1>   0.2270 
  6 C        2.6480     0.8550     1.6270 C.ar  1 <1>  -0.1500 
  7 C        2.9820     2.2180    -0.7920 C.ar  1 <1>  -0.1500 
  8 C        3.8630     1.4340     1.3050 C.ar  1 <1>  -0.1500 
  9 C        4.0560     2.1170     0.0920 C.ar  1 <1>   0.0860 
 10 C        5.3370     2.7170    -0.2340 C.2   1 <1>   0.5440 
 11 O        5.3620     3.8790    -0.5900 O.2   1 <1>  -0.5700 
 12 N        6.5220     2.0090    -0.1560 N.am  1 <1>  -0.6600 
 13 C        6.5400     0.5160    -0.2100 C.3   1 <1>   0.1400 
 14 C        7.8110     2.7650    -0.1730 C.3   1 <1>   0.1400 
 15 C        7.6030    -0.0490    -1.1590 C.3   1 <1>  -0.1600 
 16 C        8.9390     2.0890     0.6160 C.3   1 <1>  -0.1600 
 17 C        8.9690    -0.2400    -0.4840 C.3   1 <1>  -0.1600 
 18 C        9.7240     1.0650    -0.2160 C.3   1 <1>  -0.1600 
 19 H        2.4970     0.3310     2.5550 H     1 <1>   0.1500 
 20 H        3.1000     2.7500    -1.7200 H     1 <1>   0.1500 
 21 H        4.6850     1.3710     1.9970 H     1 <1>   0.1500 
 22 H        5.5830     0.1670    -0.5570 H     1 <1>   0.0800 
 23 H        6.6870     0.1270     0.7820 H     1 <1>   0.0800 
 24 H        7.6410     3.7360     0.2630 H     1 <1>   0.0800 
 25 H        8.1120     2.9260    -1.1940 H     1 <1>   0.0800 
 26 H        7.6830     0.5590    -2.0430 H     1 <1>   0.0800 
 27 H        7.2660    -1.0210    -1.4730 H     1 <1>   0.0800 
 28 H        8.5600     1.6540     1.5230 H     1 <1>   0.0800 
 29 H        9.6310     2.8620     0.9020 H     1 <1>   0.0800 
 30 H        9.5820    -0.8540    -1.1210 H     1 <1>   0.0800 
 31 H        8.8410    -0.7740     0.4420 H     1 <1>   0.0800 
 32 H       10.6330     0.8240     0.3070 H     1 <1>   0.0800 
 33 H       10.0080     1.5110    -1.1550 H     1 <1>   0.0800 
@<TRIPOS>BOND
  1   1   2  1   
  2   1   3  1   
  3   2   4  2   
  4   3   5  ar  
  5   3   6  ar  
  6   4   5  1   
  7   5   7  ar  
  8   6   8  ar  
  9   6  19  1   
 10   7   9  ar  
 11   7  20  1   
 12   8   9  ar  
 13   8  21  1   
 14   9  10  1   
 15  10  11  2   
 16  10  12  am  
 17  12  13  1   
 18  12  14  1   
 19  13  15  1   
 20  13  22  1   
 21  13  23  1   
 22  14  16  1   
 23  14  24  1   
 24  14  25  1   
 25  15  17  1   
 26  15  26  1   
 27  15  27  1   
 28  16  18  1   
 29  16  28  1   
 30  16  29  1   
 31  17  18  1   
 32  17  30  1   
 33  17  31  1   
 34  18  32  1   
 35  18  33  1   
@<TRIPOS>SUBSTRUCTURE
  1 ****   9 GROUP 4 **** **** 0

# MOE 2024.06 (io_trps.svl 2023.06)
