@<TRIPOS>MOLECULE
NONAME
53 55 1 0 0 
SMALL
USER_CHARGES


@<TRIPOS>ATOM
  1 O       -0.4370    -0.6220    -0.7000 O.3   1 <1>  -0.3630 
  2 C       -1.6820    -1.1660    -0.7490 C.ar  1 <1>   0.0830 
  3 C        0.1930    -0.0630    -1.8330 C.3   1 <1>   0.0400 
  4 C       -2.1590    -1.8350     0.3790 C.ar  1 <1>  -0.1440 
  5 C       -2.4750    -1.0770    -1.8860 C.ar  1 <1>  -0.1500 
  6 C       -3.4210    -2.4320     0.3550 C.ar  1 <1>  -0.1430 
  7 C       -1.2720    -1.9120     1.6270 C.3   1 <1>  -0.0960 
  8 C       -3.7310    -1.6440    -1.9000 C.ar  1 <1>  -0.1500 
  9 C       -4.2150    -2.3120    -0.7870 C.ar  1 <1>  -0.1440 
 10 C       -3.9010    -3.2190     1.5790 C.3   1 <1>  -0.0970 
 11 C       -5.6240    -2.8690    -0.8700 C.3   1 <1>   0.4860 
 12 N       -6.5070    -2.0180    -0.0290 N.4   1 <1>  -0.9590 
 13 C       -7.8910    -2.5950     0.1170 C.3   1 <1>   0.3430 
 14 C       -6.5580    -0.5930    -0.5270 C.3   1 <1>   0.3430 
 15 C       -8.7990    -1.7340     1.0220 C.3   1 <1>   0.2090 
 16 C       -7.4440     0.3140     0.3520 C.3   1 <1>   0.2090 
 17 N       -8.7790    -0.3000     0.6180 N.pl3 1 <1>  -0.8380 
 18 C       -9.8750     0.1840    -0.0950 C.ar  1 <1>   0.1000 
 19 C      -10.8690     0.9290     0.5400 C.ar  1 <1>  -0.1430 
 20 C       -9.9950    -0.0760    -1.4570 C.ar  1 <1>  -0.1500 
 21 C      -11.9530     1.3930    -0.1870 C.ar  1 <1>  -0.1500 
 22 C      -10.7770     1.2410     2.0280 C.3   1 <1>  -0.0970 
 23 C      -11.0780     0.3910    -2.1770 C.ar  1 <1>  -0.1500 
 24 C      -12.0600     1.1270    -1.5400 C.ar  1 <1>  -0.1500 
 25 H        1.1850     0.2380    -1.5470 H     1 <1>   0.0800 
 26 H       -0.3680     0.7960    -2.1570 H     1 <1>   0.0800 
 27 H        0.2460    -0.8080    -2.6070 H     1 <1>   0.0800 
 28 H       -2.1290    -0.5710    -2.7680 H     1 <1>   0.1500 
 29 H       -0.5550    -1.1110     1.6580 H     1 <1>   0.0800 
 30 H       -0.7340    -2.8430     1.6310 H     1 <1>   0.0800 
 31 H       -1.8510    -1.8360     2.5280 H     1 <1>   0.0800 
 32 H       -4.3220    -1.5560    -2.7970 H     1 <1>   0.1500 
 33 H       -3.1060    -3.8450     1.9460 H     1 <1>   0.0800 
 34 H       -4.7240    -3.8720     1.3660 H     1 <1>   0.0800 
 35 H       -4.1860    -2.5420     2.3650 H     1 <1>   0.0800 
 36 H       -5.6310    -3.8870    -0.5180 H     1 <1>   0.0800 
 37 H       -5.9640    -2.8610    -1.8930 H     1 <1>   0.0800 
 38 H       -6.0650    -1.9770     0.8970 H     1 <1>   0.4500 
 39 H       -7.8360    -3.5900     0.5260 H     1 <1>   0.0800 
 40 H       -8.3580    -2.6610    -0.8510 H     1 <1>   0.0800 
 41 H       -6.9520    -0.5750    -1.5290 H     1 <1>   0.0800 
 42 H       -5.5640    -0.1780    -0.5570 H     1 <1>   0.0800 
 43 H       -8.4770    -1.8140     2.0450 H     1 <1>   0.0800 
 44 H       -9.8090    -2.1050     0.9700 H     1 <1>   0.0800 
 45 H       -7.5780     1.2650    -0.1370 H     1 <1>   0.0800 
 46 H       -6.9520     0.5020     1.2910 H     1 <1>   0.0800 
 47 H       -9.2410    -0.6460    -1.9600 H     1 <1>   0.1500 
 48 H      -12.7240     1.9680     0.2960 H     1 <1>   0.1500 
 49 H      -10.7870     0.3270     2.5920 H     1 <1>   0.0800 
 50 H      -11.6010     1.8520     2.3490 H     1 <1>   0.0800 
 51 H       -9.8620     1.7650     2.2330 H     1 <1>   0.0800 
 52 H      -11.1640     0.1860    -3.2300 H     1 <1>   0.1500 
 53 H      -12.9070     1.4940    -2.0950 H     1 <1>   0.1500 
@<TRIPOS>BOND
  1   1   2  1   
  2   1   3  1   
  3   2   4  ar  
  4   2   5  ar  
  5   3  25  1   
  6   3  26  1   
  7   3  27  1   
  8   4   6  ar  
  9   4   7  1   
 10   5   8  ar  
 11   5  28  1   
 12   6   9  ar  
 13   6  10  1   
 14   7  29  1   
 15   7  30  1   
 16   7  31  1   
 17   8   9  ar  
 18   8  32  1   
 19   9  11  1   
 20  10  33  1   
 21  10  34  1   
 22  10  35  1   
 23  11  12  1   
 24  11  36  1   
 25  11  37  1   
 26  12  13  1   
 27  12  14  1   
 28  12  38  1   
 29  13  15  1   
 30  13  39  1   
 31  13  40  1   
 32  14  16  1   
 33  14  41  1   
 34  14  42  1   
 35  15  17  1   
 36  15  43  1   
 37  15  44  1   
 38  16  17  1   
 39  16  45  1   
 40  16  46  1   
 41  17  18  1   
 42  18  19  ar  
 43  18  20  ar  
 44  19  21  ar  
 45  19  22  1   
 46  20  23  ar  
 47  20  47  1   
 48  21  24  ar  
 49  21  48  1   
 50  22  49  1   
 51  22  50  1   
 52  22  51  1   
 53  23  24  ar  
 54  23  52  1   
 55  24  53  1   
@<TRIPOS>SUBSTRUCTURE
  1 ****  14 GROUP 4 **** **** 0

# MOE 2024.06 (io_trps.svl 2023.06)
