@<TRIPOS>MOLECULE
NONAME
50 53 1 0 0 
SMALL
USER_CHARGES


@<TRIPOS>ATOM
  1 O        0.1810    -1.1160     0.3620 O.2   1 <1>  -0.5700 
  2 C       -0.7550    -1.7530    -0.0400 C.2   1 <1>   0.5690 
  3 N       -0.8730    -2.0650    -1.3530 N.am  1 <1>  -0.4900 
  4 C       -1.8340    -2.2140     0.9230 C.3   1 <1>  -0.0990 
  5 C       -1.8640    -2.7960    -1.9200 C.2   1 <1>   0.5690 
  6 C       -2.5460    -3.4890     0.4260 C.3   1 <1>  -0.0800 
  7 O       -1.8570    -3.0340    -3.0970 O.2   1 <1>  -0.5700 
  8 C       -2.9910    -3.3070    -1.0410 C.3   1 <1>  -0.0990 
  9 C       -3.7170    -3.8610     1.3540 C.3   1 <1>   0.0210 
 10 C       -4.3740    -5.1670     0.9380 C.2   1 <1>   0.1080 
 11 N       -3.8560    -6.3110     1.2430 N.2   1 <1>  -0.7070 
 12 C       -5.5590    -5.2970     0.2050 C.2   1 <1>  -0.0860 
 13 N       -4.6840    -7.2510     0.7220 N.pl3 1 <1>   0.5930 
 14 C       -6.4660    -4.3400    -0.3580 C.2   1 <1>   0.5950 
 15 C       -5.7190    -6.6400     0.1050 C.2   1 <1>  -0.3320 
 16 C       -4.4550    -8.6480     0.8640 C.ar  1 <1>  -0.0230 
 17 O       -6.3430    -3.1440    -0.2760 O.2   1 <1>  -0.5700 
 18 C       -7.6420    -4.9060    -1.1440 C.3   1 <1>  -0.0990 
 19 C       -6.9060    -7.2920    -0.5890 C.3   1 <1>   0.0200 
 20 C       -4.4150    -9.4860    -0.2480 C.ar  1 <1>  -0.1500 
 21 C       -4.2680    -9.2050     2.1250 C.ar  1 <1>  -0.1500 
 22 C       -8.1020    -6.3070    -0.6590 C.3   1 <1>   0.0000 
 23 C       -4.2100   -10.8460    -0.1000 C.ar  1 <1>  -0.1500 
 24 C       -4.0630   -10.5640     2.2750 C.ar  1 <1>  -0.1500 
 25 C       -8.7540    -6.1820     0.7320 C.3   1 <1>  -0.2400 
 26 C       -9.1590    -6.8570    -1.6300 C.3   1 <1>  -0.2400 
 27 C       -4.0360   -11.3870     1.1620 C.ar  1 <1>  -0.1500 
 28 H       -0.1350    -1.7390    -1.9710 H     1 <1>   0.3700 
 29 H       -2.5430    -1.4140     1.0330 H     1 <1>   0.0800 
 30 H       -1.3850    -2.3970     1.8830 H     1 <1>   0.0800 
 31 H       -1.8340    -4.3000     0.4570 H     1 <1>   0.0800 
 32 H       -3.3340    -4.2440    -1.4420 H     1 <1>   0.0800 
 33 H       -3.8020    -2.6040    -1.0990 H     1 <1>   0.0800 
 34 H       -4.4440    -3.0710     1.3760 H     1 <1>   0.0800 
 35 H       -3.3480    -3.9840     2.3570 H     1 <1>   0.0800 
 36 H       -7.3380    -4.9630    -2.1730 H     1 <1>   0.0800 
 37 H       -8.4600    -4.2110    -1.0860 H     1 <1>   0.0800 
 38 H       -7.1980    -8.1860    -0.0640 H     1 <1>   0.0800 
 39 H       -6.6060    -7.5760    -1.5830 H     1 <1>   0.0800 
 40 H       -4.5390    -9.0740    -1.2340 H     1 <1>   0.1500 
 41 H       -4.2810    -8.5640     2.9910 H     1 <1>   0.1500 
 42 H       -4.1820   -11.4860    -0.9650 H     1 <1>   0.1500 
 43 H       -3.9210   -10.9820     3.2570 H     1 <1>   0.1500 
 44 H       -8.0540    -5.8190     1.4640 H     1 <1>   0.0800 
 45 H       -9.1160    -7.1390     1.0680 H     1 <1>   0.0800 
 46 H       -9.5880    -5.5030     0.7020 H     1 <1>   0.0800 
 47 H       -8.7530    -6.9540    -2.6220 H     1 <1>   0.0800 
 48 H      -10.0090    -6.1980    -1.6780 H     1 <1>   0.0800 
 49 H       -9.5010    -7.8250    -1.3090 H     1 <1>   0.0800 
 50 H       -3.8760   -12.4450     1.2790 H     1 <1>   0.1500 
@<TRIPOS>BOND
  1   1   2  2   
  2   2   3  am  
  3   2   4  1   
  4   3   5  am  
  5   3  28  1   
  6   4   6  1   
  7   4  29  1   
  8   4  30  1   
  9   5   7  2   
 10   5   8  1   
 11   6   8  1   
 12   6   9  1   
 13   6  31  1   
 14   8  32  1   
 15   8  33  1   
 16   9  10  1   
 17   9  34  1   
 18   9  35  1   
 19  10  11  2   
 20  10  12  1   
 21  11  13  1   
 22  12  14  1   
 23  12  15  2   
 24  13  15  1   
 25  13  16  1   
 26  14  17  2   
 27  14  18  1   
 28  15  19  1   
 29  16  20  ar  
 30  16  21  ar  
 31  18  22  1   
 32  18  36  1   
 33  18  37  1   
 34  19  22  1   
 35  19  38  1   
 36  19  39  1   
 37  20  23  ar  
 38  20  40  1   
 39  21  24  ar  
 40  21  41  1   
 41  22  25  1   
 42  22  26  1   
 43  23  27  ar  
 44  23  42  1   
 45  24  27  ar  
 46  24  43  1   
 47  25  44  1   
 48  25  45  1   
 49  25  46  1   
 50  26  47  1   
 51  26  48  1   
 52  26  49  1   
 53  27  50  1   
@<TRIPOS>SUBSTRUCTURE
  1 ****  10 GROUP 4 **** **** 0

# MOE 2024.06 (io_trps.svl 2023.06)
