@<TRIPOS>MOLECULE
NONAME
47 48 1 0 0 
SMALL
USER_CHARGES


@<TRIPOS>ATOM
  1 O       -0.1580    -0.7740     0.9560 O.2   1 <1>  -0.5700 
  2 C        0.1160    -1.8930     0.6440 C.2   1 <1>   0.4480 
  3 C        1.4470    -2.2240    -0.0020 C.3   1 <1>   0.0420 
  4 C       -0.8310    -3.0330     0.9910 C.3   1 <1>  -0.0990 
  5 C        1.5060    -1.6320    -1.4090 C.2   1 <1>   0.6590 
  6 C        1.7190    -3.7380     0.1020 C.3   1 <1>   0.0630 
  7 C       -0.8520    -4.1130    -0.0970 C.3   1 <1>   0.2800 
  8 O        1.1370    -2.2550    -2.3660 O.2   1 <1>  -0.5700 
  9 O        2.0130    -0.4140    -1.6040 O.3   1 <1>  -0.4300 
 10 C        3.1160    -4.1090    -0.4040 C.ar  1 <1>  -0.1440 
 11 C        0.5760    -4.6390    -0.4480 C.3   1 <1>  -0.0190 
 12 O       -1.3440    -3.4940    -1.2190 O.3   1 <1>  -0.6800 
 13 C       -1.8920    -5.1940     0.2300 C.3   1 <1>  -0.2400 
 14 C        2.3270     0.5600    -0.6300 C.3   1 <1>   0.0400 
 15 C        4.1570    -4.2060     0.5100 C.ar  1 <1>  -0.1500 
 16 C        3.3870    -4.3510    -1.7450 C.ar  1 <1>  -0.1500 
 17 C        0.8020    -6.0710     0.0110 C.2   1 <1>   0.6590 
 18 C        5.4400    -4.5350     0.1070 C.ar  1 <1>   0.0820 
 19 C        4.6650    -4.6810    -2.1580 C.ar  1 <1>  -0.1500 
 20 O        0.8380    -6.9900    -0.7650 O.2   1 <1>  -0.5700 
 21 O        0.9460    -6.2580     1.3210 O.3   1 <1>  -0.4300 
 22 O        6.3850    -4.6020     1.0780 O.3   1 <1>  -0.3620 
 23 C        5.6940    -4.7740    -1.2390 C.ar  1 <1>  -0.1500 
 24 C        1.2060    -7.5390     1.8580 C.3   1 <1>   0.0400 
 25 C        7.7170    -4.9580     0.7790 C.3   1 <1>   0.0400 
 26 H        2.2080    -1.7500     0.5850 H     1 <1>   0.0800 
 27 H       -1.8190    -2.6360     1.1430 H     1 <1>   0.0800 
 28 H       -0.5170    -3.4680     1.9220 H     1 <1>   0.0800 
 29 H        1.7490    -3.9230     1.1620 H     1 <1>   0.0800 
 30 H        0.6470    -4.6730    -1.5190 H     1 <1>   0.0800 
 31 H       -2.2840    -3.2560    -1.1070 H     1 <1>   0.4000 
 32 H       -1.6460    -5.6940     1.1490 H     1 <1>   0.0800 
 33 H       -1.9300    -5.9280    -0.5570 H     1 <1>   0.0800 
 34 H       -2.8700    -4.7630     0.3490 H     1 <1>   0.0800 
 35 H        2.6630     1.4440    -1.1430 H     1 <1>   0.0800 
 36 H        3.1130     0.1940     0.0050 H     1 <1>   0.0800 
 37 H        1.4440     0.7930    -0.0620 H     1 <1>   0.0800 
 38 H        3.9940    -4.0300     1.5570 H     1 <1>   0.1500 
 39 H        2.6130    -4.2850    -2.4900 H     1 <1>   0.1500 
 40 H        4.8550    -4.8640    -3.2010 H     1 <1>   0.1500 
 41 H        6.6750    -5.0320    -1.5880 H     1 <1>   0.1500 
 42 H        1.2880    -7.4530     2.9270 H     1 <1>   0.0800 
 43 H        2.1290    -7.9070     1.4440 H     1 <1>   0.0800 
 44 H        0.3960    -8.1970     1.5980 H     1 <1>   0.0800 
 45 H        8.2770    -4.9570     1.6970 H     1 <1>   0.0800 
 46 H        8.1280    -4.2330     0.0990 H     1 <1>   0.0800 
 47 H        7.7270    -5.9430     0.3460 H     1 <1>   0.0800 
@<TRIPOS>BOND
  1   1   2  2   
  2   2   3  1   
  3   2   4  1   
  4   3   5  1   
  5   3   6  1   
  6   3  26  1   
  7   4   7  1   
  8   4  27  1   
  9   4  28  1   
 10   5   8  2   
 11   5   9  1   
 12   6  10  1   
 13   6  11  1   
 14   6  29  1   
 15   7  11  1   
 16   7  12  1   
 17   7  13  1   
 18   9  14  1   
 19  10  15  ar  
 20  10  16  ar  
 21  11  17  1   
 22  11  30  1   
 23  12  31  1   
 24  13  32  1   
 25  13  33  1   
 26  13  34  1   
 27  14  35  1   
 28  14  36  1   
 29  14  37  1   
 30  15  18  ar  
 31  15  38  1   
 32  16  19  ar  
 33  16  39  1   
 34  17  20  2   
 35  17  21  1   
 36  18  22  1   
 37  18  23  ar  
 38  19  23  ar  
 39  19  40  1   
 40  21  24  1   
 41  22  25  1   
 42  23  41  1   
 43  24  42  1   
 44  24  43  1   
 45  24  44  1   
 46  25  45  1   
 47  25  46  1   
 48  25  47  1   
@<TRIPOS>SUBSTRUCTURE
  1 ****   6 GROUP 4 **** **** 0

# MOE 2024.06 (io_trps.svl 2023.06)
