@<TRIPOS>MOLECULE
NONAME
33 33 1 0 0 
SMALL
USER_CHARGES


@<TRIPOS>ATOM
  1 BR      -0.1450    -1.3320    -1.2490 Br    1 <1>  -0.1110 
  2 C        1.7140    -1.5840    -0.8140 C.ar  1 <1>   0.1110 
  3 C        2.3710    -2.6920    -1.3130 C.ar  1 <1>  -0.1500 
  4 C        2.3420    -0.6500    -0.0140 C.ar  1 <1>  -0.1500 
  5 C        3.7090    -2.8770    -1.0030 C.ar  1 <1>  -0.1440 
  6 C        3.6780    -0.8350     0.2960 C.ar  1 <1>  -0.1500 
  7 C        4.3660    -1.9460    -0.1950 C.ar  1 <1>   0.0830 
  8 C        4.4440    -4.0930    -1.5470 C.3   1 <1>  -0.0960 
  9 O        5.6780    -2.1760     0.0780 O.3   1 <1>  -0.3630 
 10 C        6.4390    -1.2820     0.8830 C.3   1 <1>   0.1810 
 11 C        7.8800    -1.7550     1.0330 C.2   1 <1>   0.5690 
 12 O        8.6650    -1.0390     1.6060 O.2   1 <1>  -0.5700 
 13 N        8.2510    -2.9580     0.5200 N.am  1 <1>  -0.7300 
 14 C        9.6030    -3.5600     0.6260 C.3   1 <1>   0.1400 
 15 C       10.5510    -2.9280    -0.3920 C.3   1 <1>   0.1200 
 16 O       11.7430    -3.6490    -0.3940 O.3   1 <1>  -0.5600 
 17 C       12.7210    -3.1140    -1.2260 C.3   1 <1>   0.0400 
 18 H        1.8370    -3.3900    -1.9320 H     1 <1>   0.1500 
 19 H        1.7950     0.2000     0.3550 H     1 <1>   0.1500 
 20 H        4.1570    -0.1040     0.9190 H     1 <1>   0.1500 
 21 H        3.7970    -4.6980    -2.1560 H     1 <1>   0.0800 
 22 H        4.8070    -4.6940    -0.7330 H     1 <1>   0.0800 
 23 H        5.2800    -3.7770    -2.1450 H     1 <1>   0.0800 
 24 H        5.9840    -1.2270     1.8540 H     1 <1>   0.0800 
 25 H        6.4330    -0.3150     0.4160 H     1 <1>   0.0800 
 26 H        7.5390    -3.5010     0.0230 H     1 <1>   0.3700 
 27 H        9.5340    -4.6190     0.4490 H     1 <1>   0.0800 
 28 H        9.9900    -3.3950     1.6180 H     1 <1>   0.0800 
 29 H       10.7590    -1.9080    -0.1170 H     1 <1>   0.0800 
 30 H       10.1260    -2.9720    -1.3800 H     1 <1>   0.0800 
 31 H       13.5930    -3.7410    -1.1620 H     1 <1>   0.0800 
 32 H       12.9640    -2.1200    -0.8940 H     1 <1>   0.0800 
 33 H       12.3580    -3.0990    -2.2390 H     1 <1>   0.0800 
@<TRIPOS>BOND
  1   1   2  1   
  2   2   3  ar  
  3   2   4  ar  
  4   3   5  ar  
  5   3  18  1   
  6   4   6  ar  
  7   4  19  1   
  8   5   7  ar  
  9   5   8  1   
 10   6   7  ar  
 11   6  20  1   
 12   7   9  1   
 13   8  21  1   
 14   8  22  1   
 15   8  23  1   
 16   9  10  1   
 17  10  11  1   
 18  10  24  1   
 19  10  25  1   
 20  11  12  2   
 21  11  13  am  
 22  13  14  1   
 23  13  26  1   
 24  14  15  1   
 25  14  27  1   
 26  14  28  1   
 27  15  16  1   
 28  15  29  1   
 29  15  30  1   
 30  16  17  1   
 31  17  31  1   
 32  17  32  1   
 33  17  33  1   
@<TRIPOS>SUBSTRUCTURE
  1 ****   9 GROUP 4 **** **** 0

# MOE 2024.06 (io_trps.svl 2023.06)
