@<TRIPOS>MOLECULE
NONAME
50 52 1 0 0 
SMALL
USER_CHARGES


@<TRIPOS>ATOM
  1 S        0.3160     0.5540    -1.5030 S.o2  1 <1>   1.4470 
  2 O       -0.0100    -0.3550    -2.5780 O.2   1 <1>  -0.6500 
  3 O        0.8320     1.8700    -1.8200 O.2   1 <1>  -0.6500 
  4 N       -1.0860     0.7820    -0.5770 N.am  1 <1>  -0.8490 
  5 C        1.4530    -0.2750    -0.3550 C.ar  1 <1>  -0.0090 
  6 C       -2.2500     1.0530    -1.4260 C.3   1 <1>   0.1960 
  7 C       -0.9170     1.8330     0.4320 C.3   1 <1>   0.1960 
  8 C        2.7970     0.0690    -0.3080 C.ar  1 <1>  -0.1500 
  9 C        1.0080    -1.2820     0.4920 C.ar  1 <1>  -0.1500 
 10 C       -3.5270     1.1000    -0.5810 C.3   1 <1>  -0.1600 
 11 C       -2.1420     1.8900     1.3480 C.3   1 <1>  -0.1600 
 12 C        3.7040    -0.5420     0.5600 C.ar  1 <1>   0.0860 
 13 C        1.8770    -1.9150     1.3600 C.ar  1 <1>  -0.1500 
 14 C       -3.4230     2.1410     0.5410 C.3   1 <1>  -0.0800 
 15 C        5.1080    -0.1630     0.6070 C.2   1 <1>   0.5440 
 16 C        3.2080    -1.5460     1.3910 C.ar  1 <1>  -0.1500 
 17 C       -4.6580     2.0940     1.4470 C.3   1 <1>  -0.2400 
 18 O        5.9420    -0.9350     1.0380 O.2   1 <1>  -0.5700 
 19 N        5.5170     1.0690     0.1820 N.am  1 <1>  -0.7300 
 20 C        6.9080     1.5540     0.1560 C.3   1 <1>   0.2200 
 21 C        7.0160     2.7860     1.0440 C.3   1 <1>  -0.1600 
 22 C        7.2100     2.0960    -1.2350 C.3   1 <1>  -0.1600 
 23 C        6.5150     3.9610     0.1970 C.3   1 <1>  -0.1600 
 24 C        6.6230     3.5120    -1.2670 C.3   1 <1>  -0.1600 
 25 H       -2.3560     0.2730    -2.1620 H     1 <1>   0.0800 
 26 H       -2.1140     1.9880    -1.9460 H     1 <1>   0.0800 
 27 H       -0.7780     2.7880    -0.0500 H     1 <1>   0.0800 
 28 H       -0.0450     1.6290     1.0300 H     1 <1>   0.0800 
 29 H        3.1490     0.8340    -0.9790 H     1 <1>   0.1500 
 30 H       -0.0300    -1.5730     0.4680 H     1 <1>   0.1500 
 31 H       -3.6960     0.1220    -0.1630 H     1 <1>   0.0800 
 32 H       -4.3610     1.3330    -1.2170 H     1 <1>   0.0800 
 33 H       -2.0080     2.6770     2.0690 H     1 <1>   0.0800 
 34 H       -2.2170     0.9600     1.8830 H     1 <1>   0.0800 
 35 H        1.5190    -2.6950     2.0100 H     1 <1>   0.1500 
 36 H       -3.3630     3.1210     0.0960 H     1 <1>   0.0800 
 37 H        3.8830    -2.0430     2.0680 H     1 <1>   0.1500 
 38 H       -4.7520     1.1280     1.9120 H     1 <1>   0.0800 
 39 H       -5.5480     2.2880     0.8750 H     1 <1>   0.0800 
 40 H       -4.5830     2.8400     2.2190 H     1 <1>   0.0800 
 41 H        4.8340     1.7690    -0.1020 H     1 <1>   0.3700 
 42 H        7.5940     0.7750     0.4490 H     1 <1>   0.0800 
 43 H        8.0550     2.9440     1.2790 H     1 <1>   0.0800 
 44 H        6.4710     2.6710     1.9650 H     1 <1>   0.0800 
 45 H        6.8180     1.4630    -2.0120 H     1 <1>   0.0800 
 46 H        8.2780     2.1580    -1.3490 H     1 <1>   0.0800 
 47 H        7.1040     4.8440     0.3810 H     1 <1>   0.0800 
 48 H        5.4870     4.1750     0.4360 H     1 <1>   0.0800 
 49 H        5.6440     3.4930    -1.7140 H     1 <1>   0.0800 
 50 H        7.2510     4.1750    -1.8370 H     1 <1>   0.0800 
@<TRIPOS>BOND
  1   1   2  2   
  2   1   3  2   
  3   1   4  am  
  4   1   5  1   
  5   4   6  1   
  6   4   7  1   
  7   5   8  ar  
  8   5   9  ar  
  9   6  10  1   
 10   6  25  1   
 11   6  26  1   
 12   7  11  1   
 13   7  27  1   
 14   7  28  1   
 15   8  12  ar  
 16   8  29  1   
 17   9  13  ar  
 18   9  30  1   
 19  10  14  1   
 20  10  31  1   
 21  10  32  1   
 22  11  14  1   
 23  11  33  1   
 24  11  34  1   
 25  12  15  1   
 26  12  16  ar  
 27  13  16  ar  
 28  13  35  1   
 29  14  17  1   
 30  14  36  1   
 31  15  18  2   
 32  15  19  am  
 33  16  37  1   
 34  17  38  1   
 35  17  39  1   
 36  17  40  1   
 37  19  20  1   
 38  19  41  1   
 39  20  21  1   
 40  20  22  1   
 41  20  42  1   
 42  21  23  1   
 43  21  43  1   
 44  21  44  1   
 45  22  24  1   
 46  22  45  1   
 47  22  46  1   
 48  23  24  1   
 49  23  47  1   
 50  23  48  1   
 51  24  49  1   
 52  24  50  1   
@<TRIPOS>SUBSTRUCTURE
  1 ****   8 GROUP 4 **** **** 0

# MOE 2024.06 (io_trps.svl 2023.06)
