@<TRIPOS>MOLECULE
NONAME
47 47 1 0 0 
SMALL
USER_CHARGES


@<TRIPOS>ATOM
  1 O       -2.0420    -0.1400     1.2550 O.3   1 <1>  -0.3630 
  2 C       -2.4710     0.7710     0.3360 C.ar  1 <1>   0.0830 
  3 C       -0.6860    -0.2760     1.6200 C.3   1 <1>   0.0400 
  4 C       -1.7880     1.9220    -0.0950 C.ar  1 <1>   0.0830 
  5 C       -3.7190     0.4850    -0.1880 C.ar  1 <1>  -0.1500 
  6 O       -0.5700     2.2360     0.4340 O.3   1 <1>  -0.3630 
  7 C       -2.3860     2.7350    -1.0560 C.ar  1 <1>  -0.1500 
  8 C       -4.3190     1.3130    -1.1230 C.ar  1 <1>  -0.1430 
  9 C        0.1750     3.3610     0.0200 C.3   1 <1>   0.0400 
 10 C       -3.6370     2.4350    -1.5660 C.ar  1 <1>  -0.1500 
 11 C       -5.7080     0.9900    -1.6290 C.3   1 <1>   0.4860 
 12 N       -6.6480     1.1960    -0.4840 N.4   1 <1>  -0.9590 
 13 C       -7.9460     0.4580    -0.7030 C.3   1 <1>   0.3430 
 14 C       -6.7910     2.6570    -0.2090 C.3   1 <1>   0.3430 
 15 C       -8.8930     0.4250     0.5330 C.3   1 <1>   0.3430 
 16 C       -6.6270     2.8900     1.2870 C.3   1 <1>  -0.2400 
 17 N      -10.1760    -0.3480     0.3270 N.4   1 <1>  -0.9590 
 18 C      -11.0940    -0.1480     1.5010 C.3   1 <1>   0.2630 
 19 C       -9.9640    -1.8240     0.1300 C.3   1 <1>   0.2630 
 20 H       -0.5750    -1.1920     2.1700 H     1 <1>   0.0800 
 21 H       -0.4070     0.5560     2.2420 H     1 <1>   0.0800 
 22 H       -0.0830    -0.3060     0.7300 H     1 <1>   0.0800 
 23 H       -4.2010    -0.4110     0.1600 H     1 <1>   0.1500 
 24 H       -1.8930     3.6150    -1.4240 H     1 <1>   0.1500 
 25 H        1.0950     3.3740     0.5750 H     1 <1>   0.0800 
 26 H       -0.3880     4.2530     0.2310 H     1 <1>   0.0800 
 27 H        0.3860     3.2740    -1.0310 H     1 <1>   0.0800 
 28 H       -4.0630     3.0900    -2.3070 H     1 <1>   0.1500 
 29 H       -5.7270    -0.0370    -1.9590 H     1 <1>   0.0800 
 30 H       -5.9660     1.6260    -2.4610 H     1 <1>   0.0800 
 31 H       -6.1240     0.8090     0.3170 H     1 <1>   0.4500 
 32 H       -7.7180    -0.5580    -0.9770 H     1 <1>   0.0800 
 33 H       -8.4700     0.9160    -1.5270 H     1 <1>   0.0800 
 34 H       -7.7460     3.0230    -0.5500 H     1 <1>   0.0800 
 35 H       -6.0200     3.2110    -0.7220 H     1 <1>   0.0800 
 36 H       -9.1450     1.4410     0.7900 H     1 <1>   0.0800 
 37 H       -8.3600    -0.0050     1.3650 H     1 <1>   0.0800 
 38 H       -7.3820     2.3920     1.8640 H     1 <1>   0.0800 
 39 H       -6.7040     3.9450     1.4870 H     1 <1>   0.0800 
 40 H       -5.6510     2.5730     1.6140 H     1 <1>   0.0800 
 41 H      -10.6850     0.0150    -0.4980 H     1 <1>   0.4500 
 42 H      -10.6410    -0.5240     2.4050 H     1 <1>   0.0800 
 43 H      -12.0240    -0.6720     1.3440 H     1 <1>   0.0800 
 44 H      -11.3150     0.8980     1.6360 H     1 <1>   0.0800 
 45 H       -9.4640    -2.2520     0.9840 H     1 <1>   0.0800 
 46 H       -9.3730    -2.0140    -0.7500 H     1 <1>   0.0800 
 47 H      -10.9140    -2.3240     0.0110 H     1 <1>   0.0800 
@<TRIPOS>BOND
  1   1   2  1   
  2   1   3  1   
  3   2   4  ar  
  4   2   5  ar  
  5   3  20  1   
  6   3  21  1   
  7   3  22  1   
  8   4   6  1   
  9   4   7  ar  
 10   5   8  ar  
 11   5  23  1   
 12   6   9  1   
 13   7  10  ar  
 14   7  24  1   
 15   8  10  ar  
 16   8  11  1   
 17   9  25  1   
 18   9  26  1   
 19   9  27  1   
 20  10  28  1   
 21  11  12  1   
 22  11  29  1   
 23  11  30  1   
 24  12  13  1   
 25  12  14  1   
 26  12  31  1   
 27  13  15  1   
 28  13  32  1   
 29  13  33  1   
 30  14  16  1   
 31  14  34  1   
 32  14  35  1   
 33  15  17  1   
 34  15  36  1   
 35  15  37  1   
 36  16  38  1   
 37  16  39  1   
 38  16  40  1   
 39  17  18  1   
 40  17  19  1   
 41  17  41  1   
 42  18  42  1   
 43  18  43  1   
 44  18  44  1   
 45  19  45  1   
 46  19  46  1   
 47  19  47  1   
@<TRIPOS>SUBSTRUCTURE
  1 ****   8 GROUP 4 **** **** 0

# MOE 2024.06 (io_trps.svl 2023.06)
