@<TRIPOS>MOLECULE
NONAME
49 50 1 0 0 
SMALL
USER_CHARGES


@<TRIPOS>ATOM
  1 CL       0.5780    -1.2780     2.2220 Cl    1 <1>  -0.1770 
  2 C        2.1610    -1.6930     1.6180 C.ar  1 <1>   0.1770 
  3 C        3.1280    -2.1400     2.4960 C.ar  1 <1>  -0.1500 
  4 C        2.4280    -1.5690     0.2690 C.ar  1 <1>  -0.1500 
  5 C        4.3830    -2.4680     2.0100 C.ar  1 <1>  -0.1500 
  6 C        3.6870    -1.9000    -0.2040 C.ar  1 <1>  -0.1500 
  7 C        4.6860    -2.3520     0.6550 C.ar  1 <1>  -0.0090 
  8 S        6.3270    -2.8050     0.0280 S.o2  1 <1>   1.4470 
  9 O        7.3430    -2.5200     1.0200 O.2   1 <1>  -0.6500 
 10 O        6.4980    -2.3500    -1.3280 O.2   1 <1>  -0.6500 
 11 N        6.2430    -4.4700    -0.1180 N.am  1 <1>  -0.9140 
 12 C        7.4620    -5.1730     0.2870 C.3   1 <1>   0.3370 
 13 C        8.7130    -4.8460    -0.5710 C.2   1 <1>   0.5690 
 14 C        7.1240    -6.6660     0.2700 C.3   1 <1>  -0.2400 
 15 O        8.8770    -5.4310    -1.6170 O.2   1 <1>  -0.5700 
 16 N        9.5920    -3.9060    -0.1090 N.am  1 <1>  -0.5470 
 17 C       10.8630    -3.5810    -0.6110 C.ar  1 <1>   0.1170 
 18 C       11.0660    -2.3430    -1.2280 C.ar  1 <1>  -0.1430 
 19 C       11.9420    -4.4630    -0.4710 C.ar  1 <1>  -0.1430 
 20 C       12.3270    -1.9980    -1.6870 C.ar  1 <1>  -0.1500 
 21 C        9.9350    -1.3400    -1.4300 C.3   1 <1>  -0.0170 
 22 C       13.1930    -4.0970    -0.9410 C.ar  1 <1>  -0.1500 
 23 C       11.8090    -5.8310     0.1970 C.3   1 <1>  -0.0170 
 24 C       13.3880    -2.8700    -1.5450 C.ar  1 <1>  -0.1500 
 25 C        9.7780    -0.4340    -0.2060 C.3   1 <1>  -0.2400 
 26 C       11.8290    -5.7030     1.7220 C.3   1 <1>  -0.2400 
 27 H        2.8980    -2.2290     3.5430 H     1 <1>   0.1500 
 28 H        1.6600    -1.2190    -0.3980 H     1 <1>   0.1500 
 29 H        5.1390    -2.8180     2.6930 H     1 <1>   0.1500 
 30 H        3.8960    -1.8050    -1.2580 H     1 <1>   0.1500 
 31 H        6.1610    -4.6160    -1.1260 H     1 <1>   0.4200 
 32 H        7.6890    -4.9190     1.3080 H     1 <1>   0.0800 
 33 H        6.8730    -6.9860    -0.7260 H     1 <1>   0.0800 
 34 H        6.3000    -6.8690     0.9290 H     1 <1>   0.0800 
 35 H        7.9750    -7.2330     0.6000 H     1 <1>   0.0800 
 36 H        9.2070    -3.2290     0.5590 H     1 <1>   0.3700 
 37 H       12.4890    -1.0460    -2.1600 H     1 <1>   0.1500 
 38 H        9.0140    -1.8560    -1.6320 H     1 <1>   0.0800 
 39 H       10.1400    -0.7320    -2.2940 H     1 <1>   0.0800 
 40 H       14.0280    -4.7650    -0.8360 H     1 <1>   0.1500 
 41 H       12.6230    -6.4630    -0.1110 H     1 <1>   0.0800 
 42 H       10.9070    -6.3190    -0.1220 H     1 <1>   0.0800 
 43 H       14.3640    -2.5960    -1.9060 H     1 <1>   0.1500 
 44 H        9.5810    -1.0190     0.6740 H     1 <1>   0.0800 
 45 H        8.9620     0.2500    -0.3560 H     1 <1>   0.0800 
 46 H       10.6800     0.1300    -0.0470 H     1 <1>   0.0800 
 47 H       12.7470    -5.2400     2.0400 H     1 <1>   0.0800 
 48 H       11.7550    -6.6740     2.1760 H     1 <1>   0.0800 
 49 H       11.0060    -5.0980     2.0590 H     1 <1>   0.0800 
@<TRIPOS>BOND
  1   1   2  1   
  2   2   3  ar  
  3   2   4  ar  
  4   3   5  ar  
  5   3  27  1   
  6   4   6  ar  
  7   4  28  1   
  8   5   7  ar  
  9   5  29  1   
 10   6   7  ar  
 11   6  30  1   
 12   7   8  1   
 13   8   9  2   
 14   8  10  2   
 15   8  11  am  
 16  11  12  1   
 17  11  31  1   
 18  12  13  1   
 19  12  14  1   
 20  12  32  1   
 21  13  15  2   
 22  13  16  am  
 23  14  33  1   
 24  14  34  1   
 25  14  35  1   
 26  16  17  1   
 27  16  36  1   
 28  17  18  ar  
 29  17  19  ar  
 30  18  20  ar  
 31  18  21  1   
 32  19  22  ar  
 33  19  23  1   
 34  20  24  ar  
 35  20  37  1   
 36  21  25  1   
 37  21  38  1   
 38  21  39  1   
 39  22  24  ar  
 40  22  40  1   
 41  23  26  1   
 42  23  41  1   
 43  23  42  1   
 44  24  43  1   
 45  25  44  1   
 46  25  45  1   
 47  25  46  1   
 48  26  47  1   
 49  26  48  1   
 50  26  49  1   
@<TRIPOS>SUBSTRUCTURE
  1 ****   9 GROUP 4 **** **** 0

# MOE 2024.06 (io_trps.svl 2023.06)
