@<TRIPOS>MOLECULE
NONAME
33 34 1 0 0 
SMALL
USER_CHARGES


@<TRIPOS>ATOM
  1 O       -0.6920    -0.0080    -0.0120 O.2   1 <1>  -0.5700 
  2 C       -1.6660    -0.7330    -0.0060 C.2   1 <1>   0.7060 
  3 O       -2.8750    -0.1740     0.0090 O.3   1 <1>  -0.2330 
  4 C       -1.5830    -2.1540    -0.0120 C.2   1 <1>  -0.1360 
  5 C       -4.0260    -0.8900     0.0190 C.ar  1 <1>   0.0820 
  6 C       -2.6850    -2.9420    -0.0060 C.2   1 <1>  -0.1670 
  7 C       -3.9730    -2.2960     0.0080 C.ar  1 <1>   0.0280 
  8 C       -5.2380    -0.2010     0.0360 C.ar  1 <1>  -0.1440 
  9 C       -2.6260    -4.4730    -0.0120 C.3   1 <1>  -0.0220 
 10 C       -5.1910    -2.9810     0.0080 C.ar  1 <1>  -0.1500 
 11 C       -6.4290    -0.9160     0.0270 C.ar  1 <1>   0.0830 
 12 C       -5.2680     1.3280     0.0540 C.3   1 <1>  -0.0960 
 13 C       -1.2140    -5.0710    -0.0210 C.3   1 <1>  -0.2400 
 14 C       -6.3940    -2.3100     0.0160 C.ar  1 <1>  -0.1500 
 15 O       -7.5940    -0.2210     0.0240 O.3   1 <1>  -0.3630 
 16 C       -8.8530    -0.8500     0.0040 C.3   1 <1>   0.1200 
 17 C       -9.9220     0.2390     0.0020 C.3   1 <1>  -0.2400 
 18 H       -0.5800    -2.5320    -0.0220 H     1 <1>   0.1500 
 19 H       -3.1480    -4.8350    -0.8810 H     1 <1>   0.0800 
 20 H       -3.1390    -4.8410     0.8600 H     1 <1>   0.0800 
 21 H       -5.2090    -4.0550     0.0000 H     1 <1>   0.1500 
 22 H       -4.3640     1.7410     0.4630 H     1 <1>   0.0800 
 23 H       -6.0840     1.6840     0.6570 H     1 <1>   0.0800 
 24 H       -5.3950     1.6970    -0.9470 H     1 <1>   0.0800 
 25 H       -0.6780    -4.7610    -0.9010 H     1 <1>   0.0800 
 26 H       -1.2740    -6.1450    -0.0240 H     1 <1>   0.0800 
 27 H       -0.6690    -4.7660     0.8540 H     1 <1>   0.0800 
 28 H       -7.2990    -2.8860     0.0130 H     1 <1>   0.1500 
 29 H       -8.9410    -1.4660     0.8820 H     1 <1>   0.0800 
 30 H       -8.9200    -1.4500    -0.8860 H     1 <1>   0.0800 
 31 H       -9.8350     0.8430     0.8870 H     1 <1>   0.0800 
 32 H      -10.8990    -0.2100    -0.0140 H     1 <1>   0.0800 
 33 H       -9.8150     0.8600    -0.8700 H     1 <1>   0.0800 
@<TRIPOS>BOND
  1   1   2  2   
  2   2   3  1   
  3   2   4  1   
  4   3   5  1   
  5   4   6  2   
  6   4  18  1   
  7   5   7  ar  
  8   5   8  ar  
  9   6   7  1   
 10   6   9  1   
 11   7  10  ar  
 12   8  11  ar  
 13   8  12  1   
 14   9  13  1   
 15   9  19  1   
 16   9  20  1   
 17  10  14  ar  
 18  10  21  1   
 19  11  14  ar  
 20  11  15  1   
 21  12  22  1   
 22  12  23  1   
 23  12  24  1   
 24  13  25  1   
 25  13  26  1   
 26  13  27  1   
 27  14  28  1   
 28  15  16  1   
 29  16  17  1   
 30  16  29  1   
 31  16  30  1   
 32  17  31  1   
 33  17  32  1   
 34  17  33  1   
@<TRIPOS>SUBSTRUCTURE
  1 ****   5 GROUP 4 **** **** 0

# MOE 2024.06 (io_trps.svl 2023.06)
