@<TRIPOS>MOLECULE
NONAME
44 45 1 0 0 
SMALL
USER_CHARGES


@<TRIPOS>ATOM
  1 O        0.1480    -0.0360     0.9500 O.2   1 <1>  -0.5700 
  2 C        0.6230    -0.9330     0.2820 C.2   1 <1>   0.7800 
  3 O        1.9440    -0.9080     0.0070 O.3   1 <1>  -0.0870 
  4 N       -0.1230    -1.9640    -0.1950 N.am  1 <1>  -0.7300 
  5 N        2.5550    -1.8720    -0.6860 N.2   1 <1>  -0.5130 
  6 C       -1.5640    -2.1650    -0.0060 C.3   1 <1>   0.2200 
  7 C        3.8070    -1.7460    -0.8970 C.2   1 <1>   0.3040 
  8 C       -1.7880    -3.4870     0.7350 C.3   1 <1>  -0.1600 
  9 C       -2.2470    -2.1720    -1.3780 C.3   1 <1>  -0.1600 
 10 C        4.7470    -0.7270    -0.4850 C.ar  1 <1>   0.0860 
 11 C       -3.2850    -3.8030     0.8670 C.3   1 <1>  -0.1600 
 12 C       -3.7450    -2.4860    -1.2500 C.3   1 <1>  -0.1600 
 13 C        4.6610    -0.0270     0.7220 C.ar  1 <1>  -0.1500 
 14 C        5.8300    -0.4230    -1.3120 C.ar  1 <1>  -0.1500 
 15 C       -3.9740    -3.8080    -0.5050 C.3   1 <1>  -0.1600 
 16 C        5.5970     0.9260     1.0730 C.ar  1 <1>  -0.1500 
 17 C        6.7670     0.5300    -0.9620 C.ar  1 <1>  -0.1500 
 18 C        6.6660     1.2240     0.2380 C.ar  1 <1>   0.1000 
 19 N        7.5940     2.1910     0.6110 N.pl3 1 <1>  -0.8380 
 20 C        9.0400     2.0170     0.3140 C.3   1 <1>   0.1290 
 21 C        7.1370     3.5930     0.8000 C.3   1 <1>   0.1290 
 22 H        0.3880    -2.6600    -0.7380 H     1 <1>   0.3700 
 23 H       -1.9670    -1.3570     0.5840 H     1 <1>   0.0800 
 24 H        4.2680    -2.5130    -1.4920 H     1 <1>   0.0600 
 25 H       -1.3070    -4.2860     0.1980 H     1 <1>   0.0800 
 26 H       -1.3500    -3.4220     1.7160 H     1 <1>   0.0800 
 27 H       -2.1240    -1.2090    -1.8410 H     1 <1>   0.0800 
 28 H       -1.7870    -2.9150    -2.0050 H     1 <1>   0.0800 
 29 H       -3.4110    -4.7620     1.3390 H     1 <1>   0.0800 
 30 H       -3.7500    -3.0630     1.4960 H     1 <1>   0.0800 
 31 H       -4.2310    -1.6870    -0.7150 H     1 <1>   0.0800 
 32 H       -4.1870    -2.5420    -2.2300 H     1 <1>   0.0800 
 33 H        3.8570    -0.2360     1.4040 H     1 <1>   0.1500 
 34 H        5.9370    -0.9390    -2.2490 H     1 <1>   0.1500 
 35 H       -5.0300    -3.9710    -0.3770 H     1 <1>   0.0800 
 36 H       -3.5850    -4.6210    -1.0950 H     1 <1>   0.0800 
 37 H        5.5140     1.4480     2.0080 H     1 <1>   0.1500 
 38 H        7.5810     0.7500    -1.6260 H     1 <1>   0.1500 
 39 H        9.6270     2.4460     1.1070 H     1 <1>   0.0800 
 40 H        9.2860     2.5020    -0.6140 H     1 <1>   0.0800 
 41 H        9.2760     0.9700     0.2400 H     1 <1>   0.0800 
 42 H        7.5190     4.2140     0.0090 H     1 <1>   0.0800 
 43 H        7.4900     3.9630     1.7460 H     1 <1>   0.0800 
 44 H        6.0620     3.6400     0.7860 H     1 <1>   0.0800 
@<TRIPOS>BOND
  1   1   2  2   
  2   2   3  1   
  3   2   4  am  
  4   3   5  1   
  5   4   6  1   
  6   4  22  1   
  7   5   7  2   
  8   6   8  1   
  9   6   9  1   
 10   6  23  1   
 11   7  10  1   
 12   7  24  1   
 13   8  11  1   
 14   8  25  1   
 15   8  26  1   
 16   9  12  1   
 17   9  27  1   
 18   9  28  1   
 19  10  13  ar  
 20  10  14  ar  
 21  11  15  1   
 22  11  29  1   
 23  11  30  1   
 24  12  15  1   
 25  12  31  1   
 26  12  32  1   
 27  13  16  ar  
 28  13  33  1   
 29  14  17  ar  
 30  14  34  1   
 31  15  35  1   
 32  15  36  1   
 33  16  18  ar  
 34  16  37  1   
 35  17  18  ar  
 36  17  38  1   
 37  18  19  1   
 38  19  20  1   
 39  19  21  1   
 40  20  39  1   
 41  20  40  1   
 42  20  41  1   
 43  21  42  1   
 44  21  43  1   
 45  21  44  1   
@<TRIPOS>SUBSTRUCTURE
  1 ****   3 GROUP 4 **** **** 0

# MOE 2024.06 (io_trps.svl 2023.06)
