@<TRIPOS>MOLECULE
NONAME
56 58 1 0 0 
SMALL
USER_CHARGES


@<TRIPOS>ATOM
  1 S        0.6320    -0.4360    -1.6140 S.o2  1 <1>   1.4470 
  2 O        1.3310    -0.5870    -2.8720 O.2   1 <1>  -0.6500 
  3 O       -0.1420     0.7600    -1.3650 O.2   1 <1>  -0.6500 
  4 N        1.7990    -0.5290    -0.3910 N.am  1 <1>  -0.8490 
  5 C       -0.4100    -1.8860    -1.2980 C.ar  1 <1>  -0.0090 
  6 C        2.5480     0.7390    -0.2790 C.3   1 <1>   0.1960 
  7 C        2.7500    -1.6400    -0.6050 C.3   1 <1>   0.1960 
  8 C       -0.9460    -2.1090    -0.0370 C.ar  1 <1>  -0.1500 
  9 C       -0.6990    -2.8040    -2.2990 C.ar  1 <1>  -0.1500 
 10 C        3.6000     0.7210     0.8480 C.3   1 <1>   0.2090 
 11 C        3.7830    -1.7610     0.5320 C.3   1 <1>   0.2090 
 12 C       -1.7580    -3.2010     0.2380 C.ar  1 <1>   0.1170 
 13 C       -1.4870    -3.9150    -2.0490 C.ar  1 <1>  -0.1500 
 14 N        4.4930    -0.4740     0.7840 N.pl3 1 <1>  -0.8380 
 15 N       -2.3030    -3.4130     1.5150 N.am  1 <1>  -0.5470 
 16 C       -2.0150    -4.1240    -0.7800 C.ar  1 <1>   0.0830 
 17 C        5.7790    -0.3220     0.2630 C.ar  1 <1>   0.1000 
 18 C       -2.8540    -2.5870     2.4420 C.2   1 <1>   0.5690 
 19 O       -2.7850    -5.2060    -0.4680 O.3   1 <1>  -0.3630 
 20 C        6.9080    -0.4300     1.0830 C.ar  1 <1>  -0.1430 
 21 C        5.9470    -0.0670    -1.0930 C.ar  1 <1>  -0.1500 
 22 O       -3.2720    -3.0410     3.4750 O.2   1 <1>  -0.5700 
 23 C       -2.9910    -1.1010     2.2030 C.3   1 <1>  -0.1790 
 24 C       -3.2060    -6.1230    -1.4540 C.3   1 <1>   0.0400 
 25 C        8.1810    -0.2920     0.5320 C.ar  1 <1>  -0.1430 
 26 C        6.6960    -0.7040     2.5730 C.3   1 <1>  -0.0970 
 27 C        7.2060     0.0760    -1.6360 C.ar  1 <1>  -0.1500 
 28 C        8.3190    -0.0380    -0.8250 C.ar  1 <1>  -0.1500 
 29 C        9.4490    -0.4140     1.3660 C.3   1 <1>  -0.0970 
 30 H        1.8610     1.5450    -0.0810 H     1 <1>   0.0800 
 31 H        3.0390     0.9550    -1.2130 H     1 <1>   0.0800 
 32 H        3.2780    -1.5030    -1.5330 H     1 <1>   0.0800 
 33 H        2.2100    -2.5690    -0.6700 H     1 <1>   0.0800 
 34 H       -0.7090    -1.4120     0.7460 H     1 <1>   0.1500 
 35 H       -0.2990    -2.6510    -3.2890 H     1 <1>   0.1500 
 36 H        3.0950     0.7230     1.7970 H     1 <1>   0.0800 
 37 H        4.1970     1.6150     0.7930 H     1 <1>   0.0800 
 38 H        4.5030    -2.5210     0.2810 H     1 <1>   0.0800 
 39 H        3.2830    -2.0650     1.4340 H     1 <1>   0.0800 
 40 H       -1.6740    -4.6010    -2.8540 H     1 <1>   0.1500 
 41 H       -2.4850    -4.3970     1.7260 H     1 <1>   0.3700 
 42 H        5.0860     0.0170    -1.7260 H     1 <1>   0.1500 
 43 H       -2.0780    -0.6050     2.4680 H     1 <1>   0.0800 
 44 H       -3.7830    -0.7130     2.8160 H     1 <1>   0.0800 
 45 H       -3.2290    -0.9060     1.1740 H     1 <1>   0.0800 
 46 H       -3.8390    -6.8530    -0.9810 H     1 <1>   0.0800 
 47 H       -2.3430    -6.6080    -1.8740 H     1 <1>   0.0800 
 48 H       -3.7600    -5.5950    -2.2100 H     1 <1>   0.0800 
 49 H        5.9480    -0.0360     2.9610 H     1 <1>   0.0800 
 50 H        7.5850    -0.5660     3.1560 H     1 <1>   0.0800 
 51 H        6.3510    -1.7120     2.7030 H     1 <1>   0.0800 
 52 H        7.3230     0.2730    -2.6860 H     1 <1>   0.1500 
 53 H        9.2960     0.0730    -1.2600 H     1 <1>   0.1500 
 54 H        9.4590    -1.3550     1.8850 H     1 <1>   0.0800 
 55 H        9.4940     0.3870     2.0820 H     1 <1>   0.0800 
 56 H       10.3270    -0.3640     0.7480 H     1 <1>   0.0800 
@<TRIPOS>BOND
  1   1   2  2   
  2   1   3  2   
  3   1   4  am  
  4   1   5  1   
  5   4   6  1   
  6   4   7  1   
  7   5   8  ar  
  8   5   9  ar  
  9   6  10  1   
 10   6  30  1   
 11   6  31  1   
 12   7  11  1   
 13   7  32  1   
 14   7  33  1   
 15   8  12  ar  
 16   8  34  1   
 17   9  13  ar  
 18   9  35  1   
 19  10  14  1   
 20  10  36  1   
 21  10  37  1   
 22  11  14  1   
 23  11  38  1   
 24  11  39  1   
 25  12  15  1   
 26  12  16  ar  
 27  13  16  ar  
 28  13  40  1   
 29  14  17  1   
 30  15  18  am  
 31  15  41  1   
 32  16  19  1   
 33  17  20  ar  
 34  17  21  ar  
 35  18  22  2   
 36  18  23  1   
 37  19  24  1   
 38  20  25  ar  
 39  20  26  1   
 40  21  27  ar  
 41  21  42  1   
 42  23  43  1   
 43  23  44  1   
 44  23  45  1   
 45  24  46  1   
 46  24  47  1   
 47  24  48  1   
 48  25  28  ar  
 49  25  29  1   
 50  26  49  1   
 51  26  50  1   
 52  26  51  1   
 53  27  28  ar  
 54  27  52  1   
 55  28  53  1   
 56  29  54  1   
 57  29  55  1   
 58  29  56  1   
@<TRIPOS>SUBSTRUCTURE
  1 ****   7 GROUP 4 **** **** 0

# MOE 2024.06 (io_trps.svl 2023.06)
