@<TRIPOS>MOLECULE
NONAME
42 43 1 0 0 
SMALL
USER_CHARGES


@<TRIPOS>ATOM
  1 O        8.6470    -3.9080    -1.0060 O.3   1 <1>  -0.3630 
  2 C        7.5600    -4.4270    -0.3780 C.ar  1 <1>   0.0830 
  3 C        9.4650    -4.6840    -1.8540 C.3   1 <1>   0.0400 
  4 C        6.8760    -3.6040     0.5080 C.ar  1 <1>  -0.1440 
  5 C        7.1170    -5.7300    -0.5840 C.ar  1 <1>  -0.1500 
  6 C        5.7570    -4.0870     1.1620 C.ar  1 <1>  -0.1500 
  7 C        7.3520    -2.1800     0.7610 C.3   1 <1>  -0.0960 
  8 C        5.9980    -6.2170     0.0730 C.ar  1 <1>  -0.1430 
  9 C        5.3040    -5.3810     0.9430 C.ar  1 <1>  -0.1430 
 10 C        5.5820    -7.6620    -0.1860 C.3   1 <1>  -0.0970 
 11 C        4.0450    -5.8320     1.6580 C.3   1 <1>   0.4860 
 12 N        2.9220    -5.7950     0.6810 N.4   1 <1>  -0.9590 
 13 C        2.6400    -4.3980     0.2250 C.3   1 <1>   0.3430 
 14 C        1.7130    -6.4900     1.2090 C.3   1 <1>   0.3430 
 15 C        1.5680    -4.4130    -0.8610 C.3   1 <1>  -0.1600 
 16 C        0.6310    -6.5360     0.1340 C.3   1 <1>  -0.1600 
 17 C        0.3170    -5.1250    -0.3550 C.3   1 <1>   0.2000 
 18 O       -0.5890    -5.2080    -1.3830 O.3   1 <1>  -0.6800 
 19 H       10.2730    -4.0630    -2.1960 H     1 <1>   0.0800 
 20 H        8.8820    -5.0190    -2.6930 H     1 <1>   0.0800 
 21 H        9.8560    -5.5160    -1.2960 H     1 <1>   0.0800 
 22 H        7.6450    -6.3760    -1.2590 H     1 <1>   0.1500 
 23 H        5.2410    -3.4390     1.8490 H     1 <1>   0.1500 
 24 H        8.3590    -2.1970     1.1390 H     1 <1>   0.0800 
 25 H        6.7280    -1.6740     1.4750 H     1 <1>   0.0800 
 26 H        7.3440    -1.6230    -0.1590 H     1 <1>   0.0800 
 27 H        6.3850    -8.2070    -0.6520 H     1 <1>   0.0800 
 28 H        4.7340    -7.6990    -0.8450 H     1 <1>   0.0800 
 29 H        5.3470    -8.1650     0.7340 H     1 <1>   0.0800 
 30 H        3.8400    -5.1840     2.4930 H     1 <1>   0.0800 
 31 H        4.1870    -6.8340     2.0290 H     1 <1>   0.0800 
 32 H        3.2670    -6.3020    -0.1420 H     1 <1>   0.4500 
 33 H        3.5370    -3.9480    -0.1720 H     1 <1>   0.0800 
 34 H        2.3020    -3.8010     1.0570 H     1 <1>   0.0800 
 35 H        1.3370    -5.9640     2.0730 H     1 <1>   0.0800 
 36 H        1.9630    -7.4960     1.5080 H     1 <1>   0.0800 
 37 H        1.9570    -4.9010    -1.7370 H     1 <1>   0.0800 
 38 H        1.3200    -3.3980    -1.1200 H     1 <1>   0.0800 
 39 H       -0.2600    -6.9720     0.5520 H     1 <1>   0.0800 
 40 H        0.9620    -7.1560    -0.6800 H     1 <1>   0.0800 
 41 H       -0.1470    -4.5510     0.4320 H     1 <1>   0.0800 
 42 H       -0.2290    -5.6900    -2.1530 H     1 <1>   0.4000 
@<TRIPOS>BOND
  1   1   2  1   
  2   1   3  1   
  3   2   4  ar  
  4   2   5  ar  
  5   3  19  1   
  6   3  20  1   
  7   3  21  1   
  8   4   6  ar  
  9   4   7  1   
 10   5   8  ar  
 11   5  22  1   
 12   6   9  ar  
 13   6  23  1   
 14   7  24  1   
 15   7  25  1   
 16   7  26  1   
 17   8   9  ar  
 18   8  10  1   
 19   9  11  1   
 20  10  27  1   
 21  10  28  1   
 22  10  29  1   
 23  11  12  1   
 24  11  30  1   
 25  11  31  1   
 26  12  13  1   
 27  12  14  1   
 28  12  32  1   
 29  13  15  1   
 30  13  33  1   
 31  13  34  1   
 32  14  16  1   
 33  14  35  1   
 34  14  36  1   
 35  15  17  1   
 36  15  37  1   
 37  15  38  1   
 38  16  17  1   
 39  16  39  1   
 40  16  40  1   
 41  17  18  1   
 42  17  41  1   
 43  18  42  1   
@<TRIPOS>SUBSTRUCTURE
  1 ****   9 GROUP 4 **** **** 0

# MOE 2024.06 (io_trps.svl 2023.06)
