@<TRIPOS>MOLECULE
NONAME
39 40 1 0 0 
SMALL
USER_CHARGES


@<TRIPOS>ATOM
  1 O        0.7590     5.0720    -0.6510 O.3   1 <1>  -0.5600 
  2 C        0.2710     6.2970    -0.1970 C.3   1 <1>   0.2000 
  3 C        1.9910     5.2490    -1.2840 C.3   1 <1>   0.1200 
  4 C        1.5140     7.0670     0.2240 C.3   1 <1>  -0.1600 
  5 C       -0.7440     6.0430     0.9320 C.3   1 <1>   0.3430 
  6 C        2.5660     6.5600    -0.7490 C.3   1 <1>  -0.1600 
  7 N       -1.5220     4.8180     0.6190 N.4   1 <1>  -0.9060 
  8 C       -2.1840     4.1630     1.7570 C.3   1 <1>   0.4860 
  9 C       -3.0160     3.0290     1.2000 C.ar  1 <1>  -0.1430 
 10 C       -4.0590     3.2980     0.3180 C.ar  1 <1>   0.0830 
 11 C       -2.7430     1.7210     1.5710 C.ar  1 <1>  -0.1500 
 12 O       -4.2710     4.5980    -0.0240 O.3   1 <1>  -0.3630 
 13 C       -4.8250     2.2470    -0.1810 C.ar  1 <1>  -0.1500 
 14 C       -3.5080     0.6830     1.0700 C.ar  1 <1>  -0.1500 
 15 C       -5.4040     4.9820    -0.7730 C.3   1 <1>   0.1200 
 16 C       -4.5480     0.9460     0.1970 C.ar  1 <1>  -0.1500 
 17 C       -5.3850     6.5020    -0.9100 C.3   1 <1>  -0.2400 
 18 H       -0.2040     6.7860    -1.0320 H     1 <1>   0.0800 
 19 H        1.8250     5.2990    -2.3470 H     1 <1>   0.0800 
 20 H        2.6210     4.4070    -1.0510 H     1 <1>   0.0800 
 21 H        1.7940     6.8060     1.2300 H     1 <1>   0.0800 
 22 H        1.3750     8.1320     0.1570 H     1 <1>   0.0800 
 23 H       -1.3920     6.8950     1.0560 H     1 <1>   0.0800 
 24 H       -0.1960     5.8970     1.8480 H     1 <1>   0.0800 
 25 H        2.7030     7.2500    -1.5650 H     1 <1>   0.0800 
 26 H        3.5150     6.4030    -0.2680 H     1 <1>   0.0800 
 27 H       -0.8650     4.1680     0.1570 H     1 <1>   0.4500 
 28 H       -2.2610     4.9980    -0.0770 H     1 <1>   0.4500 
 29 H       -2.8320     4.8610     2.2630 H     1 <1>   0.0800 
 30 H       -1.4540     3.7870     2.4540 H     1 <1>   0.0800 
 31 H       -1.9410     1.4910     2.2520 H     1 <1>   0.1500 
 32 H       -5.6380     2.4140    -0.8620 H     1 <1>   0.1500 
 33 H       -3.2970    -0.3340     1.3590 H     1 <1>   0.1500 
 34 H       -6.2880     4.6590    -0.2490 H     1 <1>   0.0800 
 35 H       -5.3550     4.5140    -1.7410 H     1 <1>   0.0800 
 36 H       -5.1410     0.1340    -0.1900 H     1 <1>   0.1500 
 37 H       -5.4220     6.9650     0.0600 H     1 <1>   0.0800 
 38 H       -6.2460     6.8220    -1.4690 H     1 <1>   0.0800 
 39 H       -4.5030     6.8210    -1.4340 H     1 <1>   0.0800 
@<TRIPOS>BOND
  1   1   2  1   
  2   1   3  1   
  3   2   4  1   
  4   2   5  1   
  5   2  18  1   
  6   3   6  1   
  7   3  19  1   
  8   3  20  1   
  9   4   6  1   
 10   4  21  1   
 11   4  22  1   
 12   5   7  1   
 13   5  23  1   
 14   5  24  1   
 15   6  25  1   
 16   6  26  1   
 17   7   8  1   
 18   7  27  1   
 19   7  28  1   
 20   8   9  1   
 21   8  29  1   
 22   8  30  1   
 23   9  10  ar  
 24   9  11  ar  
 25  10  12  1   
 26  10  13  ar  
 27  11  14  ar  
 28  11  31  1   
 29  12  15  1   
 30  13  16  ar  
 31  13  32  1   
 32  14  16  ar  
 33  14  33  1   
 34  15  17  1   
 35  15  34  1   
 36  15  35  1   
 37  16  36  1   
 38  17  37  1   
 39  17  38  1   
 40  17  39  1   
@<TRIPOS>SUBSTRUCTURE
  1 ****   7 GROUP 4 **** **** 0

# MOE 2024.06 (io_trps.svl 2023.06)
